REMARK  13 active torsions:
REMARK  status: ('A' for Active; 'I' for Inactive)
REMARK    1  A    between atoms: C2_2  and  N1_3 
REMARK    2  A    between atoms: N1_3  and  C3_5 
REMARK    3  A    between atoms: C3_5  and  N2_7 
REMARK    4  A    between atoms: N2_7  and  C4_9 
REMARK    5  A    between atoms: C4_9  and  C5_10 
REMARK    6  A    between atoms: C5_10  and  C6_11 
REMARK    7  A    between atoms: C6_11  and  N3_12 
REMARK    8  A    between atoms: N4_15  and  C9_16 
REMARK    9  A    between atoms: C9_16  and  O1_17 
REMARK   10  A    between atoms: C9_16  and  N5_19 
REMARK   11  A    between atoms: C14_24  and  C15_25 
REMARK       I    between atoms: C15_25  and  N6_27 
REMARK   12  A    between atoms: N6_27  and  C16_29 
REMARK   13  A    between atoms: C16_29  and  C17_30 
ROOT
HETATM    1  C9  UNL     1      -0.500   0.250  -0.479  1.00  0.00     0.219 C 
ENDROOT
BRANCH   1   2
HETATM    2  N4  UNL     1       0.836   0.346  -0.866  1.00  0.00    -0.330 N 
HETATM    3  C8  UNL     1       1.471   1.619  -1.278  1.00  0.00     0.148 C 
HETATM    4  C7  UNL     1       2.913   1.473  -0.753  1.00  0.00     0.143 C 
HETATM    5  N3  UNL     1       3.072   0.155  -0.409  1.00  0.00    -0.372 N 
HETATM    6  C22 UNL     1       1.910  -0.576  -0.942  1.00  0.00     0.252 C 
BRANCH   5   7
HETATM    7  C6  UNL     1       3.524  -0.264   0.823  1.00  0.00     0.088 C 
BRANCH   7   8
HETATM    8  C5  UNL     1       4.925  -0.179   1.278  1.00  0.00     0.034 C 
BRANCH   8   9
HETATM    9  C4  UNL     1       5.664   1.067   1.399  1.00  0.00     0.092 C 
BRANCH   9  10
HETATM   10  N2  UNL     1       5.950   1.909   0.308  1.00  0.00    -0.343 N 
ATOM     11  H2  UNL     1       5.436   2.787   0.374  1.00  0.00     0.167 HD
BRANCH  10  12
HETATM   12  C3  UNL     1       6.733   1.873  -0.824  1.00  0.00     0.171 C 
HETATM   13  S1  UNL     1       6.611   3.292  -1.782  1.00  0.00    -0.041 SA
BRANCH  12  14
HETATM   14  N1  UNL     1       7.598   0.948  -1.359  1.00  0.00    -0.367 N 
ATOM     15  H1  UNL     1       8.025   1.236  -2.239  1.00  0.00     0.161 HD
BRANCH  14  16
HETATM   16  C2  UNL     1       8.007  -0.345  -0.905  1.00  0.00     0.117 C 
HETATM   17  C1  UNL     1       8.865  -0.261   0.305  1.00  0.00     0.026 C 
ENDBRANCH  14  16
ENDBRANCH  12  14
ENDBRANCH  10  12
ENDBRANCH   9  10
ENDBRANCH   8   9
ENDBRANCH   7   8
ENDBRANCH   5   7
ENDBRANCH   1   2
BRANCH   1  18
HETATM   18  O1  UNL     1      -1.103   1.408  -0.419  1.00  0.00    -0.332 OA
ATOM     19  H1  UNL     1      -2.013   1.343  -0.155  1.00  0.00     0.220 HD
ENDBRANCH   1  18
BRANCH   1  20
HETATM   20  N5  UNL     1      -1.273  -0.874  -0.150  1.00  0.00    -0.333 N 
HETATM   21  C10 UNL     1      -0.888  -2.294  -0.285  1.00  0.00     0.132 C 
HETATM   22  C11 UNL     1      -1.070  -2.748   1.126  1.00  0.00     0.011 A 
HETATM   23  C12 UNL     1      -2.368  -3.291   1.594  1.00  0.00     0.014 A 
HETATM   24  C13 UNL     1      -2.223  -1.840   1.669  1.00  0.00     0.024 A 
HETATM   25  C14 UNL     1      -2.593  -1.033   0.412  1.00  0.00     0.184 C 
BRANCH  25  26
HETATM   26  C15 UNL     1      -3.378   0.120   0.742  1.00  0.00     0.241 C 
HETATM   27  O2  UNL     1      -2.945   1.076   1.416  1.00  0.00    -0.271 OA
HETATM   28  N6  UNL     1      -4.733   0.213   0.291  1.00  0.00    -0.359 N 
ATOM     29  H6  UNL     1      -5.120  -0.556  -0.257  1.00  0.00     0.162 HD
BRANCH  28  30
HETATM   30  C16 UNL     1      -5.568   1.341   0.577  1.00  0.00     0.127 C 
BRANCH  30  31
HETATM   31  C17 UNL     1      -6.938   1.176  -0.037  1.00  0.00     0.003 C 
HETATM   32  C18 UNL     1      -7.661  -0.034   0.461  1.00  0.00     0.006 C 
HETATM   33  C19 UNL     1      -8.639  -0.397  -0.618  1.00  0.00     0.000 C 
HETATM   34  C20 UNL     1      -8.185   0.324  -1.862  1.00  0.00     0.000 C 
HETATM   35  C21 UNL     1      -6.886   0.999  -1.524  1.00  0.00     0.006 C 
ENDBRANCH  30  31
ENDBRANCH  28  30
ENDBRANCH  25  26
ENDBRANCH   1  20
TORSDOF 13
