REMARK  3 active torsions:
REMARK  status: ('A' for Active; 'I' for Inactive)
REMARK    1  A    between atoms: O1_2  and  C2_3 
REMARK    2  A    between atoms: C3_4  and  O2_5 
REMARK    3  A    between atoms: C7_12  and  C8_13 
ROOT
HETATM    1  C2  UNL     1      -1.653   0.283  -0.705  1.00  0.00     0.111 A 
HETATM    2  C3  UNL     1      -2.911  -0.135  -1.059  1.00  0.00     0.117 A 
HETATM    3  C4  UNL     1      -3.276  -1.429  -0.810  1.00  0.00     0.048 A 
HETATM    4 BR1  UNL     1      -5.041  -2.039  -1.284  1.00  0.00    -0.048 Br
HETATM    5  C5  UNL     1      -2.375  -2.272  -0.214  1.00  0.00     0.049 A 
HETATM    6  C6  UNL     1      -1.084  -1.817   0.140  1.00  0.00     0.057 A 
HETATM    7  N1  UNL     1      -0.185  -2.722   0.731  1.00  0.00    -0.102 NA
HETATM    8  C7  UNL     1      -0.707  -0.530  -0.102  1.00  0.00     0.006 A 
ENDROOT
BRANCH   8   9
HETATM    9  C8  UNL     1       0.596   0.018   0.196  1.00  0.00     0.023 C 
HETATM   10  C9  UNL     1       1.466  -0.697   1.174  1.00  0.00     0.009 C 
HETATM   11  C10 UNL     1       2.510   0.360   1.613  1.00  0.00     0.001 C 
HETATM   12  C11 UNL     1       3.346   0.793   0.449  1.00  0.00     0.000 C 
HETATM   13  C12 UNL     1       2.523   1.154  -0.763  1.00  0.00     0.001 C 
HETATM   14  C13 UNL     1       1.465   0.131  -1.082  1.00  0.00     0.009 C 
ENDBRANCH   8   9
BRANCH   1  15
HETATM   15  O1  UNL     1      -1.282   1.617  -0.964  1.00  0.00    -0.352 OA
HETATM   16  C1  UNL     1      -1.635   2.525   0.093  1.00  0.00     0.210 C 
ENDBRANCH   1  15
BRANCH   2  17
HETATM   17  O2  UNL     1      -3.799   0.774  -1.671  1.00  0.00    -0.357 OA
ATOM     18  H2  UNL     1      -4.670   0.485  -1.916  1.00  0.00     0.218 HD
ENDBRANCH   2  17
TORSDOF 3
