REMARK  14 active torsions:
REMARK  status: ('A' for Active; 'I' for Inactive)
REMARK    1  A    between atoms: C2_2  and  C3_3 
REMARK    2  A    between atoms: C4_4  and  N1_5 
REMARK    3  A    between atoms: N1_5  and  C5_6 
REMARK    4  A    between atoms: N1_5  and  C7_10 
REMARK    5  A    between atoms: C5_6  and  C6_7 
REMARK    6  A    between atoms: C6_7  and  O1_8 
REMARK    7  A    between atoms: C9_14  and  N3_15 
REMARK    8  A    between atoms: C10_20  and  N5_21 
REMARK    9  A    between atoms: N5_21  and  C11_23 
REMARK   10  A    between atoms: C11_23  and  C12_24 
REMARK   11  A    between atoms: C12_24  and  N6_25 
REMARK   12  A    between atoms: N6_25  and  N7_26 
REMARK   13  A    between atoms: C14_32  and  N9_33 
REMARK   14  A    between atoms: N9_33  and  O2_35 
ROOT
HETATM    1  C7  UNL     1      -1.476  -0.645  -0.043  1.00  0.00     0.686 A 
HETATM    2  N2  UNL     1      -0.720  -0.382  -1.131  1.00  0.00    -0.185 N 
ATOM      3  H2  UNL     1      -1.173  -0.408  -2.045  1.00  0.00     0.184 HD
HETATM    4  C8  UNL     1       0.597  -0.087  -1.087  1.00  0.00     0.124 A 
HETATM    5  C9  UNL     1       1.289   0.078  -2.294  1.00  0.00     0.144 A 
HETATM    6  N4  UNL     1       2.658   0.275  -2.140  1.00  0.00    -0.175 N 
ATOM      7  H4  UNL     1       3.221   0.401  -2.981  1.00  0.00     0.186 HD
HETATM    8  C10 UNL     1       3.268   0.309  -0.979  1.00  0.00     0.684 A 
HETATM    9  N8  UNL     1       2.544   0.157   0.132  1.00  0.00    -0.185 N 
ATOM     10  H8  UNL     1       3.016   0.193   1.035  1.00  0.00     0.184 HD
HETATM   11  C13 UNL     1       1.217  -0.042   0.104  1.00  0.00     0.126 A 
HETATM   12  C14 UNL     1       0.492  -0.290   1.239  1.00  0.00     0.170 A 
HETATM   13  N10 UNL     1      -0.828  -0.584   1.147  1.00  0.00    -0.172 N 
ATOM     14  H10 UNL     1      -1.352  -0.766   2.003  1.00  0.00     0.186 HD
ENDROOT
BRANCH   1  15
HETATM   15  N1  UNL     1      -2.829  -1.097  -0.066  1.00  0.00    -0.191 N 
BRANCH  15  16
HETATM   16  C4  UNL     1      -3.587  -1.224  -1.235  1.00  0.00     0.108 C 
HETATM   17  C3  UNL     1      -4.828  -0.613  -1.636  1.00  0.00     0.013 C 
BRANCH  17  18
HETATM   18  C2  UNL     1      -5.075   0.801  -1.930  1.00  0.00    -0.030 C 
HETATM   19  C1  UNL     1      -4.949   1.854  -0.903  1.00  0.00     0.036 C 
ENDBRANCH  17  18
ENDBRANCH  15  16
BRANCH  15  20
HETATM   20  C5  UNL     1      -3.381  -1.550   1.226  1.00  0.00     0.172 C 
BRANCH  20  21
HETATM   21  C6  UNL     1      -4.331  -0.615   1.877  1.00  0.00     0.185 C 
BRANCH  21  22
HETATM   22  O1  UNL     1      -4.715  -1.225   3.097  1.00  0.00    -0.399 OA
ATOM     23  H1  UNL     1      -5.323  -0.626   3.514  1.00  0.00     0.209 HD
ENDBRANCH  21  22
ENDBRANCH  20  21
ENDBRANCH  15  20
ENDBRANCH   1  15
BRANCH  12  24
HETATM   24  N9  UNL     1       1.055  -0.256   2.393  1.00  0.00    -0.251 N 
ATOM     25  H9  UNL     1       2.050  -0.035   2.421  1.00  0.00     0.196 HD
BRANCH  24  26
HETATM   26  O2  UNL     1       0.452  -0.484   3.548  1.00  0.00    -0.288 OA
ATOM     27  H2  UNL     1       0.868  -0.459   4.402  1.00  0.00     0.244 HD
ENDBRANCH  24  26
ENDBRANCH  12  24
BRANCH   5  28
HETATM   28  N3  UNL     1       0.754   0.033  -3.385  1.00  0.00    -0.383 N 
ATOM     29  H32 UNL     1      -0.249  -0.111  -3.498  1.00  0.00     0.157 HD
ATOM     30  H31 UNL     1       1.258   0.153  -4.264  1.00  0.00     0.157 HD
ENDBRANCH   5  28
BRANCH   8  31
HETATM   31  N5  UNL     1       4.587   0.371  -0.889  1.00  0.00    -0.204 N 
ATOM     32  H5  UNL     1       5.150   0.389  -1.739  1.00  0.00     0.183 HD
BRANCH  31  33
HETATM   33  C11 UNL     1       5.216   0.412   0.356  1.00  0.00     0.096 C 
BRANCH  33  34
HETATM   34  C12 UNL     1       6.715   0.132   0.287  1.00  0.00     0.179 C 
BRANCH  34  35
HETATM   35  N6  UNL     1       7.327   1.093  -0.643  1.00  0.00    -0.143 NA
BRANCH  35  36
HETATM   36  N7  UNL     1       8.406   1.746   0.081  1.00  0.00    -0.348 N 
ATOM     37  H72 UNL     1       8.675   1.562   1.048  1.00  0.00     0.172 HD
ATOM     38  H71 UNL     1       8.830   2.412  -0.564  1.00  0.00     0.172 HD
ENDBRANCH  35  36
ENDBRANCH  34  35
ENDBRANCH  33  34
ENDBRANCH  31  33
ENDBRANCH   8  31
TORSDOF 14
