REMARK  9 active torsions:
REMARK  status: ('A' for Active; 'I' for Inactive)
REMARK    1  A    between atoms: N1_1  and  C1_4 
REMARK    2  A    between atoms: N5_15  and  C5_16 
REMARK    3  A    between atoms: C8_19  and  C9_20 
REMARK    4  A    between atoms: C9_20  and  N6_21 
REMARK    5  A    between atoms: N6_21  and  C10_24 
REMARK    6  A    between atoms: C10_24  and  C11_25 
REMARK    7  A    between atoms: C11_25  and  C12_26 
REMARK    8  A    between atoms: C12_26  and  C13_27 
REMARK    9  A    between atoms: C13_27  and  N7_28 
REMARK       I    between atoms: N7_28  and  C14_31 
REMARK       I    between atoms: C14_31  and  N8_32 
REMARK       I    between atoms: C14_31  and  N9_36 
ROOT
HETATM    1  C5  UNL     1      -2.905  -0.365   0.349  1.00  0.00     0.231 C 
HETATM    2  C6  UNL     1      -2.662  -0.951  -0.987  1.00  0.00     0.057 C 
HETATM    3  C7  UNL     1      -1.153  -1.150  -1.015  1.00  0.00     0.038 C 
HETATM    4  C8  UNL     1      -0.669  -0.157  -0.015  1.00  0.00     0.150 C 
HETATM    5  O1  UNL     1      -1.728   0.233   0.726  1.00  0.00    -0.359 OA
ENDROOT
BRANCH   4   6
HETATM    6  C9  UNL     1       0.417  -0.677   0.899  1.00  0.00     0.264 C 
BRANCH   6   7
HETATM    7  N6  UNL     1       1.599  -1.122   0.199  1.00  0.00    -0.073 N 
ATOM      8  H62 UNL     1       2.200  -1.658   0.825  1.00  0.00     0.277 HD
ATOM      9  H61 UNL     1       1.358  -1.846  -0.477  1.00  0.00     0.277 HD
BRANCH   7  10
HETATM   10  C10 UNL     1       2.346  -0.079  -0.435  1.00  0.00     0.232 C 
BRANCH  10  11
HETATM   11  C11 UNL     1       3.014   0.869   0.530  1.00  0.00     0.029 C 
BRANCH  11  12
HETATM   12  C12 UNL     1       3.965   0.110   1.402  1.00  0.00     0.029 C 
BRANCH  12  13
HETATM   13  C13 UNL     1       5.068  -0.591   0.660  1.00  0.00     0.237 C 
BRANCH  13  14
HETATM   14  N7  UNL     1       5.887   0.346  -0.098  1.00  0.00    -0.022 N 
HETATM   15  C14 UNL     1       6.972  -0.352  -0.779  1.00  0.00     0.575 C 
HETATM   16  N8  UNL     1       7.707   0.652  -1.545  1.00  0.00    -0.026 N 
HETATM   17  N9  UNL     1       7.842  -0.975   0.210  1.00  0.00    -0.026 N 
ATOM     18  H83 UNL     1       7.114   1.187  -2.179  1.00  0.00     0.278 HD
ATOM     19  H82 UNL     1       8.028   1.435  -0.976  1.00  0.00     0.278 HD
ATOM     20  H81 UNL     1       8.466   0.164  -2.021  1.00  0.00     0.278 HD
ATOM     21  H93 UNL     1       8.186  -0.305   0.898  1.00  0.00     0.278 HD
ATOM     22  H92 UNL     1       7.329  -1.586   0.846  1.00  0.00     0.278 HD
ATOM     23  H91 UNL     1       8.601  -1.463  -0.266  1.00  0.00     0.278 HD
ATOM     24  H72 UNL     1       5.327   0.899  -0.747  1.00  0.00     0.281 HD
ATOM     25  H71 UNL     1       6.235   1.105   0.489  1.00  0.00     0.281 HD
ENDBRANCH  13  14
ENDBRANCH  12  13
ENDBRANCH  11  12
ENDBRANCH  10  11
ENDBRANCH   7  10
ENDBRANCH   6   7
ENDBRANCH   4   6
BRANCH   1  26
HETATM   26  N5  UNL     1      -3.940   0.654   0.363  1.00  0.00    -0.299 N 
HETATM   27  C4  UNL     1      -3.680   1.969   0.466  1.00  0.00     0.188 A 
HETATM   28  N4  UNL     1      -4.839   2.680   0.446  1.00  0.00    -0.346 N 
HETATM   29  C3  UNL     1      -5.809   1.782   0.330  1.00  0.00     0.123 A 
ATOM     30  H4  UNL     1      -4.941   3.693   0.507  1.00  0.00     0.167 HD
HETATM   31  C2  UNL     1      -7.182   1.928   0.261  1.00  0.00     0.145 A 
HETATM   32  C15 UNL     1      -5.275   0.516   0.277  1.00  0.00     0.157 A 
HETATM   33  N2  UNL     1      -7.906   0.802   0.145  1.00  0.00    -0.175 N 
HETATM   34  N3  UNL     1      -7.725   3.098   0.309  1.00  0.00    -0.383 N 
HETATM   35  C1  UNL     1      -7.360  -0.431   0.095  1.00  0.00     0.679 A 
ATOM     36  H2  UNL     1      -8.921   0.884   0.092  1.00  0.00     0.186 HD
HETATM   37  N10 UNL     1      -6.018  -0.592   0.161  1.00  0.00    -0.174 N 
ATOM     38  H10 UNL     1      -5.591  -1.517   0.124  1.00  0.00     0.186 HD
ATOM     39  H32 UNL     1      -8.738   3.206   0.258  1.00  0.00     0.157 HD
ATOM     40  H31 UNL     1      -7.175   3.953   0.397  1.00  0.00     0.157 HD
BRANCH  35  41
HETATM   41  N1  UNL     1      -8.105  -1.462  -0.017  1.00  0.00    -0.234 N 
ATOM     42  H12 UNL     1      -9.117  -1.341  -0.067  1.00  0.00     0.174 HD
ATOM     43  H11 UNL     1      -7.692  -2.394  -0.055  1.00  0.00     0.174 HD
ENDBRANCH  35  41
ENDBRANCH   1  26
TORSDOF 9
