REMARK  3 active torsions:
REMARK  status: ('A' for Active; 'I' for Inactive)
REMARK    1  A    between atoms: N1_1  and  N2_4 
REMARK    2  A    between atoms: N2_4  and  N3_5 
REMARK    3  A    between atoms: N3_5  and  C1_7 
ROOT
HETATM    1  C1  UNL     1      -1.667  -0.073  -0.383  1.00  0.00     0.103 A 
HETATM    2  C2  UNL     1      -0.626   0.755  -0.750  1.00  0.00     0.067 A 
HETATM    3  C3  UNL     1       0.693   0.470  -0.405  1.00  0.00     0.063 A 
HETATM    4  N4  UNL     1       1.857   1.106  -0.638  1.00  0.00    -0.331 N 
ATOM      5  H4  UNL     1       1.984   1.979  -1.150  1.00  0.00     0.168 HD
HETATM    6  C4  UNL     1       2.826   0.358  -0.058  1.00  0.00     0.176 A 
HETATM    7  S1  UNL     1       4.436   0.690  -0.049  1.00  0.00    -0.041 SA
HETATM    8  N5  UNL     1       2.296  -0.717   0.526  1.00  0.00    -0.331 N 
ATOM      9  H5  UNL     1       2.811  -1.438   1.031  1.00  0.00     0.168 HD
HETATM   10  C5  UNL     1       0.950  -0.687   0.332  1.00  0.00     0.064 A 
HETATM   11  C6  UNL     1      -0.102  -1.501   0.689  1.00  0.00     0.076 A 
HETATM   12  C7  UNL     1      -1.417  -1.215   0.343  1.00  0.00     0.147 A 
HETATM   13  F1  UNL     1      -2.406  -2.064   0.729  1.00  0.00    -0.204 F 
ENDROOT
BRANCH   1  14
HETATM   14  N3  UNL     1      -3.023   0.195  -0.723  1.00  0.00    -0.214 N 
ATOM     15  H3  UNL     1      -3.441  -0.294  -1.514  1.00  0.00     0.204 HD
BRANCH  14  16
HETATM   16  N2  UNL     1      -3.705   1.000  -0.089  1.00  0.00    -0.243 NA
BRANCH  16  17
HETATM   17  N1  UNL     1      -4.159   1.902   0.649  1.00  0.00    -0.260 N 
ATOM     18  H12 UNL     1      -3.218   2.154   0.950  1.00  0.00     0.193 HD
ATOM     19  H11 UNL     1      -4.724   2.569   1.174  1.00  0.00     0.193 HD
ENDBRANCH  16  17
ENDBRANCH  14  16
ENDBRANCH   1  14
TORSDOF 3
