REMARK  1 active torsions:
REMARK  status: ('A' for Active; 'I' for Inactive)
REMARK    1  A    between atoms: C6_6  and  N1_7 
ROOT
HETATM    1  C1  UNL     1      -1.547  -0.852   0.476  1.00  0.00     0.017 C 
HETATM    2  C2  UNL     1      -0.497   0.134   0.035  1.00  0.00    -0.019 C 
HETATM    3  C3  UNL     1      -0.871   1.546   0.320  1.00  0.00     0.017 C 
HETATM    4  C4  UNL     1      -0.016  -0.139  -1.393  1.00  0.00     0.013 C 
HETATM    5  C5  UNL     1       0.938  -1.161  -0.758  1.00  0.00     0.034 C 
HETATM    6  C6  UNL     1       0.905  -0.277   0.484  1.00  0.00     0.191 C 
ENDROOT
BRANCH   6   7
HETATM    7  N1  UNL     1       1.896   0.756   0.395  1.00  0.00    -0.074 N 
ATOM      8  H13 UNL     1       1.926   1.135  -0.552  1.00  0.00     0.274 HD
ATOM      9  H12 UNL     1       1.590   1.583   0.908  1.00  0.00     0.274 HD
ATOM     10  H11 UNL     1       2.832   0.482   0.695  1.00  0.00     0.274 HD
ENDBRANCH   6   7
TORSDOF 1
