REMARK  2 active torsions:
REMARK  status: ('A' for Active; 'I' for Inactive)
REMARK    1  A    between atoms: C3_5  and  C4_7 
REMARK    2  A    between atoms: C5_8  and  C6_9 
ROOT
HETATM    1  C1  UNL     1       1.215   2.859   3.432  1.00  0.00     0.037 C 
HETATM    2  C2  UNL     1       1.439   2.156   2.501  1.00  0.00     0.000 C 
HETATM    3  N1  UNL     1       1.691   1.298   1.409  1.00  0.00    -0.303 N 
ATOM      4  H1  UNL     1       2.669   1.067   1.236  1.00  0.00     0.177 HD
HETATM    5  C3  UNL     1       0.859   0.788   0.629  1.00  0.00     0.135 C 
HETATM    6  N2  UNL     1      -0.429   1.351   1.187  1.00  0.00    -0.081 NA
ENDROOT
BRANCH   5   7
HETATM    7  C4  UNL     1       0.749  -0.116  -0.498  1.00  0.00     0.030 A 
HETATM    8  C5  UNL     1      -0.553  -0.348  -0.950  1.00  0.00    -0.009 A 
HETATM    9  C14 UNL     1      -0.773  -1.558  -1.579  1.00  0.00     0.015 A 
HETATM   10  C15 UNL     1       0.142  -2.524  -1.795  1.00  0.00     0.033 A 
HETATM   11  C16 UNL     1       1.416  -2.297  -1.372  1.00  0.00     0.060 A 
HETATM   12  N5  UNL     1       2.384  -3.192  -1.534  1.00  0.00    -0.299 N 
HETATM   13  C23 UNL     1       1.714  -1.065  -0.730  1.00  0.00     0.019 A 
HETATM   14  N6  UNL     1       3.621  -3.055  -1.178  1.00  0.00    -0.300 N 
ATOM     15  H5  UNL     1       2.128  -4.072  -1.982  1.00  0.00     0.187 HD
HETATM   16  C17 UNL     1       3.972  -1.873  -0.593  1.00  0.00     0.059 A 
ATOM     17  H6  UNL     1       4.304  -3.798  -1.328  1.00  0.00     0.187 HD
HETATM   18  C18 UNL     1       5.303  -1.610  -0.402  1.00  0.00     0.032 A 
HETATM   19  C22 UNL     1       3.035  -0.864  -0.372  1.00  0.00     0.005 A 
HETATM   20  C19 UNL     1       5.743  -0.367  -0.019  1.00  0.00     0.002 A 
HETATM   21  C20 UNL     1       4.821   0.634   0.168  1.00  0.00     0.001 A 
HETATM   22  C21 UNL     1       3.470   0.373  -0.017  1.00  0.00     0.014 A 
BRANCH   8  23
HETATM   23  C6  UNL     1      -1.659   0.584  -0.993  1.00  0.00     0.005 A 
HETATM   24  C7  UNL     1      -1.744   1.755  -1.731  1.00  0.00     0.101 A 
HETATM   25  N3  UNL     1      -2.959   2.238  -1.628  1.00  0.00    -0.364 N 
HETATM   26  C8  UNL     1      -3.716   1.438  -0.841  1.00  0.00     0.046 A 
ATOM     27  H3  UNL     1      -3.286   3.094  -2.076  1.00  0.00     0.165 HD
HETATM   28  C9  UNL     1      -5.027   1.524  -0.432  1.00  0.00     0.047 A 
HETATM   29  C13 UNL     1      -2.899   0.368  -0.419  1.00  0.00     0.025 A 
HETATM   30  C10 UNL     1      -5.518   0.545   0.398  1.00  0.00     0.090 A 
HETATM   31  N4  UNL     1      -4.754  -0.473   0.810  1.00  0.00    -0.369 N 
HETATM   32  C11 UNL     1      -3.458  -0.599   0.432  1.00  0.00     0.018 A 
ATOM     33  H4  UNL     1      -5.159  -1.176   1.428  1.00  0.00     0.165 HD
HETATM   34  C12 UNL     1      -2.635  -1.710   0.972  1.00  0.00     0.069 C 
ENDBRANCH   8  23
ENDBRANCH   5   7
TORSDOF 2
