REMARK  2 active torsions:
REMARK  status: ('A' for Active; 'I' for Inactive)
REMARK    1  A    between atoms: C4_4  and  N1_5 
REMARK       I    between atoms: N1_5  and  C5_7 
REMARK    2  A    between atoms: C5_7  and  C6_9 
ROOT
HETATM    1  C1  UNL     1       1.592   1.479  -1.373  1.00  0.00     0.049 C 
HETATM    2  C2  UNL     1       1.482   0.567  -0.169  1.00  0.00    -0.045 A 
HETATM    3  C3  UNL     1       0.251   0.648   0.505  1.00  0.00     0.056 A 
HETATM    4  C4  UNL     1       0.161   0.378   1.848  1.00  0.00     0.108 A 
HETATM    5  N2  UNL     1       1.270   0.042   2.494  1.00  0.00    -0.342 N 
ATOM      6  H2  UNL     1       1.203  -0.149   3.494  1.00  0.00     0.167 HD
HETATM    7  C16 UNL     1       2.446  -0.059   1.926  1.00  0.00     0.045 A 
HETATM    8  C17 UNL     1       3.601  -0.257   2.652  1.00  0.00     0.033 A 
HETATM    9  C18 UNL     1       4.831  -0.235   2.072  1.00  0.00     0.033 A 
HETATM   10  C19 UNL     1       4.992  -0.032   0.721  1.00  0.00     0.047 A 
HETATM   11  N3  UNL     1       6.150  -0.152   0.116  1.00  0.00    -0.352 N 
ATOM     12  H3  UNL     1       6.984  -0.274   0.690  1.00  0.00     0.166 HD
HETATM   13  C20 UNL     1       6.295  -0.123  -1.212  1.00  0.00     0.182 A 
HETATM   14  N4  UNL     1       5.177   0.029  -1.992  1.00  0.00    -0.340 N 
ATOM     15  H4  UNL     1       5.257   0.043  -3.009  1.00  0.00     0.167 HD
HETATM   16  C21 UNL     1       3.972   0.160  -1.403  1.00  0.00     0.130 A 
HETATM   17  N5  UNL     1       2.941  -0.424  -2.255  1.00  0.00    -0.082 NA
HETATM   18  C22 UNL     1       3.814   0.171  -0.057  1.00  0.00     0.045 A 
HETATM   19  C23 UNL     1       2.592   0.190   0.530  1.00  0.00     0.013 A 
ENDROOT
BRANCH   4  20
HETATM   20  N1  UNL     1      -0.950   0.443   2.447  1.00  0.00    -0.309 N 
HETATM   21  C5  UNL     1      -2.116   0.814   1.664  1.00  0.00     0.258 C 
HETATM   22  O1  UNL     1      -2.344   2.029   1.681  1.00  0.00    -0.267 OA
ATOM     23  H1  UNL     1      -1.025   0.242   3.444  1.00  0.00     0.170 HD
BRANCH  21  24
HETATM   24  C6  UNL     1      -2.848  -0.206   0.985  1.00  0.00     0.043 A 
HETATM   25  C7  UNL     1      -2.577  -1.531   1.344  1.00  0.00     0.018 A 
HETATM   26  C8  UNL     1      -3.258  -2.573   0.768  1.00  0.00     0.002 A 
HETATM   27  C9  UNL     1      -4.224  -2.331  -0.177  1.00  0.00     0.012 A 
HETATM   28  C10 UNL     1      -4.507  -1.032  -0.546  1.00  0.00    -0.025 A 
HETATM   29  C11 UNL     1      -5.489  -0.821  -1.517  1.00  0.00     0.012 A 
HETATM   30  C15 UNL     1      -3.816   0.018   0.038  1.00  0.00    -0.010 A 
HETATM   31  C12 UNL     1      -5.772   0.472  -1.900  1.00  0.00     0.001 A 
HETATM   32  C13 UNL     1      -5.101   1.520  -1.336  1.00  0.00     0.001 A 
HETATM   33  C14 UNL     1      -4.117   1.297  -0.363  1.00  0.00     0.013 A 
ENDBRANCH  21  24
ENDBRANCH   4  20
TORSDOF 2
