REMARK  3 active torsions:
REMARK  status: ('A' for Active; 'I' for Inactive)
REMARK    1  A    between atoms: C4_7  and  N3_8 
REMARK       I    between atoms: N3_8  and  C5_10 
REMARK       I    between atoms: C5_10  and  N4_12 
REMARK    2  A    between atoms: N4_12  and  C6_14 
REMARK    3  A    between atoms: C14_25  and  C15_26 
ROOT
HETATM    1  N1  UNL     1       6.018   2.655  -0.625  1.00  0.00    -0.191 NA
HETATM    2  C1  UNL     1       4.958   2.153  -0.705  1.00  0.00     0.101 C 
HETATM    3  C2  UNL     1       3.657   1.567  -0.791  1.00  0.00     0.071 A 
HETATM    4  C3  UNL     1       2.561   2.298  -1.270  1.00  0.00     0.113 A 
HETATM    5  N2  UNL     1       1.342   1.736  -1.333  1.00  0.00    -0.351 N 
ATOM      6  H2  UNL     1       0.572   2.303  -1.688  1.00  0.00     0.166 HD
HETATM    7  C4  UNL     1       1.075   0.474  -0.957  1.00  0.00     0.109 A 
HETATM    8  C13 UNL     1       2.137  -0.265  -0.482  1.00  0.00     0.062 A 
HETATM    9  C14 UNL     1       3.413   0.275  -0.401  1.00  0.00     0.000 A 
ENDROOT
BRANCH   9  10
HETATM   10  C15 UNL     1       4.534  -0.576   0.109  1.00  0.00    -0.017 A 
HETATM   11  C16 UNL     1       5.717  -0.733  -0.509  1.00  0.00     0.020 A 
HETATM   12  C17 UNL     1       6.644  -1.540   0.092  1.00  0.00     0.050 A 
HETATM   13  S2  UNL     1       5.842  -2.058   1.500  1.00  0.00    -0.113 SA
HETATM   14  C18 UNL     1       4.360  -1.244   1.295  1.00  0.00     0.061 A 
ENDBRANCH   9  10
BRANCH   7  15
HETATM   15  N3  UNL     1      -0.130  -0.010  -1.043  1.00  0.00    -0.294 N 
HETATM   16  C5  UNL     1      -0.473  -1.313  -0.670  1.00  0.00     0.327 C 
HETATM   17  O1  UNL     1      -0.234  -2.349  -1.361  1.00  0.00    -0.247 OA
HETATM   18  N4  UNL     1      -1.136  -1.518   0.565  1.00  0.00    -0.288 N 
ATOM     19  H4  UNL     1      -0.667  -1.961   1.355  1.00  0.00     0.172 HD
ATOM     20  H3  UNL     1      -0.867   0.596  -1.403  1.00  0.00     0.172 HD
BRANCH  18  21
HETATM   21  C6  UNL     1      -2.379  -1.113   0.647  1.00  0.00     0.153 A 
HETATM   22  N5  UNL     1      -3.145  -0.523  -0.265  1.00  0.00    -0.335 N 
HETATM   23  C7  UNL     1      -4.383  -0.206   0.060  1.00  0.00     0.051 A 
ATOM     24  H5  UNL     1      -2.783  -0.320  -1.197  1.00  0.00     0.168 HD
HETATM   25  C8  UNL     1      -5.335   0.422  -0.777  1.00  0.00     0.031 A 
HETATM   26  C12 UNL     1      -4.800  -0.507   1.325  1.00  0.00     0.035 A 
HETATM   27  C9  UNL     1      -6.575   0.686  -0.300  1.00  0.00     0.002 A 
HETATM   28  C10 UNL     1      -7.025   0.401   0.953  1.00  0.00     0.002 A 
HETATM   29  C11 UNL     1      -6.096  -0.220   1.791  1.00  0.00     0.021 A 
HETATM   30  S1  UNL     1      -3.410  -1.232   2.002  1.00  0.00    -0.052 SA
ENDBRANCH  18  21
ENDBRANCH   7  15
TORSDOF 3
