REMARK  7 active torsions:
REMARK  status: ('A' for Active; 'I' for Inactive)
REMARK    1  A    between atoms: C3_8  and  C4_9 
REMARK    2  A    between atoms: C4_9  and  C5_10 
REMARK    3  A    between atoms: C7_14  and  N4_15 
REMARK       I    between atoms: N4_15  and  C8_17 
REMARK       I    between atoms: C8_17  and  N5_19 
REMARK    4  A    between atoms: N6_21  and  N7_23 
REMARK    5  A    between atoms: N8_26  and  C9_27 
REMARK    6  A    between atoms: C9_27  and  C10_28 
REMARK    7  A    between atoms: C10_28  and  O2_29 
ROOT
HETATM    1  C5  UNL     1      -2.123   1.315   0.272  1.00  0.00     0.105 A 
HETATM    2  N3  UNL     1      -1.117   0.602   0.770  1.00  0.00    -0.325 N 
ATOM      3  H3  UNL     1      -1.156   0.058   1.632  1.00  0.00     0.169 HD
HETATM    4  C6  UNL     1      -0.031   0.705  -0.037  1.00  0.00     0.191 A 
HETATM    5  C7  UNL     1       1.272   0.150   0.040  1.00  0.00     0.161 A 
HETATM    6  N8  UNL     1       2.122   0.464  -0.948  1.00  0.00    -0.323 N 
HETATM    7  C11 UNL     1       1.723   1.281  -1.968  1.00  0.00     0.203 A 
HETATM    8  N9  UNL     1       0.488   1.783  -2.005  1.00  0.00    -0.273 N 
ATOM      9  H9  UNL     1       0.210   2.391  -2.775  1.00  0.00     0.190 HD
HETATM   10  N10 UNL     1      -0.376   1.497  -1.050  1.00  0.00    -0.174 N 
HETATM   11  N11 UNL     1      -1.651   1.872  -0.866  1.00  0.00    -0.266 N 
ATOM     12  H11 UNL     1      -2.182   2.482  -1.488  1.00  0.00     0.190 HD
ENDROOT
BRANCH   1  13
HETATM   13  C4  UNL     1      -3.501   1.533   0.759  1.00  0.00     0.137 C 
BRANCH  13  14
HETATM   14  C3  UNL     1      -4.469   0.554   0.262  1.00  0.00     0.049 A 
HETATM   15  C2  UNL     1      -4.810  -0.644   0.851  1.00  0.00     0.132 A 
HETATM   16  N2  UNL     1      -5.734  -1.288   0.116  1.00  0.00    -0.200 N 
HETATM   17  C1  UNL     1      -5.989  -0.505  -0.948  1.00  0.00     0.675 A 
ATOM     18  H2  UNL     1      -6.158  -2.192   0.324  1.00  0.00     0.183 HD
HETATM   19  N1  UNL     1      -6.825  -0.780  -1.889  1.00  0.00    -0.234 N 
HETATM   20  N12 UNL     1      -5.216   0.618  -0.856  1.00  0.00    -0.194 N 
ATOM     21  H12 UNL     1      -7.402  -1.618  -1.958  1.00  0.00     0.174 HD
ATOM     22  H11 UNL     1      -7.018  -0.186  -2.696  1.00  0.00     0.174 HD
ATOM     23  H12 UNL     1      -5.206   1.385  -1.529  1.00  0.00     0.184 HD
ENDBRANCH  13  14
ENDBRANCH   1  13
BRANCH   5  24
HETATM   24  N4  UNL     1       1.479  -0.569   1.004  1.00  0.00    -0.290 N 
HETATM   25  C8  UNL     1       2.364  -1.348   1.663  1.00  0.00     0.341 C 
HETATM   26  O1  UNL     1       3.187  -0.873   2.500  1.00  0.00    -0.245 OA
HETATM   27  N5  UNL     1       2.480  -2.789   1.500  1.00  0.00    -0.237 N 
HETATM   28  N6  UNL     1       3.629  -3.275   1.535  1.00  0.00    -0.245 N 
ATOM     29  H5  UNL     1       1.658  -3.377   1.363  1.00  0.00     0.193 HD
ATOM     30  H6  UNL     1       3.703  -4.286   1.421  1.00  0.00     0.208 HD
ATOM     31  H4  UNL     1       0.613  -0.591   1.543  1.00  0.00     0.172 HD
BRANCH  28  32
HETATM   32  N7  UNL     1       4.808  -2.582   1.712  1.00  0.00    -0.331 N 
ATOM     33  H72 UNL     1       4.714  -1.573   1.824  1.00  0.00     0.178 HD
ATOM     34  H71 UNL     1       5.747  -2.979   1.741  1.00  0.00     0.178 HD
ENDBRANCH  28  32
ENDBRANCH   5  24
BRANCH   6  35
HETATM   35  C9  UNL     1       3.501  -0.002  -1.014  1.00  0.00     0.157 C 
BRANCH  35  36
HETATM   36  C10 UNL     1       4.422   1.005  -0.345  1.00  0.00     0.184 C 
BRANCH  36  37
HETATM   37  O2  UNL     1       5.741   0.600  -0.376  1.00  0.00    -0.399 OA
ATOM     38  H2  UNL     1       6.317   1.229   0.042  1.00  0.00     0.209 HD
ENDBRANCH  36  37
ENDBRANCH  35  36
ENDBRANCH   6  35
TORSDOF 7
