REMARK  2 active torsions:
REMARK  status: ('A' for Active; 'I' for Inactive)
REMARK    1  A    between atoms: C2_2  and  C3_3 
REMARK    2  A    between atoms: C2_2  and  C7_9 
ROOT
HETATM    1  C7  UNL     1      -0.539  -0.296   0.391  1.00  0.00     0.199 C 
HETATM    2  N2  UNL     1      -0.865   1.107   0.568  1.00  0.00    -0.066 N 
ATOM      3  H21 UNL     1      -0.616   1.676  -0.241  1.00  0.00     0.278 HD
ATOM      4  H22 UNL     1      -0.263   1.569   1.250  1.00  0.00     0.278 HD
HETATM    5  C8  UNL     1      -2.263   1.198   0.905  1.00  0.00     0.186 C 
HETATM    6  C9  UNL     1      -3.051   1.061  -0.374  1.00  0.00     0.033 C 
HETATM    7  C10 UNL     1      -2.666  -0.346  -0.815  1.00  0.00     0.009 C 
HETATM    8  C11 UNL     1      -1.879  -0.943   0.335  1.00  0.00     0.019 C 
HETATM    9  C12 UNL     1      -2.544  -0.191   1.507  1.00  0.00     0.039 C 
ENDROOT
BRANCH   1  10
HETATM   10  C2  UNL     1       0.343  -0.557  -0.778  1.00  0.00     0.058 C 
HETATM   11  C1  UNL     1       0.597  -2.055  -0.838  1.00  0.00     0.018 C 
BRANCH  10  12
HETATM   12  C3  UNL     1       1.647   0.158  -0.515  1.00  0.00    -0.012 C 
HETATM   13  N1  UNL     1       2.194   1.023  -1.261  1.00  0.00    -0.396 N 
HETATM   14  C4  UNL     1       3.433   1.502  -0.709  1.00  0.00     0.119 C 
ATOM     15  H1  UNL     1       1.803   1.342  -2.147  1.00  0.00     0.159 HD
HETATM   16  C5  UNL     1       3.844   0.348   0.213  1.00  0.00     0.025 C 
HETATM   17  C6  UNL     1       2.472  -0.071   0.694  1.00  0.00     0.054 C 
ENDBRANCH  10  12
ENDBRANCH   1  10
TORSDOF 2
