REMARK  3 active torsions:
REMARK  status: ('A' for Active; 'I' for Inactive)
REMARK    1  A    between atoms: C3_5  and  N2_6 
REMARK    2  A    between atoms: N2_6  and  N3_8 
REMARK    3  A    between atoms: N3_8  and  C4_10 
ROOT
HETATM    1  N2  UNL     1       0.123  -0.727  -0.111  1.00  0.00    -0.270 N 
ATOM      2  H2  UNL     1       0.389  -1.605  -0.558  1.00  0.00     0.189 HD
ENDROOT
BRANCH   1   3
HETATM    3  C3  UNL     1      -1.220  -0.269  -0.199  1.00  0.00     0.135 A 
HETATM    4  N1  UNL     1      -1.628   0.879   0.371  1.00  0.00    -0.349 N 
HETATM    5  C2  UNL     1      -2.905   1.290   0.273  1.00  0.00     0.106 A 
ATOM      6  H1  UNL     1      -0.957   1.448   0.887  1.00  0.00     0.167 HD
HETATM    7  C1  UNL     1      -3.853   0.558  -0.412  1.00  0.00     0.104 A 
HETATM    8  N7  UNL     1      -3.458  -0.587  -0.984  1.00  0.00    -0.371 N 
HETATM    9  C5  UNL     1      -2.179  -0.996  -0.885  1.00  0.00     0.137 A 
ATOM     10  H7  UNL     1      -4.132  -1.154  -1.499  1.00  0.00     0.164 HD
ENDBRANCH   1   3
BRANCH   1  11
HETATM   11  N3  UNL     1       1.072   0.009   0.576  1.00  0.00    -0.128 N 
ATOM     12  H3  UNL     1       0.772   0.676   1.287  1.00  0.00     0.205 HD
BRANCH  11  13
HETATM   13  C4  UNL     1       2.467  -0.152   0.304  1.00  0.00     0.728 A 
HETATM   14  N4  UNL     1       3.228  -0.891  -0.517  1.00  0.00    -0.114 N 
HETATM   15  N5  UNL     1       4.328  -0.349  -0.040  1.00  0.00    -0.214 N 
ATOM     16  H4  UNL     1       3.032  -1.594  -1.229  1.00  0.00     0.207 HD
HETATM   17  N6  UNL     1       3.612   0.375   0.762  1.00  0.00    -0.114 N 
ATOM     18  H5  UNL     1       5.326  -0.454  -0.224  1.00  0.00     0.209 HD
ATOM     19  H6  UNL     1       3.834   1.076   1.469  1.00  0.00     0.207 HD
ENDBRANCH  11  13
ENDBRANCH   1  11
TORSDOF 3
