REMARK  4 active torsions:
REMARK  status: ('A' for Active; 'I' for Inactive)
REMARK    1  A    between atoms: N1_1  and  C1_4 
REMARK    2  A    between atoms: C2_7  and  N3_8 
REMARK    3  A    between atoms: N3_8  and  N4_10 
REMARK    4  A    between atoms: N4_10  and  C3_11 
ROOT
HETATM    1  C1  UNL     1       3.755  -0.174   0.215  1.00  0.00     0.699 A 
HETATM    2  N2  UNL     1       2.408  -0.152   0.338  1.00  0.00    -0.151 N 
ATOM      3  H2  UNL     1       1.903  -0.011   1.213  1.00  0.00     0.188 HD
HETATM    4  C2  UNL     1       1.833  -0.343  -0.863  1.00  0.00     0.274 A 
HETATM    5  O1  UNL     1       2.825  -0.483  -1.712  1.00  0.00    -0.184 OA
HETATM    6  N5  UNL     1       3.975  -0.389  -1.108  1.00  0.00    -0.088 N 
ATOM      7  H5  UNL     1       4.889  -0.464  -1.554  1.00  0.00     0.214 HD
ENDROOT
BRANCH   4   8
HETATM    8  N3  UNL     1       0.430  -0.379  -1.114  1.00  0.00    -0.267 N 
ATOM      9  H3  UNL     1       0.018  -1.232  -1.492  1.00  0.00     0.186 HD
BRANCH   8  10
HETATM   10  N4  UNL     1      -0.391   0.706  -0.862  1.00  0.00    -0.133 NA
BRANCH  10  11
HETATM   11  C3  UNL     1      -1.328   0.369   0.187  1.00  0.00     0.099 C 
HETATM   12  C4  UNL     1      -2.257  -0.796  -0.156  1.00  0.00     0.023 C 
HETATM   13  C5  UNL     1      -3.330  -0.031   0.632  1.00  0.00     0.003 C 
HETATM   14  C6  UNL     1      -2.577   1.244   0.215  1.00  0.00     0.023 C 
ENDBRANCH  10  11
ENDBRANCH   8  10
ENDBRANCH   4   8
BRANCH   1  15
HETATM   15  N1  UNL     1       4.670  -0.023   1.133  1.00  0.00    -0.233 N 
ATOM     16  H12 UNL     1       4.505   0.138   2.126  1.00  0.00     0.174 HD
ATOM     17  H11 UNL     1       5.686  -0.040   1.040  1.00  0.00     0.174 HD
ENDBRANCH   1  15
TORSDOF 4
