REMARK  5 active torsions:
REMARK  status: ('A' for Active; 'I' for Inactive)
REMARK    1  A    between atoms: N1_1  and  C1_5 
REMARK    2  A    between atoms: C1_5  and  C2_6 
REMARK    3  A    between atoms: C2_6  and  S1_7 
REMARK    4  A    between atoms: S1_7  and  C3_8 
REMARK    5  A    between atoms: N2_14  and  O1_15 
ROOT
HETATM    1  C3  UNL     1      -0.341  -0.207  -0.712  1.00  0.00     0.001 A 
HETATM    2  C4  UNL     1      -0.271  -0.707   0.545  1.00  0.00     0.019 A 
HETATM    3  C5  UNL     1       0.914  -0.729   1.248  1.00  0.00     0.013 A 
HETATM    4  C6  UNL     1       2.094  -0.240   0.699  1.00  0.00    -0.023 A 
HETATM    5  C7  UNL     1       3.297  -0.246   1.372  1.00  0.00     0.032 A 
HETATM    6  C8  UNL     1       4.443   0.262   0.757  1.00  0.00     0.123 A 
HETATM    7  N2  UNL     1       4.376   0.758  -0.492  1.00  0.00    -0.246 N 
HETATM    8  C9  UNL     1       3.210   0.770  -1.160  1.00  0.00     0.134 A 
HETATM    9  C10 UNL     1       2.038   0.272  -0.582  1.00  0.00    -0.007 A 
HETATM   10  C11 UNL     1       0.847   0.287  -1.271  1.00  0.00     0.032 A 
ENDROOT
BRANCH   1  11
HETATM   11  S1  UNL     1      -1.774  -0.096  -1.728  1.00  0.00    -0.128 SA
BRANCH  11  12
HETATM   12  C2  UNL     1      -3.294  -0.615  -0.950  1.00  0.00     0.106 C 
BRANCH  12  13
HETATM   13  C1  UNL     1      -3.694   0.367   0.123  1.00  0.00     0.240 C 
BRANCH  13  14
HETATM   14  N1  UNL     1      -4.925  -0.027   0.782  1.00  0.00    -0.079 N 
ATOM     15  H13 UNL     1      -5.678  -0.168   0.109  1.00  0.00     0.274 HD
ATOM     16  H12 UNL     1      -4.861  -0.975   1.152  1.00  0.00     0.274 HD
ATOM     17  H11 UNL     1      -5.195   0.637   1.508  1.00  0.00     0.274 HD
ENDBRANCH  13  14
ENDBRANCH  12  13
ENDBRANCH  11  12
ENDBRANCH   1  11
BRANCH   7  18
HETATM   18  O1  UNL     1       5.519   1.255  -1.082  1.00  0.00    -0.284 OA
ATOM     19  H1  UNL     1       5.472   1.605  -1.964  1.00  0.00     0.245 HD
ENDBRANCH   7  18
TORSDOF 5
