REMARK  3 active torsions:
REMARK  status: ('A' for Active; 'I' for Inactive)
REMARK    1  A    between atoms: N2_7  and  C6_9 
REMARK    2  A    between atoms: C6_9  and  C7_10 
REMARK    3  A    between atoms: C7_10  and  C8_11 
ROOT
HETATM    1  N1  UNL     1       6.361   1.260   0.048  1.00  0.00    -0.191 NA
HETATM    2  C1  UNL     1       5.318   0.760   0.125  1.00  0.00     0.101 C 
HETATM    3  C2  UNL     1       4.019   0.138   0.243  1.00  0.00     0.060 A 
HETATM    4  C3  UNL     1       3.880  -1.244   0.273  1.00  0.00     0.028 A 
HETATM    5  C4  UNL     1       2.632  -1.804   0.387  1.00  0.00     0.050 A 
HETATM    6  C5  UNL     1       1.508  -0.972   0.471  1.00  0.00     0.100 A 
HETATM    7  N2  UNL     1       0.363  -1.518   0.575  1.00  0.00    -0.376 N 
ATOM      8  H2  UNL     1       0.308  -2.536   0.593  1.00  0.00     0.161 HD
HETATM    9  N5  UNL     1       1.664   0.353   0.440  1.00  0.00    -0.351 N 
ATOM     10  H5  UNL     1       0.840   0.951   0.502  1.00  0.00     0.166 HD
HETATM   11  C11 UNL     1       2.896   0.929   0.328  1.00  0.00     0.112 A 
ENDROOT
BRANCH   7  12
HETATM   12  C6  UNL     1      -0.839  -0.771   0.667  1.00  0.00     0.127 C 
BRANCH  12  13
HETATM   13  C7  UNL     1      -1.402  -0.359  -0.693  1.00  0.00     0.078 C 
BRANCH  13  14
HETATM   14  C8  UNL     1      -2.646   0.407  -0.413  1.00  0.00     0.028 A 
HETATM   15  C9  UNL     1      -3.902  -0.155  -0.310  1.00  0.00     0.045 A 
HETATM   16  C10 UNL     1      -4.797   0.884  -0.044  1.00  0.00     0.109 A 
HETATM   17  N3  UNL     1      -4.073   2.015   0.004  1.00  0.00    -0.312 N 
HETATM   18  N4  UNL     1      -2.803   1.718  -0.216  1.00  0.00    -0.305 N 
ATOM     19  H3  UNL     1      -4.442   2.949   0.181  1.00  0.00     0.186 HD
ATOM     20  H4  UNL     1      -2.045   2.400  -0.233  1.00  0.00     0.186 HD
ENDBRANCH  13  14
ENDBRANCH  12  13
ENDBRANCH   7  12
TORSDOF 3
