REMARK  5 active torsions:
REMARK  status: ('A' for Active; 'I' for Inactive)
REMARK    1  A    between atoms: C2_2  and  C4_4 
REMARK    2  A    between atoms: C4_4  and  C5_5 
REMARK    3  A    between atoms: C17_22  and  N3_23 
REMARK       I    between atoms: N3_23  and  C18_25 
REMARK    4  A    between atoms: C18_25  and  C19_27 
REMARK    5  A    between atoms: C19_27  and  N4_28 
ROOT
HETATM    1  C5  UNL     1      -3.785  -0.620  -0.020  1.00  0.00     0.177 C 
HETATM    2  N1  UNL     1      -3.528   0.344   0.992  1.00  0.00    -0.347 N 
ATOM      3  H1  UNL     1      -3.941   0.172   1.909  1.00  0.00     0.163 HD
HETATM    4  C6  UNL     1      -2.749   1.527   0.848  1.00  0.00     0.223 C 
HETATM    5  O1  UNL     1      -2.748   2.349   1.810  1.00  0.00    -0.273 OA
HETATM    6  C7  UNL     1      -1.957   1.834  -0.349  1.00  0.00     0.089 C 
HETATM    7  C8  UNL     1      -1.416   3.238  -0.362  1.00  0.00     0.015 C 
HETATM    8  C9  UNL     1      -0.072   2.638  -0.796  1.00  0.00     0.014 C 
HETATM    9  C10 UNL     1      -0.520   1.363  -0.116  1.00  0.00     0.069 C 
HETATM   10  C11 UNL     1      -0.344   0.120  -0.881  1.00  0.00     0.141 C 
HETATM   11  O2  UNL     1      -0.783   0.154  -2.044  1.00  0.00    -0.297 OA
HETATM   12  C12 UNL     1       0.271  -1.116  -0.441  1.00  0.00     0.131 C 
HETATM   13  C13 UNL     1      -0.534  -2.065   0.359  1.00  0.00     0.125 C 
HETATM   14  C14 UNL     1      -0.351  -1.564   1.762  1.00  0.00     0.265 C 
HETATM   15  N2  UNL     1       1.116  -1.386   1.772  1.00  0.00    -0.051 N 
HETATM   16  C15 UNL     1       1.694  -2.675   1.979  1.00  0.00     0.274 C 
HETATM   17  C16 UNL     1       1.380  -0.524   2.916  1.00  0.00     0.274 C 
HETATM   18  C17 UNL     1       1.395  -0.746   0.539  1.00  0.00     0.303 C 
HETATM   19  N5  UNL     1      -1.842  -2.392  -0.070  1.00  0.00    -0.352 N 
ATOM     20  H5  UNL     1      -1.851  -3.142  -0.762  1.00  0.00     0.163 HD
HETATM   21  C23 UNL     1      -3.119  -1.930   0.231  1.00  0.00     0.240 C 
HETATM   22  O4  UNL     1      -3.899  -2.767   0.841  1.00  0.00    -0.271 OA
ENDROOT
BRANCH  18  23
HETATM   23  N3  UNL     1       2.636  -1.064  -0.098  1.00  0.00    -0.331 N 
HETATM   24  C18 UNL     1       3.673  -0.169  -0.379  1.00  0.00     0.245 C 
HETATM   25  O3  UNL     1       3.537   1.027  -0.056  1.00  0.00    -0.272 OA
ATOM     26  H3  UNL     1       2.778  -2.036  -0.373  1.00  0.00     0.164 HD
BRANCH  24  27
HETATM   27  C19 UNL     1       4.908  -0.604  -1.040  1.00  0.00     0.338 C 
BRANCH  27  28
HETATM   28  N4  UNL     1       5.865   0.463  -1.247  1.00  0.00    -0.070 N 
HETATM   29  C20 UNL     1       6.410   0.976  -0.029  1.00  0.00     0.272 C 
HETATM   30  C21 UNL     1       6.983  -0.102  -2.013  1.00  0.00     0.272 C 
HETATM   31  C22 UNL     1       5.317   1.549  -2.033  1.00  0.00     0.272 C 
ENDBRANCH  27  28
ENDBRANCH  24  27
ENDBRANCH  18  23
BRANCH   1  32
HETATM   32  C4  UNL     1      -5.263  -0.806  -0.232  1.00  0.00     0.038 C 
BRANCH  32  33
HETATM   33  C2  UNL     1      -6.086   0.306  -0.676  1.00  0.00    -0.020 C 
HETATM   34  C1  UNL     1      -6.134   1.473   0.244  1.00  0.00     0.009 C 
HETATM   35  C3  UNL     1      -7.542  -0.222  -0.753  1.00  0.00     0.009 C 
ENDBRANCH  32  33
ENDBRANCH   1  32
TORSDOF 5
