REMARK  17 active torsions:
REMARK  status: ('A' for Active; 'I' for Inactive)
REMARK    1  A    between atoms: N1_1  and  C1_5 
REMARK    2  A    between atoms: C1_5  and  C2_6 
REMARK    3  A    between atoms: C2_6  and  C3_7 
REMARK    4  A    between atoms: C3_7  and  C4_8 
REMARK    5  A    between atoms: C4_8  and  C5_9 
REMARK    6  A    between atoms: C5_9  and  C6_10 
REMARK    7  A    between atoms: C6_10  and  C7_11 
REMARK    8  A    between atoms: C7_11  and  C8_12 
REMARK    9  A    between atoms: C8_12  and  C9_13 
REMARK   10  A    between atoms: C9_13  and  N2_14 
REMARK       I    between atoms: N2_14  and  C10_16 
REMARK   11  A    between atoms: C10_16  and  C11_18 
REMARK   12  A    between atoms: C12_19  and  C13_20 
REMARK   13  A    between atoms: C13_20  and  N3_21 
REMARK   14  A    between atoms: C14_26  and  O3_27 
REMARK   15  A    between atoms: C15_29  and  O4_30 
REMARK   16  A    between atoms: C16_32  and  C17_33 
REMARK       I    between atoms: C17_33  and  N4_35 
REMARK   17  A    between atoms: N4_35  and  N5_37 
ROOT
HETATM    1  C11 UNL     1      -3.165   0.213  -0.571  1.00  0.00     0.124 C 
HETATM    2  C12 UNL     1      -3.582  -1.077  -1.243  1.00  0.00     0.164 C 
HETATM    3  O2  UNL     1      -4.894  -1.412  -0.987  1.00  0.00    -0.351 OA
HETATM    4  C14 UNL     1      -5.299  -1.216   0.326  1.00  0.00     0.286 C 
HETATM    5  C15 UNL     1      -5.304   0.259   0.711  1.00  0.00     0.187 C 
HETATM    6  C16 UNL     1      -4.334   1.036  -0.151  1.00  0.00     0.128 C 
ENDROOT
BRANCH   1   7
HETATM    7  C10 UNL     1      -2.242  -0.105   0.582  1.00  0.00     0.225 C 
HETATM    8  N2  UNL     1      -0.936  -0.593   0.354  1.00  0.00    -0.361 N 
ATOM      9  H2  UNL     1      -0.605  -0.734  -0.600  1.00  0.00     0.162 HD
HETATM   10  O1  UNL     1      -2.636   0.063   1.759  1.00  0.00    -0.273 OA
BRANCH   8  11
HETATM   11  C9  UNL     1      -0.071  -0.892   1.465  1.00  0.00     0.122 C 
BRANCH  11  12
HETATM   12  C8  UNL     1       1.288  -1.400   0.997  1.00  0.00     0.020 C 
BRANCH  12  13
HETATM   13  C7  UNL     1       1.969  -0.366   0.155  1.00  0.00     0.002 C 
BRANCH  13  14
HETATM   14  C6  UNL     1       3.304  -0.875  -0.319  1.00  0.00     0.000 C 
BRANCH  14  15
HETATM   15  C5  UNL     1       4.193  -1.188   0.830  1.00  0.00     0.000 C 
BRANCH  15  16
HETATM   16  C4  UNL     1       5.544  -1.690   0.307  1.00  0.00     0.000 C 
BRANCH  16  17
HETATM   17  C3  UNL     1       6.193  -0.631  -0.547  1.00  0.00     0.002 C 
BRANCH  17  18
HETATM   18  C2  UNL     1       6.416   0.631   0.249  1.00  0.00     0.027 C 
BRANCH  18  19
HETATM   19  C1  UNL     1       7.071   1.632  -0.693  1.00  0.00     0.229 C 
BRANCH  19  20
HETATM   20  N1  UNL     1       8.336   1.088  -1.170  1.00  0.00    -0.079 N 
ATOM     21  H13 UNL     1       8.953   0.816  -0.405  1.00  0.00     0.274 HD
ATOM     22  H12 UNL     1       8.225   0.169  -1.599  1.00  0.00     0.274 HD
ATOM     23  H11 UNL     1       8.775   1.759  -1.801  1.00  0.00     0.274 HD
ENDBRANCH  19  20
ENDBRANCH  18  19
ENDBRANCH  17  18
ENDBRANCH  16  17
ENDBRANCH  15  16
ENDBRANCH  14  15
ENDBRANCH  13  14
ENDBRANCH  12  13
ENDBRANCH  11  12
ENDBRANCH   8  11
ENDBRANCH   1   7
BRANCH   2  24
HETATM   24  C13 UNL     1      -3.387  -1.058  -2.730  1.00  0.00     0.262 C 
BRANCH  24  25
HETATM   25  N3  UNL     1      -4.286  -0.082  -3.302  1.00  0.00    -0.077 N 
ATOM     26  H33 UNL     1      -5.258  -0.244  -3.038  1.00  0.00     0.274 HD
ATOM     27  H32 UNL     1      -4.178   0.841  -2.882  1.00  0.00     0.274 HD
ATOM     28  H31 UNL     1      -4.153  -0.069  -4.313  1.00  0.00     0.274 HD
ENDBRANCH  24  25
ENDBRANCH   2  24
BRANCH   6  29
HETATM   29  C17 UNL     1      -3.915   2.258   0.542  1.00  0.00     0.243 C 
HETATM   30  O5  UNL     1      -2.689   2.587   0.565  1.00  0.00    -0.271 OA
HETATM   31  N4  UNL     1      -4.793   3.149   1.218  1.00  0.00    -0.276 N 
ATOM     32  H4  UNL     1      -5.789   2.930   1.228  1.00  0.00     0.189 HD
BRANCH  31  33
HETATM   33  N5  UNL     1      -4.368   4.300   1.865  1.00  0.00    -0.343 N 
ATOM     34  H52 UNL     1      -3.369   4.503   1.845  1.00  0.00     0.176 HD
ATOM     35  H51 UNL     1      -4.998   4.939   2.350  1.00  0.00     0.176 HD
ENDBRANCH  31  33
ENDBRANCH   6  29
BRANCH   5  36
HETATM   36  O4  UNL     1      -6.577   0.769   0.451  1.00  0.00    -0.390 OA
ATOM     37  H4  UNL     1      -6.580   1.688   0.691  1.00  0.00     0.210 HD
ENDBRANCH   5  36
BRANCH   4  38
HETATM   38  O3  UNL     1      -6.616  -1.664   0.421  1.00  0.00    -0.369 OA
ATOM     39  H3  UNL     1      -6.893  -1.530   1.320  1.00  0.00     0.212 HD
ENDBRANCH   4  38
TORSDOF 17
