REMARK  14 active torsions:
REMARK  status: ('A' for Active; 'I' for Inactive)
REMARK       I    between atoms: C2_2  and  N1_4 
REMARK    1  A    between atoms: N1_4  and  C3_6 
REMARK    2  A    between atoms: C3_6  and  C4_7 
REMARK    3  A    between atoms: C3_6  and  C6_19 
REMARK    4  A    between atoms: C4_7  and  O2_8 
REMARK    5  A    between atoms: C4_7  and  C5_10 
REMARK    6  A    between atoms: C5_10  and  N2_11 
REMARK    7  A    between atoms: C5_10  and  N3_15 
REMARK    8  A    between atoms: N3_15  and  N4_16 
REMARK    9  A    between atoms: C7_20  and  O3_21 
REMARK   10  A    between atoms: C8_23  and  N5_24 
REMARK   11  A    between atoms: C10_29  and  N8_30 
REMARK   12  A    between atoms: C11_35  and  N10_36 
REMARK   13  A    between atoms: C13_43  and  O5_44 
REMARK   14  A    between atoms: C13_43  and  O6_46 
ROOT
HETATM    1  C6  UNL     1      -0.421  -0.170   1.116  1.00  0.00     0.137 C 
HETATM    2  C7  UNL     1       0.714  -0.085   0.123  1.00  0.00     0.182 C 
HETATM    3  C8  UNL     1       1.871  -0.241   1.130  1.00  0.00     0.282 C 
HETATM    4  O4  UNL     1       1.446  -1.231   2.005  1.00  0.00    -0.304 OA
HETATM    5  C13 UNL     1       0.065  -1.267   2.007  1.00  0.00     0.288 C 
ENDROOT
BRANCH   1   6
HETATM    6  C3  UNL     1      -1.772  -0.293   0.560  1.00  0.00     0.131 C 
BRANCH   6   7
HETATM    7  N1  UNL     1      -2.063  -1.416  -0.258  1.00  0.00    -0.353 N 
HETATM    8  C2  UNL     1      -3.038  -2.412   0.090  1.00  0.00     0.214 C 
HETATM    9  C1  UNL     1      -3.321  -3.576  -0.789  1.00  0.00     0.117 C 
HETATM   10  O1  UNL     1      -3.705  -2.348   1.160  1.00  0.00    -0.274 OA
ATOM     11  H1  UNL     1      -1.555  -1.521  -1.136  1.00  0.00     0.163 HD
ENDBRANCH   6   7
BRANCH   6  12
HETATM   12  C4  UNL     1      -2.107   1.029  -0.127  1.00  0.00     0.189 C 
BRANCH  12  13
HETATM   13  O2  UNL     1      -1.790   2.047   0.739  1.00  0.00    -0.390 OA
ATOM     14  H2  UNL     1      -1.998   2.869   0.312  1.00  0.00     0.210 HD
ENDBRANCH  12  13
BRANCH  12  15
HETATM   15  C5  UNL     1      -3.547   1.148  -0.507  1.00  0.00     0.325 C 
BRANCH  15  16
HETATM   16  N2  UNL     1      -4.458   1.070   0.602  1.00  0.00    -0.057 N 
ATOM     17  H23 UNL     1      -4.299   0.215   1.135  1.00  0.00     0.276 HD
ATOM     18  H22 UNL     1      -4.218   1.763   1.311  1.00  0.00     0.276 HD
ATOM     19  H21 UNL     1      -5.441   1.151   0.343  1.00  0.00     0.276 HD
ENDBRANCH  15  16
BRANCH  15  20
HETATM   20  N3  UNL     1      -3.723   2.452  -1.122  1.00  0.00    -0.112 NA
BRANCH  20  21
HETATM   21  N4  UNL     1      -5.052   2.658  -1.515  1.00  0.00    -0.346 N 
ATOM     22  H42 UNL     1      -5.792   1.969  -1.379  1.00  0.00     0.172 HD
ATOM     23  H41 UNL     1      -5.176   3.574  -1.947  1.00  0.00     0.172 HD
ENDBRANCH  20  21
ENDBRANCH  15  20
ENDBRANCH  12  15
ENDBRANCH   6  12
ENDBRANCH   1   6
BRANCH   2  24
HETATM   24  O3  UNL     1       0.798  -1.150  -0.741  1.00  0.00    -0.390 OA
ATOM     25  H3  UNL     1       1.512  -1.097  -1.366  1.00  0.00     0.210 HD
ENDBRANCH   2  24
BRANCH   5  26
HETATM   26  O5  UNL     1      -0.448  -1.052   3.287  1.00  0.00    -0.343 OA
ATOM     27  H5  UNL     1      -0.139  -1.749   3.853  1.00  0.00     0.215 HD
ENDBRANCH   5  26
BRANCH   5  28
HETATM   28  O6  UNL     1      -0.322  -2.535   1.588  1.00  0.00    -0.343 OA
ATOM     29  H6  UNL     1      -0.013  -3.232   2.154  1.00  0.00     0.215 HD
ENDBRANCH   5  28
BRANCH   3  30
HETATM   30  N5  UNL     1       3.109  -0.536   0.476  1.00  0.00    -0.145 N 
HETATM   31  C9  UNL     1       3.691  -1.707   0.187  1.00  0.00     0.222 A 
HETATM   32  N6  UNL     1       4.860  -1.480  -0.439  1.00  0.00    -0.259 N 
HETATM   33  N7  UNL     1       5.038  -0.185  -0.556  1.00  0.00     0.092 N 
ATOM     34  H6  UNL     1       5.504  -2.199  -0.769  1.00  0.00     0.189 HD
HETATM   35  C10 UNL     1       6.038   0.527  -1.100  1.00  0.00     0.727 A 
HETATM   36  C12 UNL     1       3.958   0.413   0.008  1.00  0.00     0.738 A 
HETATM   37  N9  UNL     1       5.964   1.868  -1.085  1.00  0.00    -0.020 N 
HETATM   38  C11 UNL     1       4.884   2.480  -0.521  1.00  0.00     0.705 A 
ATOM     39  H9  UNL     1       6.713   2.427  -1.494  1.00  0.00     0.203 HD
HETATM   40  N11 UNL     1       3.887   1.750   0.022  1.00  0.00    -0.019 N 
ATOM     41  H11 UNL     1       3.082   2.215   0.442  1.00  0.00     0.203 HD
BRANCH  35  42
HETATM   42  N8  UNL     1       7.076  -0.005  -1.644  1.00  0.00    -0.232 N 
ATOM     43  H82 UNL     1       7.132  -1.023  -1.655  1.00  0.00     0.174 HD
ATOM     44  H81 UNL     1       7.836   0.536  -2.057  1.00  0.00     0.174 HD
ENDBRANCH  35  42
BRANCH  38  45
HETATM   45  N10 UNL     1       4.860   3.773  -0.530  1.00  0.00    -0.234 N 
ATOM     46 2H10 UNL     1       5.613   4.325  -0.940  1.00  0.00     0.174 HD
ATOM     47 1H10 UNL     1       4.052   4.231  -0.108  1.00  0.00     0.174 HD
ENDBRANCH  38  45
ENDBRANCH   3  30
TORSDOF 14
