REMARK  12 active torsions:
REMARK  status: ('A' for Active; 'I' for Inactive)
REMARK    1  A    between atoms: C2_2  and  C4_4 
REMARK    2  A    between atoms: C4_4  and  C5_5 
REMARK    3  A    between atoms: C5_5  and  C6_7 
REMARK    4  A    between atoms: C6_7  and  N1_8 
REMARK    5  A    between atoms: C6_7  and  C30_45 
REMARK       I    between atoms: N1_8  and  C7_10 
REMARK    6  A    between atoms: C7_10  and  C8_12 
REMARK       I    between atoms: N3_22  and  C16_23 
REMARK    7  A    between atoms: C16_23  and  C17_25 
REMARK    8  A    between atoms: C17_25  and  N4_26 
REMARK    9  A    between atoms: C17_25  and  C26_41 
REMARK       I    between atoms: N4_26  and  C18_28 
REMARK   10  A    between atoms: C18_28  and  C19_30 
REMARK   11  A    between atoms: C19_30  and  N5_31 
REMARK   12  A    between atoms: C19_30  and  C20_35 
ROOT
HETATM    1  C8  UNL     1      -1.500  -2.005   0.448  1.00  0.00     0.180 C 
HETATM    2  C9  UNL     1      -1.632  -3.193  -0.453  1.00  0.00     0.040 C 
HETATM    3  C10 UNL     1      -1.163  -4.417   0.243  1.00  0.00     0.043 C 
HETATM    4  C11 UNL     1      -1.203  -4.424   1.703  1.00  0.00    -0.033 A 
HETATM    5  C12 UNL     1      -1.850  -5.468   2.400  1.00  0.00     0.026 A 
HETATM    6  C13 UNL     1      -1.693  -5.182   3.721  1.00  0.00     0.089 A 
HETATM    7  N2  UNL     1      -1.001  -4.047   3.839  1.00  0.00    -0.367 N 
ATOM      8  H2  UNL     1      -0.748  -3.614   4.727  1.00  0.00     0.165 HD
HETATM    9  C14 UNL     1      -0.683  -3.553   2.637  1.00  0.00     0.033 A 
HETATM   10  C15 UNL     1       0.088  -2.273   2.415  1.00  0.00     0.184 C 
HETATM   11  N3  UNL     1      -0.176  -1.887   1.021  1.00  0.00    -0.331 N 
HETATM   12  C16 UNL     1       0.861  -1.416   0.229  1.00  0.00     0.244 C 
HETATM   13  O3  UNL     1       0.633  -1.124  -1.000  1.00  0.00    -0.271 OA
ENDROOT
BRANCH   1  14
HETATM   14  C7  UNL     1      -2.073  -0.754  -0.072  1.00  0.00     0.241 C 
HETATM   15  N1  UNL     1      -3.329  -0.697  -0.735  1.00  0.00    -0.348 N 
ATOM     16  H1  UNL     1      -3.871  -1.551  -0.870  1.00  0.00     0.163 HD
HETATM   17  O2  UNL     1      -1.457   0.334   0.057  1.00  0.00    -0.271 OA
BRANCH  15  18
HETATM   18  C6  UNL     1      -3.854   0.593  -1.230  1.00  0.00     0.157 C 
BRANCH  18  19
HETATM   19  C5  UNL     1      -4.919   1.047  -0.318  1.00  0.00     0.150 C 
HETATM   20  O1  UNL     1      -5.508   0.134   0.296  1.00  0.00    -0.296 OA
BRANCH  19  21
HETATM   21  C4  UNL     1      -5.303   2.436  -0.097  1.00  0.00     0.084 C 
BRANCH  21  22
HETATM   22  C2  UNL     1      -6.419   2.578   0.928  1.00  0.00    -0.016 C 
HETATM   23  C1  UNL     1      -6.035   2.021   2.259  1.00  0.00     0.010 C 
HETATM   24  C3  UNL     1      -6.658   4.079   1.098  1.00  0.00     0.010 C 
ENDBRANCH  21  22
ENDBRANCH  19  21
ENDBRANCH  18  19
BRANCH  18  25
HETATM   25  C30 UNL     1      -4.231   0.484  -2.666  1.00  0.00     0.007 C 
HETATM   26  C31 UNL     1      -4.658   1.792  -3.224  1.00  0.00     0.012 C 
HETATM   27  C32 UNL     1      -5.350  -0.511  -2.900  1.00  0.00     0.012 C 
ENDBRANCH  18  25
ENDBRANCH  15  18
ENDBRANCH   1  14
BRANCH  12  28
HETATM   28  C17 UNL     1       2.277  -1.188   0.645  1.00  0.00     0.184 C 
BRANCH  28  29
HETATM   29  N4  UNL     1       2.662   0.091  -0.009  1.00  0.00    -0.345 N 
HETATM   30  C18 UNL     1       2.998   1.231   0.767  1.00  0.00     0.249 C 
HETATM   31  O4  UNL     1       2.948   1.083   2.038  1.00  0.00    -0.271 OA
ATOM     32  H4  UNL     1       2.685   0.150  -1.027  1.00  0.00     0.163 HD
BRANCH  30  33
HETATM   33  C19 UNL     1       3.384   2.545   0.268  1.00  0.00     0.278 C 
BRANCH  33  34
HETATM   34  N5  UNL     1       3.397   3.534   1.369  1.00  0.00    -0.066 N 
ATOM     35  H53 UNL     1       2.505   3.563   1.863  1.00  0.00     0.275 HD
ATOM     36  H52 UNL     1       3.990   3.233   2.142  1.00  0.00     0.275 HD
ATOM     37  H51 UNL     1       3.667   4.454   1.020  1.00  0.00     0.275 HD
ENDBRANCH  33  34
BRANCH  33  38
HETATM   38  C20 UNL     1       4.781   2.638  -0.322  1.00  0.00     0.025 C 
HETATM   39  C21 UNL     1       4.958   1.725  -1.493  1.00  0.00     0.007 C 
HETATM   40  C22 UNL     1       6.285   1.878  -2.172  1.00  0.00     0.000 C 
HETATM   41  C23 UNL     1       6.529   3.289  -2.589  1.00  0.00     0.000 C 
HETATM   42  C24 UNL     1       6.408   4.190  -1.372  1.00  0.00     0.000 C 
HETATM   43  C25 UNL     1       5.065   4.061  -0.760  1.00  0.00     0.007 C 
ENDBRANCH  33  38
ENDBRANCH  30  33
ENDBRANCH  28  29
BRANCH  28  44
HETATM   44  C26 UNL     1       3.229  -2.218   0.121  1.00  0.00    -0.022 C 
HETATM   45  C27 UNL     1       4.627  -1.874   0.631  1.00  0.00     0.017 C 
HETATM   46  C28 UNL     1       2.964  -3.630   0.590  1.00  0.00     0.017 C 
HETATM   47  C29 UNL     1       3.247  -2.304  -1.404  1.00  0.00     0.017 C 
ENDBRANCH  28  44
ENDBRANCH  12  28
TORSDOF 12
