REMARK  9 active torsions:
REMARK  status: ('A' for Active; 'I' for Inactive)
REMARK    1  A    between atoms: O1_2  and  C2_3 
REMARK    2  A    between atoms: C2_3  and  C3_5 
REMARK    3  A    between atoms: C3_5  and  N1_6 
REMARK    4  A    between atoms: C9_16  and  N3_17 
REMARK    5  A    between atoms: N3_17  and  N4_19 
REMARK       I    between atoms: N4_19  and  C10_21 
REMARK    6  A    between atoms: C10_21  and  C11_23 
REMARK    7  A    between atoms: C11_23  and  N5_24 
REMARK    8  A    between atoms: C11_23  and  C12_28 
REMARK    9  A    between atoms: C14_33  and  C15_34 
ROOT
HETATM    1  N4  UNL     1      -1.302   0.030  -0.419  1.00  0.00    -0.271 N 
ATOM      2  H4  UNL     1      -1.686   0.660  -1.123  1.00  0.00     0.189 HD
HETATM    3  C10 UNL     1      -1.987  -1.173  -0.167  1.00  0.00     0.268 C 
HETATM    4  O5  UNL     1      -1.570  -1.984   0.677  1.00  0.00    -0.269 OA
ENDROOT
BRANCH   1   5
HETATM    5  N3  UNL     1      -0.170   0.403   0.211  1.00  0.00    -0.316 N 
ATOM      6  H3  UNL     1      -0.149   1.240   0.794  1.00  0.00     0.181 HD
BRANCH   5   7
HETATM    7  C9  UNL     1       1.007  -0.406   0.042  1.00  0.00     0.201 A 
HETATM    8  C8  UNL     1       2.194   0.122   0.752  1.00  0.00     0.202 A 
HETATM    9  N2  UNL     1       3.295   0.395  -0.077  1.00  0.00    -0.276 N 
HETATM   10  S1  UNL     1       1.762   1.540   1.825  1.00  0.00    -0.066 SA
HETATM   11  C6  UNL     1       3.170   0.260  -1.387  1.00  0.00     0.084 A 
HETATM   12  C7  UNL     1       4.543   0.806   0.345  1.00  0.00     0.334 A 
HETATM   13  C5  UNL     1       4.164   0.492  -2.316  1.00  0.00     0.112 A 
HETATM   14  S2  UNL     1       1.494  -0.262  -1.696  1.00  0.00    -0.082 SA
HETATM   15  C4  UNL     1       5.402   0.902  -1.864  1.00  0.00     0.254 A 
HETATM   16  N1  UNL     1       5.511   1.036  -0.517  1.00  0.00    -0.257 N 
HETATM   17  O3  UNL     1       6.362   1.137  -2.635  1.00  0.00    -0.268 OA
HETATM   18  O4  UNL     1       4.781   0.969   1.567  1.00  0.00    -0.246 OA
BRANCH  16  19
HETATM   19  C3  UNL     1       6.812   1.480  -0.023  1.00  0.00     0.248 C 
BRANCH  19  20
HETATM   20  C2  UNL     1       7.629   0.271   0.235  1.00  0.00     0.277 C 
HETATM   21  O2  UNL     1       7.168  -0.899   0.019  1.00  0.00    -0.263 OA
BRANCH  20  22
HETATM   22  O1  UNL     1       8.931   0.359   0.721  1.00  0.00    -0.325 OA
HETATM   23  C1  UNL     1       9.682  -0.810   0.959  1.00  0.00     0.213 C 
ENDBRANCH  20  22
ENDBRANCH  19  20
ENDBRANCH  16  19
ENDBRANCH   5   7
ENDBRANCH   1   5
BRANCH   3  24
HETATM   24  C11 UNL     1      -3.246  -1.513  -0.910  1.00  0.00     0.308 C 
BRANCH  24  25
HETATM   25  N5  UNL     1      -3.747  -2.796  -0.478  1.00  0.00    -0.064 N 
ATOM     26  H53 UNL     1      -3.043  -3.529  -0.565  1.00  0.00     0.275 HD
ATOM     27  H52 UNL     1      -3.879  -2.833   0.533  1.00  0.00     0.275 HD
ATOM     28  H51 UNL     1      -4.603  -3.027  -0.983  1.00  0.00     0.275 HD
ENDBRANCH  24  25
BRANCH  24  29
HETATM   29  C12 UNL     1      -4.292  -0.438  -0.679  1.00  0.00     0.251 C 
HETATM   30  C13 UNL     1      -5.528  -0.814  -1.436  1.00  0.00     0.269 C 
HETATM   31  N6  UNL     1      -6.681  -0.912  -0.540  1.00  0.00    -0.057 N 
HETATM   32  C14 UNL     1      -6.819   0.391   0.093  1.00  0.00     0.311 C 
ATOM     33  H62 UNL     1      -7.531  -1.227  -1.007  1.00  0.00     0.278 HD
ATOM     34  H61 UNL     1      -6.611  -1.681   0.127  1.00  0.00     0.278 HD
HETATM   35  C16 UNL     1      -5.596   0.709   0.917  1.00  0.00     0.277 C 
HETATM   36  N7  UNL     1      -4.542  -0.270   0.743  1.00  0.00    -0.064 N 
ATOM     37  H72 UNL     1      -4.749  -1.153   1.210  1.00  0.00     0.277 HD
ATOM     38  H71 UNL     1      -3.697  -0.030   1.262  1.00  0.00     0.277 HD
BRANCH  32  39
HETATM   39  C15 UNL     1      -8.065   0.475   0.893  1.00  0.00     0.206 C 
HETATM   40  O6  UNL     1      -8.878  -0.450   1.007  1.00  0.00    -0.646 OA
HETATM   41  O7  UNL     1      -8.315   1.670   1.543  1.00  0.00    -0.646 OA
ENDBRANCH  32  39
ENDBRANCH  24  29
ENDBRANCH   3  24
TORSDOF 9
