REMARK  17 active torsions:
REMARK  status: ('A' for Active; 'I' for Inactive)
REMARK    1  A    between atoms: C2_2  and  C3_3 
REMARK    2  A    between atoms: C3_3  and  N1_5 
REMARK    3  A    between atoms: N1_5  and  C5_7 
REMARK    4  A    between atoms: C5_7  and  O1_8 
REMARK    5  A    between atoms: C5_7  and  C6_10 
REMARK    6  A    between atoms: C6_10  and  C7_11 
REMARK    7  A    between atoms: C9_13  and  C10_14 
REMARK    8  A    between atoms: C9_13  and  C23_40 
REMARK       I    between atoms: C10_14  and  N2_16 
REMARK    9  A    between atoms: N2_16  and  C11_18 
REMARK   10  A    between atoms: C11_18  and  O3_19 
REMARK   11  A    between atoms: C11_18  and  C13_21 
REMARK       I    between atoms: C13_21  and  N3_23 
REMARK   12  A    between atoms: N3_23  and  C14_25 
REMARK   13  A    between atoms: C14_25  and  C15_26 
REMARK   14  A    between atoms: C14_25  and  C22_33 
REMARK   15  A    between atoms: C15_26  and  C16_27 
REMARK   16  A    between atoms: C22_33  and  N4_34 
REMARK   17  A    between atoms: C22_33  and  O5_38 
ROOT
HETATM    1  C11 UNL     1      -0.002  -0.865  -0.525  1.00  0.00     0.316 C 
ENDROOT
BRANCH   1   2
HETATM    2  N2  UNL     1       1.052   0.127  -0.700  1.00  0.00    -0.323 N 
HETATM    3  C10 UNL     1       1.726   0.749   0.353  1.00  0.00     0.254 C 
HETATM    4  O2  UNL     1       1.398   0.447   1.526  1.00  0.00    -0.268 OA
ATOM      5  H2  UNL     1       1.314   0.383  -1.652  1.00  0.00     0.165 HD
BRANCH   3   6
HETATM    6  C9  UNL     1       2.830   1.760   0.104  1.00  0.00     0.044 C 
HETATM    7  C6  UNL     1       3.947   1.166  -0.575  1.00  0.00     0.008 C 
BRANCH   7   8
HETATM    8  C5  UNL     1       4.736   0.070   0.009  1.00  0.00     0.143 C 
BRANCH   8   9
HETATM    9  N1  UNL     1       4.529  -0.772   1.099  1.00  0.00    -0.366 N 
ATOM     10  H1  UNL     1       3.697  -0.691   1.684  1.00  0.00     0.162 HD
BRANCH   9  11
HETATM   11  C3  UNL     1       5.573  -1.793   1.373  1.00  0.00     0.079 C 
HETATM   12  C4  UNL     1       5.003  -3.175   1.431  1.00  0.00     0.032 C 
BRANCH  11  13
HETATM   13  C2  UNL     1       6.341  -1.438   2.650  1.00  0.00     0.020 C 
HETATM   14  C1  UNL     1       7.505  -2.412   2.816  1.00  0.00     0.007 C 
ENDBRANCH  11  13
ENDBRANCH   9  11
ENDBRANCH   8   9
BRANCH   8  15
HETATM   15  O1  UNL     1       5.864  -0.196  -0.591  1.00  0.00    -0.346 OA
ATOM     16  H1  UNL     1       6.005   0.378  -1.334  1.00  0.00     0.219 HD
ENDBRANCH   8  15
ENDBRANCH   7   8
BRANCH   7  17
HETATM   17  C7  UNL     1       4.873   2.003  -1.430  1.00  0.00     0.039 C 
HETATM   18  C8  UNL     1       4.243   3.143  -2.150  1.00  0.00     0.010 C 
ENDBRANCH   7  17
BRANCH   6  19
HETATM   19  C23 UNL     1       2.898   2.664   1.255  1.00  0.00    -0.071 C 
HETATM   20  C24 UNL     1       3.565   2.176   2.504  1.00  0.00     0.044 C 
HETATM   21  C25 UNL     1       3.256   4.113   0.953  1.00  0.00     0.044 C 
ENDBRANCH   6  19
ENDBRANCH   3   6
ENDBRANCH   1   2
BRANCH   1  22
HETATM   22  O3  UNL     1      -0.014  -1.694  -1.590  1.00  0.00    -0.362 OA
HETATM   23  C12 UNL     1       0.406  -3.009  -1.330  1.00  0.00     0.204 C 
ENDBRANCH   1  22
BRANCH   1  24
HETATM   24  C13 UNL     1      -1.325  -0.167  -0.333  1.00  0.00     0.267 C 
HETATM   25  O4  UNL     1      -1.346   1.068  -0.378  1.00  0.00    -0.269 OA
HETATM   26  N3  UNL     1      -2.514  -0.886  -0.111  1.00  0.00    -0.348 N 
ATOM     27  H3  UNL     1      -2.430  -1.902  -0.084  1.00  0.00     0.163 HD
BRANCH  26  28
HETATM   28  C14 UNL     1      -3.826  -0.352   0.081  1.00  0.00     0.140 C 
BRANCH  28  29
HETATM   29  C15 UNL     1      -4.798  -0.977  -0.859  1.00  0.00     0.034 C 
BRANCH  29  30
HETATM   30  C16 UNL     1      -6.215  -0.483  -0.742  1.00  0.00    -0.013 C 
HETATM   31  C17 UNL     1      -7.046  -1.247  -1.750  1.00  0.00     0.005 C 
HETATM   32  C18 UNL     1      -8.476  -0.757  -1.700  1.00  0.00     0.000 C 
HETATM   33  C19 UNL     1      -8.493   0.615  -2.306  1.00  0.00     0.000 C 
HETATM   34  C20 UNL     1      -7.108   1.225  -2.366  1.00  0.00     0.000 C 
HETATM   35  C21 UNL     1      -6.335   0.984  -1.092  1.00  0.00     0.005 C 
ENDBRANCH  29  30
ENDBRANCH  28  29
BRANCH  28  36
HETATM   36  C22 UNL     1      -4.250  -0.492   1.534  1.00  0.00     0.339 C 
BRANCH  36  37
HETATM   37  N4  UNL     1      -4.322  -1.835   1.992  1.00  0.00    -0.051 N 
ATOM     38  H43 UNL     1      -4.931  -2.386   1.388  1.00  0.00     0.277 HD
ATOM     39  H42 UNL     1      -3.437  -2.315   1.830  1.00  0.00     0.277 HD
ATOM     40  H41 UNL     1      -4.607  -1.929   2.967  1.00  0.00     0.277 HD
ENDBRANCH  36  37
BRANCH  36  41
HETATM   41  O5  UNL     1      -3.321   0.227   2.291  1.00  0.00    -0.368 OA
ATOM     42  H5  UNL     1      -3.586   0.140   3.199  1.00  0.00     0.212 HD
ENDBRANCH  36  41
ENDBRANCH  28  36
ENDBRANCH  26  28
ENDBRANCH   1  24
TORSDOF 17
