REMARK  4 active torsions:
REMARK  status: ('A' for Active; 'I' for Inactive)
REMARK    1  A    between atoms: C2_3  and  O1_4 
REMARK    2  A    between atoms: C3_6  and  C4_7 
REMARK       I    between atoms: C4_7  and  N2_9 
REMARK    3  A    between atoms: N2_9  and  N3_11 
REMARK    4  A    between atoms: N7_21  and  N8_23 
ROOT
HETATM    1  C1  UNL     1      -3.125  -1.269   0.921  1.00  0.00     0.177 C 
HETATM    2  N1  UNL     1      -2.248  -0.277   0.294  1.00  0.00    -0.164 N 
HETATM    3  C2  UNL     1      -0.948  -0.318   0.617  1.00  0.00     0.178 A 
HETATM    4  C3  UNL     1      -0.053   0.586   0.067  1.00  0.00     0.153 A 
HETATM    5  C6  UNL     1      -0.571   1.506  -0.812  1.00  0.00     0.279 A 
HETATM    6  O3  UNL     1       0.189   2.371  -1.360  1.00  0.00    -0.266 OA
HETATM    7  N6  UNL     1      -1.868   1.531  -1.122  1.00  0.00    -0.153 N 
ATOM      8  H6  UNL     1      -2.221   2.227  -1.779  1.00  0.00     0.187 HD
HETATM    9  C7  UNL     1      -2.725   0.626  -0.562  1.00  0.00     0.703 A 
HETATM   10  N7  UNL     1      -3.921   0.708  -0.897  1.00  0.00    -0.138 N 
ATOM     11  H7  UNL     1      -4.117   1.456  -1.562  1.00  0.00     0.205 HD
ENDROOT
BRANCH   4  12
HETATM   12  C4  UNL     1       1.335   0.493   0.454  1.00  0.00     0.280 C 
HETATM   13  O2  UNL     1       1.632  -0.440   1.294  1.00  0.00    -0.266 OA
HETATM   14  N2  UNL     1       2.359   1.323  -0.006  1.00  0.00    -0.263 N 
ATOM     15  H2  UNL     1       2.158   2.070  -0.671  1.00  0.00     0.190 HD
BRANCH  14  16
HETATM   16  N3  UNL     1       3.709   1.111   0.471  1.00  0.00    -0.273 N 
HETATM   17  C5  UNL     1       4.335   0.085   0.057  1.00  0.00     0.215 C 
HETATM   18  N4  UNL     1       3.729  -0.822  -0.844  1.00  0.00    -0.065 NA
HETATM   19  N5  UNL     1       5.662  -0.126   0.525  1.00  0.00    -0.065 NA
ATOM     20  H3  UNL     1       4.145   1.766   1.120  1.00  0.00     0.189 HD
ENDBRANCH  14  16
ENDBRANCH   4  12
BRANCH   3  21
HETATM   21  O1  UNL     1      -0.504  -1.280   1.515  1.00  0.00    -0.345 OA
ATOM     22  H1  UNL     1       0.418  -1.309   1.744  1.00  0.00     0.219 HD
ENDBRANCH   3  21
BRANCH  10  23
HETATM   23  N8  UNL     1      -5.007  -0.012  -0.541  1.00  0.00    -0.331 N 
ATOM     24  H82 UNL     1      -4.789  -0.754   0.124  1.00  0.00     0.177 HD
ATOM     25  H81 UNL     1      -5.987   0.055  -0.816  1.00  0.00     0.177 HD
ENDBRANCH  10  23
TORSDOF 4
