REMARK  7 active torsions:
REMARK  status: ('A' for Active; 'I' for Inactive)
REMARK    1  A    between atoms: N1_2  and  N2_3 
REMARK    2  A    between atoms: N2_3  and  C3_5 
REMARK    3  A    between atoms: N5_13  and  C7_15 
REMARK    4  A    between atoms: C7_15  and  C8_16 
REMARK    5  A    between atoms: C9_19  and  N7_20 
REMARK    6  A    between atoms: C10_25  and  N9_26 
REMARK    7  A    between atoms: C11_29  and  N10_30 
ROOT
HETATM    1  C8  UNL     1      -3.034   0.043  -0.138  1.00  0.00     0.081 A 
HETATM    2  N6  UNL     1      -2.774   0.171   1.202  1.00  0.00    -0.192 N 
ATOM      3  H6  UNL     1      -1.805   0.228   1.516  1.00  0.00     0.184 HD
HETATM    4  C9  UNL     1      -3.754   0.223   2.108  1.00  0.00     0.677 A 
HETATM    5  N8  UNL     1      -5.003   0.148   1.675  1.00  0.00    -0.175 N 
ATOM      6  H8  UNL     1      -5.758   0.188   2.360  1.00  0.00     0.186 HD
HETATM    7  C10 UNL     1      -5.333   0.018   0.335  1.00  0.00     0.150 A 
HETATM    8  C11 UNL     1      -4.327  -0.038  -0.615  1.00  0.00     0.171 A 
ENDROOT
BRANCH   1   9
HETATM    9  C7  UNL     1      -1.886  -0.004  -1.100  1.00  0.00     0.181 C 
BRANCH   9  10
HETATM   10  N5  UNL     1      -0.688   0.059  -0.293  1.00  0.00    -0.366 N 
HETATM   11  C6  UNL     1       0.522   0.002  -0.690  1.00  0.00     0.187 A 
HETATM   12  C5  UNL     1       0.863  -0.131  -2.014  1.00  0.00     0.306 A 
HETATM   13  N11 UNL     1       1.524   0.042   0.242  1.00  0.00    -0.169 N 
HETATM   14  N4  UNL     1       2.178  -0.214  -2.314  1.00  0.00    -0.244 N 
HETATM   15  O1  UNL     1       0.022  -0.178  -2.941  1.00  0.00    -0.262 OA
HETATM   16  N3  UNL     1       3.128  -0.172  -1.394  1.00  0.00    -0.126 N 
HETATM   17  C4  UNL     1       2.567  -0.362  -3.703  1.00  0.00     0.182 C 
HETATM   18  C3  UNL     1       2.814  -0.042  -0.074  1.00  0.00     0.712 A 
ATOM     19  H3  UNL     1       4.106  -0.238  -1.676  1.00  0.00     0.206 HD
ATOM     20  H11 UNL     1       1.270   0.141   1.225  1.00  0.00     0.186 HD
ATOM     21  H5  UNL     1      -0.827   0.161   0.712  1.00  0.00     0.161 HD
BRANCH  18  22
HETATM   22  N2  UNL     1       3.881  -0.029   0.851  1.00  0.00    -0.132 N 
HETATM   23  C2  UNL     1       4.505  -1.254   1.327  1.00  0.00     0.192 C 
BRANCH  22  24
HETATM   24  N1  UNL     1       4.362   1.193   1.321  1.00  0.00    -0.129 NA
HETATM   25  C1  UNL     1       4.851   1.086   2.685  1.00  0.00     0.159 C 
ENDBRANCH  22  24
ENDBRANCH  18  22
ENDBRANCH   9  10
ENDBRANCH   1   9
BRANCH   8  26
HETATM   26  N10 UNL     1      -4.552  -0.187  -2.004  1.00  0.00    -0.110 N 
HETATM   27  O2  UNL     1      -3.643  -0.161  -2.861  1.00  0.00    -0.532 OA
HETATM   28  O3  UNL     1      -5.796  -0.364  -2.569  1.00  0.00    -0.532 OA
ENDBRANCH   8  26
BRANCH   4  29
HETATM   29  N7  UNL     1      -3.438   0.345   3.362  1.00  0.00    -0.234 N 
ATOM     30  H72 UNL     1      -2.476   0.403   3.696  1.00  0.00     0.174 HD
ATOM     31  H71 UNL     1      -4.186   0.385   4.054  1.00  0.00     0.174 HD
ENDBRANCH   4  29
BRANCH   7  32
HETATM   32  N9  UNL     1      -6.542  -0.046   0.028  1.00  0.00    -0.383 N 
ATOM     33  H92 UNL     1      -7.283  -0.005   0.728  1.00  0.00     0.157 HD
ATOM     34  H91 UNL     1      -6.785  -0.142  -0.958  1.00  0.00     0.157 HD
ENDBRANCH   7  32
TORSDOF 7
