REMARK  13 active torsions:
REMARK  status: ('A' for Active; 'I' for Inactive)
REMARK    1  A    between atoms: O1_2  and  C2_3 
REMARK    2  A    between atoms: C3_4  and  O2_5 
REMARK    3  A    between atoms: C4_7  and  C5_8 
REMARK    4  A    between atoms: C5_8  and  O3_9 
REMARK    5  A    between atoms: C6_12  and  O5_13 
REMARK    6  A    between atoms: O5_13  and  C7_14 
REMARK    7  A    between atoms: C13_23  and  C14_24 
REMARK    8  A    between atoms: C14_24  and  N2_25 
REMARK    9  A    between atoms: N2_25  and  C17_28 
REMARK   10  A    between atoms: C17_28  and  C18_29 
REMARK   11  A    between atoms: C18_29  and  C19_30 
REMARK   12  A    between atoms: C19_30  and  C20_31 
REMARK   13  A    between atoms: C32_43  and  O7_44 
ROOT
HETATM    1  C7  UNL     1      -3.110   0.319  -0.866  1.00  0.00     0.146 A 
HETATM    2  C8  UNL     1      -1.893   0.609  -1.448  1.00  0.00     0.066 A 
HETATM    3  C9  UNL     1      -1.048  -0.505  -1.260  1.00  0.00    -0.014 A 
HETATM    4  C10 UNL     1      -1.811  -1.403  -0.570  1.00  0.00     0.087 A 
HETATM    5  N1  UNL     1      -3.066  -0.909  -0.330  1.00  0.00    -0.333 N 
ATOM      6  H1  UNL     1      -3.822  -1.385   0.162  1.00  0.00     0.168 HD
HETATM    7  C11 UNL     1      -1.130  -2.647  -0.215  1.00  0.00     0.177 C 
HETATM    8  O6  UNL     1      -1.773  -3.703  -0.323  1.00  0.00    -0.291 OA
HETATM    9  C12 UNL     1       0.268  -2.488   0.240  1.00  0.00     0.098 C 
HETATM   10  C13 UNL     1       1.167  -1.666  -0.721  1.00  0.00     0.007 C 
HETATM   11  C23 UNL     1       1.784  -2.689  -1.560  1.00  0.00     0.010 A 
HETATM   12  C24 UNL     1       2.536  -1.944  -2.682  1.00  0.00    -0.001 A 
HETATM   13  C25 UNL     1       1.536  -1.678  -3.731  1.00  0.00     0.007 C 
HETATM   14  C26 UNL     1       0.199  -1.482  -3.061  1.00  0.00     0.015 C 
HETATM   15  C27 UNL     1       0.330  -0.814  -1.679  1.00  0.00    -0.004 C 
HETATM   16  C28 UNL     1       0.922   0.530  -2.017  1.00  0.00     0.021 C 
HETATM   17  C29 UNL     1       2.922  -3.251  -2.141  1.00  0.00    -0.039 A 
HETATM   18  C30 UNL     1       4.341  -3.407  -1.659  1.00  0.00     0.015 C 
HETATM   19  C31 UNL     1       2.704  -4.317  -3.275  1.00  0.00     0.015 C 
ENDROOT
BRANCH   1  20
HETATM   20  O5  UNL     1      -4.175   1.207  -0.867  1.00  0.00    -0.302 OA
BRANCH  20  21
HETATM   21  C6  UNL     1      -5.395   0.834  -0.241  1.00  0.00     0.299 C 
HETATM   22  O4  UNL     1      -5.353   1.535   1.003  1.00  0.00    -0.348 OA
HETATM   23  C4  UNL     1      -6.529   1.301   1.688  1.00  0.00     0.179 C 
HETATM   24  C3  UNL     1      -7.689   1.923   0.976  1.00  0.00     0.180 C 
HETATM   25  C2  UNL     1      -7.182   2.480  -0.360  1.00  0.00     0.185 C 
HETATM   26  C32 UNL     1      -6.527   1.319  -1.085  1.00  0.00     0.205 C 
BRANCH  23  27
HETATM   27  C5  UNL     1      -6.403   1.931   3.056  1.00  0.00     0.198 C 
BRANCH  27  28
HETATM   28  O3  UNL     1      -6.193   3.297   2.937  1.00  0.00    -0.398 OA
ATOM     29  H3  UNL     1      -6.114   3.693   3.797  1.00  0.00     0.209 HD
ENDBRANCH  27  28
ENDBRANCH  23  27
BRANCH  24  30
HETATM   30  O2  UNL     1      -8.238   2.950   1.740  1.00  0.00    -0.390 OA
ATOM     31  H2  UNL     1      -8.552   2.605   2.568  1.00  0.00     0.210 HD
ENDBRANCH  24  30
BRANCH  25  32
HETATM   32  O1  UNL     1      -8.177   3.088  -1.083  1.00  0.00    -0.385 OA
HETATM   33  C1  UNL     1      -7.791   4.436  -1.270  1.00  0.00     0.202 C 
ENDBRANCH  25  32
BRANCH  26  34
HETATM   34  O7  UNL     1      -6.108   1.708  -2.374  1.00  0.00    -0.388 OA
ATOM     35  H7  UNL     1      -5.698   0.981  -2.828  1.00  0.00     0.210 HD
ENDBRANCH  26  34
ENDBRANCH  20  21
ENDBRANCH   1  20
BRANCH  10  36
HETATM   36  C14 UNL     1       1.894  -0.734   0.141  1.00  0.00     0.247 C 
BRANCH  36  37
HETATM   37  N2  UNL     1       2.720  -0.978   1.222  1.00  0.00    -0.074 N 
HETATM   38  C15 UNL     1       2.790  -2.278   1.836  1.00  0.00     0.272 C 
HETATM   39  C16 UNL     1       2.382  -0.094   2.391  1.00  0.00     0.272 C 
BRANCH  37  40
HETATM   40  C17 UNL     1       4.089  -0.618   0.922  1.00  0.00     0.236 C 
BRANCH  40  41
HETATM   41  C18 UNL     1       4.663   0.501   1.705  1.00  0.00     0.028 C 
BRANCH  41  42
HETATM   42  C19 UNL     1       6.127   0.773   1.305  1.00  0.00     0.005 C 
BRANCH  42  43
HETATM   43  C20 UNL     1       6.641   1.925   2.140  1.00  0.00    -0.023 C 
HETATM   44  C21 UNL     1       8.062   2.265   1.826  1.00  0.00     0.009 C 
HETATM   45  C22 UNL     1       6.386   1.695   3.593  1.00  0.00     0.009 C 
ENDBRANCH  42  43
ENDBRANCH  41  42
ENDBRANCH  40  41
ENDBRANCH  37  40
ENDBRANCH  36  37
ENDBRANCH  10  36
TORSDOF 13
