REMARK  10 active torsions:
REMARK  status: ('A' for Active; 'I' for Inactive)
REMARK    1  A    between atoms: O1_2  and  C2_3 
REMARK    2  A    between atoms: C6_8  and  N1_9 
REMARK    3  A    between atoms: N1_9  and  C7_11 
REMARK    4  A    between atoms: C7_11  and  C8_12 
REMARK    5  A    between atoms: C8_12  and  C9_13 
REMARK    6  A    between atoms: C9_13  and  C10_14 
REMARK    7  A    between atoms: C10_14  and  C12_16 
REMARK    8  A    between atoms: C14_21  and  N2_22 
REMARK    9  A    between atoms: N2_22  and  S1_24 
REMARK   10  A    between atoms: S1_24  and  C15_27 
ROOT
HETATM    1  C9  UNL     1      -0.464   1.473  -0.082  1.00  0.00     0.076 C 
HETATM    2  C13 UNL     1      -1.140   0.526  -1.045  1.00  0.00     0.066 C 
HETATM    3  C14 UNL     1      -2.208  -0.093  -0.143  1.00  0.00     0.119 C 
HETATM    4  C18 UNL     1      -1.483  -0.081   1.198  1.00  0.00     0.194 C 
HETATM    5  O5  UNL     1      -0.537   0.888   1.180  1.00  0.00    -0.377 OA
ENDROOT
BRANCH   1   6
HETATM    6  C8  UNL     1       0.982   1.726  -0.367  1.00  0.00     0.058 C 
BRANCH   6   7
HETATM    7  C7  UNL     1       1.839   0.457  -0.365  1.00  0.00     0.117 C 
BRANCH   7   8
HETATM    8  N1  UNL     1       3.215   0.803  -0.621  1.00  0.00    -0.414 N 
ATOM      9  H1  UNL     1       3.502   1.773  -0.753  1.00  0.00     0.153 HD
BRANCH   8  10
HETATM   10  C6  UNL     1       4.147  -0.249  -0.682  1.00  0.00     0.109 C 
HETATM   11  C2  UNL     1       4.279  -0.974   0.625  1.00  0.00     0.167 C 
HETATM   12  C3  UNL     1       4.039  -2.460   0.454  1.00  0.00     0.201 C 
HETATM   13  O2  UNL     1       4.883  -3.041  -0.467  1.00  0.00    -0.388 OA
HETATM   14  C4  UNL     1       4.940  -2.337  -1.666  1.00  0.00     0.169 C 
HETATM   15  C5  UNL     1       3.861  -1.278  -1.750  1.00  0.00     0.053 C 
BRANCH  11  16
HETATM   16  O1  UNL     1       5.508  -0.728   1.240  1.00  0.00    -0.387 OA
HETATM   17  C1  UNL     1       5.352  -0.109   2.476  1.00  0.00     0.202 C 
ENDBRANCH  11  16
ENDBRANCH   8  10
ENDBRANCH   7   8
ENDBRANCH   6   7
ENDBRANCH   1   6
BRANCH   1  18
HETATM   18  C10 UNL     1      -1.236   2.767  -0.103  1.00  0.00     0.124 C 
HETATM   19  C11 UNL     1      -1.096   3.431  -1.455  1.00  0.00     0.022 C 
BRANCH  18  20
HETATM   20  C12 UNL     1      -1.000   3.741   0.970  1.00  0.00     0.393 C 
HETATM   21  F1  UNL     1       0.254   4.257   1.112  1.00  0.00    -0.171 F 
HETATM   22  F2  UNL     1      -1.867   4.834   0.755  1.00  0.00    -0.171 F 
HETATM   23  F3  UNL     1      -1.369   3.277   2.230  1.00  0.00    -0.171 F 
ENDBRANCH  18  20
ENDBRANCH   1  18
BRANCH   3  24
HETATM   24  N2  UNL     1      -2.476  -1.436  -0.453  1.00  0.00    -0.310 N 
ATOM     25  H2  UNL     1      -1.717  -2.117  -0.422  1.00  0.00     0.172 HD
BRANCH  24  26
HETATM   26  S1  UNL     1      -4.013  -1.941  -0.872  1.00  0.00     0.264 S 
HETATM   27  O3  UNL     1      -4.524  -1.302  -2.153  1.00  0.00    -0.203 OA
HETATM   28  O4  UNL     1      -4.066  -3.444  -1.158  1.00  0.00    -0.203 OA
BRANCH  26  29
HETATM   29  C15 UNL     1      -5.154  -1.675   0.448  1.00  0.00     0.216 C 
HETATM   30  C16 UNL     1      -6.550  -2.180   0.063  1.00  0.00     0.071 C 
HETATM   31  C17 UNL     1      -5.298  -0.224   0.842  1.00  0.00     0.071 C 
HETATM   32  F4  UNL     1      -4.754  -2.384   1.550  1.00  0.00    -0.225 F 
ENDBRANCH  26  29
ENDBRANCH  24  26
ENDBRANCH   3  24
TORSDOF 10
