REMARK  6 active torsions:
REMARK  status: ('A' for Active; 'I' for Inactive)
REMARK    1  A    between atoms: C2_2  and  N1_3 
REMARK       I    between atoms: N1_3  and  C3_5 
REMARK    2  A    between atoms: C3_5  and  C4_7 
REMARK    3  A    between atoms: C4_7  and  S1_8 
REMARK    4  A    between atoms: S1_8  and  C5_9 
REMARK    5  A    between atoms: C5_9  and  C6_10 
REMARK       I    between atoms: C6_10  and  N2_12 
REMARK    6  A    between atoms: N3_15  and  C9_16 
ROOT
HETATM    1  C6  UNL     1       3.650  -0.782   1.594  1.00  0.00     0.230 C 
HETATM    2  O2  UNL     1       3.757  -1.955   2.074  1.00  0.00    -0.272 OA
HETATM    3  N2  UNL     1       2.482  -0.344   0.931  1.00  0.00    -0.326 N 
HETATM    4  C7  UNL     1       2.368   0.976   0.387  1.00  0.00     0.150 C 
HETATM    5  C8  UNL     1       0.998   1.043  -0.281  1.00  0.00     0.170 C 
HETATM    6  N3  UNL     1      -0.034   0.564   0.559  1.00  0.00    -0.286 N 
HETATM    7  O3  UNL     1       0.129  -0.644   1.067  1.00  0.00    -0.263 OA
HETATM    8  C26 UNL     1       1.356  -1.223   0.780  1.00  0.00     0.329 C 
ENDROOT
BRANCH   6   9
HETATM    9  C9  UNL     1      -1.384   0.880   0.102  1.00  0.00     0.114 C 
HETATM   10  C10 UNL     1      -1.522   0.184  -1.178  1.00  0.00     0.037 C 
HETATM   11  C11 UNL     1      -2.871   0.278  -1.908  1.00  0.00    -0.038 C 
HETATM   12  C12 UNL     1      -2.761   1.171  -3.155  1.00  0.00     0.015 C 
HETATM   13  C13 UNL     1      -3.195  -1.092  -2.415  1.00  0.00     0.010 C 
HETATM   14  C18 UNL     1      -3.814   0.888  -0.995  1.00  0.00     0.003 C 
HETATM   15  C14 UNL     1      -3.567  -2.004  -1.313  1.00  0.00     0.002 C 
HETATM   16  C15 UNL     1      -3.528  -1.397   0.062  1.00  0.00     0.010 C 
HETATM   17  C16 UNL     1      -4.188  -0.040   0.089  1.00  0.00    -0.032 C 
HETATM   18  C17 UNL     1      -5.643  -0.308   0.343  1.00  0.00     0.016 C 
HETATM   19  C22 UNL     1      -3.710   0.805   1.283  1.00  0.00    -0.031 C 
HETATM   20  C21 UNL     1      -4.403   2.127   1.093  1.00  0.00     0.010 C 
HETATM   21  C23 UNL     1      -4.209   0.100   2.547  1.00  0.00     0.016 C 
HETATM   22  C24 UNL     1      -2.243   0.798   1.251  1.00  0.00     0.015 C 
HETATM   23  C20 UNL     1      -5.342   2.363  -0.017  1.00  0.00     0.001 C 
HETATM   24  C19 UNL     1      -4.993   1.703  -1.365  1.00  0.00     0.006 C 
HETATM   25  C25 UNL     1      -1.827   1.962   2.192  1.00  0.00     0.013 C 
ENDBRANCH   6   9
BRANCH   1  26
HETATM   26  C5  UNL     1       4.843   0.105   1.779  1.00  0.00     0.177 C 
BRANCH  26  27
HETATM   27  S1  UNL     1       6.174  -0.752   2.661  1.00  0.00    -0.150 SA
BRANCH  27  28
HETATM   28  C4  UNL     1       6.823  -2.098   1.620  1.00  0.00     0.177 C 
BRANCH  28  29
HETATM   29  C3  UNL     1       7.497  -1.547   0.410  1.00  0.00     0.226 C 
HETATM   30  N1  UNL     1       8.075  -2.412  -0.544  1.00  0.00    -0.361 N 
ATOM     31  H1  UNL     1       8.024  -3.419  -0.390  1.00  0.00     0.162 HD
HETATM   32  O1  UNL     1       7.532  -0.299   0.271  1.00  0.00    -0.273 OA
BRANCH  30  33
HETATM   33  C2  UNL     1       8.739  -1.919  -1.734  1.00  0.00     0.118 C 
HETATM   34  C1  UNL     1       9.885  -1.051  -1.302  1.00  0.00     0.026 C 
ENDBRANCH  30  33
ENDBRANCH  28  29
ENDBRANCH  27  28
ENDBRANCH  26  27
ENDBRANCH   1  26
TORSDOF 6
