REMARK  3 active torsions:
REMARK  status: ('A' for Active; 'I' for Inactive)
REMARK    1  A    between atoms: O1_1  and  N1_3 
REMARK    2  A    between atoms: C5_8  and  C6_9 
REMARK    3  A    between atoms: C6_9  and  N2_10 
ROOT
HETATM    1  N1  UNL     1       1.537  -0.522  -1.158  1.00  0.00    -0.239 N 
HETATM    2  C1  UNL     1       2.735   0.061  -1.034  1.00  0.00     0.123 A 
HETATM    3  C2  UNL     1       3.277   0.467   0.166  1.00  0.00     0.020 A 
HETATM    4  C3  UNL     1       2.530   0.253   1.296  1.00  0.00     0.003 A 
HETATM    5  C4  UNL     1       1.281  -0.352   1.186  1.00  0.00     0.029 A 
HETATM    6  C5  UNL     1       0.809  -0.731  -0.062  1.00  0.00     0.058 A 
ENDROOT
BRANCH   6   7
HETATM    7  C6  UNL     1      -0.524  -1.371  -0.138  1.00  0.00     0.188 C 
BRANCH   7   8
HETATM    8  N2  UNL     1      -1.534  -0.342  -0.297  1.00  0.00    -0.346 N 
HETATM    9  C7  UNL     1      -2.034   0.189  -1.440  1.00  0.00     0.109 A 
HETATM   10  C8  UNL     1      -2.976   1.140  -1.114  1.00  0.00     0.106 A 
HETATM   11  N3  UNL     1      -3.045   1.183   0.227  1.00  0.00    -0.361 N 
HETATM   12  C9  UNL     1      -2.167   0.281   0.710  1.00  0.00     0.182 A 
ATOM     13  H3  UNL     1      -3.652   1.789   0.780  1.00  0.00     0.166 HD
ENDBRANCH   7   8
ENDBRANCH   6   7
BRANCH   1  14
HETATM   14  O1  UNL     1       1.063  -0.903  -2.411  1.00  0.00    -0.283 OA
ATOM     15  H1  UNL     1       0.212  -1.317  -2.499  1.00  0.00     0.245 HD
ENDBRANCH   1  14
TORSDOF 3
