REMARK  3 active torsions:
REMARK  status: ('A' for Active; 'I' for Inactive)
REMARK    1  A    between atoms: C1_4  and  C2_6 
REMARK    2  A    between atoms: C2_6  and  N3_7 
REMARK    3  A    between atoms: N3_7  and  C3_9 
ROOT
HETATM    1  C3  UNL     1       0.207  -0.154   0.077  1.00  0.00     0.030 C 
HETATM    2  C4  UNL     1      -0.200  -0.123  -1.363  1.00  0.00     0.035 C 
HETATM    3  C5  UNL     1      -1.704  -0.260  -1.477  1.00  0.00    -0.012 C 
HETATM    4  C6  UNL     1      -2.202  -1.549  -0.890  1.00  0.00     0.009 C 
HETATM    5  C7  UNL     1      -1.759  -1.606   0.552  1.00  0.00    -0.012 C 
HETATM    6  C8  UNL     1      -2.417  -0.484   1.337  1.00  0.00     0.009 C 
HETATM    7  C9  UNL     1      -2.005   0.834   0.718  1.00  0.00    -0.012 C 
HETATM    8  C10 UNL     1      -2.374   0.892  -0.740  1.00  0.00     0.009 C 
HETATM    9  C11 UNL     1      -0.501   0.962   0.811  1.00  0.00     0.035 C 
HETATM   10  C12 UNL     1      -0.277  -1.467   0.694  1.00  0.00     0.035 C 
ENDROOT
BRANCH   1  11
HETATM   11  N3  UNL     1       1.595  -0.066   0.260  1.00  0.00    -0.387 N 
ATOM     12  H3  UNL     1       2.104  -0.834   0.698  1.00  0.00     0.159 HD
BRANCH  11  13
HETATM   13  C2  UNL     1       2.278   1.079  -0.160  1.00  0.00     0.128 C 
BRANCH  13  14
HETATM   14  C1  UNL     1       3.726   0.930   0.144  1.00  0.00     0.125 C 
HETATM   15  N1  UNL     1       4.343   1.753   0.919  1.00  0.00    -0.387 N 
ATOM     16  H12 UNL     1       5.336   1.651   1.128  1.00  0.00     0.157 HD
ATOM     17  H11 UNL     1       3.825   2.528   1.334  1.00  0.00     0.157 HD
HETATM   18  N2  UNL     1       4.446  -0.147  -0.433  1.00  0.00    -0.082 NA
ENDBRANCH  13  14
ENDBRANCH  11  13
ENDBRANCH   1  11
TORSDOF 3
