REMARK  6 active torsions:
REMARK  status: ('A' for Active; 'I' for Inactive)
REMARK    1  A    between atoms: C2_2  and  C3_3 
REMARK    2  A    between atoms: C3_3  and  N1_4 
REMARK       I    between atoms: N1_4  and  C4_6 
REMARK       I    between atoms: C4_6  and  N2_8 
REMARK    3  A    between atoms: N2_8  and  C5_10 
REMARK    4  A    between atoms: C5_10  and  C6_11 
REMARK    5  A    between atoms: C6_11  and  C7_12 
REMARK    6  A    between atoms: N4_22  and  O6_24 
ROOT
HETATM    1  C1  UNL     1      -0.066  -0.438   2.406  1.00  0.00     0.020 C 
HETATM    2  C2  UNL     1      -0.520   0.139   1.028  1.00  0.00     0.008 C 
HETATM    3  C8  UNL     1      -0.385  -0.959   0.088  1.00  0.00     0.326 C 
HETATM    4  N3  UNL     1      -1.188  -0.900  -1.103  1.00  0.00     0.038 N 
HETATM    5  C9  UNL     1      -0.976  -2.140  -1.830  1.00  0.00     0.359 C 
HETATM    6  O4  UNL     1      -0.744   0.099  -1.886  1.00  0.00    -0.062 OA
HETATM    7  C10 UNL     1      -2.597  -0.787  -0.835  1.00  0.00     0.406 C 
HETATM    8  O5  UNL     1      -3.123   0.203  -1.700  1.00  0.00    -0.295 OA
HETATM    9  C11 UNL     1      -4.238   0.768  -1.048  1.00  0.00     0.145 C 
HETATM   10  N4  UNL     1      -5.353   1.144  -1.605  1.00  0.00    -0.251 N 
ATOM     11  H4  UNL     1      -5.495   1.046  -2.610  1.00  0.00     0.196 HD
HETATM   12  C12 UNL     1      -3.839   0.825   0.373  1.00  0.00     0.076 C 
HETATM   13  C13 UNL     1      -2.567   1.649   0.616  1.00  0.00     0.020 C 
HETATM   14  C14 UNL     1      -2.010   0.459   1.296  1.00  0.00     0.012 C 
HETATM   15  C15 UNL     1      -2.944  -0.409   0.557  1.00  0.00     0.032 C 
HETATM   16  C16 UNL     1      -3.630  -1.499   1.356  1.00  0.00     0.021 C 
ENDROOT
BRANCH   2  17
HETATM   17  C3  UNL     1       0.189   1.425   0.908  1.00  0.00     0.136 C 
BRANCH  17  18
HETATM   18  N1  UNL     1       1.607   1.508   0.953  1.00  0.00    -0.342 N 
HETATM   19  C4  UNL     1       2.613   1.064   0.100  1.00  0.00     0.316 C 
HETATM   20  O1  UNL     1       2.435   0.488  -0.980  1.00  0.00    -0.247 OA
HETATM   21  N2  UNL     1       3.991   1.273   0.470  1.00  0.00    -0.343 N 
ATOM     22  H2  UNL     1       4.185   1.749   1.351  1.00  0.00     0.164 HD
ATOM     23  H1  UNL     1       1.959   1.992   1.779  1.00  0.00     0.164 HD
BRANCH  21  24
HETATM   24  C5  UNL     1       5.108   0.849  -0.333  1.00  0.00     0.135 C 
BRANCH  24  25
HETATM   25  C6  UNL     1       5.165  -0.631  -0.556  1.00  0.00     0.133 C 
BRANCH  25  26
HETATM   26  C7  UNL     1       6.356  -0.939  -1.386  1.00  0.00     0.174 C 
HETATM   27  O2  UNL     1       6.627  -2.120  -1.714  1.00  0.00    -0.648 OA
HETATM   28  O3  UNL     1       7.178   0.091  -1.805  1.00  0.00    -0.648 OA
ENDBRANCH  25  26
ENDBRANCH  24  25
ENDBRANCH  21  24
ENDBRANCH  17  18
ENDBRANCH   2  17
BRANCH  10  29
HETATM   29  O6  UNL     1      -6.321   1.669  -0.814  1.00  0.00    -0.288 OA
ATOM     30  H6  UNL     1      -7.135   1.943  -1.220  1.00  0.00     0.244 HD
ENDBRANCH  10  29
TORSDOF 6
