REMARK  7 active torsions:
REMARK  status: ('A' for Active; 'I' for Inactive)
REMARK    1  A    between atoms: C2_2  and  N1_3 
REMARK    2  A    between atoms: N1_3  and  C3_4 
REMARK    3  A    between atoms: N1_3  and  C8_10 
REMARK    4  A    between atoms: C3_4  and  C4_5 
REMARK    5  A    between atoms: C4_5  and  C5_6 
REMARK    6  A    between atoms: C5_6  and  N2_7 
REMARK    7  A    between atoms: C8_10  and  C9_11 
ROOT
HETATM    1  C9  UNL     1      -2.497  -0.183   0.027  1.00  0.00     0.122 C 
HETATM    2  C10 UNL     1      -3.566  -0.341   1.118  1.00  0.00     0.041 C 
HETATM    3  C11 UNL     1      -4.872  -0.823   0.526  1.00  0.00     0.084 C 
HETATM    4  S1  UNL     1      -5.138   0.095  -1.045  1.00  0.00    -0.095 SA
HETATM    5  C12 UNL     1      -3.983   1.481  -0.966  1.00  0.00     0.134 C 
HETATM    6  N3  UNL     1      -4.303   2.654  -1.326  1.00  0.00    -0.380 N 
ATOM      7  H31 UNL     1      -3.651   3.437  -1.281  1.00  0.00     0.158 HD
ATOM      8  H32 UNL     1      -5.233   2.876  -1.681  1.00  0.00     0.158 HD
HETATM    9  N4  UNL     1      -2.665   1.167  -0.463  1.00  0.00    -0.362 N 
ATOM     10  H4  UNL     1      -1.907   1.849  -0.454  1.00  0.00     0.162 HD
ENDROOT
BRANCH   1  11
HETATM   11  C8  UNL     1      -1.178  -0.493   0.616  1.00  0.00     0.083 C 
BRANCH  11  12
HETATM   12  N1  UNL     1      -0.029  -0.432  -0.181  1.00  0.00    -0.391 N 
BRANCH  12  13
HETATM   13  C2  UNL     1       0.111  -1.413  -1.201  1.00  0.00     0.117 C 
HETATM   14  C1  UNL     1      -0.437  -2.760  -0.805  1.00  0.00     0.026 C 
ENDBRANCH  12  13
BRANCH  12  15
HETATM   15  C3  UNL     1       0.517   0.845  -0.488  1.00  0.00     0.127 C 
BRANCH  15  16
HETATM   16  C4  UNL     1       2.019   0.893  -0.592  1.00  0.00     0.064 C 
BRANCH  16  17
HETATM   17  C5  UNL     1       2.739   0.490   0.656  1.00  0.00     0.058 C 
BRANCH  17  18
HETATM   18  N2  UNL     1       4.130   0.574   0.466  1.00  0.00    -0.402 N 
HETATM   19  C6  UNL     1       4.736   1.835   0.305  1.00  0.00     0.148 C 
HETATM   20  C7  UNL     1       4.868  -0.591   0.202  1.00  0.00     0.148 C 
ENDBRANCH  17  18
ENDBRANCH  16  17
ENDBRANCH  15  16
ENDBRANCH  12  15
ENDBRANCH  11  12
ENDBRANCH   1  11
TORSDOF 7
