REMARK  6 active torsions:
REMARK  status: ('A' for Active; 'I' for Inactive)
REMARK    1  A    between atoms: O1_1  and  C1_3 
REMARK    2  A    between atoms: C1_3  and  C2_4 
REMARK    3  A    between atoms: C2_4  and  C3_5 
REMARK    4  A    between atoms: C3_5  and  N1_6 
REMARK    5  A    between atoms: N1_6  and  C4_8 
REMARK    6  A    between atoms: C5_11  and  N3_12 
ROOT
HETATM    1  C4  UNL     1       1.377  -0.475  -0.357  1.00  0.00     0.707 A 
HETATM    2  N2  UNL     1       0.284   0.306  -0.422  1.00  0.00    -0.020 N 
ATOM      3  H2  UNL     1       0.264   1.275  -0.741  1.00  0.00     0.203 HD
HETATM    4  C5  UNL     1      -0.774  -0.399   0.002  1.00  0.00     0.709 A 
HETATM    5  N4  UNL     1      -0.352  -1.629   0.337  1.00  0.00    -0.117 N 
ATOM      6  H4  UNL     1      -0.928  -2.391   0.695  1.00  0.00     0.206 HD
HETATM    7  N5  UNL     1       0.969  -1.667   0.113  1.00  0.00    -0.117 N 
ATOM      8  H5  UNL     1       1.571  -2.474   0.274  1.00  0.00     0.206 HD
ENDROOT
BRANCH   1   9
HETATM    9  N1  UNL     1       2.577  -0.101  -0.696  1.00  0.00    -0.224 N 
ATOM     10  H1  UNL     1       2.713   0.851  -1.037  1.00  0.00     0.177 HD
BRANCH   9  11
HETATM   11  C3  UNL     1       3.714  -0.965  -0.611  1.00  0.00     0.140 C 
BRANCH  11  12
HETATM   12  C2  UNL     1       4.819  -0.301   0.219  1.00  0.00     0.046 C 
BRANCH  12  13
HETATM   13  C1  UNL     1       5.247   1.003  -0.418  1.00  0.00     0.165 C 
BRANCH  13  14
HETATM   14  O1  UNL     1       6.246   1.540   0.391  1.00  0.00    -0.401 OA
ATOM     15  H1  UNL     1       6.515   2.359  -0.009  1.00  0.00     0.209 HD
ENDBRANCH  13  14
ENDBRANCH  12  13
ENDBRANCH  11  12
ENDBRANCH   9  11
ENDBRANCH   1   9
BRANCH   4  16
HETATM   16  N3  UNL     1      -2.136   0.013   0.109  1.00  0.00    -0.216 N 
HETATM   17  C6  UNL     1      -3.170  -0.849   0.581  1.00  0.00     0.141 C 
HETATM   18  C7  UNL     1      -4.529  -0.555   0.038  1.00  0.00     0.020 C 
HETATM   19  C8  UNL     1      -4.876   0.905   0.019  1.00  0.00     0.003 C 
HETATM   20  C9  UNL     1      -3.730   1.724   0.567  1.00  0.00     0.020 C 
HETATM   21  C10 UNL     1      -2.508   1.377  -0.279  1.00  0.00     0.141 C 
ENDBRANCH   4  16
TORSDOF 6
