REMARK  6 active torsions:
REMARK  status: ('A' for Active; 'I' for Inactive)
REMARK    1  A    between atoms: C2_3  and  C3_4 
REMARK    2  A    between atoms: C3_4  and  N2_5 
REMARK    3  A    between atoms: C3_4  and  C10_17 
REMARK    4  A    between atoms: N2_5  and  C4_7 
REMARK    5  A    between atoms: C4_7  and  C5_8 
REMARK    6  A    between atoms: C5_8  and  N3_9 
ROOT
HETATM    1  N1  UNL     1      -2.938  -3.377  -2.769  1.00  0.00    -0.197 NA
HETATM    2  C1  UNL     1      -3.178  -2.652  -1.930  1.00  0.00     0.061 C 
HETATM    3  C2  UNL     1      -3.493  -1.708  -0.875  1.00  0.00     0.155 C 
ENDROOT
BRANCH   3   4
HETATM    4  C3  UNL     1      -2.272  -0.837  -0.531  1.00  0.00     0.141 C 
BRANCH   4   5
HETATM    5  N2  UNL     1      -1.247  -1.716  -0.110  1.00  0.00    -0.407 N 
ATOM      6  H2  UNL     1      -1.400  -2.725  -0.110  1.00  0.00     0.154 HD
BRANCH   5   7
HETATM    7  C4  UNL     1      -0.011  -1.181   0.310  1.00  0.00     0.159 C 
BRANCH   7   8
HETATM    8  C5  UNL     1       0.780  -0.517  -0.803  1.00  0.00     0.082 C 
BRANCH   8   9
HETATM    9  N3  UNL     1       2.002   0.021  -0.376  1.00  0.00    -0.369 N 
HETATM   10  C6  UNL     1       1.991   1.130   0.481  1.00  0.00     0.090 C 
HETATM   11  C7  UNL     1       3.303   1.227   1.227  1.00  0.00     0.277 C 
HETATM   12  N4  UNL     1       4.451   1.231   0.379  1.00  0.00    -0.069 N 
HETATM   13  C8  UNL     1       4.177   0.748  -0.972  1.00  0.00     0.252 C 
ATOM     14  H42 UNL     1       4.877   2.157   0.352  1.00  0.00     0.277 HD
ATOM     15  H41 UNL     1       5.215   0.705   0.803  1.00  0.00     0.277 HD
HETATM   16  C9  UNL     1       3.217  -0.448  -0.878  1.00  0.00     0.154 C 
ENDBRANCH   8   9
ENDBRANCH   7   8
ENDBRANCH   5   7
ENDBRANCH   4   5
BRANCH   4  17
HETATM   17  C10 UNL     1      -2.707   0.189   0.441  1.00  0.00     0.049 A 
HETATM   18  C11 UNL     1      -4.007   0.488   0.844  1.00  0.00     0.116 A 
HETATM   19  N5  UNL     1      -4.007   1.505   1.735  1.00  0.00    -0.360 N 
HETATM   20  C12 UNL     1      -2.710   1.845   1.892  1.00  0.00     0.180 A 
ATOM     21  H5  UNL     1      -4.816   1.926   2.192  1.00  0.00     0.166 HD
HETATM   22  N6  UNL     1      -1.944   1.058   1.120  1.00  0.00    -0.353 N 
ATOM     23  H6  UNL     1      -0.927   1.113   1.059  1.00  0.00     0.166 HD
ENDBRANCH   4  17
ENDBRANCH   3   4
TORSDOF 6
