REMARK  7 active torsions:
REMARK  status: ('A' for Active; 'I' for Inactive)
REMARK    1  A    between atoms: C3_7  and  C4_8 
REMARK    2  A    between atoms: C4_8  and  C5_9 
REMARK    3  A    between atoms: C5_9  and  S1_10 
REMARK    4  A    between atoms: S1_10  and  C6_11 
REMARK    5  A    between atoms: C6_11  and  C7_12 
REMARK    6  A    between atoms: C7_12  and  N3_13 
REMARK    7  A    between atoms: N3_13  and  C8_15 
ROOT
HETATM    1  C7  UNL     1       1.858  -0.880  -0.659  1.00  0.00     0.148 C 
ENDROOT
BRANCH   1   2
HETATM    2  C6  UNL     1       1.080  -0.379   0.522  1.00  0.00     0.094 C 
BRANCH   2   3
HETATM    3  S1  UNL     1      -0.403   0.484  -0.063  1.00  0.00    -0.167 SA
BRANCH   3   4
HETATM    4  C5  UNL     1      -1.548  -0.661  -0.878  1.00  0.00     0.078 C 
BRANCH   4   5
HETATM    5  C4  UNL     1      -2.782   0.025  -1.369  1.00  0.00     0.051 C 
BRANCH   5   6
HETATM    6  C3  UNL     1      -3.549   0.672  -0.285  1.00  0.00    -0.024 A 
HETATM    7  C1  UNL     1      -3.444   1.958   0.210  1.00  0.00     0.115 A 
HETATM    8  N1  UNL     1      -4.345   2.091   1.190  1.00  0.00    -0.312 N 
HETATM    9  N2  UNL     1      -5.022   0.960   1.353  1.00  0.00    -0.312 N 
ATOM     10  H1  UNL     1      -4.491   2.941   1.735  1.00  0.00     0.186 HD
HETATM   11  C2  UNL     1      -4.537   0.071   0.441  1.00  0.00     0.115 A 
ATOM     12  H2  UNL     1      -5.764   0.789   2.032  1.00  0.00     0.186 HD
ENDBRANCH   5   6
ENDBRANCH   4   5
ENDBRANCH   3   4
ENDBRANCH   2   3
ENDBRANCH   1   2
BRANCH   1  13
HETATM   13  N3  UNL     1       3.052  -1.577  -0.315  1.00  0.00    -0.223 N 
ATOM     14  H3  UNL     1       3.017  -2.596  -0.328  1.00  0.00     0.177 HD
BRANCH  13  15
HETATM   15  C8  UNL     1       4.165  -1.033   0.009  1.00  0.00     0.709 A 
HETATM   16  N4  UNL     1       5.278  -1.715   0.330  1.00  0.00    -0.115 N 
HETATM   17  N5  UNL     1       6.235  -0.815   0.610  1.00  0.00    -0.213 N 
ATOM     18  H4  UNL     1       5.378  -2.730   0.356  1.00  0.00     0.207 HD
HETATM   19  N6  UNL     1       5.753   0.404   0.474  1.00  0.00    -0.213 N 
ATOM     20  H5  UNL     1       7.191  -1.041   0.886  1.00  0.00     0.210 HD
HETATM   21  N7  UNL     1       4.491   0.266   0.108  1.00  0.00    -0.115 N 
ATOM     22  H6  UNL     1       6.254   1.280   0.622  1.00  0.00     0.210 HD
ATOM     23  H7  UNL     1       3.852   1.040  -0.074  1.00  0.00     0.207 HD
ENDBRANCH  13  15
ENDBRANCH   1  13
TORSDOF 7
