REMARK  6 active torsions:
REMARK  status: ('A' for Active; 'I' for Inactive)
REMARK       I    between atoms: N1_7  and  C6_8 
REMARK    1  A    between atoms: C6_8  and  C7_10 
REMARK    2  A    between atoms: C7_10  and  C8_11 
REMARK    3  A    between atoms: C8_11  and  C9_12 
REMARK       I    between atoms: C9_12  and  N2_14 
REMARK    4  A    between atoms: N3_17  and  C13_19 
REMARK    5  A    between atoms: C13_19  and  C14_20 
REMARK       I    between atoms: C14_20  and  N4_22 
REMARK       I    between atoms: N4_22  and  C15_24 
REMARK       I    between atoms: C15_24  and  N5_26 
REMARK    6  A    between atoms: N5_26  and  C16_28 
ROOT
HETATM    1  C9  UNL     1      -1.306   1.299   0.213  1.00  0.00     0.220 C 
HETATM    2  O2  UNL     1      -1.763   2.269   0.909  1.00  0.00    -0.273 OA
HETATM    3  N2  UNL     1       0.080   1.103   0.094  1.00  0.00    -0.349 N 
HETATM    4  C10 UNL     1       0.613   0.013  -0.697  1.00  0.00     0.154 C 
HETATM    5  C11 UNL     1       1.678  -0.745   0.082  1.00  0.00     0.257 C 
HETATM    6  N3  UNL     1       2.488   0.066   0.923  1.00  0.00    -0.059 N 
HETATM    7  C12 UNL     1       2.287  -0.174   2.323  1.00  0.00     0.273 C 
HETATM    8  C20 UNL     1       2.358   1.485   0.600  1.00  0.00     0.257 C 
HETATM    9  C21 UNL     1       0.976   2.017   0.796  1.00  0.00     0.154 C 
ENDROOT
BRANCH   1  10
HETATM   10  C8  UNL     1      -2.241   0.375  -0.470  1.00  0.00     0.112 C 
BRANCH  10  11
HETATM   11  C7  UNL     1      -3.675   0.810  -0.154  1.00  0.00     0.112 C 
BRANCH  11  12
HETATM   12  C6  UNL     1      -4.656  -0.091  -0.814  1.00  0.00     0.220 C 
HETATM   13  N1  UNL     1      -6.047   0.042  -0.662  1.00  0.00    -0.352 N 
HETATM   14  C5  UNL     1      -6.545   1.118   0.178  1.00  0.00     0.126 C 
HETATM   15  C22 UNL     1      -6.857  -0.906  -1.347  1.00  0.00     0.129 C 
HETATM   16  C4  UNL     1      -7.101   0.557   1.464  1.00  0.00     0.023 C 
HETATM   17  C3  UNL     1      -8.476   0.039   1.389  1.00  0.00     0.045 C 
HETATM   18  C2  UNL     1      -8.898  -0.638   0.127  1.00  0.00     0.101 C 
HETATM   19  C1  UNL     1      -9.509   0.349  -0.851  1.00  0.00     0.051 C 
HETATM   20  F1  UNL     1      -9.975  -1.469   0.506  1.00  0.00    -0.243 F 
HETATM   21  C23 UNL     1      -7.907  -1.551  -0.495  1.00  0.00     0.063 C 
HETATM   22  O1  UNL     1      -4.201  -1.008  -1.537  1.00  0.00    -0.273 OA
ENDBRANCH  11  12
ENDBRANCH  10  11
ENDBRANCH   1  10
BRANCH   6  23
HETATM   23  C13 UNL     1       3.902  -0.230   0.626  1.00  0.00     0.339 C 
BRANCH  23  24
HETATM   24  C14 UNL     1       4.287  -1.610   0.902  1.00  0.00     0.251 C 
HETATM   25  O3  UNL     1       3.324  -2.353   1.357  1.00  0.00    -0.271 OA
HETATM   26  N4  UNL     1       5.534  -2.222   0.744  1.00  0.00    -0.278 N 
HETATM   27  C15 UNL     1       6.728  -1.683   0.300  1.00  0.00     0.323 C 
ATOM     28  H4  UNL     1       5.568  -3.211   0.993  1.00  0.00     0.173 HD
HETATM   29  O4  UNL     1       7.738  -2.499   0.266  1.00  0.00    -0.247 OA
HETATM   30  N5  UNL     1       7.013  -0.379  -0.121  1.00  0.00    -0.335 N 
ATOM     31  H5  UNL     1       6.281   0.331  -0.133  1.00  0.00     0.165 HD
BRANCH  30  32
HETATM   32  C16 UNL     1       8.389  -0.043  -0.548  1.00  0.00     0.023 C 
HETATM   33  C17 UNL     1       8.483   1.413  -0.957  1.00  0.00     0.037 C 
HETATM   34  C18 UNL     1       8.729  -0.960  -1.695  1.00  0.00     0.037 C 
HETATM   35  C19 UNL     1       9.350  -0.271   0.578  1.00  0.00     0.037 C 
ENDBRANCH  30  32
ENDBRANCH  23  24
ENDBRANCH   6  23
TORSDOF 6
