REMARK  9 active torsions:
REMARK  status: ('A' for Active; 'I' for Inactive)
REMARK    1  A    between atoms: O1_2  and  C2_3 
REMARK    2  A    between atoms: C4_5  and  O2_6 
REMARK    3  A    between atoms: C7_9  and  N1_10 
REMARK       I    between atoms: N1_10  and  C8_11 
REMARK    4  A    between atoms: N1_10  and  C16_23 
REMARK    5  A    between atoms: C8_11  and  C9_13 
REMARK    6  A    between atoms: C9_13  and  N2_14 
REMARK    7  A    between atoms: C12_17  and  O4_18 
REMARK       I    between atoms: N3_26  and  C19_27 
REMARK    8  A    between atoms: C19_27  and  O6_29 
REMARK    9  A    between atoms: O6_29  and  C20_30 
ROOT
HETATM    1  N1  UNL     1       0.514   0.473  -0.053  1.00  0.00    -0.308 N 
HETATM    2  C8  UNL     1       1.580  -0.462   0.059  1.00  0.00     0.263 C 
HETATM    3  O3  UNL     1       1.254  -1.690   0.013  1.00  0.00    -0.267 OA
ENDROOT
BRANCH   1   4
HETATM    4  C7  UNL     1       0.866   1.853  -0.008  1.00  0.00     0.043 A 
HETATM    5  C6  UNL     1       0.881   2.570  -1.167  1.00  0.00     0.066 A 
HETATM    6  C4  UNL     1       1.226   3.928  -1.146  1.00  0.00     0.073 A 
HETATM    7  C3  UNL     1       1.557   4.571   0.031  1.00  0.00     0.073 A 
HETATM    8  C2  UNL     1       1.539   3.836   1.197  1.00  0.00     0.073 A 
HETATM    9  C26 UNL     1       1.197   2.502   1.156  1.00  0.00     0.066 A 
BRANCH   6  10
HETATM   10  O2  UNL     1       1.239   4.645  -2.312  1.00  0.00    -0.356 OA
HETATM   11  C5  UNL     1       1.584   6.009  -2.322  1.00  0.00     0.210 C 
ENDBRANCH   6  10
BRANCH   8  12
HETATM   12  O1  UNL     1       1.860   4.417   2.416  1.00  0.00    -0.356 OA
HETATM   13  C1  UNL     1       2.221   5.754   2.580  1.00  0.00     0.210 C 
ENDBRANCH   8  12
ENDBRANCH   1   4
BRANCH   1  14
HETATM   14  C16 UNL     1      -0.865   0.055  -0.205  1.00  0.00     0.096 C 
HETATM   15  C17 UNL     1      -1.685   0.585   0.925  1.00  0.00     0.045 C 
HETATM   16  C18 UNL     1      -3.099   0.962   0.462  1.00  0.00     0.130 C 
HETATM   17  N3  UNL     1      -3.526  -0.078  -0.451  1.00  0.00    -0.328 N 
HETATM   18  C19 UNL     1      -4.652  -0.914  -0.134  1.00  0.00     0.363 C 
HETATM   19  C24 UNL     1      -2.784  -0.239  -1.681  1.00  0.00     0.130 C 
HETATM   20  O5  UNL     1      -5.296  -0.770   0.930  1.00  0.00    -0.238 OA
HETATM   21  C25 UNL     1      -1.480   0.548  -1.508  1.00  0.00     0.045 C 
BRANCH  18  22
HETATM   22  O6  UNL     1      -5.082  -1.920  -0.981  1.00  0.00    -0.294 OA
BRANCH  22  23
HETATM   23  C20 UNL     1      -6.187  -2.722  -0.640  1.00  0.00     0.061 C 
HETATM   24  C21 UNL     1      -7.416  -1.878  -0.472  1.00  0.00     0.046 C 
HETATM   25  C22 UNL     1      -5.976  -3.516   0.620  1.00  0.00     0.046 C 
HETATM   26  C23 UNL     1      -6.394  -3.706  -1.773  1.00  0.00     0.046 C 
ENDBRANCH  22  23
ENDBRANCH  18  22
ENDBRANCH   1  14
BRANCH   2  27
HETATM   27  C9  UNL     1       2.988  -0.028   0.221  1.00  0.00     0.161 C 
BRANCH  27  28
HETATM   28  N2  UNL     1       3.918  -1.080   0.302  1.00  0.00    -0.381 N 
HETATM   29  C10 UNL     1       4.110  -1.845  -0.892  1.00  0.00     0.125 C 
HETATM   30  C11 UNL     1       5.534  -2.406  -0.833  1.00  0.00     0.051 C 
HETATM   31  C12 UNL     1       5.590  -3.392   0.323  1.00  0.00     0.121 C 
HETATM   32  C13 UNL     1       4.418  -3.221   1.254  1.00  0.00     0.056 C 
HETATM   33  C14 UNL     1       4.161  -1.728   1.514  1.00  0.00     0.082 C 
HETATM   34  C15 UNL     1       3.148  -1.587   2.602  1.00  0.00     0.032 C 
BRANCH  31  35
HETATM   35  O4  UNL     1       6.813  -3.350   0.979  1.00  0.00    -0.395 OA
ATOM     36  H4  UNL     1       6.848  -3.966   1.701  1.00  0.00     0.210 HD
ENDBRANCH  31  35
ENDBRANCH  27  28
ENDBRANCH   2  27
TORSDOF 9
