REMARK  7 active torsions:
REMARK  status: ('A' for Active; 'I' for Inactive)
REMARK    1  A    between atoms: C11_15  and  C12_16 
REMARK    2  A    between atoms: C12_16  and  S1_17 
REMARK    3  A    between atoms: S1_17  and  C13_18 
REMARK    4  A    between atoms: C13_18  and  C14_19 
REMARK    5  A    between atoms: C13_18  and  C18_26 
REMARK    6  A    between atoms: C14_19  and  N1_20 
REMARK    7  A    between atoms: N1_20  and  C15_23 
ROOT
HETATM    1  C12 UNL     1       0.822   1.091   0.407  1.00  0.00     0.084 C 
ENDROOT
BRANCH   1   2
HETATM    2  C11 UNL     1       2.188   0.839  -0.091  1.00  0.00     0.028 C 
HETATM    3  C2  UNL     1       2.781  -0.390   0.485  1.00  0.00    -0.049 C 
HETATM    4  C1  UNL     1       2.313  -1.119   1.449  1.00  0.00     0.020 C 
HETATM    5  C3  UNL     1       4.082  -0.778  -0.107  1.00  0.00     0.021 A 
HETATM    6  C4  UNL     1       4.404  -2.125  -0.339  1.00  0.00     0.169 A 
HETATM    7  C8  UNL     1       4.938   0.251  -0.411  1.00  0.00    -0.002 A 
HETATM    8  F1  UNL     1       3.485  -3.061  -0.016  1.00  0.00    -0.202 F 
HETATM    9  C5  UNL     1       5.626  -2.437  -0.895  1.00  0.00     0.197 A 
HETATM   10  F2  UNL     1       5.932  -3.730  -1.114  1.00  0.00    -0.199 F 
HETATM   11  C6  UNL     1       6.494  -1.414  -1.205  1.00  0.00     0.197 A 
HETATM   12  F3  UNL     1       7.721  -1.669  -1.760  1.00  0.00    -0.199 F 
HETATM   13  C7  UNL     1       6.168  -0.095  -0.973  1.00  0.00     0.165 A 
HETATM   14  F4  UNL     1       7.022   0.890  -1.281  1.00  0.00    -0.202 F 
HETATM   15  C9  UNL     1       4.580   1.650  -0.130  1.00  0.00     0.043 C 
HETATM   16  C10 UNL     1       3.148   1.992  -0.026  1.00  0.00     0.015 C 
ENDBRANCH   1   2
BRANCH   1  17
HETATM   17  S1  UNL     1      -0.255  -0.300  -0.090  1.00  0.00    -0.157 SA
BRANCH  17  18
HETATM   18  C13 UNL     1      -1.954  -0.024   0.485  1.00  0.00     0.105 C 
BRANCH  18  19
HETATM   19  C14 UNL     1      -2.815  -1.178   0.049  1.00  0.00     0.252 C 
BRANCH  19  20
HETATM   20  N1  UNL     1      -4.192  -1.025   0.471  1.00  0.00    -0.070 N 
ATOM     21  H12 UNL     1      -4.277  -0.877   1.477  1.00  0.00     0.277 HD
ATOM     22  H11 UNL     1      -4.598  -0.141   0.163  1.00  0.00     0.277 HD
BRANCH  20  23
HETATM   23  C15 UNL     1      -4.951  -2.173   0.013  1.00  0.00     0.186 A 
HETATM   24  C16 UNL     1      -4.614  -3.528   0.510  1.00  0.00     0.035 A 
HETATM   25  C17 UNL     1      -5.914  -2.801   0.936  1.00  0.00     0.035 A 
ENDBRANCH  20  23
ENDBRANCH  19  20
ENDBRANCH  18  19
BRANCH  18  26
HETATM   26  C18 UNL     1      -2.404   1.279  -0.011  1.00  0.00    -0.043 A 
HETATM   27  C19 UNL     1      -2.776   2.248   0.897  1.00  0.00     0.010 A 
HETATM   28  C20 UNL     1      -3.211   3.507   0.473  1.00  0.00     0.019 A 
HETATM   29  C21 UNL     1      -3.278   3.811  -0.867  1.00  0.00     0.011 A 
HETATM   30 BR1  UNL     1      -3.871   5.532  -1.491  1.00  0.00    -0.051 Br
HETATM   31  C22 UNL     1      -2.908   2.847  -1.782  1.00  0.00     0.019 A 
HETATM   32  C23 UNL     1      -2.480   1.607  -1.337  1.00  0.00     0.010 A 
ENDBRANCH  18  26
ENDBRANCH  17  18
ENDBRANCH   1  17
TORSDOF 7
