REMARK  9 active torsions:
REMARK  status: ('A' for Active; 'I' for Inactive)
REMARK    1  A    between atoms: C2_2  and  C4_4 
REMARK    2  A    between atoms: C4_4  and  N1_5 
REMARK    3  A    between atoms: N1_5  and  C22_33 
REMARK    4  A    between atoms: C5_6  and  C6_7 
REMARK    5  A    between atoms: C6_7  and  C7_8 
REMARK    6  A    between atoms: C6_7  and  N3_14 
REMARK    7  A    between atoms: C7_8  and  O1_9 
REMARK    8  A    between atoms: C7_8  and  N2_11 
REMARK    9  A    between atoms: C9_17  and  C10_18 
ROOT
HETATM    1  N3  UNL     1       0.304   1.100   0.235  1.00  0.00    -0.276 N 
HETATM    2  C8  UNL     1       1.531   0.470   0.664  1.00  0.00     0.252 A 
HETATM    3  O4  UNL     1       1.465  -0.417   1.573  1.00  0.00    -0.270 OA
HETATM    4  C9  UNL     1       2.873   0.748   0.151  1.00  0.00     0.179 A 
HETATM    5  N4  UNL     1       2.873   1.695  -0.932  1.00  0.00    -0.374 N 
ATOM      6  H4  UNL     1       3.757   1.926  -1.386  1.00  0.00     0.160 HD
HETATM    7  C16 UNL     1       1.700   2.309  -1.382  1.00  0.00     0.059 A 
HETATM    8  C17 UNL     1       1.838   3.218  -2.441  1.00  0.00     0.073 A 
HETATM    9  C18 UNL     1       0.735   3.847  -2.944  1.00  0.00     0.118 A 
HETATM   10  F1  UNL     1       0.928   4.721  -3.980  1.00  0.00    -0.206 F 
HETATM   11  C19 UNL     1      -0.510   3.595  -2.419  1.00  0.00     0.044 A 
HETATM   12  C20 UNL     1      -0.597   2.677  -1.358  1.00  0.00     0.035 A 
HETATM   13  C21 UNL     1       0.479   2.027  -0.824  1.00  0.00     0.069 A 
ENDROOT
BRANCH   1  14
HETATM   14  C6  UNL     1      -0.964   0.837   0.853  1.00  0.00     0.089 C 
BRANCH  14  15
HETATM   15  C5  UNL     1      -1.821  -0.121   0.045  1.00  0.00     0.116 C 
HETATM   16  N1  UNL     1      -2.781  -0.882   0.605  1.00  0.00    -0.383 N 
BRANCH  16  17
HETATM   17  C4  UNL     1      -3.721  -1.503  -0.265  1.00  0.00     0.126 C 
BRANCH  17  18
HETATM   18  C2  UNL     1      -4.774  -0.721  -0.927  1.00  0.00    -0.005 C 
HETATM   19  C1  UNL     1      -5.670  -1.616  -1.802  1.00  0.00     0.011 C 
HETATM   20  C3  UNL     1      -4.353   0.394  -1.839  1.00  0.00     0.011 C 
ENDBRANCH  17  18
ENDBRANCH  16  17
BRANCH  16  21
HETATM   21  C22 UNL     1      -2.854  -1.466   1.862  1.00  0.00     0.084 A 
HETATM   22  C23 UNL     1      -2.588  -3.013   1.795  1.00  0.00     0.027 A 
HETATM   23  C24 UNL     1      -1.839  -2.109   2.684  1.00  0.00     0.027 A 
ENDBRANCH  16  21
ENDBRANCH  14  15
BRANCH  14  24
HETATM   24  C7  UNL     1      -1.652   1.923   1.569  1.00  0.00     0.341 C 
BRANCH  24  25
HETATM   25  O1  UNL     1      -2.930   1.493   2.059  1.00  0.00    -0.366 OA
ATOM     26  H1  UNL     1      -3.374   2.194   2.521  1.00  0.00     0.212 HD
ENDBRANCH  24  25
BRANCH  24  27
HETATM   27  N2  UNL     1      -1.011   2.367   2.823  1.00  0.00    -0.118 N 
HETATM   28  O2  UNL     1       0.003   1.865   3.259  1.00  0.00    -0.534 OA
HETATM   29  O3  UNL     1      -1.661   3.418   3.486  1.00  0.00    -0.534 OA
ENDBRANCH  24  27
ENDBRANCH  14  24
ENDBRANCH   1  14
BRANCH   4  30
HETATM   30  C10 UNL     1       3.529  -0.512  -0.417  1.00  0.00     0.017 C 
HETATM   31  C11 UNL     1       3.470  -1.693   0.501  1.00  0.00     0.007 C 
HETATM   32  C12 UNL     1       4.563  -2.674   0.027  1.00  0.00     0.000 C 
HETATM   33  C13 UNL     1       5.897  -2.174   0.517  1.00  0.00     0.000 C 
HETATM   34  C14 UNL     1       5.782  -0.684   0.656  1.00  0.00     0.000 C 
HETATM   35  C15 UNL     1       5.018  -0.158  -0.545  1.00  0.00     0.007 C 
ENDBRANCH   4  30
TORSDOF 9
