REMARK  6 active torsions:
REMARK  status: ('A' for Active; 'I' for Inactive)
REMARK    1  A    between atoms: N1_1  and  C1_4 
REMARK    2  A    between atoms: C2_9  and  C3_10 
REMARK    3  A    between atoms: N6_15  and  C4_16 
REMARK    4  A    between atoms: C4_16  and  C5_17 
REMARK       I    between atoms: C5_17  and  N7_19 
REMARK    5  A    between atoms: N7_19  and  N8_20 
REMARK    6  A    between atoms: N11_31  and  N12_32 
ROOT
HETATM    1  C3  UNL     1       4.007   0.223   0.784  1.00  0.00     0.186 A 
HETATM    2  N4  UNL     1       3.599   1.303   1.469  1.00  0.00    -0.265 N 
ATOM      3  H4  UNL     1       4.222   2.019   1.843  1.00  0.00     0.190 HD
HETATM    4  N5  UNL     1       2.295   1.316   1.593  1.00  0.00    -0.224 N 
ATOM      5  H5  UNL     1       1.736   2.024   2.069  1.00  0.00     0.210 HD
HETATM    6  N6  UNL     1       1.836   0.218   0.972  1.00  0.00    -0.208 N 
HETATM    7  N10 UNL     1       2.874  -0.435   0.487  1.00  0.00    -0.263 N 
ATOM      8  H10 UNL     1       2.824  -1.309  -0.036  1.00  0.00     0.190 HD
ENDROOT
BRANCH   1   9
HETATM    9  C2  UNL     1       5.378  -0.105   0.466  1.00  0.00     0.207 A 
HETATM   10  N3  UNL     1       6.467   0.647   0.813  1.00  0.00    -0.266 N 
HETATM   11  N2  UNL     1       7.562   0.072   0.396  1.00  0.00    -0.129 N 
ATOM     12  H3  UNL     1       6.429   1.529   1.324  1.00  0.00     0.189 HD
HETATM   13  C1  UNL     1       7.256  -1.071  -0.239  1.00  0.00     0.713 A 
ATOM     14  H2  UNL     1       8.505   0.435   0.532  1.00  0.00     0.205 HD
HETATM   15  N11 UNL     1       5.914  -1.151  -0.180  1.00  0.00    -0.070 N 
BRANCH  13  16
HETATM   16  N1  UNL     1       8.082  -1.911  -0.775  1.00  0.00    -0.232 N 
ATOM     17  H12 UNL     1       9.099  -1.850  -0.820  1.00  0.00     0.174 HD
ATOM     18  H11 UNL     1       7.850  -2.779  -1.257  1.00  0.00     0.174 HD
ENDBRANCH  13  16
BRANCH  15  19
HETATM   19  N12 UNL     1       5.167  -2.200  -0.712  1.00  0.00    -0.322 N 
ATOM     20 2H12 UNL     1       5.575  -2.996  -1.203  1.00  0.00     0.178 HD
ATOM     21 1H12 UNL     1       4.150  -2.261  -0.667  1.00  0.00     0.178 HD
ENDBRANCH  15  19
ENDBRANCH   1   9
BRANCH   6  22
HETATM   22  C4  UNL     1       0.465  -0.181   0.859  1.00  0.00     0.292 C 
BRANCH  22  23
HETATM   23  C5  UNL     1      -0.150   0.427  -0.388  1.00  0.00     0.333 C 
HETATM   24  O1  UNL     1       0.593   1.178  -1.036  1.00  0.00    -0.253 OA
HETATM   25  N7  UNL     1      -1.477   0.056  -0.649  1.00  0.00    -0.284 NA
BRANCH  25  26
HETATM   26  N8  UNL     1      -2.675  -0.278  -0.884  1.00  0.00    -0.220 N 
HETATM   27  C6  UNL     1      -3.846  -0.011  -0.445  1.00  0.00     0.103 C 
HETATM   28  C7  UNL     1      -4.108   0.938   0.666  1.00  0.00     0.078 C 
HETATM   29  N9  UNL     1      -4.991  -0.645  -1.014  1.00  0.00    -0.378 N 
HETATM   30  C8  UNL     1      -5.312   1.756   0.309  1.00  0.00     0.009 C 
HETATM   31  C9  UNL     1      -6.533   0.949   0.016  1.00  0.00     0.020 C 
HETATM   32  C10 UNL     1      -6.309  -0.119  -1.024  1.00  0.00     0.121 C 
ATOM     33  H9  UNL     1      -4.850  -1.555  -1.452  1.00  0.00     0.160 HD
ATOM     34  H8  UNL     1      -2.719  -0.957  -1.644  1.00  0.00     0.203 HD
ENDBRANCH  25  26
ENDBRANCH  22  23
ENDBRANCH   6  22
TORSDOF 6
