REMARK  15 active torsions:
REMARK  status: ('A' for Active; 'I' for Inactive)
REMARK    1  A    between atoms: C2_2  and  C3_3 
REMARK       I    between atoms: C3_3  and  N1_5 
REMARK    2  A    between atoms: N1_5  and  C4_7 
REMARK    3  A    between atoms: C5_8  and  S1_9 
REMARK    4  A    between atoms: S1_9  and  C6_10 
REMARK    5  A    between atoms: C6_10  and  C7_11 
REMARK    6  A    between atoms: C7_11  and  C8_12 
REMARK    7  A    between atoms: C9_16  and  C10_17 
REMARK    8  A    between atoms: C12_20  and  N3_21 
REMARK    9  A    between atoms: N3_21  and  N4_23 
REMARK       I    between atoms: N4_23  and  C13_25 
REMARK   10  A    between atoms: C14_28  and  N6_29 
REMARK   11  A    between atoms: N6_29  and  C15_30 
REMARK   12  A    between atoms: N6_29  and  C17_33 
REMARK   13  A    between atoms: C15_30  and  C16_31 
REMARK   14  A    between atoms: C18_34  and  O4_35 
REMARK   15  A    between atoms: C20_40  and  O5_41 
ROOT
HETATM    1  C4  UNL     1       0.107  -0.592  -0.354  1.00  0.00     0.169 C 
HETATM    2  C5  UNL     1       1.180   0.258  -1.046  1.00  0.00     0.172 C 
HETATM    3  N2  UNL     1       1.355   1.485  -0.364  1.00  0.00    -0.372 N 
ATOM      4  H2  UNL     1       1.937   1.548   0.472  1.00  0.00     0.161 HD
HETATM    5  C9  UNL     1       0.707   2.595  -0.874  1.00  0.00     0.069 C 
HETATM    6  C11 UNL     1      -0.724   2.593  -0.520  1.00  0.00     0.065 C 
HETATM    7  C12 UNL     1      -1.521   1.397  -0.362  1.00  0.00     0.075 C 
HETATM    8  C14 UNL     1      -1.031   0.109   0.202  1.00  0.00     0.066 C 
ENDROOT
BRANCH   8   9
HETATM    9  N6  UNL     1      -1.253  -0.105   1.632  1.00  0.00    -0.340 N 
BRANCH   9  10
HETATM   10  C15 UNL     1      -2.127   0.626   2.478  1.00  0.00     0.144 C 
BRANCH  10  11
HETATM   11  C16 UNL     1      -3.586   0.378   2.270  1.00  0.00     0.135 C 
HETATM   12 CL1  UNL     1      -4.563   1.388   3.390  1.00  0.00    -0.129 Cl
ENDBRANCH  10  11
ENDBRANCH   9  10
BRANCH   9  13
HETATM   13  C17 UNL     1      -0.597  -1.212   2.265  1.00  0.00     0.121 A 
HETATM   14  C18 UNL     1       0.633  -1.269   2.872  1.00  0.00     0.112 A 
HETATM   15  C19 UNL     1       0.853  -2.536   3.355  1.00  0.00     0.129 A 
HETATM   16  N7  UNL     1      -0.214  -3.282   3.070  1.00  0.00    -0.342 N 
HETATM   17  C20 UNL     1      -1.114  -2.504   2.407  1.00  0.00     0.170 A 
ATOM     18  H7  UNL     1      -0.336  -4.266   3.308  1.00  0.00     0.167 HD
BRANCH  14  19
HETATM   19  O4  UNL     1       1.510  -0.216   2.979  1.00  0.00    -0.357 OA
ATOM     20  H4  UNL     1       2.361  -0.255   3.399  1.00  0.00     0.217 HD
ENDBRANCH  14  19
BRANCH  17  21
HETATM   21  O5  UNL     1      -2.310  -2.961   1.977  1.00  0.00    -0.344 OA
ATOM     22  H5  UNL     1      -2.661  -3.838   2.073  1.00  0.00     0.219 HD
ENDBRANCH  17  21
ENDBRANCH   9  13
ENDBRANCH   8   9
BRANCH   1  23
HETATM   23  N1  UNL     1      -0.288  -1.554  -1.422  1.00  0.00    -0.348 N 
HETATM   24  C3  UNL     1       0.312  -2.796  -1.650  1.00  0.00     0.217 C 
HETATM   25  O1  UNL     1       1.267  -3.250  -0.953  1.00  0.00    -0.274 OA
ATOM     26  H1  UNL     1      -1.057  -1.285  -2.035  1.00  0.00     0.163 HD
BRANCH  24  27
HETATM   27  C2  UNL     1      -0.164  -3.665  -2.763  1.00  0.00     0.098 C 
HETATM   28  C1  UNL     1       0.675  -4.913  -2.913  1.00  0.00     0.014 C 
ENDBRANCH  24  27
ENDBRANCH   1  23
BRANCH   7  29
HETATM   29  N3  UNL     1      -2.331   1.158  -1.519  1.00  0.00    -0.295 N 
ATOM     30  H3  UNL     1      -2.170   0.336  -2.101  1.00  0.00     0.187 HD
BRANCH  29  31
HETATM   31  N4  UNL     1      -3.321   2.044  -1.833  1.00  0.00    -0.254 N 
HETATM   32  C13 UNL     1      -3.914   3.093  -1.137  1.00  0.00     0.347 C 
HETATM   33  N5  UNL     1      -4.973   3.842  -1.788  1.00  0.00    -0.038 NA
HETATM   34  O3  UNL     1      -3.671   3.519   0.017  1.00  0.00    -0.249 OA
ATOM     35  H4  UNL     1      -3.704   1.910  -2.769  1.00  0.00     0.191 HD
ENDBRANCH  29  31
ENDBRANCH   7  29
BRANCH   2  36
HETATM   36  S1  UNL     1       2.836  -0.507  -1.004  1.00  0.00    -0.141 SA
BRANCH  36  37
HETATM   37  C6  UNL     1       3.838   0.523   0.110  1.00  0.00     0.078 C 
BRANCH  37  38
HETATM   38  C7  UNL     1       5.241   0.038   0.326  1.00  0.00     0.041 C 
BRANCH  38  39
HETATM   39  C8  UNL     1       5.921   1.132   1.170  1.00  0.00     0.222 C 
HETATM   40  F1  UNL     1       5.289   1.350   2.358  1.00  0.00    -0.255 F 
ENDBRANCH  38  39
ENDBRANCH  37  38
ENDBRANCH  36  37
ENDBRANCH   2  36
BRANCH   5  41
HETATM   41  C10 UNL     1       1.034   3.009  -2.271  1.00  0.00     0.287 C 
HETATM   42  O2  UNL     1       1.851   2.387  -2.910  1.00  0.00    -0.300 OA
ENDBRANCH   5  41
TORSDOF 15
