REMARK  13 active torsions:
REMARK  status: ('A' for Active; 'I' for Inactive)
REMARK    1  A    between atoms: C2_2  and  C4_4 
REMARK    2  A    between atoms: C4_4  and  C5_5 
REMARK    3  A    between atoms: C5_5  and  O1_6 
REMARK    4  A    between atoms: O1_6  and  C6_7 
REMARK       I    between atoms: C6_7  and  N1_9 
REMARK    5  A    between atoms: N1_9  and  C7_11 
REMARK    6  A    between atoms: C7_11  and  C8_12 
REMARK    7  A    between atoms: C7_11  and  C26_38 
REMARK       I    between atoms: C8_12  and  N2_14 
REMARK    8  A    between atoms: N2_14  and  C9_16 
REMARK    9  A    between atoms: C17_24  and  C18_25 
REMARK       I    between atoms: C18_25  and  N3_27 
REMARK   10  A    between atoms: N3_27  and  C19_29 
REMARK   11  A    between atoms: C19_29  and  C20_30 
REMARK   12  A    between atoms: C19_29  and  C24_34 
REMARK   13  A    between atoms: C20_30  and  C21_31 
ROOT
HETATM    1  C9  UNL     1      -0.308   0.924  -0.842  1.00  0.00     0.084 C 
HETATM    2  C10 UNL     1       0.659   0.555  -1.939  1.00  0.00     0.026 C 
HETATM    3  C11 UNL     1       1.649  -0.420  -1.419  1.00  0.00     0.012 C 
HETATM    4  C12 UNL     1       2.454   0.071  -0.236  1.00  0.00    -0.028 C 
HETATM    5  C13 UNL     1       3.146  -1.132   0.353  1.00  0.00     0.016 C 
HETATM    6  C14 UNL     1       1.556   0.638   0.844  1.00  0.00    -0.004 C 
HETATM    7  C15 UNL     1       2.486   1.587   1.616  1.00  0.00     0.006 C 
HETATM    8  C16 UNL     1       3.341   2.176   0.521  1.00  0.00     0.015 C 
HETATM    9  C17 UNL     1       3.408   1.152  -0.599  1.00  0.00     0.086 C 
HETATM   10  C25 UNL     1       0.440   1.459   0.318  1.00  0.00     0.030 C 
ENDROOT
BRANCH   1  11
HETATM   11  N2  UNL     1      -1.236  -0.146  -0.515  1.00  0.00    -0.355 N 
HETATM   12  C8  UNL     1      -2.617  -0.044  -0.730  1.00  0.00     0.241 C 
HETATM   13  O3  UNL     1      -3.008   1.074  -1.237  1.00  0.00    -0.271 OA
ATOM     14  H2  UNL     1      -0.866  -1.007  -0.112  1.00  0.00     0.162 HD
BRANCH  12  15
HETATM   15  C7  UNL     1      -3.652  -1.053  -0.444  1.00  0.00     0.186 C 
BRANCH  15  16
HETATM   16  N1  UNL     1      -4.934  -0.393  -0.712  1.00  0.00    -0.323 N 
HETATM   17  C6  UNL     1      -5.957  -0.241   0.217  1.00  0.00     0.361 C 
HETATM   18  O2  UNL     1      -5.834  -0.677   1.381  1.00  0.00    -0.238 OA
ATOM     19  H1  UNL     1      -5.086  -0.018  -1.648  1.00  0.00     0.165 HD
BRANCH  17  20
HETATM   20  O1  UNL     1      -7.127   0.395  -0.134  1.00  0.00    -0.304 OA
BRANCH  20  21
HETATM   21  C5  UNL     1      -8.209   0.598   0.721  1.00  0.00     0.181 C 
BRANCH  21  22
HETATM   22  C4  UNL     1      -9.274   1.336  -0.095  1.00  0.00     0.031 C 
BRANCH  22  23
HETATM   23  C2  UNL     1     -10.484   1.598   0.755  1.00  0.00    -0.021 C 
HETATM   24  C1  UNL     1     -10.110   2.451   1.953  1.00  0.00     0.009 C 
HETATM   25  C3  UNL     1     -11.114   0.293   1.146  1.00  0.00     0.009 C 
ENDBRANCH  22  23
ENDBRANCH  21  22
ENDBRANCH  20  21
ENDBRANCH  17  20
ENDBRANCH  15  16
BRANCH  15  26
HETATM   26  C26 UNL     1      -3.498  -2.240  -1.367  1.00  0.00    -0.022 C 
HETATM   27  C27 UNL     1      -3.496  -1.885  -2.812  1.00  0.00     0.017 C 
HETATM   28  C28 UNL     1      -2.293  -3.033  -0.979  1.00  0.00     0.017 C 
HETATM   29  C29 UNL     1      -4.696  -3.196  -1.170  1.00  0.00     0.017 C 
ENDBRANCH  15  26
ENDBRANCH  12  15
ENDBRANCH   1  11
BRANCH   9  30
HETATM   30  C18 UNL     1       4.787   0.766  -0.875  1.00  0.00     0.223 C 
HETATM   31  O4  UNL     1       5.250   0.867  -2.074  1.00  0.00    -0.273 OA
HETATM   32  N3  UNL     1       5.719   0.272   0.061  1.00  0.00    -0.348 N 
ATOM     33  H3  UNL     1       5.428   0.161   1.032  1.00  0.00     0.163 HD
BRANCH  32  34
HETATM   34  C19 UNL     1       7.113  -0.094  -0.318  1.00  0.00     0.174 C 
BRANCH  34  35
HETATM   35  C20 UNL     1       8.054   0.822   0.361  1.00  0.00     0.038 C 
BRANCH  35  36
HETATM   36  C21 UNL     1       9.507   0.704   0.156  1.00  0.00    -0.020 C 
HETATM   37  C22 UNL     1      10.138   1.864   0.979  1.00  0.00     0.009 C 
HETATM   38  C23 UNL     1      10.149  -0.527   0.726  1.00  0.00     0.009 C 
ENDBRANCH  35  36
ENDBRANCH  34  35
BRANCH  34  39
HETATM   39  C24 UNL     1       7.265  -1.490   0.100  1.00  0.00     0.254 C 
HETATM   40  N4  UNL     1       7.938  -2.451  -0.697  1.00  0.00    -0.060 NA
HETATM   41  O5  UNL     1       6.782  -1.870   1.197  1.00  0.00    -0.275 OA
ENDBRANCH  34  39
ENDBRANCH  32  34
ENDBRANCH   9  30
TORSDOF 13
