REMARK  18 active torsions:
REMARK  status: ('A' for Active; 'I' for Inactive)
REMARK    1  A    between atoms: C2_2  and  C3_3 
REMARK    2  A    between atoms: C3_3  and  C4_4 
REMARK    3  A    between atoms: C4_4  and  O2_6 
REMARK    4  A    between atoms: O2_6  and  C5_7 
REMARK    5  A    between atoms: C6_9  and  C7_10 
REMARK    6  A    between atoms: C8_14  and  O7_15 
REMARK    7  A    between atoms: C9_17  and  N1_18 
REMARK    8  A    between atoms: N1_18  and  C10_20 
REMARK    9  A    between atoms: C13_24  and  O9_25 
REMARK   10  A    between atoms: C14_27  and  O10_28 
REMARK   11  A    between atoms: N2_32  and  C16_33 
REMARK   12  A    between atoms: C18_35  and  O12_36 
REMARK   13  A    between atoms: N3_41  and  C22_42 
REMARK   14  A    between atoms: C22_42  and  C23_43 
REMARK   15  A    between atoms: C23_43  and  O13_44 
REMARK   16  A    between atoms: C24_47  and  C25_48 
REMARK   17  A    between atoms: C25_48  and  O15_50 
REMARK   18  A    between atoms: O15_50  and  C26_51 
ROOT
HETATM    1  C5  UNL     1      -1.617   1.302   0.350  1.00  0.00     0.292 C 
HETATM    2  O3  UNL     1      -2.370   0.297  -0.218  1.00  0.00    -0.290 OA
HETATM    3  C6  UNL     1      -1.834  -0.004  -1.453  1.00  0.00     0.297 C 
HETATM    4  O6  UNL     1      -1.079   1.123  -1.788  1.00  0.00    -0.294 OA
HETATM    5  C8  UNL     1      -0.452   1.376  -0.543  1.00  0.00     0.279 C 
HETATM    6  C9  UNL     1       0.625   0.337  -0.389  1.00  0.00     0.097 C 
HETATM    7  C18 UNL     1       0.161  -1.083  -0.343  1.00  0.00     0.169 C 
HETATM    8  C19 UNL     1      -0.105  -1.701   0.943  1.00  0.00     0.283 C 
HETATM    9  C20 UNL     1      -0.731  -0.996   2.063  1.00  0.00     0.118 C 
HETATM   10  C21 UNL     1      -1.955  -1.910   1.935  1.00  0.00     0.290 C 
HETATM   11  N3  UNL     1      -1.165  -2.703   1.054  1.00  0.00     0.101 N 
HETATM   12  S1  UNL     1      -1.028   0.716   1.965  1.00  0.00    -0.086 SA
HETATM   13  C24 UNL     1      -0.871  -1.165  -1.444  1.00  0.00     0.110 C 
ENDROOT
BRANCH   6  14
HETATM   14  N1  UNL     1       1.668   0.727   0.522  1.00  0.00    -0.363 N 
ATOM     15  H1  UNL     1       1.534   1.610   1.014  1.00  0.00     0.165 HD
BRANCH  14  16
HETATM   16  C10 UNL     1       2.842   0.029   0.806  1.00  0.00     0.122 C 
HETATM   17  C11 UNL     1       4.105   0.183   0.536  1.00  0.00     0.106 A 
HETATM   18  C12 UNL     1       5.079  -0.823   1.040  1.00  0.00     0.236 A 
HETATM   19  N2  UNL     1       4.601   1.265  -0.213  1.00  0.00    -0.308 N 
HETATM   20  O8  UNL     1       4.677  -1.800   1.711  1.00  0.00    -0.283 OA
HETATM   21  C13 UNL     1       6.477  -0.673   0.758  1.00  0.00     0.157 A 
HETATM   22  C14 UNL     1       6.965   0.336   0.056  1.00  0.00     0.172 A 
HETATM   23  C15 UNL     1       6.032   1.324  -0.443  1.00  0.00     0.284 A 
HETATM   24  O11 UNL     1       6.489   2.308  -1.126  1.00  0.00    -0.265 OA
BRANCH  21  25
HETATM   25  O9  UNL     1       7.427  -1.603   1.218  1.00  0.00    -0.355 OA
ATOM     26  H9  UNL     1       8.353  -1.504   1.031  1.00  0.00     0.218 HD
ENDBRANCH  21  25
BRANCH  22  27
HETATM   27  O10 UNL     1       8.314   0.484  -0.219  1.00  0.00    -0.354 OA
ATOM     28  H10 UNL     1       8.665   1.209  -0.723  1.00  0.00     0.218 HD
ENDBRANCH  22  27
BRANCH  19  29
HETATM   29  C16 UNL     1       3.817   2.342  -0.786  1.00  0.00     0.128 C 
HETATM   30  C17 UNL     1       3.690   3.538   0.140  1.00  0.00     0.027 C 
ENDBRANCH  19  29
ENDBRANCH  14  16
ENDBRANCH   6  14
BRANCH   5  31
HETATM   31  O7  UNL     1       0.138   2.615  -0.599  1.00  0.00    -0.356 OA
ATOM     32  H7  UNL     1       0.891   2.663  -1.176  1.00  0.00     0.213 HD
ENDBRANCH   5  31
BRANCH   7  33
HETATM   33  O12 UNL     1       1.248  -1.841  -0.901  1.00  0.00    -0.376 OA
ATOM     34  H12 UNL     1       0.953  -2.744  -0.872  1.00  0.00     0.211 HD
ENDBRANCH   7  33
BRANCH   1  35
HETATM   35  O2  UNL     1      -2.252   2.475   0.677  1.00  0.00    -0.267 OA
BRANCH  35  36
HETATM   36  C4  UNL     1      -2.927   3.370  -0.073  1.00  0.00     0.262 C 
HETATM   37  O1  UNL     1      -3.029   3.151  -1.282  1.00  0.00    -0.265 OA
BRANCH  36  38
HETATM   38  C3  UNL     1      -3.539   4.588   0.502  1.00  0.00     0.111 C 
BRANCH  38  39
HETATM   39  C2  UNL     1      -4.236   5.417  -0.561  1.00  0.00     0.005 C 
HETATM   40  C1  UNL     1      -4.854   6.658   0.041  1.00  0.00     0.005 C 
ENDBRANCH  38  39
ENDBRANCH  36  38
ENDBRANCH  35  36
ENDBRANCH   1  35
BRANCH  13  41
HETATM   41  C25 UNL     1      -1.385  -2.461  -1.811  1.00  0.00     0.294 C 
HETATM   42  O14 UNL     1      -0.679  -3.232  -2.527  1.00  0.00    -0.260 OA
BRANCH  41  43
HETATM   43  O15 UNL     1      -2.618  -3.012  -1.467  1.00  0.00    -0.318 OA
BRANCH  43  44
HETATM   44  C26 UNL     1      -3.028  -4.305  -1.882  1.00  0.00     0.174 C 
HETATM   45  C27 UNL     1      -4.394  -4.659  -1.378  1.00  0.00     0.034 C 
ENDBRANCH  43  44
ENDBRANCH  41  43
ENDBRANCH  13  41
BRANCH   3  46
HETATM   46  C7  UNL     1      -2.811  -0.249  -2.511  1.00  0.00     0.244 C 
HETATM   47  O4  UNL     1      -4.041  -0.176  -2.244  1.00  0.00    -0.644 OA
HETATM   48  O5  UNL     1      -2.461  -0.561  -3.804  1.00  0.00    -0.644 OA
ENDBRANCH   3  46
BRANCH  11  49
HETATM   49  C22 UNL     1      -0.771  -4.006   1.498  1.00  0.00     0.299 C 
BRANCH  49  50
HETATM   50  C23 UNL     1      -0.319  -4.094   2.911  1.00  0.00     0.194 C 
BRANCH  50  51
HETATM   51  O13 UNL     1       0.022  -5.446   3.147  1.00  0.00    -0.399 OA
ATOM     52  H13 UNL     1       0.311  -5.502   4.050  1.00  0.00     0.209 HD
ENDBRANCH  50  51
ENDBRANCH  49  50
ENDBRANCH  11  49
TORSDOF 18
