REMARK  3 active torsions:
REMARK  status: ('A' for Active; 'I' for Inactive)
REMARK    1  A    between atoms: N1_1  and  C1_4 
REMARK    2  A    between atoms: N3_7  and  C2_8 
REMARK    3  A    between atoms: N4_16  and  O2_17 
ROOT
HETATM    1  C1  UNL     1       2.494   1.033   0.236  1.00  0.00     0.186 A 
HETATM    2  N2  UNL     1       1.172   1.038   0.157  1.00  0.00    -0.270 N 
ATOM      3  H2  UNL     1       0.694   1.937   0.210  1.00  0.00     0.189 HD
HETATM    4  N3  UNL     1       0.426  -0.060   0.012  1.00  0.00    -0.202 N 
HETATM    5  C8  UNL     1       1.101  -1.228  -0.053  1.00  0.00     0.375 A 
HETATM    6  O1  UNL     1       0.483  -2.298  -0.188  1.00  0.00    -0.242 OA
HETATM    7  N4  UNL     1       2.442  -1.286   0.022  1.00  0.00    -0.129 N 
HETATM    8  C9  UNL     1       3.170  -0.167   0.168  1.00  0.00     0.320 A 
HETATM    9  O3  UNL     1       4.433  -0.217   0.239  1.00  0.00    -0.261 OA
ENDROOT
BRANCH   4  10
HETATM   10  C2  UNL     1      -0.993   0.015  -0.067  1.00  0.00     0.061 A 
HETATM   11  C3  UNL     1      -1.825  -0.836   0.604  1.00  0.00     0.032 A 
HETATM   12  C4  UNL     1      -3.210  -0.761   0.526  1.00  0.00     0.002 A 
HETATM   13  C5  UNL     1      -3.756   0.221  -0.269  1.00  0.00     0.000 A 
HETATM   14  C6  UNL     1      -2.958   1.111  -0.971  1.00  0.00     0.002 A 
HETATM   15  C7  UNL     1      -1.581   0.986  -0.853  1.00  0.00     0.032 A 
ENDBRANCH   4  10
BRANCH   1  16
HETATM   16  N1  UNL     1       3.190   2.112   0.376  1.00  0.00    -0.380 N 
ATOM     17  H12 UNL     1       2.690   3.000   0.426  1.00  0.00     0.158 HD
ATOM     18  H11 UNL     1       4.208   2.108   0.437  1.00  0.00     0.158 HD
ENDBRANCH   1  16
BRANCH   7  19
HETATM   19  O2  UNL     1       3.108  -2.484  -0.046  1.00  0.00    -0.276 OA
ATOM     20  H2  UNL     1       4.056  -2.525   0.007  1.00  0.00     0.245 HD
ENDBRANCH   7  19
TORSDOF 3
