REMARK  15 active torsions:
REMARK  status: ('A' for Active; 'I' for Inactive)
REMARK    1  A    between atoms: C2_2  and  O1_3 
REMARK    2  A    between atoms: C2_2  and  C3_5 
REMARK    3  A    between atoms: C3_5  and  C4_6 
REMARK    4  A    between atoms: C4_6  and  C5_7 
REMARK    5  A    between atoms: C4_6  and  C25_37 
REMARK    6  A    between atoms: C6_8  and  C7_9 
REMARK    7  A    between atoms: C7_9  and  O2_10 
REMARK    8  A    between atoms: C7_9  and  C8_12 
REMARK    9  A    between atoms: C10_15  and  C11_16 
REMARK   10  A    between atoms: C11_16  and  C12_17 
REMARK   11  A    between atoms: C13_18  and  C14_19 
REMARK   12  A    between atoms: C14_19  and  C15_20 
REMARK   13  A    between atoms: C16_23  and  O4_24 
REMARK   14  A    between atoms: C23_33  and  O6_35 
REMARK   15  A    between atoms: C25_37  and  O7_38 
ROOT
HETATM    1  C8  UNL     1      -1.189  -1.241   0.379  1.00  0.00     0.188 C 
HETATM    2  O3  UNL     1       0.173  -0.945   0.527  1.00  0.00    -0.373 OA
HETATM    3  C9  UNL     1       0.970  -1.568  -0.385  1.00  0.00     0.137 C 
HETATM    4  C10 UNL     1       2.429  -1.481   0.017  1.00  0.00     0.041 C 
HETATM    5  C18 UNL     1       3.008  -2.676  -0.649  1.00  0.00    -0.023 C 
HETATM    6  C19 UNL     1       2.056  -3.520  -1.028  1.00  0.00    -0.023 C 
HETATM    7  C20 UNL     1       0.710  -2.991  -0.660  1.00  0.00     0.037 C 
HETATM    8  C21 UNL     1       0.085  -3.803   0.390  1.00  0.00     0.014 C 
HETATM    9  C22 UNL     1      -0.286  -3.106   1.653  1.00  0.00     0.041 C 
HETATM   10  C23 UNL     1      -1.508  -2.197   1.490  1.00  0.00     0.083 C 
HETATM   11  C24 UNL     1      -1.591  -1.403   2.783  1.00  0.00     0.049 C 
ENDROOT
BRANCH   1  12
HETATM   12  C7  UNL     1      -1.924   0.070   0.495  1.00  0.00     0.172 C 
BRANCH  12  13
HETATM   13  C6  UNL     1      -3.393  -0.089   0.369  1.00  0.00     0.004 C 
HETATM   14  C5  UNL     1      -4.245   0.814   0.861  1.00  0.00    -0.021 C 
BRANCH  14  15
HETATM   15  C4  UNL     1      -5.692   0.718   0.770  1.00  0.00     0.034 C 
BRANCH  15  16
HETATM   16  C3  UNL     1      -6.347   1.933   0.194  1.00  0.00     0.042 C 
BRANCH  16  17
HETATM   17  C2  UNL     1      -6.153   3.214   0.927  1.00  0.00     0.114 C 
HETATM   18  C1  UNL     1      -6.914   4.356   0.221  1.00  0.00     0.039 C 
BRANCH  17  19
HETATM   19  O1  UNL     1      -4.818   3.677   0.910  1.00  0.00    -0.396 OA
ATOM     20  H1  UNL     1      -4.350   2.974   1.345  1.00  0.00     0.210 HD
ENDBRANCH  17  19
ENDBRANCH  16  17
ENDBRANCH  15  16
BRANCH  15  21
HETATM   21  C25 UNL     1      -6.164  -0.545   0.069  1.00  0.00     0.172 C 
BRANCH  21  22
HETATM   22  O7  UNL     1      -7.544  -0.664   0.220  1.00  0.00    -0.400 OA
ATOM     23  H7  UNL     1      -7.839  -1.454  -0.218  1.00  0.00     0.209 HD
ENDBRANCH  21  22
ENDBRANCH  15  21
ENDBRANCH  14  15
ENDBRANCH  12  13
BRANCH  12  24
HETATM   24  O2  UNL     1      -1.472   0.922  -0.509  1.00  0.00    -0.389 OA
ATOM     25  H2  UNL     1      -0.531   1.024  -0.428  1.00  0.00     0.210 HD
ENDBRANCH  12  24
ENDBRANCH   1  12
BRANCH  10  26
HETATM   26  O6  UNL     1      -2.663  -2.907   1.319  1.00  0.00    -0.388 OA
ATOM     27  H6  UNL     1      -2.865  -3.512   2.023  1.00  0.00     0.210 HD
ENDBRANCH  10  26
BRANCH   4  28
HETATM   28  C11 UNL     1       3.056  -0.199  -0.543  1.00  0.00     0.038 C 
BRANCH  28  29
HETATM   29  C12 UNL     1       4.474  -0.133  -0.140  1.00  0.00    -0.029 C 
HETATM   30  C13 UNL     1       5.418  -0.094  -1.071  1.00  0.00    -0.023 C 
BRANCH  30  31
HETATM   31  C14 UNL     1       6.855  -0.027  -0.686  1.00  0.00     0.110 C 
BRANCH  31  32
HETATM   32  C15 UNL     1       7.421   1.249  -1.273  1.00  0.00     0.119 C 
HETATM   33  N1  UNL     1       8.363   1.319  -2.121  1.00  0.00    -0.346 N 
HETATM   34  C16 UNL     1       8.655   2.678  -2.467  1.00  0.00     0.243 C 
ATOM     35  H1  UNL     1       8.850   0.510  -2.507  1.00  0.00     0.164 HD
HETATM   36  C17 UNL     1       7.979   3.448  -1.357  1.00  0.00     0.230 C 
HETATM   37  O5  UNL     1       6.979   2.517  -0.957  1.00  0.00    -0.335 OA
BRANCH  34  38
HETATM   38  O4  UNL     1      10.024   2.957  -2.424  1.00  0.00    -0.375 OA
ATOM     39  H4  UNL     1      10.218   3.858  -2.653  1.00  0.00     0.212 HD
ENDBRANCH  34  38
ENDBRANCH  31  32
ENDBRANCH  30  31
ENDBRANCH  28  29
ENDBRANCH   4  28
TORSDOF 15
