REMARK  16 active torsions:
REMARK  status: ('A' for Active; 'I' for Inactive)
REMARK    1  A    between atoms: C2_2  and  C3_3 
REMARK    2  A    between atoms: C3_3  and  C4_4 
REMARK    3  A    between atoms: C4_4  and  C5_5 
REMARK    4  A    between atoms: C5_5  and  C6_6 
REMARK    5  A    between atoms: C6_6  and  C7_7 
REMARK    6  A    between atoms: C7_7  and  N1_8 
REMARK    7  A    between atoms: C7_7  and  C25_41 
REMARK    8  A    between atoms: N1_8  and  C8_10 
REMARK    9  A    between atoms: C8_10  and  O1_11 
REMARK   10  A    between atoms: C8_10  and  C9_13 
REMARK   11  A    between atoms: C10_16  and  N3_17 
REMARK   12  A    between atoms: C12_21  and  N4_22 
REMARK   13  A    between atoms: C13_24  and  N5_25 
REMARK   14  A    between atoms: N5_25  and  C14_27 
REMARK   15  A    between atoms: C14_27  and  C15_28 
REMARK   16  A    between atoms: C15_28  and  C16_29 
ROOT
HETATM    1  C9  UNL     1      -0.280  -1.322  -0.636  1.00  0.00     0.128 C 
HETATM    2  N2  UNL     1       0.422  -0.586   0.253  1.00  0.00    -0.337 N 
ATOM      3  H2  UNL     1       0.241  -0.776   1.239  1.00  0.00     0.167 HD
HETATM    4  C10 UNL     1       1.349   0.387  -0.016  1.00  0.00     0.114 C 
HETATM    5  C11 UNL     1       2.258   0.357  -1.053  1.00  0.00     0.061 A 
HETATM    6  C12 UNL     1       3.246   1.303  -0.901  1.00  0.00     0.049 A 
HETATM    7  C19 UNL     1       4.251   1.459  -1.867  1.00  0.00     0.031 A 
HETATM    8  C20 UNL     1       4.228   0.653  -2.957  1.00  0.00     0.011 A 
HETATM    9  C21 UNL     1       3.243  -0.306  -3.128  1.00  0.00    -0.034 A 
HETATM   10  C22 UNL     1       3.232  -1.182  -4.331  1.00  0.00     0.050 C 
HETATM   11  C23 UNL     1       2.251  -0.468  -2.186  1.00  0.00     0.057 A 
HETATM   12  N6  UNL     1       1.379  -1.430  -2.471  1.00  0.00    -0.320 N 
ATOM     13  H6  UNL     1       1.591  -1.974  -3.308  1.00  0.00     0.169 HD
HETATM   14  C24 UNL     1       0.251  -1.796  -1.816  1.00  0.00     0.273 C 
HETATM   15  O2  UNL     1      -0.434  -2.703  -2.345  1.00  0.00    -0.266 OA
ENDROOT
BRANCH   1  16
HETATM   16  C8  UNL     1      -1.712  -1.636  -0.321  1.00  0.00     0.271 C 
BRANCH  16  17
HETATM   17  N1  UNL     1      -2.314  -0.460   0.137  1.00  0.00    -0.380 N 
ATOM     18  H1  UNL     1      -1.761   0.386   0.275  1.00  0.00     0.157 HD
BRANCH  17  19
HETATM   19  C7  UNL     1      -3.730  -0.463   0.411  1.00  0.00     0.157 C 
BRANCH  19  20
HETATM   20  C6  UNL     1      -4.117  -1.402   1.504  1.00  0.00     0.033 C 
BRANCH  20  21
HETATM   21  C5  UNL     1      -5.574  -1.358   1.795  1.00  0.00     0.002 C 
BRANCH  21  22
HETATM   22  C4  UNL     1      -6.054   0.024   2.189  1.00  0.00     0.000 C 
BRANCH  22  23
HETATM   23  C3  UNL     1      -7.545  -0.071   2.451  1.00  0.00    -0.000 C 
BRANCH  23  24
HETATM   24  C2  UNL     1      -8.112   1.283   2.854  1.00  0.00    -0.005 C 
HETATM   25  C1  UNL     1      -7.897   2.314   1.768  1.00  0.00     0.005 C 
ENDBRANCH  23  24
ENDBRANCH  22  23
ENDBRANCH  21  22
ENDBRANCH  20  21
ENDBRANCH  19  20
BRANCH  19  26
HETATM   26  C25 UNL     1      -4.529  -0.567  -0.813  1.00  0.00     0.170 A 
HETATM   27  N7  UNL     1      -5.537  -1.345  -1.210  1.00  0.00    -0.325 N 
HETATM   28  C26 UNL     1      -5.932  -1.044  -2.437  1.00  0.00     0.100 A 
ATOM     29  H7  UNL     1      -5.952  -2.081  -0.639  1.00  0.00     0.169 HD
HETATM   30  C27 UNL     1      -7.007  -1.666  -3.225  1.00  0.00     0.091 C 
HETATM   31  N8  UNL     1      -5.131  -0.031  -2.822  1.00  0.00    -0.247 N 
HETATM   32  O3  UNL     1      -4.316   0.234  -1.857  1.00  0.00    -0.221 OA
ATOM     33  H8  UNL     1      -5.163   0.446  -3.723  1.00  0.00     0.196 HD
ENDBRANCH  19  26
ENDBRANCH  17  19
ENDBRANCH  16  17
BRANCH  16  34
HETATM   34  O1  UNL     1      -2.233  -2.170  -1.489  1.00  0.00    -0.371 OA
ATOM     35  H1  UNL     1      -1.824  -2.969  -1.800  1.00  0.00     0.212 HD
ENDBRANCH  16  34
ENDBRANCH   1  16
BRANCH   4  36
HETATM   36  N3  UNL     1       1.344   1.411   0.764  1.00  0.00    -0.385 N 
ATOM     37  H32 UNL     1       0.672   1.433   1.531  1.00  0.00     0.157 HD
ATOM     38  H31 UNL     1       2.034   2.135   0.564  1.00  0.00     0.157 HD
ENDBRANCH   4  36
BRANCH   6  39
HETATM   39  N4  UNL     1       3.239   2.107   0.267  1.00  0.00    -0.352 N 
HETATM   40  C13 UNL     1       4.288   2.260   0.980  1.00  0.00     0.176 C 
ATOM     41  H4  UNL     1       2.376   2.574   0.545  1.00  0.00     0.166 HD
BRANCH  40  42
HETATM   42  N5  UNL     1       5.563   1.667   0.709  1.00  0.00    -0.386 N 
ATOM     43  H5  UNL     1       5.612   0.701   0.385  1.00  0.00     0.160 HD
BRANCH  42  44
HETATM   44  C14 UNL     1       6.761   2.412   0.887  1.00  0.00     0.120 C 
BRANCH  44  45
HETATM   45  C15 UNL     1       8.000   1.621   0.701  1.00  0.00     0.023 C 
BRANCH  45  46
HETATM   46  C16 UNL     1       8.280   0.542   1.673  1.00  0.00    -0.021 C 
HETATM   47  C17 UNL     1       9.618  -0.104   1.250  1.00  0.00     0.009 C 
HETATM   48  C18 UNL     1       7.302  -0.582   1.783  1.00  0.00     0.009 C 
ENDBRANCH  45  46
ENDBRANCH  44  45
ENDBRANCH  42  44
ENDBRANCH  40  42
ENDBRANCH   6  39
TORSDOF 16
