REMARK  18 active torsions:
REMARK  status: ('A' for Active; 'I' for Inactive)
REMARK    1  A    between atoms: C8_8  and  O1_9 
REMARK    2  A    between atoms: C9_11  and  N1_12 
REMARK    3  A    between atoms: N1_12  and  C10_13 
REMARK    4  A    between atoms: C10_13  and  C11_14 
REMARK    5  A    between atoms: C11_14  and  C12_15 
REMARK    6  A    between atoms: C12_15  and  N2_16 
REMARK    7  A    between atoms: N2_16  and  C13_18 
REMARK    8  A    between atoms: C13_18  and  C14_19 
REMARK    9  A    between atoms: C14_19  and  N3_20 
REMARK   10  A    between atoms: N3_20  and  C15_22 
REMARK   11  A    between atoms: C15_22  and  C16_23 
REMARK   12  A    between atoms: C16_23  and  C17_24 
REMARK   13  A    between atoms: C17_24  and  N4_25 
REMARK   14  A    between atoms: N4_25  and  C18_27 
REMARK   15  A    between atoms: C18_27  and  C19_28 
REMARK   16  A    between atoms: C19_28  and  C20_29 
REMARK   17  A    between atoms: C23_32  and  O2_33 
REMARK   18  A    between atoms: C29_41  and  O4_42 
ROOT
HETATM    1  C13 UNL     1      -0.000  -1.373   0.694  1.00  0.00     0.133 C 
ENDROOT
BRANCH   1   2
HETATM    2  N2  UNL     1       1.303  -0.770   0.960  1.00  0.00    -0.419 N 
ATOM      3  H2  UNL     1       1.448  -0.083   1.700  1.00  0.00     0.153 HD
BRANCH   2   4
HETATM    4  C12 UNL     1       2.358  -1.214   0.107  1.00  0.00     0.120 C 
BRANCH   4   5
HETATM    5  C11 UNL     1       3.589  -0.298   0.237  1.00  0.00     0.078 C 
BRANCH   5   6
HETATM    6  C10 UNL     1       4.600  -0.758  -0.777  1.00  0.00     0.157 C 
BRANCH   6   7
HETATM    7  N1  UNL     1       5.757  -0.642  -0.788  1.00  0.00    -0.416 NA
BRANCH   7   8
HETATM    8  C9  UNL     1       7.073  -0.462  -0.716  1.00  0.00     0.172 A 
HETATM    9  C8  UNL     1       7.785  -0.863  -2.006  1.00  0.00     0.112 A 
HETATM   10  C7  UNL     1       9.112  -0.745  -1.929  1.00  0.00     0.077 A 
HETATM   11  C6  UNL     1       9.886  -0.337  -0.911  1.00  0.00     0.082 A 
HETATM   12  C5  UNL     1       9.229   0.046   0.310  1.00  0.00     0.015 A 
HETATM   13  O5  UNL     1      11.231  -0.179  -0.700  1.00  0.00    -0.340 OA
HETATM   14  C4  UNL     1      10.249   0.449   1.264  1.00  0.00     0.082 C 
HETATM   15  C29 UNL     1       7.876  -0.061   0.269  1.00  0.00     0.118 A 
HETATM   16  C2  UNL     1      11.423   0.774   0.323  1.00  0.00     0.065 C 
HETATM   17  C1  UNL     1      12.747   0.651   0.996  1.00  0.00     0.046 C 
HETATM   18  C3  UNL     1      11.208   2.165  -0.278  1.00  0.00     0.046 C 
BRANCH   9  19
HETATM   19  O1  UNL     1       6.953  -1.247  -2.983  1.00  0.00    -0.357 OA
ATOM     20  H1  UNL     1       6.008  -1.331  -3.038  1.00  0.00     0.217 HD
ENDBRANCH   9  19
BRANCH  15  21
HETATM   21  O4  UNL     1       7.217   0.343   1.506  1.00  0.00    -0.357 OA
ATOM     22  H4  UNL     1       6.270   0.268   1.477  1.00  0.00     0.218 HD
ENDBRANCH  15  21
ENDBRANCH   7   8
ENDBRANCH   6   7
ENDBRANCH   5   6
ENDBRANCH   4   5
ENDBRANCH   2   4
ENDBRANCH   1   2
BRANCH   1  23
HETATM   23  C14 UNL     1      -0.474  -0.845  -0.685  1.00  0.00     0.138 C 
BRANCH  23  24
HETATM   24  N3  UNL     1      -0.541   0.517  -0.742  1.00  0.00    -0.400 N 
ATOM     25  H3  UNL     1       0.233   0.954  -1.242  1.00  0.00     0.158 HD
BRANCH  24  26
HETATM   26  C15 UNL     1      -1.462   1.402  -0.248  1.00  0.00     0.060 C 
BRANCH  26  27
HETATM   27  C16 UNL     1      -2.688   1.666  -1.062  1.00  0.00     0.088 C 
BRANCH  27  28
HETATM   28  C17 UNL     1      -3.539   0.456  -1.251  1.00  0.00     0.060 C 
BRANCH  28  29
HETATM   29  N4  UNL     1      -4.105   0.049  -0.027  1.00  0.00    -0.402 N 
ATOM     30  H4  UNL     1      -3.998   0.623   0.809  1.00  0.00     0.158 HD
BRANCH  29  31
HETATM   31  C18 UNL     1      -4.822  -1.166   0.024  1.00  0.00     0.119 C 
BRANCH  31  32
HETATM   32  C19 UNL     1      -5.894  -1.084   1.144  1.00  0.00     0.025 C 
BRANCH  32  33
HETATM   33  C20 UNL     1      -6.867  -0.033   0.757  1.00  0.00    -0.004 C 
HETATM   34  C21 UNL     1      -7.882   0.283   1.897  1.00  0.00     0.015 C 
HETATM   35  C22 UNL     1      -8.618   1.396   1.123  1.00  0.00     0.048 C 
HETATM   36  C23 UNL     1      -9.909   1.744   1.633  1.00  0.00     0.261 C 
HETATM   37  C25 UNL     1      -8.945   0.670  -0.187  1.00  0.00     0.026 C 
HETATM   38  O3  UNL     1     -10.894   0.964   1.090  1.00  0.00    -0.361 OA
HETATM   39  C24 UNL     1     -10.352   0.234   0.005  1.00  0.00     0.176 C 
HETATM   40  C26 UNL     1      -7.914  -0.442  -0.271  1.00  0.00    -0.038 C 
HETATM   41  C27 UNL     1      -7.353  -0.404  -1.683  1.00  0.00     0.015 C 
HETATM   42  C28 UNL     1      -8.496  -1.809  -0.048  1.00  0.00     0.015 C 
BRANCH  36  43
HETATM   43  O2  UNL     1     -10.086   2.713   2.512  1.00  0.00    -0.371 OA
ATOM     44  H2  UNL     1     -10.943   2.944   2.851  1.00  0.00     0.212 HD
ENDBRANCH  36  43
ENDBRANCH  32  33
ENDBRANCH  31  32
ENDBRANCH  29  31
ENDBRANCH  28  29
ENDBRANCH  27  28
ENDBRANCH  26  27
ENDBRANCH  24  26
ENDBRANCH  23  24
ENDBRANCH   1  23
TORSDOF 18
