REMARK  4 active torsions:
REMARK  status: ('A' for Active; 'I' for Inactive)
REMARK       I    between atoms: C1_4  and  N2_5 
REMARK       I    between atoms: C1_4  and  N5_24 
REMARK    1  A    between atoms: N2_5  and  C2_7 
REMARK    2  A    between atoms: C4_11  and  C5_12 
REMARK    3  A    between atoms: N5_24  and  C15_26 
REMARK    4  A    between atoms: C15_26  and  C16_27 
ROOT
HETATM    1  C2  UNL     1       0.691   0.472  -0.216  1.00  0.00     0.697 A 
HETATM    2  N3  UNL     1       0.372   0.817   1.015  1.00  0.00    -0.199 N 
ATOM      3  H3  UNL     1       1.032   1.091   1.742  1.00  0.00     0.183 HD
HETATM    4  C3  UNL     1      -0.970   0.750   1.160  1.00  0.00     0.132 A 
HETATM    5  C4  UNL     1      -1.534   0.345  -0.046  1.00  0.00     0.051 A 
HETATM    6  N4  UNL     1      -0.479   0.188  -0.871  1.00  0.00    -0.193 N 
ATOM      7  H4  UNL     1      -0.543  -0.102  -1.847  1.00  0.00     0.184 HD
ENDROOT
BRANCH   1   8
HETATM    8  N2  UNL     1       1.864   0.321  -0.716  1.00  0.00    -0.023 N 
HETATM    9  C1  UNL     1       3.093   0.509   0.039  1.00  0.00     0.686 C 
HETATM   10  N1  UNL     1       3.111   0.171   1.260  1.00  0.00    -0.234 N 
HETATM   11  N5  UNL     1       4.222   1.012  -0.626  1.00  0.00    -0.226 N 
ATOM     12  H12 UNL     1       2.291  -0.195   1.743  1.00  0.00     0.174 HD
ATOM     13  H11 UNL     1       3.973   0.303   1.789  1.00  0.00     0.174 HD
ATOM     14  H5  UNL     1       4.111   1.174  -1.627  1.00  0.00     0.177 HD
ATOM     15  H2  UNL     1       1.938   0.054  -1.698  1.00  0.00     0.203 HD
BRANCH  11  16
HETATM   16  C15 UNL     1       5.511   1.328  -0.082  1.00  0.00     0.142 C 
BRANCH  16  17
HETATM   17  C16 UNL     1       6.249   0.090   0.371  1.00  0.00     0.004 C 
HETATM   18  C17 UNL     1       6.500  -0.948  -0.695  1.00  0.00     0.006 C 
HETATM   19  C18 UNL     1       7.871  -0.356  -0.916  1.00  0.00     0.001 C 
HETATM   20  C19 UNL     1       7.777   0.282   0.434  1.00  0.00     0.006 C 
ENDBRANCH  16  17
ENDBRANCH  11  16
ENDBRANCH   1   8
BRANCH   5  21
HETATM   21  C5  UNL     1      -2.975   0.086  -0.224  1.00  0.00     0.005 C 
HETATM   22  C6  UNL     1      -3.617   0.099   1.162  1.00  0.00     0.020 C 
HETATM   23  C7  UNL     1      -5.044  -0.397   1.104  1.00  0.00    -0.013 C 
HETATM   24  C8  UNL     1      -5.817   0.572   0.274  1.00  0.00     0.009 C 
HETATM   25  C12 UNL     1      -5.009  -1.799   0.566  1.00  0.00     0.009 C 
HETATM   26  C9  UNL     1      -5.178   0.616  -1.104  1.00  0.00    -0.013 C 
HETATM   27  C10 UNL     1      -5.341  -0.752  -1.680  1.00  0.00     0.009 C 
HETATM   28  C14 UNL     1      -3.732   1.091  -1.032  1.00  0.00     0.020 C 
HETATM   29  C11 UNL     1      -4.551  -1.759  -0.863  1.00  0.00    -0.013 C 
HETATM   30  C13 UNL     1      -3.113  -1.271  -0.878  1.00  0.00     0.020 C 
ENDBRANCH   5  21
TORSDOF 4
