REMARK  3 active torsions:
REMARK  status: ('A' for Active; 'I' for Inactive)
REMARK    1  A    between atoms: C2_2  and  N1_3 
REMARK       I    between atoms: N1_3  and  C3_5 
REMARK       I    between atoms: C3_5  and  N2_7 
REMARK       I    between atoms: C4_9  and  N3_10 
REMARK       I    between atoms: C4_9  and  N4_19 
REMARK    2  A    between atoms: N3_10  and  C5_12 
REMARK    3  A    between atoms: C5_12  and  C6_13 
REMARK       I    between atoms: N4_19  and  C12_21 
ROOT
HETATM    1  N1  UNL     1      -2.403  -0.942  -0.069  1.00  0.00    -0.334 N 
ATOM      2  H1  UNL     1      -2.814  -1.657  -0.669  1.00  0.00     0.165 HD
HETATM    3  C3  UNL     1      -1.237  -1.258   0.714  1.00  0.00     0.335 C 
HETATM    4  O1  UNL     1      -0.705  -0.406   1.459  1.00  0.00    -0.246 OA
HETATM    5  N2  UNL     1      -0.698  -2.544   0.634  1.00  0.00    -0.141 N 
ATOM      6  H2  UNL     1      -1.321  -3.351   0.646  1.00  0.00     0.189 HD
HETATM    7  C4  UNL     1       0.584  -2.728   0.545  1.00  0.00     0.685 C 
HETATM    8  N3  UNL     1       1.501  -1.655   0.522  1.00  0.00    -0.225 N 
ATOM      9  H3  UNL     1       2.024  -1.413   1.364  1.00  0.00     0.177 HD
HETATM   10  N4  UNL     1       0.964  -4.108   0.476  1.00  0.00    -0.144 N 
ATOM     11  H4  UNL     1       0.250  -4.836   0.496  1.00  0.00     0.188 HD
HETATM   12  C12 UNL     1       2.325  -4.457   0.381  1.00  0.00     0.346 C 
HETATM   13  N5  UNL     1       2.661  -5.859   0.312  1.00  0.00    -0.039 NA
HETATM   14  O2  UNL     1       3.207  -3.580   0.359  1.00  0.00    -0.250 OA
ENDROOT
BRANCH   8  15
HETATM   15  C5  UNL     1       1.698  -0.906  -0.683  1.00  0.00     0.142 C 
BRANCH  15  16
HETATM   16  C6  UNL     1       2.652   0.233  -0.605  1.00  0.00     0.004 C 
HETATM   17  C7  UNL     1       4.049  -0.144  -0.219  1.00  0.00     0.006 C 
HETATM   18  C8  UNL     1       4.877   1.059   0.184  1.00  0.00     0.000 C 
HETATM   19  C9  UNL     1       4.392   2.247  -0.599  1.00  0.00     0.000 C 
HETATM   20  C10 UNL     1       2.967   2.619  -0.266  1.00  0.00     0.000 C 
HETATM   21  C11 UNL     1       2.167   1.411   0.198  1.00  0.00     0.006 C 
ENDBRANCH  15  16
ENDBRANCH   8  15
BRANCH   1  22
HETATM   22  C2  UNL     1      -3.001   0.374  -0.018  1.00  0.00     0.031 C 
HETATM   23  C1  UNL     1      -1.981   1.395  -0.469  1.00  0.00     0.038 C 
HETATM   24  C13 UNL     1      -4.168   0.443  -0.969  1.00  0.00     0.031 C 
HETATM   25  C14 UNL     1      -5.281   1.313  -0.534  1.00  0.00     0.002 C 
HETATM   26  C15 UNL     1      -4.952   2.446   0.364  1.00  0.00     0.000 C 
HETATM   27  C16 UNL     1      -3.797   2.218   1.294  1.00  0.00     0.002 C 
HETATM   28  C17 UNL     1      -3.551   0.709   1.354  1.00  0.00     0.031 C 
ENDBRANCH   1  22
TORSDOF 3
