REMARK  4 active torsions:
REMARK  status: ('A' for Active; 'I' for Inactive)
REMARK    1  A    between atoms: C2_2  and  C3_3 
REMARK    2  A    between atoms: C6_8  and  C7_9 
REMARK    3  A    between atoms: C7_9  and  N2_10 
REMARK       I    between atoms: N2_10  and  C8_12 
REMARK       I    between atoms: C8_12  and  N3_14 
REMARK    4  A    between atoms: N3_14  and  C9_16 
ROOT
HETATM    1  C9  UNL     1      -0.653   0.425   0.752  1.00  0.00     0.132 A 
HETATM    2  N4  UNL     1      -0.693   1.749   0.622  1.00  0.00    -0.285 N 
ATOM      3  H4  UNL     1       0.128   2.354   0.644  1.00  0.00     0.188 HD
HETATM    4  N5  UNL     1      -1.940   2.184   0.459  1.00  0.00    -0.302 N 
ATOM      5  H5  UNL     1      -2.215   3.159   0.340  1.00  0.00     0.186 HD
HETATM    6  C10 UNL     1      -2.788   1.122   0.476  1.00  0.00     0.044 A 
HETATM    7  C11 UNL     1      -1.987   0.021   0.659  1.00  0.00     0.013 A 
HETATM    8  C12 UNL     1      -2.670  -1.299   0.717  1.00  0.00     0.053 C 
HETATM    9  C13 UNL     1      -3.719  -1.328  -0.374  1.00  0.00    -0.043 C 
HETATM   10  C14 UNL     1      -3.064  -1.244  -1.725  1.00  0.00     0.015 C 
HETATM   11  C15 UNL     1      -4.419  -2.669  -0.286  1.00  0.00     0.015 C 
HETATM   12  C16 UNL     1      -4.739  -0.257  -0.228  1.00  0.00     0.024 C 
HETATM   13  C17 UNL     1      -4.275   1.035   0.331  1.00  0.00    -0.002 C 
HETATM   14  C18 UNL     1      -4.874   1.201   1.713  1.00  0.00     0.021 C 
HETATM   15  C19 UNL     1      -4.738   2.230  -0.477  1.00  0.00     0.021 C 
ENDROOT
BRANCH   1  16
HETATM   16  N3  UNL     1       0.322  -0.404   0.918  1.00  0.00    -0.293 N 
HETATM   17  C8  UNL     1       1.669  -0.103   1.011  1.00  0.00     0.322 C 
HETATM   18  N2  UNL     1       2.648  -1.132   1.033  1.00  0.00    -0.339 N 
HETATM   19  O1  UNL     1       2.063   1.079   1.078  1.00  0.00    -0.247 OA
ATOM     20  H2  UNL     1       2.366  -2.111   0.992  1.00  0.00     0.164 HD
ATOM     21  H3  UNL     1       0.072  -1.390   0.988  1.00  0.00     0.172 HD
BRANCH  18  22
HETATM   22  C7  UNL     1       4.054  -0.778   1.115  1.00  0.00     0.165 C 
BRANCH  22  23
HETATM   23  C6  UNL     1       4.428  -0.095  -0.150  1.00  0.00    -0.017 A 
HETATM   24  C3  UNL     1       5.673   0.421  -0.367  1.00  0.00     0.016 A 
HETATM   25  N1  UNL     1       5.702   0.932  -1.607  1.00  0.00    -0.369 N 
HETATM   26  C4  UNL     1       4.509   0.754  -2.180  1.00  0.00     0.089 A 
ATOM     27  H1  UNL     1       6.506   1.384  -2.042  1.00  0.00     0.165 HD
HETATM   28  C5  UNL     1       3.679   0.112  -1.298  1.00  0.00     0.027 A 
BRANCH  24  29
HETATM   29  C2  UNL     1       6.807   0.415   0.629  1.00  0.00     0.053 C 
HETATM   30  C1  UNL     1       7.498  -0.904   0.705  1.00  0.00     0.011 C 
ENDBRANCH  24  29
ENDBRANCH  22  23
ENDBRANCH  18  22
ENDBRANCH   1  16
TORSDOF 4
