REMARK  7 active torsions:
REMARK  status: ('A' for Active; 'I' for Inactive)
REMARK    1  A    between atoms: C3_3  and  C4_4 
REMARK    2  A    between atoms: C4_4  and  C6_6 
REMARK    3  A    between atoms: N1_7  and  N2_9 
REMARK    4  A    between atoms: N2_9  and  C7_11 
REMARK    5  A    between atoms: C7_11  and  N3_13 
REMARK    6  A    between atoms: N3_13  and  N4_15 
REMARK       I    between atoms: N4_15  and  C8_17 
REMARK       I    between atoms: C8_17  and  N5_19 
REMARK    7  A    between atoms: N5_19  and  C9_21 
ROOT
HETATM    1  C1  UNL     1       3.390   2.973  -1.096  1.00  0.00     0.012 C 
HETATM    2  C2  UNL     1       4.004   2.282  -0.318  1.00  0.00    -0.113 C 
HETATM    3  C3  UNL     1       4.728   1.444   0.639  1.00  0.00     0.132 C 
ENDROOT
BRANCH   3   4
HETATM    4  C4  UNL     1       4.366   0.017   0.399  1.00  0.00    -0.040 C 
HETATM    5  C5  UNL     1       5.321  -0.826   0.085  1.00  0.00     0.021 C 
BRANCH   4   6
HETATM    6  C6  UNL     1       2.967  -0.380   0.524  1.00  0.00     0.114 C 
HETATM    7  N1  UNL     1       2.672  -1.614   0.314  1.00  0.00    -0.309 N 
ATOM      8  H1  UNL     1       3.398  -2.287   0.069  1.00  0.00     0.186 HD
BRANCH   7   9
HETATM    9  N2  UNL     1       1.337  -2.018   0.428  1.00  0.00    -0.275 N 
ATOM     10  H2  UNL     1       0.668  -1.372   0.848  1.00  0.00     0.189 HD
BRANCH   9  11
HETATM   11  C7  UNL     1       0.873  -3.274  -0.009  1.00  0.00     0.205 C 
HETATM   12  S1  UNL     1       1.926  -4.317  -0.675  1.00  0.00    -0.038 SA
BRANCH  11  13
HETATM   13  N3  UNL     1      -0.468  -3.631   0.124  1.00  0.00    -0.271 N 
ATOM     14  H3  UNL     1      -0.785  -4.546  -0.196  1.00  0.00     0.189 HD
BRANCH  13  15
HETATM   15  N4  UNL     1      -1.375  -2.743   0.692  1.00  0.00    -0.249 N 
HETATM   16  C8  UNL     1      -1.846  -1.582  -0.030  1.00  0.00     0.339 C 
HETATM   17  O1  UNL     1      -1.391  -1.422  -1.194  1.00  0.00    -0.245 OA
HETATM   18  N5  UNL     1      -2.765  -0.735   0.616  1.00  0.00    -0.308 N 
ATOM     19  H5  UNL     1      -3.037  -1.007   1.561  1.00  0.00     0.170 HD
ATOM     20  H4  UNL     1      -1.715  -2.914   1.638  1.00  0.00     0.192 HD
BRANCH  18  21
HETATM   21  C9  UNL     1      -3.353   0.437   0.121  1.00  0.00     0.036 A 
HETATM   22  C10 UNL     1      -4.329   1.074   0.886  1.00  0.00     0.031 A 
HETATM   23  C11 UNL     1      -4.955   2.229   0.485  1.00  0.00     0.021 A 
HETATM   24  C12 UNL     1      -4.625   2.798  -0.710  1.00  0.00     0.011 A 
HETATM   25 BR1  UNL     1      -5.530   4.413  -1.225  1.00  0.00    -0.051 Br
HETATM   26  C13 UNL     1      -3.675   2.207  -1.488  1.00  0.00     0.021 A 
HETATM   27  C14 UNL     1      -3.040   1.019  -1.062  1.00  0.00     0.031 A 
ENDBRANCH  18  21
ENDBRANCH  13  15
ENDBRANCH  11  13
ENDBRANCH   9  11
ENDBRANCH   7   9
ENDBRANCH   4   6
ENDBRANCH   3   4
TORSDOF 7
