REMARK  3 active torsions:
REMARK  status: ('A' for Active; 'I' for Inactive)
REMARK    1  A    between atoms: N1_1  and  S1_4 
REMARK    2  A    between atoms: S1_4  and  N2_7 
REMARK    3  A    between atoms: N2_7  and  C1_9 
ROOT
HETATM    1  C1  UNL     1      -0.318   0.516   0.304  1.00  0.00     0.701 A 
HETATM    2  N3  UNL     1      -1.354   0.915   1.060  1.00  0.00    -0.140 N 
ATOM      3  H3  UNL     1      -1.179   1.613   1.783  1.00  0.00     0.189 HD
HETATM    4  C2  UNL     1      -2.606   0.450   0.921  1.00  0.00     0.342 A 
HETATM    5  O3  UNL     1      -3.557   0.850   1.653  1.00  0.00    -0.246 OA
HETATM    6  N4  UNL     1      -2.863  -0.476  -0.030  1.00  0.00    -0.260 N 
ATOM      7  H4  UNL     1      -3.804  -0.848  -0.160  1.00  0.00     0.175 HD
HETATM    8  C3  UNL     1      -1.854  -0.887  -0.791  1.00  0.00     0.342 A 
HETATM    9  O4  UNL     1      -2.106  -1.754  -1.678  1.00  0.00    -0.246 OA
HETATM   10  N5  UNL     1      -0.588  -0.402  -0.634  1.00  0.00    -0.140 N 
ATOM     11  H5  UNL     1       0.161  -0.742  -1.237  1.00  0.00     0.189 HD
ENDROOT
BRANCH   1  12
HETATM   12  N2  UNL     1       0.996   1.020   0.479  1.00  0.00    -0.099 N 
ATOM     13  H2  UNL     1       1.129   1.707   1.221  1.00  0.00     0.199 HD
BRANCH  12  14
HETATM   14  S1  UNL     1       2.370   0.595  -0.423  1.00  0.00     0.330 S 
HETATM   15  O1  UNL     1       2.070   0.483  -1.867  1.00  0.00    -0.182 OA
HETATM   16  O2  UNL     1       3.396   1.721  -0.269  1.00  0.00    -0.182 OA
BRANCH  14  17
HETATM   17  N1  UNL     1       3.122  -0.866   0.149  1.00  0.00    -0.311 N 
ATOM     18  H12 UNL     1       3.321  -1.675  -0.440  1.00  0.00     0.170 HD
ATOM     19  H11 UNL     1       3.329  -0.789   1.145  1.00  0.00     0.170 HD
ENDBRANCH  14  17
ENDBRANCH  12  14
ENDBRANCH   1  12
TORSDOF 3
