REMARK  4 active torsions:
REMARK  status: ('A' for Active; 'I' for Inactive)
REMARK    1  A    between atoms: N1_1  and  C1_4 
REMARK    2  A    between atoms: C4_9  and  C5_10 
REMARK    3  A    between atoms: C7_14  and  N4_15 
REMARK    4  A    between atoms: C8_20  and  O1_21 
ROOT
HETATM    1  C5  UNL     1      -0.069   0.665   0.148  1.00  0.00     0.092 A 
HETATM    2  N3  UNL     1      -0.930  -0.307   0.062  1.00  0.00    -0.345 N 
ATOM      3  H3  UNL     1      -0.604  -1.248  -0.157  1.00  0.00     0.167 HD
HETATM    4  C6  UNL     1      -2.197  -0.098   0.251  1.00  0.00     0.094 A 
HETATM    5  C7  UNL     1      -3.234  -1.045   0.191  1.00  0.00     0.129 A 
HETATM    6  N5  UNL     1      -4.488  -0.693   0.406  1.00  0.00    -0.322 N 
ATOM      7  H5  UNL     1      -5.193  -1.428   0.347  1.00  0.00     0.169 HD
HETATM    8  C8  UNL     1      -4.923   0.554   0.698  1.00  0.00     0.142 A 
HETATM    9  C9  UNL     1      -3.931   1.509   0.766  1.00  0.00     0.077 A 
HETATM   10  C10 UNL     1      -2.589   1.182   0.545  1.00  0.00     0.041 A 
HETATM   11  S1  UNL     1      -1.085   2.003   0.526  1.00  0.00    -0.069 SA
ENDROOT
BRANCH   1  12
HETATM   12  C4  UNL     1       1.390   0.733  -0.011  1.00  0.00     0.042 A 
HETATM   13  C3  UNL     1       2.247  -0.254  -0.303  1.00  0.00     0.053 A 
HETATM   14  C2  UNL     1       3.598   0.073  -0.399  1.00  0.00     0.059 A 
HETATM   15  N2  UNL     1       4.684  -0.663  -0.669  1.00  0.00    -0.335 N 
HETATM   16  C11 UNL     1       3.850   1.403  -0.172  1.00  0.00     0.076 A 
HETATM   17  C1  UNL     1       5.867  -0.072  -0.694  1.00  0.00     0.143 A 
ATOM     18  H2  UNL     1       4.600  -1.663  -0.852  1.00  0.00     0.168 HD
HETATM   19  S3  UNL     1       5.546   1.555  -0.342  1.00  0.00    -0.045 SA
HETATM   20  S2  UNL     1       2.336   2.135   0.148  1.00  0.00    -0.078 SA
BRANCH  17  21
HETATM   21  N1  UNL     1       7.029  -0.639  -0.941  1.00  0.00    -0.380 N 
ATOM     22  H12 UNL     1       7.222  -1.618  -1.153  1.00  0.00     0.158 HD
ATOM     23  H11 UNL     1       7.941  -0.183  -0.960  1.00  0.00     0.158 HD
ENDBRANCH  17  21
ENDBRANCH   1  12
BRANCH   5  24
HETATM   24  N4  UNL     1      -2.977  -2.294  -0.081  1.00  0.00    -0.384 N 
ATOM     25  H42 UNL     1      -2.008  -2.566  -0.247  1.00  0.00     0.157 HD
ATOM     26  H41 UNL     1      -3.730  -2.981  -0.125  1.00  0.00     0.157 HD
ENDBRANCH   5  24
BRANCH   8  27
HETATM   27  O1  UNL     1      -6.248   0.857   0.913  1.00  0.00    -0.346 OA
ATOM     28  H1  UNL     1      -6.554   1.733   1.118  1.00  0.00     0.219 HD
ENDBRANCH   8  27
TORSDOF 4
