REMARK  14 active torsions:
REMARK  status: ('A' for Active; 'I' for Inactive)
REMARK    1  A    between atoms: C2_2  and  C3_3 
REMARK    2  A    between atoms: C3_3  and  N1_4 
REMARK    3  A    between atoms: N1_4  and  C4_6 
REMARK    4  A    between atoms: C5_9  and  N3_10 
REMARK       I    between atoms: N3_10  and  C6_12 
REMARK    5  A    between atoms: C6_12  and  O2_14 
REMARK    6  A    between atoms: C8_16  and  N4_17 
REMARK    7  A    between atoms: N4_17  and  C9_19 
REMARK    8  A    between atoms: C9_19  and  C10_20 
REMARK    9  A    between atoms: C10_20  and  N5_21 
REMARK   10  A    between atoms: N6_25  and  C11_26 
REMARK   11  A    between atoms: C14_35  and  N10_36 
REMARK   12  A    between atoms: N10_36  and  C15_37 
REMARK   13  A    between atoms: N10_36  and  C17_39 
REMARK   14  A    between atoms: C19_43  and  N12_44 
ROOT
HETATM    1  C4  UNL     1      -2.856   0.402   1.497  1.00  0.00     0.695 A 
HETATM    2  N2  UNL     1      -3.438  -0.793   1.193  1.00  0.00    -0.172 N 
ATOM      3  H2  UNL     1      -4.207  -1.132   1.771  1.00  0.00     0.186 HD
HETATM    4  C5  UNL     1      -3.029  -1.531   0.159  1.00  0.00     0.171 A 
HETATM    5  C8  UNL     1      -1.957  -1.070  -0.659  1.00  0.00     0.174 A 
HETATM    6  N6  UNL     1      -1.406   0.090  -0.347  1.00  0.00    -0.204 N 
HETATM    7  N13 UNL     1      -1.859   0.764   0.685  1.00  0.00    -0.122 N 
ATOM      8  H13 UNL     1      -1.403   1.654   0.887  1.00  0.00     0.206 HD
ENDROOT
BRANCH   6   9
HETATM    9  C11 UNL     1      -0.383   0.650  -1.126  1.00  0.00     0.148 A 
HETATM   10  N7  UNL     1      -0.784   1.368  -2.212  1.00  0.00    -0.336 N 
HETATM   11  C12 UNL     1       0.121   1.953  -2.981  1.00  0.00     0.183 A 
ATOM     12  H7  UNL     1      -1.776   1.454  -2.432  1.00  0.00     0.168 HD
HETATM   13  N8  UNL     1       1.440   1.884  -2.753  1.00  0.00    -0.337 N 
HETATM   14  C13 UNL     1       1.874   1.187  -1.694  1.00  0.00     0.139 A 
ATOM     15  H8  UNL     1       2.100   2.353  -3.373  1.00  0.00     0.168 HD
HETATM   16  N9  UNL     1       3.189   1.076  -1.421  1.00  0.00    -0.175 N 
HETATM   17  C20 UNL     1       0.958   0.556  -0.860  1.00  0.00     0.099 A 
HETATM   18  C14 UNL     1       3.700   0.395  -0.393  1.00  0.00     0.683 A 
ATOM     19  H9  UNL     1       3.842   1.547  -2.046  1.00  0.00     0.186 HD
HETATM   20  N11 UNL     1       2.797  -0.223   0.423  1.00  0.00    -0.176 N 
HETATM   21  C19 UNL     1       1.470  -0.163   0.222  1.00  0.00     0.132 A 
ATOM     22  H11 UNL     1       3.145  -0.754   1.221  1.00  0.00     0.186 HD
BRANCH  18  23
HETATM   23  N10 UNL     1       5.085   0.293  -0.129  1.00  0.00    -0.218 N 
BRANCH  23  24
HETATM   24  C15 UNL     1       6.059   0.959  -0.932  1.00  0.00     0.136 C 
HETATM   25  C16 UNL     1       6.769   2.092  -0.208  1.00  0.00     0.027 C 
ENDBRANCH  23  24
BRANCH  23  26
HETATM   26  C17 UNL     1       5.512  -0.514   0.988  1.00  0.00     0.136 C 
HETATM   27  C18 UNL     1       6.101   0.244   2.128  1.00  0.00     0.027 C 
ENDBRANCH  23  26
ENDBRANCH  18  23
BRANCH  21  28
HETATM   28  N12 UNL     1       0.648  -0.758   1.003  1.00  0.00    -0.384 N 
ATOM     29 2H12 UNL     1       1.022  -1.283   1.793  1.00  0.00     0.157 HD
ATOM     30 1H12 UNL     1      -0.359  -0.712   0.850  1.00  0.00     0.157 HD
ENDBRANCH  21  28
ENDBRANCH   6   9
BRANCH   5  31
HETATM   31  N4  UNL     1      -1.670  -1.816  -1.583  1.00  0.00    -0.350 N 
ATOM     32  H4  UNL     1      -2.306  -2.610  -1.511  1.00  0.00     0.166 HD
BRANCH  31  33
HETATM   33  C9  UNL     1      -0.880  -2.065  -2.670  1.00  0.00     0.089 C 
BRANCH  33  34
HETATM   34  C10 UNL     1      -1.624  -2.172  -4.004  1.00  0.00     0.274 C 
BRANCH  34  35
HETATM   35  N5  UNL     1      -0.658  -2.423  -5.063  1.00  0.00    -0.075 N 
ATOM     36  H53 UNL     1       0.084  -1.724  -5.086  1.00  0.00     0.274 HD
ATOM     37  H52 UNL     1      -0.077  -3.240  -4.875  1.00  0.00     0.274 HD
ATOM     38  H51 UNL     1      -1.154  -2.494  -5.952  1.00  0.00     0.274 HD
ENDBRANCH  34  35
ENDBRANCH  33  34
ENDBRANCH  31  33
ENDBRANCH   5  31
BRANCH   4  39
HETATM   39  N3  UNL     1      -3.608  -2.654  -0.089  1.00  0.00    -0.285 N 
HETATM   40  C6  UNL     1      -4.675  -3.102   0.732  1.00  0.00     0.365 C 
HETATM   41  O1  UNL     1      -5.838  -2.652   0.503  1.00  0.00    -0.238 OA
ATOM     42  H3  UNL     1      -3.299  -3.223  -0.877  1.00  0.00     0.172 HD
BRANCH  40  43
HETATM   43  O2  UNL     1      -4.505  -4.001   1.766  1.00  0.00    -0.309 OA
HETATM   44  C7  UNL     1      -5.621  -4.407   2.557  1.00  0.00     0.215 C 
ENDBRANCH  40  43
ENDBRANCH   4  39
BRANCH   1  45
HETATM   45  N1  UNL     1      -3.299   1.057   2.499  1.00  0.00    -0.225 N 
ATOM     46  H1  UNL     1      -4.071   0.617   3.000  1.00  0.00     0.177 HD
BRANCH  45  47
HETATM   47  C3  UNL     1      -2.875   2.305   3.017  1.00  0.00     0.138 C 
BRANCH  47  48
HETATM   48  C2  UNL     1      -3.917   3.408   2.856  1.00  0.00     0.016 C 
HETATM   49  C1  UNL     1      -4.204   3.588   1.388  1.00  0.00     0.006 C 
ENDBRANCH  47  48
ENDBRANCH  45  47
ENDBRANCH   1  45
TORSDOF 14
