REMARK  13 active torsions:
REMARK  status: ('A' for Active; 'I' for Inactive)
REMARK    1  A    between atoms: C4_7  and  N3_8 
REMARK    2  A    between atoms: N3_8  and  C5_10 
REMARK    3  A    between atoms: N6_20  and  C11_21 
REMARK    4  A    between atoms: C11_21  and  C12_22 
REMARK    5  A    between atoms: C12_22  and  N7_23 
REMARK    6  A    between atoms: N7_23  and  C13_25 
REMARK    7  A    between atoms: C13_25  and  C14_26 
REMARK    8  A    between atoms: C14_26  and  O1_27 
REMARK    9  A    between atoms: O1_27  and  C15_28 
REMARK   10  A    between atoms: N9_30  and  N10_32 
REMARK   11  A    between atoms: C16_34  and  C17_35 
REMARK   12  A    between atoms: C20_38  and  O2_39 
REMARK   13  A    between atoms: C21_41  and  O3_42 
ROOT
HETATM    1  C12 UNL     1      -0.128   1.560  -1.363  1.00  0.00     0.134 C 
ENDROOT
BRANCH   1   2
HETATM    2  C11 UNL     1      -1.005   0.753  -2.244  1.00  0.00     0.149 C 
BRANCH   2   3
HETATM    3  N6  UNL     1      -2.135   0.138  -1.574  1.00  0.00    -0.341 N 
HETATM    4  C7  UNL     1      -3.369   0.627  -1.384  1.00  0.00     0.122 A 
HETATM    5  N5  UNL     1      -3.895   1.798  -1.747  1.00  0.00    -0.338 N 
HETATM    6  C8  UNL     1      -4.180  -0.257  -0.705  1.00  0.00     0.054 A 
HETATM    7  C6  UNL     1      -5.176   2.083  -1.449  1.00  0.00     0.183 A 
ATOM      8  H5  UNL     1      -3.326   2.478  -2.251  1.00  0.00     0.168 HD
HETATM    9  N4  UNL     1      -5.989   1.240  -0.787  1.00  0.00    -0.337 N 
HETATM   10  C5  UNL     1      -5.490   0.041  -0.402  1.00  0.00     0.136 A 
ATOM     11  H4  UNL     1      -6.954   1.497  -0.581  1.00  0.00     0.168 HD
HETATM   12  C9  UNL     1      -3.377  -1.363  -0.465  1.00  0.00     0.036 A 
HETATM   13  C10 UNL     1      -2.138  -1.089  -1.008  1.00  0.00     0.094 A 
BRANCH  10  14
HETATM   14  N3  UNL     1      -6.252  -0.785   0.231  1.00  0.00    -0.176 N 
ATOM     15  H3  UNL     1      -5.874  -1.687   0.519  1.00  0.00     0.186 HD
BRANCH  14  16
HETATM   16  C4  UNL     1      -7.606  -0.472   0.538  1.00  0.00     0.677 C 
HETATM   17  N1  UNL     1      -8.085  -0.091   1.817  1.00  0.00    -0.221 N 
HETATM   18  C1  UNL     1      -7.493  -0.347   3.121  1.00  0.00     0.168 C 
HETATM   19  C2  UNL     1      -9.323   0.629   1.587  1.00  0.00     0.161 C 
HETATM   20  C3  UNL     1      -9.830  -0.116   0.348  1.00  0.00     0.158 C 
HETATM   21  N2  UNL     1      -8.574  -0.493  -0.305  1.00  0.00    -0.225 N 
ATOM     22  H2  UNL     1      -8.482  -0.738  -1.291  1.00  0.00     0.177 HD
ENDBRANCH  14  16
ENDBRANCH  10  14
ENDBRANCH   2   3
ENDBRANCH   1   2
BRANCH   1  23
HETATM   23  N7  UNL     1       0.498   0.889  -0.274  1.00  0.00    -0.418 N 
ATOM     24  H7  UNL     1       0.253   1.086   0.696  1.00  0.00     0.153 HD
BRANCH  23  25
HETATM   25  C13 UNL     1       1.483  -0.070  -0.622  1.00  0.00     0.140 C 
BRANCH  25  26
HETATM   26  C14 UNL     1       2.713   0.558  -1.237  1.00  0.00     0.197 C 
BRANCH  26  27
HETATM   27  O1  UNL     1       3.692  -0.417  -1.583  1.00  0.00    -0.322 OA
BRANCH  27  28
HETATM   28  C15 UNL     1       4.260  -1.239  -0.617  1.00  0.00     0.246 C 
HETATM   29  N8  UNL     1       4.501  -2.597  -0.836  1.00  0.00    -0.055 NA
HETATM   30  N9  UNL     1       4.561  -0.673   0.514  1.00  0.00    -0.268 N 
ATOM     31  H9  UNL     1       4.375   0.321   0.644  1.00  0.00     0.190 HD
BRANCH  30  32
HETATM   32  N10 UNL     1       5.117  -1.383   1.520  1.00  0.00    -0.308 N 
HETATM   33  C16 UNL     1       6.257  -1.470   2.026  1.00  0.00     0.118 C 
ATOM     34  H10 UNL     1       4.443  -1.997   1.978  1.00  0.00     0.186 HD
BRANCH  33  35
HETATM   35  C17 UNL     1       7.476  -0.794   1.691  1.00  0.00    -0.017 A 
HETATM   36  C18 UNL     1       8.630  -1.088   2.412  1.00  0.00     0.016 A 
HETATM   37  C19 UNL     1       9.842  -0.487   2.154  1.00  0.00     0.040 A 
HETATM   38  C20 UNL     1       9.950   0.447   1.151  1.00  0.00     0.098 A 
HETATM   39  C21 UNL     1       8.833   0.768   0.414  1.00  0.00     0.099 A 
HETATM   40  C22 UNL     1       7.624   0.144   0.698  1.00  0.00     0.052 A 
BRANCH  38  41
HETATM   41  O2  UNL     1      11.179   1.040   0.908  1.00  0.00    -0.358 OA
ATOM     42  H2  UNL     1      11.254   1.685   0.215  1.00  0.00     0.217 HD
ENDBRANCH  38  41
BRANCH  39  43
HETATM   43  O3  UNL     1       8.950   1.700  -0.585  1.00  0.00    -0.358 OA
ATOM     44  H3  UNL     1       8.179   1.922  -1.094  1.00  0.00     0.217 HD
ENDBRANCH  39  43
ENDBRANCH  33  35
ENDBRANCH  30  32
ENDBRANCH  27  28
ENDBRANCH  26  27
ENDBRANCH  25  26
ENDBRANCH  23  25
ENDBRANCH   1  23
TORSDOF 13
