REMARK  12 active torsions:
REMARK  status: ('A' for Active; 'I' for Inactive)
REMARK       I    between atoms: N1_2  and  C3_4 
REMARK       I    between atoms: C3_4  and  N3_6 
REMARK    1  A    between atoms: N3_6  and  C4_8 
REMARK    2  A    between atoms: C4_8  and  C5_9 
REMARK    3  A    between atoms: C5_9  and  C6_10 
REMARK    4  A    between atoms: C6_10  and  N4_11 
REMARK    5  A    between atoms: N4_11  and  C7_13 
REMARK    6  A    between atoms: C8_18  and  N7_19 
REMARK    7  A    between atoms: N7_19  and  C9_21 
REMARK    8  A    between atoms: C9_21  and  C10_22 
REMARK    9  A    between atoms: C10_22  and  N8_23 
REMARK   10  A    between atoms: N8_23  and  C11_25 
REMARK   11  A    between atoms: C11_25  and  C12_26 
REMARK   12  A    between atoms: C12_26  and  O1_27 
ROOT
HETATM    1  C7  UNL     1       0.075  -0.437   2.052  1.00  0.00     0.707 A 
HETATM    2  N5  UNL     1      -0.040  -0.693   3.388  1.00  0.00    -0.117 N 
ATOM      3  H5  UNL     1       0.563  -0.312   4.117  1.00  0.00     0.206 HD
HETATM    4  N6  UNL     1      -1.053  -1.510   3.584  1.00  0.00    -0.117 N 
ATOM      5  H6  UNL     1      -1.359  -1.861   4.491  1.00  0.00     0.206 HD
HETATM    6  C8  UNL     1      -1.629  -1.814   2.389  1.00  0.00     0.707 A 
HETATM    7  N9  UNL     1      -0.912  -1.140   1.482  1.00  0.00    -0.020 N 
ATOM      8  H9  UNL     1      -1.095  -1.159   0.479  1.00  0.00     0.203 HD
ENDROOT
BRANCH   1   9
HETATM    9  N4  UNL     1       0.956   0.310   1.503  1.00  0.00    -0.224 N 
ATOM     10  H4  UNL     1       1.625   0.743   2.140  1.00  0.00     0.177 HD
BRANCH   9  11
HETATM   11  C6  UNL     1       1.130   0.618   0.131  1.00  0.00     0.139 C 
BRANCH  11  12
HETATM   12  C5  UNL     1       1.899   1.945   0.076  1.00  0.00     0.040 C 
BRANCH  12  13
HETATM   13  C4  UNL     1       2.167   2.409  -1.311  1.00  0.00     0.124 C 
BRANCH  13  14
HETATM   14  N3  UNL     1       2.919   1.561  -2.150  1.00  0.00    -0.364 N 
HETATM   15  C3  UNL     1       4.054   1.029  -2.025  1.00  0.00     0.185 C 
HETATM   16  N1  UNL     1       4.883   1.190  -0.907  1.00  0.00    -0.364 N 
HETATM   17  N2  UNL     1       4.521   0.209  -3.107  1.00  0.00    -0.064 NA
HETATM   18  C1  UNL     1       5.129   0.063   0.007  1.00  0.00     0.151 C 
HETATM   19  C2  UNL     1       5.519   2.447  -0.624  1.00  0.00     0.151 C 
ATOM     20  H3  UNL     1       2.453   1.334  -3.029  1.00  0.00     0.162 HD
ENDBRANCH  13  14
ENDBRANCH  12  13
ENDBRANCH  11  12
ENDBRANCH   9  11
ENDBRANCH   1   9
BRANCH   6  21
HETATM   21  N7  UNL     1      -2.645  -2.585   2.191  1.00  0.00    -0.223 N 
ATOM     22  H7  UNL     1      -3.085  -3.028   2.998  1.00  0.00     0.177 HD
BRANCH  21  23
HETATM   23  C9  UNL     1      -3.181  -2.845   0.894  1.00  0.00     0.157 C 
BRANCH  23  24
HETATM   24  C10 UNL     1      -4.155  -1.712   0.555  1.00  0.00     0.134 C 
BRANCH  24  25
HETATM   25  N8  UNL     1      -4.674  -2.008  -0.747  1.00  0.00    -0.418 N 
ATOM     26  H8  UNL     1      -4.390  -2.836  -1.270  1.00  0.00     0.153 HD
BRANCH  25  27
HETATM   27  C11 UNL     1      -5.615  -1.066  -1.264  1.00  0.00     0.139 C 
BRANCH  27  28
HETATM   28  C12 UNL     1      -5.034   0.284  -1.599  1.00  0.00     0.183 C 
BRANCH  28  29
HETATM   29  O1  UNL     1      -6.117   1.051  -2.088  1.00  0.00    -0.399 OA
ATOM     30  H1  UNL     1      -5.751   1.902  -2.299  1.00  0.00     0.209 HD
ENDBRANCH  28  29
ENDBRANCH  27  28
ENDBRANCH  25  27
ENDBRANCH  24  25
ENDBRANCH  23  24
ENDBRANCH  21  23
ENDBRANCH   6  21
TORSDOF 12
