REMARK  2 active torsions:
REMARK  status: ('A' for Active; 'I' for Inactive)
REMARK    1  A    between atoms: C4_4  and  N1_5 
REMARK    2  A    between atoms: C8_9  and  N2_10 
ROOT
HETATM    1  N1  UNL     1       1.228  -1.011   0.157  1.00  0.00     0.095 N 
HETATM    2  C5  UNL     1       0.840  -1.953   1.152  1.00  0.00     0.273 C 
HETATM    3  C6  UNL     1      -0.148  -1.378   2.156  1.00  0.00     0.032 C 
HETATM    4  C7  UNL     1      -1.404  -0.947   1.421  1.00  0.00     0.039 C 
HETATM    5  C8  UNL     1      -0.996   0.009   0.346  1.00  0.00     0.251 C 
HETATM    6  C13 UNL     1       0.034  -0.636  -0.572  1.00  0.00     0.308 C 
ENDROOT
BRANCH   5   7
HETATM    7  N2  UNL     1      -2.062   0.496  -0.460  1.00  0.00     0.098 N 
HETATM    8  C9  UNL     1      -2.767  -0.481  -1.217  1.00  0.00     0.300 C 
HETATM    9  C10 UNL     1      -4.262  -0.415  -0.900  1.00  0.00     0.262 C 
HETATM   10  N3  UNL     1      -4.726   0.887  -1.282  1.00  0.00    -0.072 N 
HETATM   11  C11 UNL     1      -4.043   1.930  -0.580  1.00  0.00     0.262 C 
ATOM     12  H32 UNL     1      -4.665   1.020  -2.291  1.00  0.00     0.277 HD
ATOM     13  H31 UNL     1      -5.737   0.967  -1.170  1.00  0.00     0.277 HD
HETATM   14  C12 UNL     1      -2.879   1.431   0.244  1.00  0.00     0.300 C 
ENDBRANCH   5   7
BRANCH   1  15
HETATM   15  C4  UNL     1       2.005   0.095   0.605  1.00  0.00     0.223 C 
HETATM   16  C3  UNL     1       2.136   1.194  -0.412  1.00  0.00     0.036 C 
HETATM   17  C2  UNL     1       3.049   0.838  -1.552  1.00  0.00     0.002 C 
HETATM   18  C1  UNL     1       4.443   0.712  -0.943  1.00  0.00     0.000 C 
HETATM   19  C15 UNL     1       4.396  -0.430   0.010  1.00  0.00     0.002 C 
HETATM   20  C14 UNL     1       3.361  -0.325   1.078  1.00  0.00     0.036 C 
ENDBRANCH   1  15
TORSDOF 2
