REMARK  6 active torsions:
REMARK  status: ('A' for Active; 'I' for Inactive)
REMARK    1  A    between atoms: C5_5  and  N1_6 
REMARK    2  A    between atoms: N1_6  and  C6_8 
REMARK    3  A    between atoms: C6_8  and  O1_10 
REMARK    4  A    between atoms: O1_10  and  C7_11 
REMARK    5  A    between atoms: C7_11  and  C13_20 
REMARK    6  A    between atoms: C9_16  and  C11_18 
ROOT
HETATM    1  O1  UNL     1      -0.844  -0.158   0.307  1.00  0.00    -0.314 OA
ENDROOT
BRANCH   1   2
HETATM    2  C6  UNL     1      -0.320   0.463   1.444  1.00  0.00     0.211 C 
HETATM    3  S1  UNL     1      -1.167   0.593   2.827  1.00  0.00    -0.033 SA
BRANCH   2   4
HETATM    4  N1  UNL     1       1.004   1.014   1.428  1.00  0.00    -0.357 N 
ATOM      5  H1  UNL     1       1.381   1.466   2.261  1.00  0.00     0.162 HD
BRANCH   4   6
HETATM    6  C5  UNL     1       1.807   0.926   0.219  1.00  0.00     0.084 C 
HETATM    7  C4  UNL     1       2.056  -0.485  -0.217  1.00  0.00     0.025 C 
HETATM    8  C3  UNL     1       3.490  -0.919   0.022  1.00  0.00     0.006 C 
HETATM    9  C2  UNL     1       4.464  -0.013  -0.665  1.00  0.00    -0.019 C 
HETATM   10  C1  UNL     1       5.810  -0.097   0.044  1.00  0.00     0.010 C 
HETATM   11  C16 UNL     1       4.016   1.421  -0.713  1.00  0.00     0.006 C 
HETATM   12  C15 UNL     1       3.082   1.690   0.456  1.00  0.00     0.025 C 
ENDBRANCH   4   6
ENDBRANCH   2   4
ENDBRANCH   1   2
BRANCH   1  13
HETATM   13  C7  UNL     1      -2.202  -0.251   0.086  1.00  0.00     0.099 C 
HETATM   14  C8  UNL     1      -2.779   1.173   0.032  1.00  0.00     0.271 C 
HETATM   15  N2  UNL     1      -3.981   1.055  -0.719  1.00  0.00    -0.068 N 
HETATM   16  C9  UNL     1      -4.020  -0.307  -1.281  1.00  0.00     0.193 C 
ATOM     17  H22 UNL     1      -4.813   1.285  -0.176  1.00  0.00     0.277 HD
ATOM     18  H21 UNL     1      -4.080   1.781  -1.429  1.00  0.00     0.277 HD
HETATM   19  C10 UNL     1      -2.532  -0.582  -1.384  1.00  0.00     0.074 C 
BRANCH  16  20
HETATM   20  C11 UNL     1      -4.660  -1.171  -0.207  1.00  0.00     0.017 C 
HETATM   21  C12 UNL     1      -3.729  -2.254   0.265  1.00  0.00     0.014 C 
HETATM   22  C13 UNL     1      -2.984  -1.134   0.987  1.00  0.00     0.023 C 
HETATM   23  C14 UNL     1      -4.399  -0.569   1.184  1.00  0.00     0.014 C 
ENDBRANCH  16  20
ENDBRANCH   1  13
TORSDOF 6
