REMARK  10 active torsions:
REMARK  status: ('A' for Active; 'I' for Inactive)
REMARK    1  A    between atoms: C2_2  and  C12_12 
REMARK    2  A    between atoms: C3_3  and  C4_4 
REMARK    3  A    between atoms: C4_4  and  C5_5 
REMARK    4  A    between atoms: C5_5  and  C6_6 
REMARK       I    between atoms: C12_12  and  N1_14 
REMARK    5  A    between atoms: N1_14  and  N2_16 
REMARK       I    between atoms: N2_16  and  C13_18 
REMARK    6  A    between atoms: C13_18  and  C14_20 
REMARK       I    between atoms: C14_20  and  N3_22 
REMARK    7  A    between atoms: N3_22  and  N4_24 
REMARK       I    between atoms: C15_26  and  N6_28 
REMARK       I    between atoms: C16_30  and  N7_31 
REMARK       I    between atoms: C16_30  and  N11_41 
REMARK    8  A    between atoms: N7_31  and  N8_33 
REMARK    9  A    between atoms: N8_33  and  C17_35 
REMARK   10  A    between atoms: C17_35  and  N9_37 
REMARK       I    between atoms: N11_41  and  C19_43 
ROOT
HETATM    1  N9  UNL     1       7.194  -2.540  -2.429  1.00  0.00    -0.269 N 
ATOM      2  H9  UNL     1       7.897  -2.249  -1.749  1.00  0.00     0.180 HD
HETATM    3  C18 UNL     1       7.551  -3.401  -3.495  1.00  0.00     0.184 C 
HETATM    4  N10 UNL     1       7.834  -4.107  -4.368  1.00  0.00    -0.172 NA
ENDROOT
BRANCH   1   5
HETATM    5  C17 UNL     1       5.870  -2.088  -2.310  1.00  0.00     0.200 C 
HETATM    6  S1  UNL     1       4.745  -2.548  -3.395  1.00  0.00    -0.038 SA
BRANCH   5   7
HETATM    7  N8  UNL     1       5.483  -1.229  -1.255  1.00  0.00    -0.261 N 
ATOM      8  H8  UNL     1       4.516  -0.911  -1.186  1.00  0.00     0.190 HD
BRANCH   7   9
HETATM    9  N7  UNL     1       6.415  -0.819  -0.314  1.00  0.00    -0.130 N 
HETATM   10  C16 UNL     1       6.144   0.299   0.509  1.00  0.00     0.703 C 
HETATM   11  N6  UNL     1       5.485   0.065   1.586  1.00  0.00    -0.161 N 
HETATM   12  N11 UNL     1       6.549   1.604   0.204  1.00  0.00    -0.142 N 
HETATM   13  C15 UNL     1       5.175   1.133   2.464  1.00  0.00     0.221 C 
ATOM     14  H6  UNL     1       5.186  -0.885   1.808  1.00  0.00     0.187 HD
HETATM   15  N4  UNL     1       4.039   1.714   2.373  1.00  0.00    -0.270 N 
HETATM   16  N5  UNL     1       6.143   1.546   3.444  1.00  0.00    -0.061 NA
ATOM     17  H4  UNL     1       3.815   2.483   3.005  1.00  0.00     0.189 HD
HETATM   18  C19 UNL     1       7.290   1.932  -0.980  1.00  0.00     0.347 C 
ATOM     19  H11 UNL     1       6.307   2.354   0.852  1.00  0.00     0.189 HD
HETATM   20  N12 UNL     1       7.677   3.270  -1.246  1.00  0.00    -0.039 NA
HETATM   21  O4  UNL     1       7.615   1.056  -1.807  1.00  0.00    -0.250 OA
ATOM     22  H7  UNL     1       7.296  -1.324  -0.215  1.00  0.00     0.205 HD
BRANCH  15  23
HETATM   23  N3  UNL     1       3.113   1.314   1.431  1.00  0.00    -0.259 N 
HETATM   24  C14 UNL     1       1.765   1.682   1.582  1.00  0.00     0.329 C 
HETATM   25  O3  UNL     1       1.425   2.370   2.577  1.00  0.00    -0.261 OA
ATOM     26  H3  UNL     1       3.405   0.754   0.630  1.00  0.00     0.190 HD
BRANCH  24  27
HETATM   27  C13 UNL     1       0.773   1.279   0.610  1.00  0.00     0.329 C 
HETATM   28  N2  UNL     1      -0.595   1.656   0.780  1.00  0.00    -0.259 N 
ATOM     29  H2  UNL     1      -0.829   2.207   1.605  1.00  0.00     0.190 HD
HETATM   30  O2  UNL     1       1.043   0.599  -0.405  1.00  0.00    -0.261 OA
BRANCH  28  31
HETATM   31  N1  UNL     1      -1.618   1.338  -0.074  1.00  0.00    -0.263 N 
HETATM   32  C12 UNL     1      -2.636   0.397   0.306  1.00  0.00     0.265 C 
HETATM   33  O1  UNL     1      -2.505  -0.098   1.451  1.00  0.00    -0.266 OA
ATOM     34  H1  UNL     1      -1.658   1.776  -0.994  1.00  0.00     0.190 HD
BRANCH  32  35
HETATM   35  C2  UNL     1      -3.721   0.071  -0.593  1.00  0.00     0.004 C 
HETATM   36  C1  UNL     1      -3.749   0.787  -1.934  1.00  0.00     0.054 C 
HETATM   37  C3  UNL     1      -4.667  -0.761  -0.328  1.00  0.00    -0.014 C 
BRANCH  37  38
HETATM   38  C4  UNL     1      -4.933  -1.596   0.837  1.00  0.00     0.032 C 
BRANCH  38  39
HETATM   39  C5  UNL     1      -6.216  -1.144   1.506  1.00  0.00     0.042 C 
BRANCH  39  40
HETATM   40  C6  UNL     1      -7.403  -1.211   0.649  1.00  0.00    -0.058 A 
HETATM   41  C7  UNL     1      -8.211  -2.320   0.551  1.00  0.00     0.007 A 
HETATM   42  C8  UNL     1      -9.333  -2.333  -0.269  1.00  0.00     0.001 A 
HETATM   43  C9  UNL     1      -9.663  -1.215  -1.014  1.00  0.00     0.000 A 
HETATM   44  C10 UNL     1      -8.863  -0.105  -0.923  1.00  0.00     0.001 A 
HETATM   45  C11 UNL     1      -7.744  -0.106  -0.099  1.00  0.00     0.007 A 
ENDBRANCH  39  40
ENDBRANCH  38  39
ENDBRANCH  37  38
ENDBRANCH  32  35
ENDBRANCH  28  31
ENDBRANCH  24  27
ENDBRANCH  15  23
ENDBRANCH   7   9
ENDBRANCH   5   7
ENDBRANCH   1   5
TORSDOF 10
