REMARK  6 active torsions:
REMARK  status: ('A' for Active; 'I' for Inactive)
REMARK    1  A    between atoms: N1_1  and  C1_5 
REMARK    2  A    between atoms: C1_5  and  C2_6 
REMARK    3  A    between atoms: C8_14  and  C9_15 
REMARK    4  A    between atoms: C9_15  and  C10_16 
REMARK    5  A    between atoms: C10_16  and  C11_17 
REMARK    6  A    between atoms: C11_17  and  N3_18 
ROOT
HETATM    1  C2  UNL     1      -3.008  -2.356  -1.385  1.00  0.00     0.156 C 
HETATM    2  C3  UNL     1      -3.021  -3.445  -0.353  1.00  0.00     0.034 C 
HETATM    3  C4  UNL     1      -1.651  -4.063  -0.281  1.00  0.00     0.004 C 
HETATM    4  C5  UNL     1      -1.027  -3.925   1.081  1.00  0.00     0.020 C 
HETATM    5  C6  UNL     1      -1.268  -2.585   1.704  1.00  0.00     0.134 C 
HETATM    6  N2  UNL     1      -0.954  -1.475   0.794  1.00  0.00    -0.292 N 
HETATM    7  C7  UNL     1       0.403  -1.252   1.060  1.00  0.00     0.248 C 
HETATM    8  O1  UNL     1       1.060  -2.137   1.719  1.00  0.00    -0.271 OA
HETATM    9  C8  UNL     1       1.233  -0.087   0.674  1.00  0.00     0.179 C 
HETATM   10  N6  UNL     1       1.831   0.544   1.848  1.00  0.00    -0.330 N 
ATOM     11  H6  UNL     1       2.737   0.193   2.159  1.00  0.00     0.165 HD
HETATM   12  C13 UNL     1       1.257   1.598   2.585  1.00  0.00     0.316 C 
HETATM   13  O2  UNL     1       1.263   1.465   3.865  1.00  0.00    -0.247 OA
HETATM   14  N7  UNL     1       0.677   2.781   2.081  1.00  0.00    -0.342 N 
ATOM     15  H7  UNL     1      -0.232   3.044   2.461  1.00  0.00     0.164 HD
HETATM   16  C14 UNL     1       1.242   3.658   1.079  1.00  0.00     0.144 C 
HETATM   17  C15 UNL     1       0.315   3.881  -0.088  1.00  0.00     0.142 C 
HETATM   18  N8  UNL     1      -0.420   5.128   0.020  1.00  0.00    -0.359 N 
ATOM     19  H8  UNL     1       0.067   5.980  -0.258  1.00  0.00     0.162 HD
HETATM   20  C16 UNL     1      -1.736   5.266   0.471  1.00  0.00     0.227 C 
HETATM   21  O3  UNL     1      -1.982   6.298   1.194  1.00  0.00    -0.273 OA
HETATM   22  C17 UNL     1      -2.855   4.364   0.206  1.00  0.00     0.182 C 
HETATM   23  S1  UNL     1      -2.787   3.498  -1.355  1.00  0.00    -0.115 SA
HETATM   24  C18 UNL     1      -3.071   1.744  -1.263  1.00  0.00     0.137 C 
HETATM   25  N9  UNL     1      -3.403   1.246   0.030  1.00  0.00    -0.324 N 
ATOM     26  H9  UNL     1      -4.036   1.774   0.630  1.00  0.00     0.169 HD
HETATM   27  C19 UNL     1      -2.857   0.019   0.487  1.00  0.00     0.297 C 
HETATM   28  O4  UNL     1      -3.355  -0.440   1.543  1.00  0.00    -0.263 OA
HETATM   29  C20 UNL     1      -1.776  -0.743  -0.167  1.00  0.00     0.217 C 
HETATM   30  O5  UNL     1      -2.090  -1.400  -1.292  1.00  0.00    -0.324 OA
ENDROOT
BRANCH   9  31
HETATM   31  C9  UNL     1       2.401  -0.602  -0.171  1.00  0.00     0.037 C 
BRANCH  31  32
HETATM   32  C10 UNL     1       3.291   0.544  -0.600  1.00  0.00     0.022 C 
BRANCH  32  33
HETATM   33  C11 UNL     1       4.448   0.036  -1.436  1.00  0.00     0.122 C 
BRANCH  33  34
HETATM   34  N3  UNL     1       5.191  -0.890  -0.612  1.00  0.00    -0.367 N 
HETATM   35  C12 UNL     1       6.447  -1.011  -0.785  1.00  0.00     0.196 C 
HETATM   36  N4  UNL     1       7.126  -1.948   0.065  1.00  0.00    -0.067 NA
HETATM   37  N5  UNL     1       7.133  -0.264  -1.761  1.00  0.00    -0.067 NA
ATOM     38  H3  UNL     1       4.714  -1.441   0.101  1.00  0.00     0.161 HD
ENDBRANCH  33  34
ENDBRANCH  32  33
ENDBRANCH  31  32
ENDBRANCH   9  31
BRANCH   1  39
HETATM   39  C1  UNL     1      -4.451  -1.884  -1.619  1.00  0.00     0.262 C 
BRANCH  39  40
HETATM   40  N1  UNL     1      -5.324  -3.068  -1.698  1.00  0.00    -0.077 N 
ATOM     41  H13 UNL     1      -5.012  -3.738  -2.402  1.00  0.00     0.274 HD
ATOM     42  H12 UNL     1      -5.238  -3.673  -0.881  1.00  0.00     0.274 HD
ATOM     43  H11 UNL     1      -6.282  -2.755  -1.853  1.00  0.00     0.274 HD
ENDBRANCH  39  40
ENDBRANCH   1  39
TORSDOF 6
