REMARK  5 active torsions:
REMARK  status: ('A' for Active; 'I' for Inactive)
REMARK    1  A    between atoms: S1_2  and  C2_4 
REMARK    2  A    between atoms: C2_4  and  C3_5 
REMARK    3  A    between atoms: C4_7  and  O3_8 
REMARK    4  A    between atoms: C5_10  and  O4_11 
REMARK    5  A    between atoms: C6_13  and  O5_14 
ROOT
HETATM    1  C3  UNL     1      -0.051   0.318  -0.288  1.00  0.00     0.167 C 
HETATM    2  O2  UNL     1      -0.297   0.735   0.997  1.00  0.00    -0.350 OA
HETATM    3  C4  UNL     1      -1.701   0.821   1.129  1.00  0.00     0.288 C 
HETATM    4  C5  UNL     1      -2.074  -0.521   0.475  1.00  0.00     0.204 C 
HETATM    5  C6  UNL     1      -1.311  -0.321  -0.820  1.00  0.00     0.181 C 
ENDROOT
BRANCH   1   6
HETATM    6  C2  UNL     1       1.052  -0.704  -0.388  1.00  0.00     0.143 C 
BRANCH   6   7
HETATM    7  S1  UNL     1       2.597  -0.135   0.207  1.00  0.00     0.013 S 
HETATM    8  C1  UNL     1       3.216   1.269  -0.638  1.00  0.00     0.127 C 
HETATM    9  O1  UNL     1       3.678  -1.422   0.186  1.00  0.00    -0.258 OA
ENDBRANCH   6   7
ENDBRANCH   1   6
BRANCH   5  10
HETATM   10  O5  UNL     1      -1.068  -1.524  -1.471  1.00  0.00    -0.390 OA
ATOM     11  H5  UNL     1      -1.861  -1.926  -1.806  1.00  0.00     0.210 HD
ENDBRANCH   5  10
BRANCH   3  12
HETATM   12  O3  UNL     1      -2.107   0.904   2.425  1.00  0.00    -0.369 OA
ATOM     13  H3  UNL     1      -3.051   0.962   2.514  1.00  0.00     0.212 HD
ENDBRANCH   3  12
BRANCH   4  14
HETATM   14  O4  UNL     1      -1.499  -1.502   1.257  1.00  0.00    -0.388 OA
ATOM     15  H4  UNL     1      -1.729  -2.331   0.853  1.00  0.00     0.210 HD
ENDBRANCH   4  14
TORSDOF 5
