REMARK  18 active torsions:
REMARK  status: ('A' for Active; 'I' for Inactive)
REMARK    1  A    between atoms: O1_2  and  C2_3 
REMARK    2  A    between atoms: C2_3  and  C3_4 
REMARK    3  A    between atoms: C3_4  and  O2_5 
REMARK    4  A    between atoms: O2_5  and  C4_6 
REMARK    5  A    between atoms: C4_6  and  C5_7 
REMARK    6  A    between atoms: C5_7  and  O3_8 
REMARK    7  A    between atoms: O3_8  and  C6_9 
REMARK    8  A    between atoms: C6_9  and  C7_10 
REMARK    9  A    between atoms: C7_10  and  O4_11 
REMARK   10  A    between atoms: O4_11  and  C8_12 
REMARK   11  A    between atoms: C8_12  and  C9_13 
REMARK   12  A    between atoms: C9_13  and  O5_14 
REMARK   13  A    between atoms: O5_14  and  C10_15 
REMARK   14  A    between atoms: C10_15  and  C11_16 
REMARK   15  A    between atoms: C11_16  and  O6_17 
REMARK   16  A    between atoms: O6_17  and  C12_18 
REMARK   17  A    between atoms: C12_18  and  C13_19 
REMARK   18  A    between atoms: N1_24  and  C18_25 
ROOT
HETATM    1  C11 UNL     1      -0.467   0.476  -1.922  1.00  0.00     0.193 C 
ENDROOT
BRANCH   1   2
HETATM    2  C10 UNL     1       0.612   0.083  -0.988  1.00  0.00     0.193 C 
BRANCH   2   3
HETATM    3  O5  UNL     1       1.373   1.096  -0.491  1.00  0.00    -0.387 OA
BRANCH   3   4
HETATM    4  C9  UNL     1       2.049   1.848  -1.410  1.00  0.00     0.193 C 
BRANCH   4   5
HETATM    5  C8  UNL     1       3.023   1.053  -2.251  1.00  0.00     0.193 C 
BRANCH   5   6
HETATM    6  O4  UNL     1       3.653   1.911  -3.149  1.00  0.00    -0.387 OA
BRANCH   6   7
HETATM    7  C7  UNL     1       4.365   2.929  -2.569  1.00  0.00     0.193 C 
BRANCH   7   8
HETATM    8  C6  UNL     1       5.488   2.397  -1.654  1.00  0.00     0.193 C 
BRANCH   8   9
HETATM    9  O3  UNL     1       6.310   1.649  -2.451  1.00  0.00    -0.387 OA
BRANCH   9  10
HETATM   10  C5  UNL     1       7.403   1.093  -1.822  1.00  0.00     0.193 C 
BRANCH  10  11
HETATM   11  C4  UNL     1       6.992   0.157  -0.715  1.00  0.00     0.193 C 
BRANCH  11  12
HETATM   12  O2  UNL     1       8.133  -0.395  -0.103  1.00  0.00    -0.387 OA
BRANCH  12  13
HETATM   13  C3  UNL     1       7.761  -1.263   0.924  1.00  0.00     0.193 C 
BRANCH  13  14
HETATM   14  C2  UNL     1       8.985  -1.842   1.562  1.00  0.00     0.193 C 
BRANCH  14  15
HETATM   15  O1  UNL     1       9.821  -0.898   2.110  1.00  0.00    -0.394 OA
HETATM   16  C1  UNL     1       9.211  -0.140   3.105  1.00  0.00     0.201 C 
ENDBRANCH  14  15
ENDBRANCH  13  14
ENDBRANCH  12  13
ENDBRANCH  11  12
ENDBRANCH  10  11
ENDBRANCH   9  10
ENDBRANCH   8   9
ENDBRANCH   7   8
ENDBRANCH   6   7
ENDBRANCH   5   6
ENDBRANCH   4   5
ENDBRANCH   3   4
ENDBRANCH   2   3
ENDBRANCH   1   2
BRANCH   1  17
HETATM   17  O6  UNL     1      -1.417   1.320  -1.447  1.00  0.00    -0.388 OA
BRANCH  17  18
HETATM   18  C12 UNL     1      -2.149   0.903  -0.379  1.00  0.00     0.177 C 
BRANCH  18  19
HETATM   19  C13 UNL     1      -2.935  -0.367  -0.613  1.00  0.00     0.048 C 
HETATM   20  C14 UNL     1      -3.919  -0.245  -1.730  1.00  0.00     0.012 C 
HETATM   21  C15 UNL     1      -4.101  -1.622  -2.334  1.00  0.00     0.006 C 
HETATM   22  C16 UNL     1      -5.215  -2.387  -1.657  1.00  0.00     0.044 C 
HETATM   23  C17 UNL     1      -5.015  -2.502  -0.173  1.00  0.00     0.063 C 
HETATM   24  N1  UNL     1      -4.923  -1.220   0.404  1.00  0.00    -0.369 N 
HETATM   25  C24 UNL     1      -3.646  -0.703   0.692  1.00  0.00     0.070 C 
BRANCH  24  26
HETATM   26  C18 UNL     1      -6.048  -0.717   1.078  1.00  0.00     0.088 C 
HETATM   27  C19 UNL     1      -6.485  -1.513   2.287  1.00  0.00     0.026 C 
HETATM   28  C20 UNL     1      -7.769  -0.902   2.784  1.00  0.00     0.002 C 
HETATM   29  C21 UNL     1      -8.214   0.296   1.976  1.00  0.00     0.000 C 
HETATM   30  C22 UNL     1      -7.159   1.339   1.807  1.00  0.00     0.002 C 
HETATM   31  C23 UNL     1      -5.821   0.710   1.520  1.00  0.00     0.026 C 
ENDBRANCH  24  26
ENDBRANCH  18  19
ENDBRANCH  17  18
ENDBRANCH   1  17
TORSDOF 18
