REMARK  16 active torsions:
REMARK  status: ('A' for Active; 'I' for Inactive)
REMARK    1  A    between atoms: N1_1  and  N2_4 
REMARK    2  A    between atoms: N2_4  and  C1_6 
REMARK    3  A    between atoms: C1_6  and  O1_7 
REMARK    4  A    between atoms: C1_6  and  C2_9 
REMARK    5  A    between atoms: C3_10  and  N3_11 
REMARK    6  A    between atoms: N3_11  and  C4_13 
REMARK    7  A    between atoms: C5_15  and  C6_16 
REMARK    8  A    between atoms: C6_16  and  O3_17 
REMARK    9  A    between atoms: C6_16  and  N4_19 
REMARK   10  A    between atoms: C10_24  and  O4_25 
REMARK   11  A    between atoms: C11_28  and  O5_29 
REMARK   12  A    between atoms: N6_32  and  C13_33 
REMARK   13  A    between atoms: C13_33  and  C14_34 
REMARK   14  A    between atoms: C14_34  and  O6_35 
REMARK   15  A    between atoms: O6_35  and  N7_36 
REMARK       I    between atoms: N7_36  and  C15_38 
REMARK   16  A    between atoms: C15_38  and  C16_40 
ROOT
HETATM    1  C2  UNL     1      -0.607  -2.384  -0.531  1.00  0.00     0.115 A 
HETATM    2  C3  UNL     1       0.675  -2.155  -1.049  1.00  0.00     0.082 A 
HETATM    3  C5  UNL     1       1.155  -0.990  -0.403  1.00  0.00     0.061 A 
HETATM    4  C12 UNL     1       0.159  -0.612   0.434  1.00  0.00     0.109 A 
HETATM    5  N6  UNL     1      -0.922  -1.474   0.352  1.00  0.00    -0.348 N 
ENDROOT
BRANCH   3   6
HETATM    6  C6  UNL     1       2.431  -0.431  -0.687  1.00  0.00     0.170 C 
BRANCH   6   7
HETATM    7  O3  UNL     1       3.111  -1.093  -1.636  1.00  0.00    -0.345 OA
ATOM      8  H3  UNL     1       3.964  -0.719  -1.826  1.00  0.00     0.219 HD
ENDBRANCH   6   7
BRANCH   6   9
HETATM    9  N4  UNL     1       3.177   0.667  -0.212  1.00  0.00    -0.222 N 
HETATM   10  S1  UNL     1       4.766   1.052  -0.847  1.00  0.00     0.017 SA
HETATM   11  C7  UNL     1       5.102   2.413   0.106  1.00  0.00     0.103 A 
HETATM   12  C8  UNL     1       6.043   3.422   0.394  1.00  0.00     0.043 A 
HETATM   13  N5  UNL     1       4.020   2.517   0.850  1.00  0.00    -0.249 N 
HETATM   14  C9  UNL     1       5.464   4.171   1.381  1.00  0.00     0.059 A 
HETATM   15  C10 UNL     1       4.234   3.614   1.653  1.00  0.00     0.150 A 
HETATM   16  C11 UNL     1       3.050   1.625   0.680  1.00  0.00     0.246 A 
BRANCH  15  17
HETATM   17  O4  UNL     1       3.394   4.163   2.629  1.00  0.00    -0.346 OA
ATOM     18  H4  UNL     1       2.546   3.779   2.817  1.00  0.00     0.219 HD
ENDBRANCH  15  17
BRANCH  16  19
HETATM   19  O5  UNL     1       1.957   1.678   1.389  1.00  0.00    -0.331 OA
ATOM     20  H5  UNL     1       1.865   2.370   2.033  1.00  0.00     0.221 HD
ENDBRANCH  16  19
ENDBRANCH   6   9
ENDBRANCH   3   6
BRANCH   2  21
HETATM   21  N3  UNL     1       1.355  -2.938  -2.016  1.00  0.00    -0.332 N 
ATOM     22  H3  UNL     1       1.249  -2.739  -3.011  1.00  0.00     0.168 HD
BRANCH  21  23
HETATM   23  C4  UNL     1       2.184  -4.002  -1.579  1.00  0.00     0.353 C 
HETATM   24  O2  UNL     1       2.323  -4.259  -0.362  1.00  0.00    -0.283 OA
ENDBRANCH  21  23
ENDBRANCH   2  21
BRANCH   1  25
HETATM   25  C1  UNL     1      -1.388  -3.526  -1.017  1.00  0.00     0.184 C 
BRANCH  25  26
HETATM   26  N2  UNL     1      -2.670  -3.891  -0.640  1.00  0.00    -0.285 N 
ATOM     27  H2  UNL     1      -3.206  -3.361   0.047  1.00  0.00     0.188 HD
BRANCH  26  28
HETATM   28  N1  UNL     1      -3.197  -5.070  -1.282  1.00  0.00    -0.343 N 
ATOM     29  H12 UNL     1      -2.649  -5.590  -1.967  1.00  0.00     0.176 HD
ATOM     30  H11 UNL     1      -4.141  -5.339  -1.004  1.00  0.00     0.176 HD
ENDBRANCH  26  28
ENDBRANCH  25  26
BRANCH  25  31
HETATM   31  O1  UNL     1      -0.833  -4.297  -1.906  1.00  0.00    -0.343 OA
ATOM     32  H1  UNL     1       0.046  -4.047  -2.165  1.00  0.00     0.219 HD
ENDBRANCH  25  31
ENDBRANCH   1  25
BRANCH   5  33
HETATM   33  C13 UNL     1      -2.121  -1.311   1.156  1.00  0.00     0.157 C 
BRANCH  33  34
HETATM   34  C14 UNL     1      -3.182  -0.487   0.489  1.00  0.00     0.221 C 
BRANCH  34  35
HETATM   35  O6  UNL     1      -2.602   0.770   0.257  1.00  0.00    -0.276 OA
BRANCH  35  36
HETATM   36  N7  UNL     1      -3.537   1.530  -0.347  1.00  0.00    -0.226 N 
HETATM   37  C15 UNL     1      -3.861   2.785   0.207  1.00  0.00     0.341 C 
HETATM   38  O7  UNL     1      -3.272   3.177   1.260  1.00  0.00    -0.259 OA
ATOM     39  H7  UNL     1      -4.003   1.202  -1.193  1.00  0.00     0.198 HD
BRANCH  37  40
HETATM   40  C16 UNL     1      -4.855   3.623  -0.416  1.00  0.00     0.272 C 
HETATM   41  O8  UNL     1      -5.433   3.225  -1.464  1.00  0.00    -0.640 OA
HETATM   42  O9  UNL     1      -5.157   4.852   0.152  1.00  0.00    -0.640 OA
ENDBRANCH  37  40
ENDBRANCH  35  36
ENDBRANCH  34  35
ENDBRANCH  33  34
ENDBRANCH   5  33
TORSDOF 16
