REMARK  14 active torsions:
REMARK  status: ('A' for Active; 'I' for Inactive)
REMARK    1  A    between atoms: C3_3  and  O1_4 
REMARK    2  A    between atoms: C4_6  and  O2_7 
REMARK    3  A    between atoms: C7_11  and  O3_12 
REMARK    4  A    between atoms: C12_23  and  O7_24 
REMARK    5  A    between atoms: O7_24  and  C13_25 
REMARK    6  A    between atoms: C13_25  and  C14_26 
REMARK    7  A    between atoms: C14_26  and  O8_27 
REMARK    8  A    between atoms: C14_26  and  C15_29 
REMARK    9  A    between atoms: C15_29  and  N2_30 
REMARK   10  A    between atoms: N2_30  and  C17_32 
REMARK   11  A    between atoms: C17_32  and  C18_33 
REMARK   12  A    between atoms: C18_33  and  C19_35 
REMARK   13  A    between atoms: C19_35  and  O10_36 
REMARK   14  A    between atoms: C19_35  and  C20_38 
ROOT
HETATM    1  C1  UNL     1      -5.766  -3.067  -0.677  1.00  0.00     0.054 C 
HETATM    2  C2  UNL     1      -4.703  -2.044  -0.454  1.00  0.00     0.008 A 
HETATM    3  C3  UNL     1      -3.409  -2.381  -0.216  1.00  0.00     0.108 A 
HETATM    4  C4  UNL     1      -2.399  -1.460  -0.012  1.00  0.00     0.115 A 
HETATM    5  C5  UNL     1      -2.692  -0.097  -0.047  1.00  0.00     0.064 A 
HETATM    6  C6  UNL     1      -4.028   0.264  -0.288  1.00  0.00     0.016 A 
HETATM    7  C7  UNL     1      -5.027  -0.681  -0.492  1.00  0.00     0.085 A 
HETATM    8  C8  UNL     1      -4.369   1.539  -0.251  1.00  0.00     0.051 C 
HETATM    9  C9  UNL     1      -3.429   2.663   0.039  1.00  0.00     0.189 C 
HETATM   10  C10 UNL     1      -3.762   3.292   1.387  1.00  0.00     0.247 C 
HETATM   11  O4  UNL     1      -3.553   4.669   1.179  1.00  0.00    -0.293 OA
HETATM   12  C11 UNL     1      -3.541   4.926  -0.182  1.00  0.00     0.409 C 
HETATM   13  O5  UNL     1      -3.441   6.026  -0.779  1.00  0.00    -0.229 OA
HETATM   14  O6  UNL     1      -3.664   3.711  -0.882  1.00  0.00    -0.260 OA
HETATM   15  N1  UNL     1      -2.071   2.223   0.030  1.00  0.00    -0.333 N 
ATOM     16  H1  UNL     1      -1.316   2.908  -0.003  1.00  0.00     0.165 HD
HETATM   17  C12 UNL     1      -1.757   0.804   0.067  1.00  0.00     0.155 C 
ENDROOT
BRANCH  17  18
HETATM   18  O7  UNL     1      -0.399   0.470   0.229  1.00  0.00    -0.333 OA
BRANCH  18  19
HETATM   19  C13 UNL     1       0.351   0.523  -0.972  1.00  0.00     0.210 C 
BRANCH  19  20
HETATM   20  C14 UNL     1       1.827   0.290  -0.803  1.00  0.00     0.170 C 
BRANCH  20  21
HETATM   21  O8  UNL     1       2.443   0.264  -2.034  1.00  0.00    -0.392 OA
ATOM     22  H8  UNL     1       3.375   0.117  -1.927  1.00  0.00     0.210 HD
ENDBRANCH  20  21
BRANCH  20  23
HETATM   23  C15 UNL     1       2.233  -0.814   0.082  1.00  0.00     0.306 C 
BRANCH  23  24
HETATM   24  N2  UNL     1       3.667  -0.774   0.367  1.00  0.00     0.093 N 
HETATM   25  C16 UNL     1       3.851  -1.622   1.609  1.00  0.00     0.310 C 
BRANCH  24  26
HETATM   26  C17 UNL     1       4.436  -1.494  -0.659  1.00  0.00     0.353 C 
BRANCH  26  27
HETATM   27  C18 UNL     1       5.874  -1.294  -0.404  1.00  0.00     0.194 C 
HETATM   28  O9  UNL     1       6.672  -2.095  -0.899  1.00  0.00    -0.293 OA
BRANCH  27  29
HETATM   29  C19 UNL     1       6.382  -0.182   0.409  1.00  0.00     0.290 C 
BRANCH  29  30
HETATM   30  O10 UNL     1       7.768  -0.444   0.591  1.00  0.00    -0.378 OA
ATOM     31  H10 UNL     1       8.097   0.276   1.117  1.00  0.00     0.211 HD
ENDBRANCH  29  30
BRANCH  29  32
HETATM   32  C20 UNL     1       6.276   1.126  -0.294  1.00  0.00     0.210 C 
HETATM   33  O11 UNL     1       7.338   1.686  -0.674  1.00  0.00    -0.646 OA
HETATM   34  O12 UNL     1       5.089   1.738  -0.540  1.00  0.00    -0.646 OA
ENDBRANCH  29  32
ENDBRANCH  27  29
ENDBRANCH  26  27
ENDBRANCH  24  26
ENDBRANCH  23  24
ENDBRANCH  20  23
ENDBRANCH  19  20
ENDBRANCH  18  19
ENDBRANCH  17  18
BRANCH   4  35
HETATM   35  O2  UNL     1      -1.108  -1.839   0.230  1.00  0.00    -0.357 OA
ATOM     36  H2  UNL     1      -0.414  -1.206   0.370  1.00  0.00     0.217 HD
ENDBRANCH   4  35
BRANCH   3  37
HETATM   37  O1  UNL     1      -3.071  -3.732  -0.175  1.00  0.00    -0.357 OA
ATOM     38  H1  UNL     1      -2.166  -3.968  -0.009  1.00  0.00     0.217 HD
ENDBRANCH   3  37
BRANCH   7  39
HETATM   39  O3  UNL     1      -6.339  -0.379  -0.734  1.00  0.00    -0.359 OA
ATOM     40  H3  UNL     1      -6.559   0.545  -0.760  1.00  0.00     0.217 HD
ENDBRANCH   7  39
TORSDOF 14
