REMARK  1 active torsions:
REMARK  status: ('A' for Active; 'I' for Inactive)
REMARK    1  A    between atoms: N1_1  and  N2_4 
REMARK       I    between atoms: N2_4  and  C1_6 
REMARK       I    between atoms: C1_6  and  N3_7 
REMARK       I    between atoms: C1_6  and  N4_11 
ROOT
HETATM    1  N2  UNL     1      -2.098   0.427   0.008  1.00  0.00    -0.296 N 
ATOM      2  H2  UNL     1      -2.748   0.530  -0.772  1.00  0.00     0.183 HD
HETATM    3  C1  UNL     1      -1.161  -0.631   0.036  1.00  0.00     0.412 C 
HETATM    4  N3  UNL     1      -1.407  -1.440   1.220  1.00  0.00    -0.039 N 
ATOM      5  H31 UNL     1      -0.731  -2.203   1.240  1.00  0.00     0.279 HD
ATOM      6  H32 UNL     1      -2.371  -1.770   1.274  1.00  0.00     0.279 HD
ATOM      7  H33 UNL     1      -1.399  -0.889   2.078  1.00  0.00     0.279 HD
HETATM    8  N4  UNL     1       0.226  -0.205   0.037  1.00  0.00    -0.240 N 
HETATM    9  C2  UNL     1       0.874  -0.094  -1.137  1.00  0.00     0.131 A 
HETATM   10  N5  UNL     1       0.228  -0.385  -2.386  1.00  0.00    -0.082 NA
HETATM   11  C3  UNL     1       2.188   0.310  -1.134  1.00  0.00     0.120 A 
HETATM   12  C4  UNL     1       2.837   0.597   0.042  1.00  0.00     0.252 A 
HETATM   13  O1  UNL     1       4.023   0.961   0.042  1.00  0.00    -0.268 OA
HETATM   14  N6  UNL     1       2.149   0.473   1.215  1.00  0.00    -0.275 N 
ATOM     15  H6  UNL     1       2.605   0.680   2.104  1.00  0.00     0.173 HD
HETATM   16  C5  UNL     1       0.864   0.076   1.188  1.00  0.00     0.333 A 
HETATM   17  O2  UNL     1       0.288  -0.017   2.314  1.00  0.00    -0.246 OA
ENDROOT
BRANCH   1  18
HETATM   18  N1  UNL     1      -2.111   1.298   1.040  1.00  0.00    -0.346 N 
ATOM     19  H12 UNL     1      -1.455   1.181   1.812  1.00  0.00     0.176 HD
ATOM     20  H11 UNL     1      -2.787   2.061   1.020  1.00  0.00     0.176 HD
ENDBRANCH   1  18
TORSDOF 1
