REMARK  5 active torsions:
REMARK  status: ('A' for Active; 'I' for Inactive)
REMARK    1  A    between atoms: C2_2  and  C3_3 
REMARK    2  A    between atoms: C3_3  and  N1_4 
REMARK       I    between atoms: N1_4  and  C4_6 
REMARK    3  A    between atoms: C4_6  and  C5_8 
REMARK    4  A    between atoms: C11_14  and  C12_15 
REMARK    5  A    between atoms: C14_18  and  C15_19 
ROOT
HETATM    1  C5  UNL     1       2.563  -0.116   0.424  1.00  0.00     0.100 C 
HETATM    2  C6  UNL     1       1.806  -0.183  -0.844  1.00  0.00     0.040 C 
HETATM    3  C7  UNL     1       0.501  -0.958  -0.703  1.00  0.00     0.081 C 
HETATM    4  C8  UNL     1       0.845  -2.415  -0.640  1.00  0.00     0.025 C 
HETATM    5  C9  UNL     1      -0.310  -3.250  -0.249  1.00  0.00     0.004 C 
HETATM    6  C10 UNL     1      -1.165  -2.707   0.829  1.00  0.00     0.031 C 
HETATM    7  C11 UNL     1      -1.418  -1.224   0.748  1.00  0.00     0.131 C 
HETATM    8  N3  UNL     1      -0.306  -0.450   0.337  1.00  0.00    -0.397 N 
HETATM    9  C19 UNL     1       0.274   0.298   1.387  1.00  0.00     0.139 C 
HETATM   10  C20 UNL     1       1.729   0.191   1.633  1.00  0.00     0.113 C 
HETATM   11 CL1  UNL     1       2.104  -0.921   2.993  1.00  0.00    -0.122 Cl
ENDROOT
BRANCH   7  12
HETATM   12  C12 UNL     1      -2.705  -0.886   0.082  1.00  0.00     0.056 A 
HETATM   13  C13 UNL     1      -3.290  -1.466  -1.035  1.00  0.00     0.171 A 
HETATM   14  O2  UNL     1      -4.439  -0.873  -1.258  1.00  0.00    -0.307 OA
HETATM   15  C14 UNL     1      -4.670   0.059  -0.375  1.00  0.00     0.131 A 
HETATM   16  N2  UNL     1      -3.612   0.060   0.450  1.00  0.00    -0.340 N 
ATOM     17  H2  UNL     1      -3.502   0.687   1.247  1.00  0.00     0.167 HD
BRANCH  15  18
HETATM   18  C15 UNL     1      -5.869   0.936  -0.303  1.00  0.00     0.014 C 
HETATM   19  C16 UNL     1      -7.004   0.300  -1.056  1.00  0.00     0.023 C 
HETATM   20  C17 UNL     1      -5.521   2.231  -0.982  1.00  0.00     0.023 C 
HETATM   21  C18 UNL     1      -6.335   1.181   1.109  1.00  0.00     0.023 C 
ENDBRANCH  15  18
ENDBRANCH   7  12
BRANCH   1  22
HETATM   22  C4  UNL     1       3.704   0.802   0.285  1.00  0.00     0.223 C 
HETATM   23  N1  UNL     1       4.956   0.509  -0.300  1.00  0.00    -0.361 N 
ATOM     24  H1  UNL     1       5.146  -0.421  -0.673  1.00  0.00     0.162 HD
HETATM   25  O1  UNL     1       3.530   1.980   0.743  1.00  0.00    -0.273 OA
BRANCH  23  26
HETATM   26  C3  UNL     1       5.976   1.552  -0.365  1.00  0.00     0.122 C 
BRANCH  26  27
HETATM   27  C2  UNL     1       7.262   1.048  -0.989  1.00  0.00     0.015 C 
HETATM   28  C1  UNL     1       8.299   2.161  -1.037  1.00  0.00     0.006 C 
ENDBRANCH  26  27
ENDBRANCH  23  26
ENDBRANCH   1  22
TORSDOF 5
