REMARK  7 active torsions:
REMARK  status: ('A' for Active; 'I' for Inactive)
REMARK    1  A    between atoms: O1_2  and  C2_3 
REMARK    2  A    between atoms: C2_3  and  C3_5 
REMARK    3  A    between atoms: C3_5  and  C4_6 
REMARK    4  A    between atoms: C14_16  and  O3_17 
REMARK    5  A    between atoms: C14_16  and  C15_19 
REMARK    6  A    between atoms: C15_19  and  C16_20 
REMARK    7  A    between atoms: C16_20  and  C18_22 
ROOT
HETATM    1  C4  UNL     1       3.068  -0.260   0.554  1.00  0.00     0.004 C 
HETATM    2  C5  UNL     1       2.833   0.007  -0.902  1.00  0.00     0.012 C 
HETATM    3  C6  UNL     1       1.792  -1.095  -0.879  1.00  0.00     0.003 C 
HETATM    4  C7  UNL     1       0.419  -0.641  -0.432  1.00  0.00     0.020 C 
HETATM    5  C8  UNL     1      -0.375   0.067  -1.478  1.00  0.00     0.022 C 
HETATM    6  C9  UNL     1      -1.706  -0.592  -1.437  1.00  0.00    -0.005 C 
HETATM    7  C10 UNL     1      -2.249  -0.590  -2.849  1.00  0.00     0.019 C 
HETATM    8  C11 UNL     1      -1.490  -1.991  -0.920  1.00  0.00     0.026 C 
HETATM    9  C12 UNL     1      -2.687  -2.301  -0.049  1.00  0.00     0.013 C 
HETATM   10  C13 UNL     1      -2.901  -0.975   0.643  1.00  0.00     0.039 C 
HETATM   11  C14 UNL     1      -2.720  -0.006  -0.496  1.00  0.00     0.066 C 
HETATM   12  C19 UNL     1      -0.305  -1.888  -0.057  1.00  0.00    -0.074 C 
HETATM   13  C20 UNL     1       0.272  -2.582   0.921  1.00  0.00    -0.022 C 
HETATM   14  C21 UNL     1       1.530  -2.002   1.470  1.00  0.00     0.037 C 
HETATM   15  C22 UNL     1       2.495  -1.639   0.352  1.00  0.00    -0.033 C 
HETATM   16  C23 UNL     1       3.512  -2.719   0.051  1.00  0.00     0.016 C 
ENDROOT
BRANCH  11  17
HETATM   17  O3  UNL     1      -3.936   0.001  -1.228  1.00  0.00    -0.389 OA
ATOM     18  H3  UNL     1      -4.577   0.372  -0.633  1.00  0.00     0.210 HD
ENDBRANCH  11  17
BRANCH  11  19
HETATM   19  C15 UNL     1      -2.432   1.363  -0.043  1.00  0.00     0.045 C 
BRANCH  19  20
HETATM   20  C16 UNL     1      -3.449   1.891   0.908  1.00  0.00     0.013 C 
HETATM   21  C17 UNL     1      -3.094   3.315   1.357  1.00  0.00     0.012 C 
BRANCH  20  22
HETATM   22  C18 UNL     1      -4.867   1.867   0.478  1.00  0.00     0.226 C 
HETATM   23  F1  UNL     1      -5.113   2.575  -0.677  1.00  0.00    -0.255 F 
ENDBRANCH  20  22
ENDBRANCH  19  20
ENDBRANCH  11  19
BRANCH   1  24
HETATM   24  C3  UNL     1       4.507  -0.212   1.000  1.00  0.00     0.116 C 
BRANCH  24  25
HETATM   25  C2  UNL     1       5.023   1.152   0.710  1.00  0.00     0.258 C 
HETATM   26  O2  UNL     1       6.214   1.502   0.976  1.00  0.00    -0.265 OA
BRANCH  25  27
HETATM   27  O1  UNL     1       4.224   2.142   0.122  1.00  0.00    -0.326 OA
HETATM   28  C1  UNL     1       4.721   3.436  -0.151  1.00  0.00     0.213 C 
ENDBRANCH  25  27
ENDBRANCH  24  25
ENDBRANCH   1  24
TORSDOF 7
