REMARK  17 active torsions:
REMARK  status: ('A' for Active; 'I' for Inactive)
REMARK    1  A    between atoms: N1_1  and  C1_5 
REMARK    2  A    between atoms: C1_5  and  C2_6 
REMARK    3  A    between atoms: C2_6  and  C3_7 
REMARK    4  A    between atoms: C3_7  and  N2_8 
REMARK    5  A    between atoms: N2_8  and  C4_11 
REMARK    6  A    between atoms: C4_11  and  C5_12 
REMARK    7  A    between atoms: C5_12  and  C6_13 
REMARK    8  A    between atoms: C6_13  and  C7_14 
REMARK    9  A    between atoms: C7_14  and  C8_15 
REMARK   10  A    between atoms: C8_15  and  C9_16 
REMARK   11  A    between atoms: C9_16  and  N3_17 
REMARK   12  A    between atoms: N4_24  and  C15_25 
REMARK   13  A    between atoms: C15_25  and  C16_26 
REMARK   14  A    between atoms: C16_26  and  O2_27 
REMARK   15  A    between atoms: C16_26  and  C17_29 
REMARK   16  A    between atoms: C17_29  and  O3_30 
REMARK   17  A    between atoms: O3_30  and  C18_31 
ROOT
HETATM    1  N3  UNL     1       1.329   0.296   0.375  1.00  0.00    -0.295 N 
HETATM    2  C10 UNL     1       0.432  -0.760   0.499  1.00  0.00     0.228 C 
HETATM    3  O1  UNL     1       0.824  -1.784   1.115  1.00  0.00    -0.273 OA
HETATM    4  C11 UNL     1      -0.942  -0.762  -0.040  1.00  0.00     0.134 C 
HETATM    5  C12 UNL     1      -1.519   0.562  -0.367  1.00  0.00     0.044 C 
HETATM    6  C13 UNL     1      -2.140   0.503  -1.749  1.00  0.00     0.061 C 
HETATM    7  C14 UNL     1      -3.126  -0.609  -1.746  1.00  0.00     0.275 C 
HETATM    8  N4  UNL     1      -3.793  -0.889  -0.532  1.00  0.00     0.091 N 
HETATM    9  C24 UNL     1      -3.839   0.119   0.466  1.00  0.00     0.275 C 
HETATM   10  C25 UNL     1      -2.633   0.993   0.555  1.00  0.00     0.061 C 
HETATM   11  N6  UNL     1      -0.573   1.662  -0.397  1.00  0.00    -0.357 N 
ATOM     12  H6  UNL     1      -0.928   2.582  -0.658  1.00  0.00     0.162 HD
HETATM   13  C26 UNL     1       0.805   1.555  -0.091  1.00  0.00     0.177 C 
HETATM   14  S1  UNL     1       1.786   2.849  -0.266  1.00  0.00    -0.041 SA
ENDROOT
BRANCH   1  15
HETATM   15  C9  UNL     1       2.749   0.282   0.653  1.00  0.00     0.134 C 
BRANCH  15  16
HETATM   16  C8  UNL     1       3.591  -0.068  -0.497  1.00  0.00     0.020 C 
BRANCH  16  17
HETATM   17  C7  UNL     1       5.074   0.037  -0.097  1.00  0.00     0.002 C 
BRANCH  17  18
HETATM   18  C6  UNL     1       5.423  -0.914   0.983  1.00  0.00     0.002 C 
BRANCH  18  19
HETATM   19  C5  UNL     1       6.791  -0.932   1.507  1.00  0.00     0.027 C 
BRANCH  19  20
HETATM   20  C4  UNL     1       7.892  -1.357   0.635  1.00  0.00     0.232 C 
BRANCH  20  21
HETATM   21  N2  UNL     1       8.053  -0.595  -0.554  1.00  0.00    -0.075 N 
ATOM     22  H22 UNL     1       7.886   0.398  -0.392  1.00  0.00     0.277 HD
ATOM     23  H21 UNL     1       7.301  -0.771  -1.220  1.00  0.00     0.277 HD
BRANCH  21  24
HETATM   24  C3  UNL     1       9.390  -0.836  -1.158  1.00  0.00     0.233 C 
BRANCH  24  25
HETATM   25  C2  UNL     1      10.486  -0.268  -0.318  1.00  0.00     0.055 C 
BRANCH  25  26
HETATM   26  C1  UNL     1      10.343   1.231  -0.133  1.00  0.00     0.231 C 
BRANCH  26  27
HETATM   27  N1  UNL     1      11.414   1.763   0.680  1.00  0.00    -0.079 N 
ATOM     28  H13 UNL     1      11.480   1.279   1.576  1.00  0.00     0.274 HD
ATOM     29  H12 UNL     1      12.329   1.518   0.302  1.00  0.00     0.274 HD
ATOM     30  H11 UNL     1      11.318   2.771   0.804  1.00  0.00     0.274 HD
ENDBRANCH  26  27
ENDBRANCH  25  26
ENDBRANCH  24  25
ENDBRANCH  21  24
ENDBRANCH  20  21
ENDBRANCH  19  20
ENDBRANCH  18  19
ENDBRANCH  17  18
ENDBRANCH  16  17
ENDBRANCH  15  16
ENDBRANCH   1  15
BRANCH   8  31
HETATM   31  C15 UNL     1      -5.136  -1.354  -0.827  1.00  0.00     0.306 C 
BRANCH  31  32
HETATM   32  C16 UNL     1      -5.899  -1.671   0.442  1.00  0.00     0.170 C 
BRANCH  32  33
HETATM   33  O2  UNL     1      -5.189  -2.694   1.132  1.00  0.00    -0.392 OA
ATOM     34  H2  UNL     1      -5.668  -2.893   1.928  1.00  0.00     0.210 HD
ENDBRANCH  32  33
BRANCH  32  35
HETATM   35  C17 UNL     1      -7.259  -2.231   0.163  1.00  0.00     0.209 C 
BRANCH  35  36
HETATM   36  O3  UNL     1      -8.169  -1.456  -0.480  1.00  0.00    -0.349 OA
BRANCH  36  37
HETATM   37  C18 UNL     1      -8.797  -0.275  -0.163  1.00  0.00     0.069 A 
HETATM   38  C19 UNL     1      -8.604   0.403   1.015  1.00  0.00     0.038 A 
HETATM   39  C20 UNL     1      -9.281   1.580   1.233  1.00  0.00     0.029 A 
HETATM   40  C21 UNL     1     -10.160   2.130   0.320  1.00  0.00     0.046 A 
HETATM   41  N5  UNL     1     -10.855   3.335   0.544  1.00  0.00    -0.102 NA
HETATM   42  C22 UNL     1     -10.344   1.438  -0.856  1.00  0.00     0.029 A 
HETATM   43  C23 UNL     1      -9.686   0.268  -1.102  1.00  0.00     0.038 A 
ENDBRANCH  36  37
ENDBRANCH  35  36
ENDBRANCH  32  35
ENDBRANCH  31  32
ENDBRANCH   8  31
TORSDOF 17
