REMARK  19 active torsions:
REMARK  status: ('A' for Active; 'I' for Inactive)
REMARK    1  A    between atoms: C2_2  and  C3_3 
REMARK    2  A    between atoms: C3_3  and  N1_4 
REMARK    3  A    between atoms: N1_4  and  C4_6 
REMARK    4  A    between atoms: C5_9  and  N3_10 
REMARK    5  A    between atoms: N3_10  and  C6_12 
REMARK    6  A    between atoms: C9_15  and  N4_16 
REMARK       I    between atoms: N4_16  and  C10_18 
REMARK    7  A    between atoms: C15_27  and  O1_28 
REMARK    8  A    between atoms: O1_28  and  C16_29 
REMARK    9  A    between atoms: C16_29  and  C17_30 
REMARK   10  A    between atoms: C17_30  and  O2_31 
REMARK   11  A    between atoms: O2_31  and  C18_32 
REMARK   12  A    between atoms: C18_32  and  C19_33 
REMARK   13  A    between atoms: C19_33  and  O3_34 
REMARK   14  A    between atoms: O3_34  and  C20_35 
REMARK   15  A    between atoms: C20_35  and  C21_36 
REMARK   16  A    between atoms: C21_36  and  O4_37 
REMARK   17  A    between atoms: O4_37  and  C22_38 
REMARK   18  A    between atoms: C22_38  and  C24_40 
REMARK   19  A    between atoms: C24_40  and  N7_41 
ROOT
HETATM    1  C4  UNL     1      -4.428  -2.040  -1.255  1.00  0.00     0.680 A 
HETATM    2  N2  UNL     1      -4.735  -0.832  -0.703  1.00  0.00    -0.176 N 
ATOM      3  H2  UNL     1      -5.675  -0.679  -0.338  1.00  0.00     0.186 HD
HETATM    4  C5  UNL     1      -3.841   0.158  -0.626  1.00  0.00     0.134 A 
HETATM    5  C13 UNL     1      -2.545  -0.028  -1.120  1.00  0.00     0.038 A 
HETATM    6  C14 UNL     1      -1.601   1.003  -1.045  1.00  0.00     0.054 A 
HETATM    7  C15 UNL     1      -0.337   0.783  -1.542  1.00  0.00     0.069 A 
HETATM    8  C29 UNL     1      -0.031  -0.469  -2.110  1.00  0.00     0.039 A 
HETATM    9  C30 UNL     1      -0.974  -1.455  -2.169  1.00  0.00     0.034 A 
HETATM   10  C31 UNL     1      -2.247  -1.242  -1.671  1.00  0.00     0.063 A 
HETATM   11  N8  UNL     1      -3.183  -2.198  -1.722  1.00  0.00    -0.191 N 
ATOM     12  H8  UNL     1      -2.934  -3.095  -2.139  1.00  0.00     0.184 HD
ENDROOT
BRANCH   7  13
HETATM   13  O1  UNL     1       0.672   1.687  -1.533  1.00  0.00    -0.349 OA
BRANCH  13  14
HETATM   14  C16 UNL     1       0.740   2.967  -1.052  1.00  0.00     0.201 C 
BRANCH  14  15
HETATM   15  C17 UNL     1       0.569   3.160   0.422  1.00  0.00     0.194 C 
BRANCH  15  16
HETATM   16  O2  UNL     1       1.507   2.495   1.206  1.00  0.00    -0.387 OA
BRANCH  16  17
HETATM   17  C18 UNL     1       2.765   2.951   0.900  1.00  0.00     0.193 C 
BRANCH  17  18
HETATM   18  C19 UNL     1       3.845   2.321   1.747  1.00  0.00     0.193 C 
BRANCH  18  19
HETATM   19  O3  UNL     1       3.954   0.967   1.656  1.00  0.00    -0.387 OA
BRANCH  19  20
HETATM   20  C20 UNL     1       4.224   0.493   0.387  1.00  0.00     0.193 C 
BRANCH  20  21
HETATM   21  C21 UNL     1       4.347  -1.007   0.415  1.00  0.00     0.194 C 
BRANCH  21  22
HETATM   22  O4  UNL     1       5.334  -1.508   1.215  1.00  0.00    -0.383 OA
BRANCH  22  23
HETATM   23  C22 UNL     1       6.629  -1.112   0.871  1.00  0.00     0.135 C 
HETATM   24  C23 UNL     1       7.239  -0.483   2.102  1.00  0.00     0.041 C 
BRANCH  23  25
HETATM   25  C24 UNL     1       7.478  -2.298   0.481  1.00  0.00     0.157 C 
BRANCH  25  26
HETATM   26  N7  UNL     1       8.799  -1.853   0.111  1.00  0.00    -0.350 N 
HETATM   27  C25 UNL     1       9.996  -1.733   0.911  1.00  0.00     0.126 C 
HETATM   28  C26 UNL     1      10.788  -0.667   0.205  1.00  0.00     0.029 C 
HETATM   29  C27 UNL     1      10.169  -0.419  -1.127  1.00  0.00     0.104 C 
HETATM   30  C28 UNL     1       9.135  -1.467  -1.244  1.00  0.00     0.219 C 
HETATM   31  O5  UNL     1       8.602  -1.975  -2.287  1.00  0.00    -0.273 OA
ENDBRANCH  25  26
ENDBRANCH  23  25
ENDBRANCH  22  23
ENDBRANCH  21  22
ENDBRANCH  20  21
ENDBRANCH  19  20
ENDBRANCH  18  19
ENDBRANCH  17  18
ENDBRANCH  16  17
ENDBRANCH  15  16
ENDBRANCH  14  15
ENDBRANCH  13  14
ENDBRANCH   7  13
BRANCH   4  32
HETATM   32  N3  UNL     1      -4.093   1.311  -0.122  1.00  0.00    -0.341 N 
ATOM     33  H3  UNL     1      -3.347   2.007  -0.106  1.00  0.00     0.167 HD
BRANCH  32  34
HETATM   34  C6  UNL     1      -5.354   1.665   0.412  1.00  0.00     0.033 A 
HETATM   35  C7  UNL     1      -6.465   1.843  -0.403  1.00  0.00     0.032 A 
HETATM   36  C8  UNL     1      -7.649   2.193   0.158  1.00  0.00     0.032 A 
HETATM   37  C9  UNL     1      -7.803   2.383   1.526  1.00  0.00     0.034 A 
HETATM   38  C11 UNL     1      -6.684   2.201   2.332  1.00  0.00     0.032 A 
HETATM   39  C12 UNL     1      -5.504   1.852   1.763  1.00  0.00     0.032 A 
BRANCH  37  40
HETATM   40  N4  UNL     1      -9.049   2.747   2.071  1.00  0.00    -0.331 N 
HETATM   41  C10 UNL     1      -9.170   2.959   3.460  1.00  0.00     0.186 C 
HETATM   42  N5  UNL     1      -9.489   1.990   4.232  1.00  0.00    -0.373 N 
HETATM   43  N6  UNL     1      -8.933   4.263   3.986  1.00  0.00    -0.064 NA
ATOM     44  H52 UNL     1      -9.659   1.057   3.856  1.00  0.00     0.158 HD
ATOM     45  H51 UNL     1      -9.577   2.143   5.237  1.00  0.00     0.158 HD
ATOM     46  H4  UNL     1      -9.861   2.857   1.464  1.00  0.00     0.168 HD
ENDBRANCH  37  40
ENDBRANCH  32  34
ENDBRANCH   4  32
BRANCH   1  47
HETATM   47  N1  UNL     1      -5.331  -2.965  -1.306  1.00  0.00    -0.226 N 
ATOM     48  H1  UNL     1      -6.266  -2.795  -0.937  1.00  0.00     0.177 HD
BRANCH  47  49
HETATM   49  C3  UNL     1      -4.997  -4.243  -1.893  1.00  0.00     0.137 C 
BRANCH  49  50
HETATM   50  C2  UNL     1      -6.145  -5.222  -1.802  1.00  0.00     0.016 C 
HETATM   51  C1  UNL     1      -7.361  -4.712  -2.514  1.00  0.00     0.006 C 
ENDBRANCH  49  50
ENDBRANCH  47  49
ENDBRANCH   1  47
TORSDOF 19
