REMARK  2 active torsions:
REMARK  status: ('A' for Active; 'I' for Inactive)
REMARK    1  A    between atoms: C2_3  and  C3_4 
REMARK    2  A    between atoms: C3_4  and  O1_5 
REMARK       I    between atoms: N2_7  and  C4_9 
REMARK       I    between atoms: C4_9  and  N4_13 
ROOT
HETATM    1  N1  UNL     1      -1.152  -3.226   1.338  1.00  0.00    -0.193 NA
HETATM    2  C1  UNL     1      -1.036  -2.196   0.862  1.00  0.00     0.126 C 
HETATM    3  C2  UNL     1      -0.907  -0.811   0.250  1.00  0.00     0.396 C 
HETATM    4  N5  UNL     1      -1.402   0.099   1.287  1.00  0.00    -0.013 N 
ATOM      5  H51 UNL     1      -0.668   0.477   1.886  1.00  0.00     0.283 HD
ATOM      6  H52 UNL     1      -1.930  -0.367   2.025  1.00  0.00     0.283 HD
HETATM    7  C5  UNL     1      -2.161   1.117   0.575  1.00  0.00     0.368 C 
HETATM    8  N6  UNL     1      -3.168   0.459  -0.239  1.00  0.00    -0.291 N 
ATOM      9  H6  UNL     1      -4.175   0.600  -0.326  1.00  0.00     0.174 HD
HETATM   10  S1  UNL     1      -2.053  -0.674  -1.033  1.00  0.00     0.285 S 
HETATM   11  O2  UNL     1      -2.812  -1.966  -1.284  1.00  0.00    -0.202 OA
HETATM   12  O3  UNL     1      -1.526  -0.108  -2.285  1.00  0.00    -0.202 OA
ENDROOT
BRANCH   3  13
HETATM   13  C3  UNL     1       0.509  -0.621   0.023  1.00  0.00     0.200 C 
HETATM   14  N2  UNL     1       1.150   0.475  -0.475  1.00  0.00    -0.171 N 
HETATM   15  C4  UNL     1       2.547   0.632  -0.692  1.00  0.00     0.671 C 
ATOM     16  H2  UNL     1       0.562   1.272  -0.719  1.00  0.00     0.186 HD
HETATM   17  N3  UNL     1       3.000   1.807  -1.148  1.00  0.00    -0.235 N 
HETATM   18  N4  UNL     1       3.468  -0.340  -0.400  1.00  0.00    -0.235 N 
ATOM     19  H32 UNL     1       2.315   2.530  -1.365  1.00  0.00     0.174 HD
ATOM     20  H31 UNL     1       4.002   1.920  -1.304  1.00  0.00     0.174 HD
ATOM     21  H42 UNL     1       3.123  -1.235  -0.053  1.00  0.00     0.174 HD
ATOM     22  H41 UNL     1       4.470  -0.227  -0.556  1.00  0.00     0.174 HD
BRANCH  13  23
HETATM   23  O1  UNL     1       1.300  -1.655   0.348  1.00  0.00    -0.345 OA
ATOM     24  H1  UNL     1       2.230  -1.530   0.199  1.00  0.00     0.219 HD
ENDBRANCH  13  23
ENDBRANCH   3  13
TORSDOF 2
