REMARK  15 active torsions:
REMARK  status: ('A' for Active; 'I' for Inactive)
REMARK    1  A    between atoms: C5_7  and  N2_8 
REMARK    2  A    between atoms: N2_8  and  C6_10 
REMARK    3  A    between atoms: C6_10  and  O1_11 
REMARK    4  A    between atoms: C6_10  and  C7_13 
REMARK    5  A    between atoms: C7_13  and  O2_14 
REMARK    6  A    between atoms: C7_13  and  C11_22 
REMARK    7  A    between atoms: O2_14  and  C8_15 
REMARK    8  A    between atoms: C8_15  and  C9_17 
REMARK    9  A    between atoms: C10_18  and  N3_19 
REMARK   10  A    between atoms: C11_22  and  O4_23 
REMARK   11  A    between atoms: C11_22  and  C12_25 
REMARK   12  A    between atoms: C12_25  and  O5_26 
REMARK   13  A    between atoms: C12_25  and  C13_28 
REMARK   14  A    between atoms: C13_28  and  N4_29 
REMARK   15  A    between atoms: C13_28  and  O6_33 
ROOT
HETATM    1  C1  UNL     1       6.699  -3.499   0.697  1.00  0.00     0.019 C 
HETATM    2  C2  UNL     1       5.674  -2.897   0.472  1.00  0.00    -0.058 C 
HETATM    3  C3  UNL     1       4.457  -2.202   0.188  1.00  0.00     0.101 A 
HETATM    4  C4  UNL     1       3.562  -2.649  -0.761  1.00  0.00     0.128 A 
HETATM    5  N1  UNL     1       2.415  -1.984  -1.019  1.00  0.00    -0.349 N 
ATOM      6  H1  UNL     1       1.772  -2.341  -1.726  1.00  0.00     0.167 HD
HETATM    7  C5  UNL     1       2.115  -0.863  -0.356  1.00  0.00     0.118 A 
HETATM    8  C14 UNL     1       2.990  -0.399   0.593  1.00  0.00     0.137 A 
HETATM    9  N5  UNL     1       4.116  -1.075   0.830  1.00  0.00    -0.354 N 
ATOM     10  H5  UNL     1       4.753  -0.714   1.540  1.00  0.00     0.166 HD
ENDROOT
BRANCH   7  11
HETATM   11  N2  UNL     1       1.019  -0.238  -0.612  1.00  0.00    -0.347 N 
ATOM     12  H2  UNL     1       0.398  -0.618  -1.326  1.00  0.00     0.163 HD
BRANCH  11  13
HETATM   13  C6  UNL     1       0.632   0.965   0.058  1.00  0.00     0.251 C 
BRANCH  13  14
HETATM   14  O1  UNL     1       1.547   1.973  -0.356  1.00  0.00    -0.374 OA
ATOM     15  H1  UNL     1       1.290   2.772   0.089  1.00  0.00     0.212 HD
ENDBRANCH  13  14
BRANCH  13  16
HETATM   16  C7  UNL     1      -0.754   1.382  -0.344  1.00  0.00     0.212 C 
BRANCH  16  17
HETATM   17  O2  UNL     1      -1.176   2.554   0.305  1.00  0.00    -0.298 OA
BRANCH  17  18
HETATM   18  C8  UNL     1      -1.377   3.703  -0.435  1.00  0.00     0.341 C 
HETATM   19  O3  UNL     1      -1.187   3.718  -1.699  1.00  0.00    -0.249 OA
BRANCH  18  20
HETATM   20  C9  UNL     1      -1.810   4.921   0.206  1.00  0.00     0.025 C 
HETATM   21  C10 UNL     1      -2.186   5.942   0.733  1.00  0.00     0.014 C 
BRANCH  21  22
HETATM   22  N3  UNL     1      -2.645   7.133   1.344  1.00  0.00    -0.359 N 
ATOM     23  H32 UNL     1      -2.940   6.314   0.812  1.00  0.00     0.166 HD
ATOM     24  H31 UNL     1      -2.962   7.994   1.789  1.00  0.00     0.166 HD
ENDBRANCH  21  22
ENDBRANCH  18  20
ENDBRANCH  17  18
ENDBRANCH  16  17
BRANCH  16  25
HETATM   25  C11 UNL     1      -1.768   0.270  -0.321  1.00  0.00     0.185 C 
BRANCH  25  26
HETATM   26  O4  UNL     1      -2.939   0.705  -0.975  1.00  0.00    -0.390 OA
ATOM     27  H4  UNL     1      -3.579   0.003  -0.960  1.00  0.00     0.210 HD
ENDBRANCH  25  26
BRANCH  25  28
HETATM   28  C12 UNL     1      -2.115  -0.251   1.031  1.00  0.00     0.205 C 
BRANCH  28  29
HETATM   29  O5  UNL     1      -0.952  -0.692   1.718  1.00  0.00    -0.389 OA
ATOM     30  H5  UNL     1      -1.173  -1.024   2.580  1.00  0.00     0.210 HD
ENDBRANCH  28  29
BRANCH  28  31
HETATM   31  C13 UNL     1      -3.057  -1.435   0.874  1.00  0.00     0.347 C 
BRANCH  31  32
HETATM   32  N4  UNL     1      -4.270  -1.104   0.214  1.00  0.00    -0.051 N 
ATOM     33  H43 UNL     1      -4.738  -0.329   0.683  1.00  0.00     0.277 HD
ATOM     34  H42 UNL     1      -4.084  -0.667  -0.689  1.00  0.00     0.277 HD
ATOM     35  H41 UNL     1      -4.902  -1.898   0.109  1.00  0.00     0.277 HD
ENDBRANCH  31  32
BRANCH  31  36
HETATM   36  O6  UNL     1      -3.303  -2.040   2.117  1.00  0.00    -0.368 OA
ATOM     37  H6  UNL     1      -3.891  -2.779   2.019  1.00  0.00     0.212 HD
ENDBRANCH  31  36
ENDBRANCH  28  31
ENDBRANCH  25  28
ENDBRANCH  16  25
ENDBRANCH  13  16
ENDBRANCH  11  13
ENDBRANCH   7  11
TORSDOF 15
