REMARK  6 active torsions:
REMARK  status: ('A' for Active; 'I' for Inactive)
REMARK    1  A    between atoms: C2_3  and  C3_8 
REMARK    2  A    between atoms: N2_4  and  O1_6 
REMARK    3  A    between atoms: C4_9  and  O2_10 
REMARK    4  A    between atoms: C5_12  and  O3_13 
REMARK    5  A    between atoms: N3_15  and  C6_16 
REMARK    6  A    between atoms: C12_22  and  C13_23 
ROOT
HETATM    1  N1  UNL     1       4.777  -3.390   0.882  1.00  0.00    -0.190 NA
HETATM    2  C1  UNL     1       4.226  -2.392   0.712  1.00  0.00     0.120 C 
HETATM    3  C2  UNL     1       3.548  -1.114   0.507  1.00  0.00     0.149 C 
HETATM    4  N2  UNL     1       4.282  -0.103   0.583  1.00  0.00    -0.258 N 
ATOM      5  H2  UNL     1       3.861   0.816   0.447  1.00  0.00     0.195 HD
ENDROOT
BRANCH   3   6
HETATM    6  C3  UNL     1       2.126  -1.070   0.239  1.00  0.00     0.070 A 
HETATM    7  C4  UNL     1       1.378  -2.255   0.147  1.00  0.00     0.132 A 
HETATM    8  C5  UNL     1       0.114  -1.890  -0.172  1.00  0.00     0.178 A 
HETATM    9  N3  UNL     1       0.024  -0.575  -0.280  1.00  0.00    -0.317 N 
HETATM   10  C12 UNL     1       1.273  -0.059  -0.022  1.00  0.00     0.088 A 
BRANCH   7  11
HETATM   11  O2  UNL     1       1.838  -3.536   0.341  1.00  0.00    -0.356 OA
ATOM     12  H2  UNL     1       1.332  -4.338   0.279  1.00  0.00     0.218 HD
ENDBRANCH   7  11
BRANCH   8  13
HETATM   13  O3  UNL     1      -0.923  -2.801  -0.353  1.00  0.00    -0.344 OA
ATOM     14  H3  UNL     1      -1.810  -2.545  -0.577  1.00  0.00     0.219 HD
ENDBRANCH   8  13
BRANCH   9  15
HETATM   15  C6  UNL     1      -1.128   0.202  -0.587  1.00  0.00     0.092 C 
HETATM   16  C7  UNL     1      -2.276  -0.643  -1.123  1.00  0.00     0.026 C 
HETATM   17  C8  UNL     1      -3.344   0.397  -1.517  1.00  0.00     0.002 C 
HETATM   18  C9  UNL     1      -3.959   0.829  -0.189  1.00  0.00     0.000 C 
HETATM   19  C10 UNL     1      -3.024   0.611   0.959  1.00  0.00     0.002 C 
HETATM   20  C11 UNL     1      -1.619   1.062   0.567  1.00  0.00     0.026 C 
ENDBRANCH   9  15
BRANCH  10  21
HETATM   21  C13 UNL     1       1.497   1.382   0.084  1.00  0.00     0.120 A 
HETATM   22  C14 UNL     1       2.218   2.161   0.913  1.00  0.00     0.129 A 
HETATM   23  N4  UNL     1       2.050   3.472   0.553  1.00  0.00    -0.354 N 
HETATM   24  C15 UNL     1       1.222   3.454  -0.494  1.00  0.00     0.233 A 
ATOM     25  H4  UNL     1       2.470   4.291   0.993  1.00  0.00     0.166 HD
HETATM   26  O4  UNL     1       0.905   2.223  -0.758  1.00  0.00    -0.302 OA
ENDBRANCH  10  21
ENDBRANCH   3   6
BRANCH   4  27
HETATM   27  O1  UNL     1       5.610  -0.174   0.837  1.00  0.00    -0.289 OA
ATOM     28  H1  UNL     1       6.167   0.593   0.895  1.00  0.00     0.244 HD
ENDBRANCH   4  27
TORSDOF 6
