REMARK  21 active torsions:
REMARK  status: ('A' for Active; 'I' for Inactive)
REMARK    1  A    between atoms: C2_2  and  C3_3 
REMARK    2  A    between atoms: C3_3  and  C4_4 
REMARK    3  A    between atoms: C4_4  and  C5_5 
REMARK    4  A    between atoms: C7_8  and  C8_9 
REMARK    5  A    between atoms: C8_9  and  C9_10 
REMARK    6  A    between atoms: C10_11  and  C11_12 
REMARK    7  A    between atoms: C11_12  and  C12_13 
REMARK    8  A    between atoms: C12_13  and  C13_14 
REMARK    9  A    between atoms: C13_14  and  O2_15 
REMARK   10  A    between atoms: C13_14  and  C23_29 
REMARK   11  A    between atoms: O2_15  and  C14_16 
REMARK   12  A    between atoms: C14_16  and  C15_17 
REMARK   13  A    between atoms: C15_17  and  C16_18 
REMARK   14  A    between atoms: C16_18  and  O4_20 
REMARK   15  A    between atoms: O4_20  and  C17_21 
REMARK   16  A    between atoms: C20_24  and  O5_25 
REMARK   17  A    between atoms: C24_31  and  C25_32 
REMARK   18  A    between atoms: C25_32  and  O7_33 
REMARK   19  A    between atoms: C26_35  and  O8_36 
REMARK   20  A    between atoms: C27_38  and  O9_39 
REMARK   21  A    between atoms: C28_41  and  O10_42 
ROOT
HETATM    1  C13 UNL     1      -1.092  -1.937  -0.069  1.00  0.00     0.153 C 
ENDROOT
BRANCH   1   2
HETATM    2  C12 UNL     1       0.444  -1.770  -0.143  1.00  0.00     0.038 C 
BRANCH   2   3
HETATM    3  C11 UNL     1       1.229  -2.621   0.779  1.00  0.00     0.029 C 
BRANCH   3   4
HETATM    4  C10 UNL     1       2.690  -2.274   0.616  1.00  0.00    -0.031 C 
HETATM    5  C9  UNL     1       3.087  -1.362  -0.229  1.00  0.00    -0.030 C 
BRANCH   5   6
HETATM    6  C8  UNL     1       4.523  -1.005  -0.404  1.00  0.00     0.039 C 
BRANCH   6   7
HETATM    7  C7  UNL     1       4.708   0.438  -0.074  1.00  0.00     0.067 C 
HETATM    8  C6  UNL     1       6.127   0.869  -0.239  1.00  0.00     0.140 C 
HETATM    9  C5  UNL     1       6.488   2.253   0.113  1.00  0.00     0.084 C 
HETATM   10  O1  UNL     1       6.951   0.095  -0.653  1.00  0.00    -0.297 OA
HETATM   11  C32 UNL     1       5.327   3.165  -0.143  1.00  0.00    -0.076 C 
HETATM   12  C31 UNL     1       4.172   2.739  -0.603  1.00  0.00    -0.019 C 
HETATM   13  C33 UNL     1       5.511   4.613   0.143  1.00  0.00     0.044 C 
HETATM   14  C29 UNL     1       3.852   1.318  -0.930  1.00  0.00     0.016 C 
HETATM   15  C30 UNL     1       4.014   1.060  -2.404  1.00  0.00     0.015 C 
BRANCH   9  16
HETATM   16  C4  UNL     1       6.917   2.426   1.522  1.00  0.00     0.020 C 
BRANCH  16  17
HETATM   17  C3  UNL     1       8.129   1.675   1.959  1.00  0.00     0.027 C 
BRANCH  17  18
HETATM   18  C2  UNL     1       9.329   2.072   1.215  1.00  0.00    -0.037 C 
HETATM   19  C1  UNL     1      10.092   1.260   0.540  1.00  0.00     0.007 C 
ENDBRANCH  17  18
ENDBRANCH  16  17
ENDBRANCH   9  16
ENDBRANCH   6   7
ENDBRANCH   5   6
ENDBRANCH   3   4
ENDBRANCH   2   3
ENDBRANCH   1   2
BRANCH   1  20
HETATM   20  O2  UNL     1      -1.517  -1.014  -1.079  1.00  0.00    -0.383 OA
BRANCH  20  21
HETATM   21  C14 UNL     1      -2.172   0.072  -0.603  1.00  0.00     0.178 C 
BRANCH  21  22
HETATM   22  C15 UNL     1      -3.434  -0.260   0.094  1.00  0.00     0.137 C 
BRANCH  22  23
HETATM   23  C16 UNL     1      -4.124   0.979   0.612  1.00  0.00     0.261 C 
HETATM   24  O3  UNL     1      -3.768   1.561   1.658  1.00  0.00    -0.265 OA
BRANCH  23  25
HETATM   25  O4  UNL     1      -5.200   1.525  -0.070  1.00  0.00    -0.316 OA
BRANCH  25  26
HETATM   26  C17 UNL     1      -5.919   2.661   0.314  1.00  0.00     0.132 C 
HETATM   27  C18 UNL     1      -7.374   2.410   0.535  1.00  0.00     0.035 C 
HETATM   28  C19 UNL     1      -7.996   3.571   1.218  1.00  0.00     0.034 C 
HETATM   29  C20 UNL     1      -7.594   4.911   0.756  1.00  0.00     0.118 C 
HETATM   30  C21 UNL     1      -6.302   5.041   0.045  1.00  0.00     0.034 C 
HETATM   31  C22 UNL     1      -5.830   3.804  -0.665  1.00  0.00     0.035 C 
BRANCH  29  32
HETATM   32  O5  UNL     1      -7.570   5.779   1.861  1.00  0.00    -0.396 OA
ATOM     33  H5  UNL     1      -7.311   6.643   1.563  1.00  0.00     0.210 HD
ENDBRANCH  29  32
ENDBRANCH  25  26
ENDBRANCH  23  25
ENDBRANCH  22  23
ENDBRANCH  21  22
ENDBRANCH  20  21
ENDBRANCH   1  20
BRANCH   1  34
HETATM   34  C23 UNL     1      -1.449  -3.292  -0.529  1.00  0.00     0.182 C 
HETATM   35  O6  UNL     1      -2.822  -3.246  -0.934  1.00  0.00    -0.370 OA
HETATM   36  C24 UNL     1      -3.087  -4.344  -1.759  1.00  0.00     0.177 C 
HETATM   37  C26 UNL     1      -2.190  -5.509  -1.544  1.00  0.00     0.180 C 
HETATM   38  C27 UNL     1      -1.650  -5.666  -0.143  1.00  0.00     0.180 C 
HETATM   39  C28 UNL     1      -1.524  -4.342   0.592  1.00  0.00     0.180 C 
BRANCH  36  40
HETATM   40  C25 UNL     1      -4.525  -4.711  -1.672  1.00  0.00     0.198 C 
BRANCH  40  41
HETATM   41  O7  UNL     1      -4.857  -5.780  -2.495  1.00  0.00    -0.398 OA
ATOM     42  H7  UNL     1      -5.776  -6.015  -2.439  1.00  0.00     0.209 HD
ENDBRANCH  40  41
ENDBRANCH  36  40
BRANCH  37  43
HETATM   43  O8  UNL     1      -2.830  -6.701  -1.868  1.00  0.00    -0.390 OA
ATOM     44  H8  UNL     1      -2.257  -7.446  -1.731  1.00  0.00     0.210 HD
ENDBRANCH  37  43
BRANCH  38  45
HETATM   45  O9  UNL     1      -2.444  -6.493   0.650  1.00  0.00    -0.390 OA
ATOM     46  H9  UNL     1      -2.104  -6.592   1.532  1.00  0.00     0.210 HD
ENDBRANCH  38  45
BRANCH  39  47
HETATM   47  O10 UNL     1      -2.753  -4.111   1.269  1.00  0.00    -0.390 OA
ATOM     48  H10 UNL     1      -2.799  -4.760   1.962  1.00  0.00     0.210 HD
ENDBRANCH  39  47
ENDBRANCH   1  34
TORSDOF 21
