REMARK  8 active torsions:
REMARK  status: ('A' for Active; 'I' for Inactive)
REMARK    1  A    between atoms: N6_16  and  C6_17 
REMARK    2  A    between atoms: C9_24  and  C10_25 
REMARK    3  A    between atoms: C10_25  and  N8_26 
REMARK    4  A    between atoms: N8_26  and  C11_28 
REMARK    5  A    between atoms: C11_28  and  C12_29 
REMARK    6  A    between atoms: C12_29  and  C13_30 
REMARK    7  A    between atoms: C13_30  and  C14_31 
REMARK    8  A    between atoms: C14_31  and  N9_32 
ROOT
HETATM    1  C6  UNL     1      -1.329   0.478  -0.052  1.00  0.00     0.257 C 
HETATM    2  C7  UNL     1      -0.430   1.421   0.633  1.00  0.00     0.289 C 
HETATM    3  N7  UNL     1       0.596   2.046  -0.128  1.00  0.00    -0.037 N 
ATOM      4  H71 UNL     1       1.502   1.917   0.323  1.00  0.00     0.280 HD
ATOM      5  H72 UNL     1       0.515   3.061  -0.069  1.00  0.00     0.280 HD
HETATM    6  C8  UNL     1       0.655   1.626  -1.504  1.00  0.00     0.401 C 
HETATM    7  F1  UNL     1      -0.379   2.407  -2.121  1.00  0.00    -0.216 F 
HETATM    8  C9  UNL     1       0.244   0.229  -1.730  1.00  0.00     0.223 C 
HETATM    9  O1  UNL     1      -1.152   0.241  -1.381  1.00  0.00    -0.349 OA
ENDROOT
BRANCH   1  10
HETATM   10  N6  UNL     1      -2.727   0.901   0.107  1.00  0.00    -0.298 N 
HETATM   11  C3  UNL     1      -3.781   0.042   0.148  1.00  0.00     0.144 A 
HETATM   12  N4  UNL     1      -3.925  -1.277   0.074  1.00  0.00    -0.314 N 
HETATM   13  C4  UNL     1      -4.939   0.810   0.306  1.00  0.00     0.122 A 
HETATM   14  C2  UNL     1      -5.102  -1.917   0.140  1.00  0.00     0.195 A 
ATOM     15  H4  UNL     1      -3.083  -1.841  -0.041  1.00  0.00     0.170 HD
HETATM   16  N2  UNL     1      -6.218  -1.185   0.291  1.00  0.00    -0.315 N 
HETATM   17  N3  UNL     1      -5.167  -3.354   0.049  1.00  0.00    -0.063 NA
HETATM   18  C1  UNL     1      -6.155   0.154   0.374  1.00  0.00     0.132 A 
ATOM     19  H2  UNL     1      -7.124  -1.651   0.343  1.00  0.00     0.170 HD
HETATM   20  N1  UNL     1      -7.196   0.890   0.521  1.00  0.00    -0.383 N 
ATOM     21  H12 UNL     1      -8.093   0.406   0.571  1.00  0.00     0.157 HD
ATOM     22  H11 UNL     1      -7.148   1.907   0.584  1.00  0.00     0.157 HD
HETATM   23  N5  UNL     1      -4.534   2.081   0.352  1.00  0.00    -0.346 N 
HETATM   24  C5  UNL     1      -3.193   2.149   0.232  1.00  0.00     0.188 A 
ATOM     25  H5  UNL     1      -5.151   2.886   0.462  1.00  0.00     0.167 HD
ENDBRANCH   1  10
BRANCH   8  26
HETATM   26  C10 UNL     1       0.921  -0.888  -1.058  1.00  0.00     0.092 C 
BRANCH  26  27
HETATM   27  N8  UNL     1       2.284  -1.152  -1.250  1.00  0.00    -0.400 N 
ATOM     28  H8  UNL     1       2.593  -1.964  -1.784  1.00  0.00     0.158 HD
BRANCH  27  29
HETATM   29  C11 UNL     1       3.204  -0.269  -0.688  1.00  0.00     0.119 C 
BRANCH  29  30
HETATM   30  C12 UNL     1       4.658  -0.706  -0.900  1.00  0.00     0.021 C 
BRANCH  30  31
HETATM   31  C13 UNL     1       5.599   0.299  -0.269  1.00  0.00     0.029 C 
BRANCH  31  32
HETATM   32  C14 UNL     1       5.381   0.443   1.217  1.00  0.00     0.229 C 
BRANCH  32  33
HETATM   33  N9  UNL     1       5.593  -0.824   1.895  1.00  0.00    -0.079 N 
ATOM     34  H93 UNL     1       5.015  -1.565   1.499  1.00  0.00     0.274 HD
ATOM     35  H92 UNL     1       6.511  -1.216   1.685  1.00  0.00     0.274 HD
ATOM     36  H91 UNL     1       5.446  -0.727   2.900  1.00  0.00     0.274 HD
ENDBRANCH  32  33
ENDBRANCH  31  32
ENDBRANCH  30  31
ENDBRANCH  29  30
ENDBRANCH  27  29
ENDBRANCH  26  27
ENDBRANCH   8  26
TORSDOF 8
