REMARK  3 active torsions:
REMARK  status: ('A' for Active; 'I' for Inactive)
REMARK    1  A    between atoms: C2_2  and  N1_3 
REMARK       I    between atoms: N2_10  and  C9_11 
REMARK    2  A    between atoms: C9_11  and  C10_13 
REMARK    3  A    between atoms: C10_13  and  N3_14 
ROOT
HETATM    1  N1  UNL     1      -2.927   0.767  -0.470  1.00  0.00     0.088 N 
HETATM    2  C3  UNL     1      -2.820   0.079  -1.737  1.00  0.00     0.273 C 
HETATM    3  C4  UNL     1      -2.381  -1.333  -1.587  1.00  0.00     0.041 C 
HETATM    4  C5  UNL     1      -1.739  -1.615  -0.235  1.00  0.00    -0.021 C 
HETATM    5  C6  UNL     1      -1.625  -3.128  -0.146  1.00  0.00     0.013 C 
HETATM    6  C7  UNL     1      -0.917  -3.448   1.143  1.00  0.00     0.021 C 
HETATM    7  C8  UNL     1       0.503  -2.956   1.018  1.00  0.00     0.126 C 
HETATM    8  N2  UNL     1       0.598  -1.602   0.572  1.00  0.00    -0.350 N 
HETATM    9  C9  UNL     1       1.776  -0.867   0.871  1.00  0.00     0.237 C 
HETATM   10  O1  UNL     1       2.677  -1.457   1.518  1.00  0.00    -0.272 OA
HETATM   11  C15 UNL     1      -0.433  -0.910  -0.173  1.00  0.00     0.135 C 
HETATM   12  C16 UNL     1      -2.649  -1.195   0.912  1.00  0.00     0.041 C 
HETATM   13  C17 UNL     1      -3.537  -0.025   0.545  1.00  0.00     0.273 C 
ENDROOT
BRANCH   9  14
HETATM   14  C10 UNL     1       1.961   0.542   0.449  1.00  0.00     0.220 C 
BRANCH  14  15
HETATM   15  N3  UNL     1       3.199   1.131   0.819  1.00  0.00    -0.401 N 
HETATM   16  C11 UNL     1       3.326   2.508   0.457  1.00  0.00     0.144 C 
HETATM   17  C12 UNL     1       4.566   3.031   1.168  1.00  0.00     0.251 C 
HETATM   18  N4  UNL     1       5.706   2.420   0.536  1.00  0.00    -0.072 N 
HETATM   19  C13 UNL     1       5.380   1.230  -0.174  1.00  0.00     0.251 C 
ATOM     20  H42 UNL     1       6.185   3.085  -0.071  1.00  0.00     0.277 HD
ATOM     21  H41 UNL     1       6.448   2.247   1.214  1.00  0.00     0.277 HD
HETATM   22  C14 UNL     1       4.378   0.383   0.572  1.00  0.00     0.144 C 
ENDBRANCH  14  15
ENDBRANCH   9  14
BRANCH   1  23
HETATM   23  C2  UNL     1      -3.495   2.075  -0.595  1.00  0.00     0.268 C 
HETATM   24  C1  UNL     1      -4.938   2.084  -0.982  1.00  0.00     0.037 C 
ENDBRANCH   1  23
TORSDOF 3
