REMARK  3 active torsions:
REMARK  status: ('A' for Active; 'I' for Inactive)
REMARK    1  A    between atoms: C2_2  and  C3_3 
REMARK    2  A    between atoms: C3_3  and  C4_4 
REMARK    3  A    between atoms: C4_4  and  C5_5 
ROOT
HETATM    1  C5  UNL     1      -0.167  -0.258   0.273  1.00  0.00     0.000 C 
HETATM    2  C6  UNL     1       0.019  -1.774   0.098  1.00  0.00     0.022 C 
HETATM    3  C7  UNL     1      -0.396  -0.046   1.751  1.00  0.00     0.023 C 
HETATM    4  C8  UNL     1      -1.740  -0.384   2.264  1.00  0.00     0.085 C 
HETATM    5  C9  UNL     1      -2.786  -0.610   1.236  1.00  0.00     0.167 C 
HETATM    6  O1  UNL     1      -3.834  -1.271   1.480  1.00  0.00    -0.292 OA
HETATM    7  C10 UNL     1      -2.575  -0.043  -0.080  1.00  0.00     0.101 A 
HETATM    8  C11 UNL     1      -1.299   0.125  -0.541  1.00  0.00     0.041 A 
HETATM    9  N1  UNL     1      -1.159   0.651  -1.760  1.00  0.00    -0.310 N 
ATOM     10  H1  UNL     1      -0.222   0.792  -2.137  1.00  0.00     0.170 HD
HETATM   11  C12 UNL     1      -2.236   1.004  -2.512  1.00  0.00     0.327 A 
HETATM   12  O2  UNL     1      -2.078   1.503  -3.671  1.00  0.00    -0.247 OA
HETATM   13  N2  UNL     1      -3.495   0.846  -2.077  1.00  0.00    -0.275 N 
ATOM     14  H2  UNL     1      -4.288   1.117  -2.658  1.00  0.00     0.173 HD
HETATM   15  C13 UNL     1      -3.682   0.322  -0.857  1.00  0.00     0.265 A 
HETATM   16  O3  UNL     1      -4.841   0.155  -0.408  1.00  0.00    -0.267 OA
ENDROOT
BRANCH   1  17
HETATM   17  C4  UNL     1       1.130   0.398  -0.087  1.00  0.00     0.015 C 
BRANCH  17  18
HETATM   18  C3  UNL     1       2.267  -0.066   0.788  1.00  0.00     0.001 C 
BRANCH  18  19
HETATM   19  C2  UNL     1       3.575   0.594   0.408  1.00  0.00    -0.005 C 
HETATM   20  C1  UNL     1       3.991   0.314  -0.998  1.00  0.00     0.005 C 
ENDBRANCH  18  19
ENDBRANCH  17  18
ENDBRANCH   1  17
TORSDOF 3
