REMARK  5 active torsions:
REMARK  status: ('A' for Active; 'I' for Inactive)
REMARK    1  A    between atoms: N2_5  and  C4_6 
REMARK    2  A    between atoms: C5_9  and  C6_10 
REMARK    3  A    between atoms: C8_14  and  N5_15 
REMARK    4  A    between atoms: C11_25  and  N8_26 
REMARK    5  A    between atoms: N8_26  and  C12_28 
ROOT
HETATM    1  C4  UNL     1      -1.259   0.678   0.184  1.00  0.00     0.135 A 
HETATM    2  N3  UNL     1      -2.442   1.309   0.200  1.00  0.00    -0.326 N 
ATOM      3  H3  UNL     1      -3.279   0.732   0.121  1.00  0.00     0.169 HD
HETATM    4  C5  UNL     1      -2.617   2.626   0.310  1.00  0.00     0.120 A 
HETATM    5  N7  UNL     1      -1.505   3.370   0.413  1.00  0.00    -0.334 N 
ATOM      6  H7  UNL     1      -1.588   4.383   0.499  1.00  0.00     0.168 HD
HETATM    7  C10 UNL     1      -0.261   2.797   0.405  1.00  0.00     0.110 A 
HETATM    8  S1  UNL     1       1.342   3.376   0.516  1.00  0.00    -0.034 SA
HETATM    9  C11 UNL     1       2.164   1.867   0.413  1.00  0.00     0.147 A 
HETATM   10  N10 UNL     1       1.156   1.003   0.300  1.00  0.00    -0.331 N 
ATOM     11  H10 UNL     1       1.342   0.003   0.220  1.00  0.00     0.168 HD
HETATM   12  C17 UNL     1      -0.079   1.450   0.293  1.00  0.00     0.113 A 
ENDROOT
BRANCH   4  13
HETATM   13  C6  UNL     1      -3.953   3.199   0.317  1.00  0.00     0.040 A 
HETATM   14  C7  UNL     1      -4.157   4.555   0.420  1.00  0.00     0.122 A 
HETATM   15  N4  UNL     1      -5.402   5.094   0.431  1.00  0.00    -0.201 N 
HETATM   16  C8  UNL     1      -6.483   4.298   0.341  1.00  0.00     0.675 A 
ATOM     17  H4  UNL     1      -5.519   6.104   0.508  1.00  0.00     0.183 HD
HETATM   18  N6  UNL     1      -6.290   2.982   0.240  1.00  0.00    -0.201 N 
HETATM   19  C9  UNL     1      -5.080   2.411   0.225  1.00  0.00     0.122 A 
ATOM     20  H6  UNL     1      -7.109   2.378   0.170  1.00  0.00     0.183 HD
BRANCH  16  21
HETATM   21  N5  UNL     1      -7.673   4.814   0.356  1.00  0.00    -0.234 N 
ATOM     22  H52 UNL     1      -7.821   5.820   0.433  1.00  0.00     0.174 HD
ATOM     23  H51 UNL     1      -8.493   4.211   0.288  1.00  0.00     0.174 HD
ENDBRANCH  16  21
ENDBRANCH   4  13
BRANCH   1  24
HETATM   24  N2  UNL     1      -1.218  -0.744   0.046  1.00  0.00    -0.362 N 
HETATM   25  C3  UNL     1      -0.672  -1.324  -1.138  1.00  0.00     0.154 C 
HETATM   26  C2  UNL     1       0.053  -2.622  -0.874  1.00  0.00     0.291 C 
HETATM   27  N1  UNL     1      -0.656  -3.530  -0.041  1.00  0.00     0.087 N 
HETATM   28  C1  UNL     1      -0.832  -4.800  -0.692  1.00  0.00     0.310 C 
HETATM   29  C19 UNL     1      -1.897  -3.033   0.500  1.00  0.00     0.291 C 
HETATM   30  C18 UNL     1      -1.714  -1.642   1.068  1.00  0.00     0.154 C 
ENDBRANCH   1  24
BRANCH   9  31
HETATM   31  N8  UNL     1       3.445   1.644   0.460  1.00  0.00    -0.364 N 
ATOM     32  H8  UNL     1       4.062   2.448   0.574  1.00  0.00     0.162 HD
BRANCH  31  33
HETATM   33  C12 UNL     1       4.055   0.341   0.362  1.00  0.00     0.109 C 
HETATM   34  C13 UNL     1       3.968  -0.173  -1.038  1.00  0.00     0.028 C 
HETATM   35  C14 UNL     1       5.210  -0.995  -1.323  1.00  0.00     0.029 C 
HETATM   36  C15 UNL     1       5.478  -1.820  -0.077  1.00  0.00     0.232 C 
HETATM   37  N9  UNL     1       5.965  -0.966   0.999  1.00  0.00    -0.073 N 
HETATM   38  C16 UNL     1       5.508   0.388   0.820  1.00  0.00     0.257 C 
ATOM     39  H92 UNL     1       5.712  -1.332   1.917  1.00  0.00     0.277 HD
ATOM     40  H91 UNL     1       6.980  -1.014   1.090  1.00  0.00     0.277 HD
ENDBRANCH  31  33
ENDBRANCH   9  31
TORSDOF 5
