REMARK  10 active torsions:
REMARK  status: ('A' for Active; 'I' for Inactive)
REMARK    1  A    between atoms: S1_2  and  C2_3 
REMARK       I    between atoms: C2_3  and  N1_5 
REMARK    2  A    between atoms: N1_5  and  C3_7 
REMARK    3  A    between atoms: C11_16  and  C12_17 
REMARK    4  A    between atoms: C12_17  and  O2_18 
REMARK    5  A    between atoms: C12_17  and  N2_20 
REMARK    6  A    between atoms: N2_20  and  C13_22 
REMARK    7  A    between atoms: C13_22  and  C14_23 
REMARK       I    between atoms: C14_23  and  N3_25 
REMARK    8  A    between atoms: N3_25  and  C15_27 
REMARK    9  A    between atoms: C15_27  and  C16_28 
REMARK   10  A    between atoms: C19_31  and  O4_32 
ROOT
HETATM    1  C3  UNL     1      -2.573   0.954  -0.985  1.00  0.00     0.119 C 
HETATM    2  C4  UNL     1      -3.322  -0.216  -0.470  1.00  0.00     0.028 C 
HETATM    3  C5  UNL     1      -3.013  -0.709   0.880  1.00  0.00     0.002 C 
HETATM    4  C6  UNL     1      -3.415  -2.116   1.185  1.00  0.00     0.000 C 
HETATM    5  C7  UNL     1      -3.721  -3.010   0.056  1.00  0.00     0.000 C 
HETATM    6  C8  UNL     1      -2.697  -3.524  -0.833  1.00  0.00     0.001 C 
HETATM    7  C9  UNL     1      -1.260  -3.333  -0.509  1.00  0.00     0.010 C 
HETATM    8  C10 UNL     1      -0.446  -2.829  -1.702  1.00  0.00     0.079 C 
HETATM    9  S2  UNL     1      -1.138  -1.399  -2.481  1.00  0.00    -0.127 SA
HETATM   10  C11 UNL     1      -0.396   0.177  -2.023  1.00  0.00     0.059 C 
HETATM   11  C19 UNL     1      -1.076   0.928  -0.937  1.00  0.00     0.184 C 
ENDROOT
BRANCH  10  12
HETATM   12  C12 UNL     1       1.085   0.174  -2.097  1.00  0.00     0.151 C 
BRANCH  12  13
HETATM   13  O2  UNL     1       1.557  -0.066  -3.405  1.00  0.00    -0.345 OA
ATOM     14  H2  UNL     1       2.506  -0.068  -3.452  1.00  0.00     0.219 HD
ENDBRANCH  12  13
BRANCH  12  15
HETATM   15  N2  UNL     1       1.883   1.137  -1.495  1.00  0.00    -0.361 N 
ATOM     16  H2  UNL     1       2.325   1.816  -2.115  1.00  0.00     0.162 HD
BRANCH  15  17
HETATM   17  C13 UNL     1       2.142   1.273  -0.147  1.00  0.00     0.224 C 
BRANCH  17  18
HETATM   18  C14 UNL     1       3.112   0.165   0.314  1.00  0.00     0.238 C 
HETATM   19  O3  UNL     1       3.478  -0.594  -0.590  1.00  0.00    -0.271 OA
HETATM   20  N3  UNL     1       3.484   0.105   1.645  1.00  0.00    -0.339 N 
ATOM     21  H3  UNL     1       3.047   0.817   2.231  1.00  0.00     0.167 HD
BRANCH  20  22
HETATM   22  C15 UNL     1       4.351  -0.753   2.340  1.00  0.00     0.068 C 
BRANCH  22  23
HETATM   23  C16 UNL     1       5.791  -0.667   2.045  1.00  0.00     0.016 C 
HETATM   24  C17 UNL     1       6.234  -0.974   0.669  1.00  0.00     0.015 C 
HETATM   25  C18 UNL     1       6.267   0.748   2.447  1.00  0.00     0.015 C 
ENDBRANCH  22  23
ENDBRANCH  20  22
ENDBRANCH  17  18
ENDBRANCH  15  17
ENDBRANCH  12  15
ENDBRANCH  10  12
BRANCH  11  26
HETATM   26  O4  UNL     1      -0.603   2.274  -1.008  1.00  0.00    -0.388 OA
ATOM     27  H4  UNL     1       0.346   2.258  -0.978  1.00  0.00     0.210 HD
ENDBRANCH  11  26
BRANCH   1  28
HETATM   28  N1  UNL     1      -3.116   2.139  -0.337  1.00  0.00    -0.344 N 
HETATM   29  C2  UNL     1      -3.736   3.197  -1.014  1.00  0.00     0.279 C 
HETATM   30  O1  UNL     1      -3.848   3.149  -2.259  1.00  0.00    -0.260 OA
ATOM     31  H1  UNL     1      -3.040   2.203   0.678  1.00  0.00     0.163 HD
BRANCH  29  32
HETATM   32  S1  UNL     1      -4.363   4.600  -0.134  1.00  0.00    -0.074 SA
HETATM   33  C1  UNL     1      -5.039   5.855  -1.232  1.00  0.00     0.100 C 
ENDBRANCH  29  32
ENDBRANCH   1  28
TORSDOF 10
