REMARK  13 active torsions:
REMARK  status: ('A' for Active; 'I' for Inactive)
REMARK    1  A    between atoms: C2_2  and  C5_5 
REMARK    2  A    between atoms: C5_5  and  N1_6 
REMARK    3  A    between atoms: C5_5  and  C12_17 
REMARK       I    between atoms: N1_6  and  C6_8 
REMARK       I    between atoms: C6_8  and  N2_10 
REMARK    4  A    between atoms: N2_10  and  C7_12 
REMARK       I    between atoms: C12_17  and  N3_19 
REMARK    5  A    between atoms: N3_19  and  C13_20 
REMARK    6  A    between atoms: C13_20  and  C14_21 
REMARK    7  A    between atoms: C13_20  and  C18_29 
REMARK    8  A    between atoms: C14_21  and  C15_22 
REMARK    9  A    between atoms: C18_29  and  O3_30 
REMARK   10  A    between atoms: C18_29  and  N6_32 
REMARK   11  A    between atoms: C23_37  and  C24_38 
REMARK   12  A    between atoms: C24_38  and  C25_40 
REMARK   13  A    between atoms: C25_40  and  C26_41 
ROOT
HETATM    1  C13 UNL     1      -0.480   1.257  -0.236  1.00  0.00     0.144 C 
ENDROOT
BRANCH   1   2
HETATM    2  N3  UNL     1       0.914   1.047  -0.048  1.00  0.00    -0.369 NA
HETATM    3  C12 UNL     1       2.211   0.852   0.127  1.00  0.00     0.315 C 
HETATM    4  O2  UNL     1       2.923   1.417   1.047  1.00  0.00    -0.255 OA
BRANCH   3   5
HETATM    5  C5  UNL     1       3.104  -0.060  -0.700  1.00  0.00     0.201 C 
BRANCH   5   6
HETATM    6  C2  UNL     1       3.714   0.765  -1.827  1.00  0.00    -0.021 C 
HETATM    7  C1  UNL     1       2.672   1.339  -2.737  1.00  0.00     0.017 C 
HETATM    8  C3  UNL     1       4.464   1.964  -1.240  1.00  0.00     0.017 C 
HETATM    9  C4  UNL     1       4.681  -0.007  -2.655  1.00  0.00     0.017 C 
ENDBRANCH   5   6
BRANCH   5  10
HETATM   10  N1  UNL     1       4.153  -0.604   0.127  1.00  0.00    -0.328 N 
HETATM   11  C6  UNL     1       4.722  -1.877   0.083  1.00  0.00     0.317 C 
HETATM   12  O1  UNL     1       4.325  -2.718  -0.755  1.00  0.00    -0.247 OA
HETATM   13  N2  UNL     1       5.748  -2.240   0.961  1.00  0.00    -0.339 N 
ATOM     14  H2  UNL     1       6.035  -1.559   1.664  1.00  0.00     0.164 HD
ATOM     15  H1  UNL     1       4.528   0.025   0.837  1.00  0.00     0.165 HD
BRANCH  13  16
HETATM   16  C7  UNL     1       6.434  -3.524   0.939  1.00  0.00     0.086 C 
HETATM   17  C8  UNL     1       6.196  -4.265   2.203  1.00  0.00     0.025 C 
HETATM   18  C9  UNL     1       7.350  -5.278   2.197  1.00  0.00     0.002 C 
HETATM   19  C10 UNL     1       8.476  -4.601   1.445  1.00  0.00     0.002 C 
HETATM   20  C11 UNL     1       7.935  -3.321   0.906  1.00  0.00     0.025 C 
ENDBRANCH  13  16
ENDBRANCH   5  10
ENDBRANCH   3   5
ENDBRANCH   1   2
BRANCH   1  21
HETATM   21  C14 UNL     1      -0.893   2.036  -1.420  1.00  0.00     0.136 C 
BRANCH  21  22
HETATM   22  C15 UNL     1      -0.409   3.414  -1.519  1.00  0.00     0.032 A 
HETATM   23  C16 UNL     1      -0.704   4.235  -2.591  1.00  0.00     0.114 A 
HETATM   24  N4  UNL     1      -0.095   5.416  -2.371  1.00  0.00    -0.360 N 
HETATM   25  C17 UNL     1       0.565   5.361  -1.206  1.00  0.00     0.180 A 
ATOM     26  H4  UNL     1      -0.131   6.224  -2.992  1.00  0.00     0.166 HD
HETATM   27  N5  UNL     1       0.357   4.134  -0.709  1.00  0.00    -0.354 N 
ATOM     28  H5  UNL     1       0.737   3.798   0.176  1.00  0.00     0.166 HD
ENDBRANCH  21  22
ENDBRANCH   1  21
BRANCH   1  29
HETATM   29  C18 UNL     1      -1.189   1.523   1.028  1.00  0.00     0.176 C 
BRANCH  29  30
HETATM   30  O3  UNL     1      -0.346   1.531   2.050  1.00  0.00    -0.344 OA
ATOM     31  H3  UNL     1      -0.803   1.702   2.865  1.00  0.00     0.219 HD
ENDBRANCH  29  30
BRANCH  29  32
HETATM   32  N6  UNL     1      -2.491   1.757   1.392  1.00  0.00    -0.348 N 
HETATM   33  C19 UNL     1      -2.730   1.998   2.854  1.00  0.00     0.126 C 
HETATM   34  C20 UNL     1      -3.208   3.382   3.123  1.00  0.00     0.020 C 
HETATM   35  C21 UNL     1      -4.114   3.800   1.958  1.00  0.00     0.004 C 
HETATM   36  C22 UNL     1      -4.762   2.511   1.504  1.00  0.00     0.033 C 
HETATM   37  C23 UNL     1      -3.701   1.795   0.625  1.00  0.00     0.156 C 
BRANCH  37  38
HETATM   38  C24 UNL     1      -4.229   0.456   0.259  1.00  0.00     0.149 C 
HETATM   39  O4  UNL     1      -3.439  -0.471   0.131  1.00  0.00    -0.296 OA
BRANCH  38  40
HETATM   40  C25 UNL     1      -5.658   0.263   0.068  1.00  0.00     0.085 C 
BRANCH  40  41
HETATM   41  C26 UNL     1      -6.107  -1.088  -0.384  1.00  0.00    -0.007 C 
HETATM   42  C27 UNL     1      -5.752  -2.232   0.507  1.00  0.00     0.005 C 
HETATM   43  C28 UNL     1      -6.300  -3.520  -0.105  1.00  0.00     0.000 C 
HETATM   44  C29 UNL     1      -7.355  -3.253  -1.127  1.00  0.00     0.000 C 
HETATM   45  C30 UNL     1      -6.887  -2.393  -2.275  1.00  0.00     0.000 C 
HETATM   46  C31 UNL     1      -5.828  -1.395  -1.826  1.00  0.00     0.005 C 
ENDBRANCH  40  41
ENDBRANCH  38  40
ENDBRANCH  37  38
ENDBRANCH  29  32
ENDBRANCH   1  29
TORSDOF 13
