REMARK  15 active torsions:
REMARK  status: ('A' for Active; 'I' for Inactive)
REMARK    1  A    between atoms: C2_2  and  C3_3 
REMARK    2  A    between atoms: C3_3  and  N1_5 
REMARK       I    between atoms: N1_5  and  C5_7 
REMARK       I    between atoms: C5_7  and  N2_9 
REMARK    3  A    between atoms: N2_9  and  C6_10 
REMARK    4  A    between atoms: C7_11  and  C8_12 
REMARK    5  A    between atoms: C12_16  and  C13_17 
REMARK       I    between atoms: C13_17  and  N3_19 
REMARK    6  A    between atoms: N3_19  and  C14_21 
REMARK    7  A    between atoms: C14_21  and  O3_24 
REMARK    8  A    between atoms: C17_26  and  N4_27 
REMARK       I    between atoms: N4_27  and  C18_29 
REMARK    9  A    between atoms: C18_29  and  C19_31 
REMARK   10  A    between atoms: C19_31  and  C20_32 
REMARK   11  A    between atoms: C20_32  and  C21_33 
REMARK   12  A    between atoms: C21_33  and  C22_34 
REMARK   13  A    between atoms: C22_34  and  C23_35 
REMARK   14  A    between atoms: C23_35  and  O5_36 
REMARK   15  A    between atoms: N6_40  and  C25_41 
ROOT
HETATM    1  C6  UNL     1      -1.174  -0.760   0.604  1.00  0.00     0.214 A 
HETATM    2  C7  UNL     1      -0.490  -1.976   0.247  1.00  0.00     0.029 A 
HETATM    3  C12 UNL     1       0.614  -1.847  -0.516  1.00  0.00     0.089 A 
HETATM    4  C17 UNL     1       1.078  -0.571  -0.954  1.00  0.00     0.139 A 
HETATM    5  N5  UNL     1       0.407   0.504  -0.597  1.00  0.00    -0.276 N 
ATOM      6  H5  UNL     1       0.742   1.414  -0.914  1.00  0.00     0.189 HD
HETATM    7  N6  UNL     1      -0.699   0.459   0.165  1.00  0.00    -0.234 N 
ENDROOT
BRANCH   4   8
HETATM    8  N4  UNL     1       2.136  -0.519  -1.689  1.00  0.00    -0.311 N 
HETATM    9  C18 UNL     1       2.761   0.596  -2.222  1.00  0.00     0.223 C 
HETATM   10  O4  UNL     1       2.146   1.477  -2.851  1.00  0.00    -0.273 OA
ATOM     11  H4  UNL     1       2.569  -1.416  -1.906  1.00  0.00     0.170 HD
BRANCH   9  12
HETATM   12  C19 UNL     1       4.272   0.831  -2.079  1.00  0.00     0.103 C 
BRANCH  12  13
HETATM   13  C20 UNL     1       4.545   2.271  -2.202  1.00  0.00     0.009 C 
BRANCH  13  14
HETATM   14  C21 UNL     1       5.907   2.775  -2.226  1.00  0.00     0.002 C 
BRANCH  14  15
HETATM   15  C22 UNL     1       6.855   2.489  -1.142  1.00  0.00     0.026 C 
BRANCH  15  16
HETATM   16  C23 UNL     1       7.327   1.084  -1.025  1.00  0.00     0.167 C 
BRANCH  16  17
HETATM   17  O5  UNL     1       8.226   1.084   0.092  1.00  0.00    -0.396 OA
HETATM   18  C24 UNL     1       8.705  -0.227   0.210  1.00  0.00     0.201 C 
ENDBRANCH  16  17
ENDBRANCH  15  16
ENDBRANCH  14  15
ENDBRANCH  13  14
ENDBRANCH  12  13
ENDBRANCH   9  12
ENDBRANCH   4   8
BRANCH   3  19
HETATM   19  C13 UNL     1       1.517  -2.916  -0.876  1.00  0.00     0.258 C 
HETATM   20  O2  UNL     1       2.087  -3.553   0.004  1.00  0.00    -0.267 OA
HETATM   21  N3  UNL     1       1.770  -3.259  -2.226  1.00  0.00    -0.326 N 
ATOM     22  H3  UNL     1       1.286  -2.711  -2.937  1.00  0.00     0.165 HD
BRANCH  21  23
HETATM   23  C14 UNL     1       2.627  -4.287  -2.688  1.00  0.00     0.126 C 
HETATM   24  C15 UNL     1       2.633  -4.327  -4.220  1.00  0.00     0.070 C 
HETATM   25  C16 UNL     1       4.030  -4.285  -2.222  1.00  0.00     0.070 C 
BRANCH  23  26
HETATM   26  O3  UNL     1       2.069  -5.542  -2.328  1.00  0.00    -0.372 OA
ATOM     27  H3  UNL     1       2.644  -6.232  -2.638  1.00  0.00     0.212 HD
ENDBRANCH  23  26
ENDBRANCH  21  23
ENDBRANCH   3  19
BRANCH   2  28
HETATM   28  C8  UNL     1      -1.082  -3.216   0.675  1.00  0.00    -0.018 C 
HETATM   29  C9  UNL     1      -1.149  -3.246   2.210  1.00  0.00     0.019 C 
HETATM   30  C10 UNL     1      -0.581  -4.539   0.279  1.00  0.00     0.019 C 
HETATM   31  C11 UNL     1      -2.552  -3.250   0.139  1.00  0.00     0.019 C 
ENDBRANCH   2  28
BRANCH   7  32
HETATM   32  C25 UNL     1      -1.323   1.691   0.490  1.00  0.00     0.015 C 
HETATM   33  C26 UNL     1      -2.566   2.077  -0.262  1.00  0.00     0.055 C 
HETATM   34  C27 UNL     1      -2.528   3.622  -0.365  1.00  0.00     0.014 C 
HETATM   35  C28 UNL     1      -2.307   4.295   0.939  1.00  0.00    -0.047 C 
HETATM   36  C29 UNL     1      -3.594   4.510   1.718  1.00  0.00     0.015 C 
HETATM   37  C30 UNL     1      -1.799   5.710   0.617  1.00  0.00     0.015 C 
HETATM   38  C31 UNL     1      -1.272   3.687   1.837  1.00  0.00     0.014 C 
HETATM   39  C32 UNL     1      -1.488   2.133   1.891  1.00  0.00     0.055 C 
ENDBRANCH   7  32
BRANCH   1  40
HETATM   40  N2  UNL     1      -2.144  -0.701   1.306  1.00  0.00    -0.331 NA
HETATM   41  C5  UNL     1      -3.224  -0.667   2.091  1.00  0.00     0.396 C 
HETATM   42  N1  UNL     1      -4.566  -0.609   1.504  1.00  0.00    -0.327 N 
HETATM   43  O1  UNL     1      -3.223  -0.675   3.382  1.00  0.00    -0.230 OA
ATOM     44  H1  UNL     1      -4.648  -0.600   0.487  1.00  0.00     0.165 HD
BRANCH  42  45
HETATM   45  C3  UNL     1      -5.760  -0.565   2.275  1.00  0.00     0.082 C 
HETATM   46  C4  UNL     1      -6.647  -1.778   2.049  1.00  0.00     0.032 C 
BRANCH  45  47
HETATM   47  C2  UNL     1      -6.598   0.670   1.973  1.00  0.00     0.020 C 
HETATM   48  C1  UNL     1      -7.811   0.749   2.874  1.00  0.00     0.007 C 
ENDBRANCH  45  47
ENDBRANCH  42  45
ENDBRANCH   1  40
TORSDOF 15
