REMARK  6 active torsions:
REMARK  status: ('A' for Active; 'I' for Inactive)
REMARK    1  A    between atoms: C8_10  and  C9_11 
REMARK    2  A    between atoms: N2_19  and  C17_20 
REMARK    3  A    between atoms: C17_20  and  C18_21 
REMARK    4  A    between atoms: C22_25  and  N3_26 
REMARK    5  A    between atoms: N3_26  and  C23_28 
REMARK    6  A    between atoms: C24_31  and  C25_32 
ROOT
HETATM    1  C1  UNL     1      -6.017  -0.076   3.618  1.00  0.00     0.018 C 
HETATM    2  C2  UNL     1      -5.587  -0.894   2.836  1.00  0.00    -0.075 C 
HETATM    3  C3  UNL     1      -5.073  -1.875   1.928  1.00  0.00     0.044 A 
HETATM    4  C4  UNL     1      -5.399  -3.204   1.797  1.00  0.00     0.110 A 
HETATM    5  N1  UNL     1      -4.655  -3.731   0.808  1.00  0.00    -0.364 N 
ATOM      6  H1  UNL     1      -4.697  -4.703   0.502  1.00  0.00     0.165 HD
HETATM    7  C5  UNL     1      -3.846  -2.791   0.278  1.00  0.00     0.043 A 
HETATM    8  C6  UNL     1      -2.909  -2.807  -0.734  1.00  0.00     0.031 A 
HETATM    9  C7  UNL     1      -2.199  -1.671  -1.087  1.00  0.00     0.012 A 
HETATM   10  C8  UNL     1      -2.454  -0.513  -0.394  1.00  0.00    -0.020 A 
HETATM   11  C29 UNL     1      -3.387  -0.507   0.612  1.00  0.00     0.025 A 
HETATM   12  C30 UNL     1      -4.105  -1.632   0.976  1.00  0.00     0.011 A 
ENDROOT
BRANCH  10  13
HETATM   13  C9  UNL     1      -1.747   0.779  -0.685  1.00  0.00     0.290 C 
HETATM   14  C10 UNL     1      -2.761   1.726  -1.275  1.00  0.00    -0.013 A 
HETATM   15  C11 UNL     1      -3.650   1.611  -2.307  1.00  0.00     0.010 A 
HETATM   16  C15 UNL     1      -2.670   2.896  -0.537  1.00  0.00    -0.021 A 
HETATM   17  C12 UNL     1      -4.496   2.671  -2.651  1.00  0.00     0.001 A 
HETATM   18  C13 UNL     1      -4.380   3.810  -1.902  1.00  0.00     0.001 A 
HETATM   19  C14 UNL     1      -3.488   3.938  -0.860  1.00  0.00     0.009 A 
HETATM   20  C16 UNL     1      -1.616   2.747   0.530  1.00  0.00     0.313 C 
HETATM   21  N2  UNL     1      -1.367   1.347   0.564  1.00  0.00     0.110 N 
BRANCH  21  22
HETATM   22  C17 UNL     1      -0.154   0.910   1.139  1.00  0.00     0.312 C 
BRANCH  22  23
HETATM   23  C18 UNL     1       1.068   1.151   0.317  1.00  0.00    -0.028 A 
HETATM   24  C19 UNL     1       1.751   2.330   0.489  1.00  0.00     0.009 A 
HETATM   25  C20 UNL     1       2.886   2.628  -0.228  1.00  0.00     0.003 A 
HETATM   26  C21 UNL     1       3.345   1.703  -1.148  1.00  0.00     0.029 A 
HETATM   27  C22 UNL     1       2.656   0.507  -1.325  1.00  0.00     0.034 A 
HETATM   28  C28 UNL     1       1.529   0.241  -0.595  1.00  0.00     0.038 A 
BRANCH  27  29
HETATM   29  N3  UNL     1       3.102  -0.459  -2.259  1.00  0.00    -0.337 N 
ATOM     30  H3  UNL     1       2.625  -0.597  -3.150  1.00  0.00     0.168 HD
BRANCH  29  31
HETATM   31  C23 UNL     1       4.158  -1.171  -1.929  1.00  0.00     0.149 A 
HETATM   32  N4  UNL     1       4.885  -1.113  -0.818  1.00  0.00    -0.333 N 
HETATM   33  C24 UNL     1       5.902  -1.916  -0.689  1.00  0.00     0.086 A 
ATOM     34  H4  UNL     1       4.650  -0.451  -0.079  1.00  0.00     0.168 HD
HETATM   35  C27 UNL     1       6.164  -2.783  -1.719  1.00  0.00     0.086 A 
HETATM   36  S1  UNL     1       4.928  -2.399  -2.830  1.00  0.00    -0.063 SA
BRANCH  33  37
HETATM   37  C25 UNL     1       6.780  -1.928   0.519  1.00  0.00     0.148 A 
HETATM   38  N5  UNL     1       6.676  -1.155   1.620  1.00  0.00    -0.335 N 
HETATM   39  C26 UNL     1       7.665  -1.487   2.469  1.00  0.00     0.199 A 
ATOM     40  H5  UNL     1       5.967  -0.440   1.781  1.00  0.00     0.168 HD
HETATM   41  N6  UNL     1       8.387  -2.459   1.913  1.00  0.00    -0.294 N 
HETATM   42  N7  UNL     1       7.844  -2.705   0.757  1.00  0.00    -0.283 N 
ATOM     43  H6  UNL     1       9.204  -2.919   2.314  1.00  0.00     0.187 HD
ATOM     44  H7  UNL     1       8.190  -3.410   0.106  1.00  0.00     0.188 HD
ENDBRANCH  33  37
ENDBRANCH  29  31
ENDBRANCH  27  29
ENDBRANCH  22  23
ENDBRANCH  21  22
ENDBRANCH  10  13
TORSDOF 6
