REMARK  5 active torsions:
REMARK  status: ('A' for Active; 'I' for Inactive)
REMARK    1  A    between atoms: N1_1  and  C1_5 
REMARK    2  A    between atoms: C1_5  and  C2_6 
REMARK    3  A    between atoms: C2_6  and  N2_7 
REMARK    4  A    between atoms: C2_6  and  C3_11 
REMARK    5  A    between atoms: C3_11  and  C4_12 
ROOT
HETATM    1  C2  UNL     1       1.777  -0.619  -0.197  1.00  0.00     0.209 C 
ENDROOT
BRANCH   1   2
HETATM    2  C1  UNL     1       2.263   0.621   0.515  1.00  0.00     0.262 C 
BRANCH   2   3
HETATM    3  N1  UNL     1       3.274   0.139   1.469  1.00  0.00    -0.077 N 
ATOM      4  H13 UNL     1       2.936  -0.592   2.095  1.00  0.00     0.274 HD
ATOM      5  H12 UNL     1       4.019  -0.410   1.040  1.00  0.00     0.274 HD
ATOM      6  H11 UNL     1       3.602   0.976   1.950  1.00  0.00     0.274 HD
ENDBRANCH   2   3
ENDBRANCH   1   2
BRANCH   1   7
HETATM    7  N2  UNL     1       2.878  -1.293  -0.879  1.00  0.00    -0.073 N 
ATOM      8  H23 UNL     1       3.371  -0.663  -1.512  1.00  0.00     0.274 HD
ATOM      9  H22 UNL     1       3.646  -1.501  -0.240  1.00  0.00     0.274 HD
ATOM     10  H21 UNL     1       2.550  -2.130  -1.360  1.00  0.00     0.274 HD
ENDBRANCH   1   7
BRANCH   1  11
HETATM   11  C3  UNL     1       0.679  -0.262  -1.144  1.00  0.00     0.040 C 
BRANCH  11  12
HETATM   12  C4  UNL     1      -0.468   0.343  -0.412  1.00  0.00     0.013 C 
HETATM   13  C5  UNL     1      -0.995  -0.649   0.618  1.00  0.00     0.008 C 
HETATM   14  C6  UNL     1      -2.479  -0.583   0.777  1.00  0.00     0.028 C 
HETATM   15  C7  UNL     1      -3.058   0.785   0.593  1.00  0.00     0.232 C 
HETATM   16  N3  UNL     1      -2.556   1.463  -0.580  1.00  0.00    -0.075 N 
HETATM   17  C8  UNL     1      -1.663   0.581  -1.347  1.00  0.00     0.237 C 
ATOM     18  H32 UNL     1      -3.312   1.830  -1.157  1.00  0.00     0.277 HD
ATOM     19  H31 UNL     1      -2.103   2.345  -0.342  1.00  0.00     0.277 HD
ENDBRANCH  11  12
ENDBRANCH   1  11
TORSDOF 5
