REMARK  9 active torsions:
REMARK  status: ('A' for Active; 'I' for Inactive)
REMARK       I    between atoms: C1_4  and  N3_6 
REMARK       I    between atoms: N3_6  and  C2_8 
REMARK       I    between atoms: C2_8  and  N4_10 
REMARK    1  A    between atoms: N4_10  and  C3_12 
REMARK    2  A    between atoms: C3_12  and  O2_13 
REMARK    3  A    between atoms: C3_12  and  C4_15 
REMARK    4  A    between atoms: C4_15  and  O3_16 
REMARK    5  A    between atoms: C4_15  and  C5_18 
REMARK    6  A    between atoms: C6_22  and  C7_23 
REMARK    7  A    between atoms: C7_23  and  O6_25 
REMARK    8  A    between atoms: O6_25  and  S1_26 
REMARK    9  A    between atoms: C8_30  and  O10_31 
ROOT
HETATM    1  C4  UNL     1       0.162  -0.797   0.185  1.00  0.00     0.228 C 
ENDROOT
BRANCH   1   2
HETATM    2  C3  UNL     1       1.303  -0.195   0.949  1.00  0.00     0.257 C 
BRANCH   2   3
HETATM    3  N4  UNL     1       2.544  -0.891   0.793  1.00  0.00    -0.314 N 
HETATM    4  C2  UNL     1       3.740  -0.293   0.350  1.00  0.00     0.324 C 
HETATM    5  N3  UNL     1       4.941  -1.030   0.213  1.00  0.00    -0.283 N 
HETATM    6  O1  UNL     1       3.752   0.925   0.067  1.00  0.00    -0.247 OA
HETATM    7  C1  UNL     1       6.157  -0.440  -0.232  1.00  0.00     0.189 C 
ATOM      8  H3  UNL     1       4.934  -2.024   0.442  1.00  0.00     0.173 HD
HETATM    9  N1  UNL     1       7.226  -1.141  -0.344  1.00  0.00    -0.373 N 
HETATM   10  N2  UNL     1       6.216   0.959  -0.565  1.00  0.00    -0.064 NA
ATOM     11  H12 UNL     1       8.098  -0.718  -0.663  1.00  0.00     0.158 HD
ATOM     12  H11 UNL     1       7.184  -2.132  -0.108  1.00  0.00     0.158 HD
ATOM     13  H4  UNL     1       2.564  -1.886   1.017  1.00  0.00     0.167 HD
ENDBRANCH   2   3
BRANCH   2  14
HETATM   14  O2  UNL     1       0.984  -0.274   2.324  1.00  0.00    -0.374 OA
ATOM     15  H2  UNL     1       0.160   0.188   2.428  1.00  0.00     0.212 HD
ENDBRANCH   2  14
ENDBRANCH   1   2
BRANCH   1  16
HETATM   16  O3  UNL     1       0.414  -0.820  -1.193  1.00  0.00    -0.384 OA
ATOM     17  H3  UNL     1      -0.309  -1.201  -1.677  1.00  0.00     0.210 HD
ENDBRANCH   1  16
BRANCH   1  18
HETATM   18  C5  UNL     1      -1.048   0.020   0.391  1.00  0.00     0.144 A 
HETATM   19  O4  UNL     1      -1.121   1.135   1.061  1.00  0.00    -0.236 OA
HETATM   20  N5  UNL     1      -2.324   1.605   1.055  1.00  0.00    -0.252 N 
HETATM   21  C6  UNL     1      -3.121   0.763   0.340  1.00  0.00     0.166 A 
ATOM     22  H5  UNL     1      -2.627   2.466   1.511  1.00  0.00     0.195 HD
HETATM   23  C8  UNL     1      -2.310  -0.256  -0.089  1.00  0.00     0.135 A 
BRANCH  21  24
HETATM   24  C7  UNL     1      -4.545   0.990   0.132  1.00  0.00     0.331 C 
HETATM   25  O5  UNL     1      -5.111   2.015   0.624  1.00  0.00    -0.256 OA
BRANCH  24  26
HETATM   26  O6  UNL     1      -5.361   0.146  -0.586  1.00  0.00    -0.171 OA
BRANCH  26  27
HETATM   27  S1  UNL     1      -7.004   0.368  -0.849  1.00  0.00     0.259 S 
HETATM   28  O7  UNL     1      -7.777  -0.703  -0.109  1.00  0.00    -0.572 OA
HETATM   29  O8  UNL     1      -7.287   0.162  -2.323  1.00  0.00    -0.572 OA
HETATM   30  O9  UNL     1      -7.549   1.875  -0.430  1.00  0.00    -0.572 OA
ENDBRANCH  26  27
ENDBRANCH  24  26
ENDBRANCH  21  24
BRANCH  23  31
HETATM   31  O10 UNL     1      -2.707  -1.349  -0.861  1.00  0.00    -0.356 OA
ATOM     32  H10 UNL     1      -3.577  -1.539  -1.192  1.00  0.00     0.218 HD
ENDBRANCH  23  31
ENDBRANCH   1  18
TORSDOF 9
