REMARK  7 active torsions:
REMARK  status: ('A' for Active; 'I' for Inactive)
REMARK    1  A    between atoms: N1_1  and  N2_4 
REMARK    2  A    between atoms: C4_9  and  C5_10 
REMARK    3  A    between atoms: N4_12  and  O1_14 
REMARK    4  A    between atoms: N5_16  and  O2_17 
REMARK    5  A    between atoms: C7_21  and  O4_22 
REMARK    6  A    between atoms: N6_26  and  N7_27 
REMARK       I    between atoms: N7_27  and  C9_29 
REMARK       I    between atoms: C9_29  and  N8_31 
REMARK    7  A    between atoms: N8_31  and  N9_33 
ROOT
HETATM    1  N2  UNL     1       1.220  -2.257  -0.926  1.00  0.00    -0.290 N 
ATOM      2  H2  UNL     1       0.563  -2.736  -1.542  1.00  0.00     0.188 HD
HETATM    3  C1  UNL     1       0.660  -1.287  -0.414  1.00  0.00     0.159 A 
HETATM    4  C2  UNL     1      -0.749  -0.937  -0.721  1.00  0.00     0.068 A 
HETATM    5  C3  UNL     1      -1.124   0.156   0.058  1.00  0.00     0.084 A 
HETATM    6  C4  UNL     1      -2.409   0.624  -0.114  1.00  0.00     0.126 A 
HETATM    7  N5  UNL     1      -3.253   0.037  -1.011  1.00  0.00    -0.181 N 
HETATM    8  C6  UNL     1      -2.917  -1.002  -1.766  1.00  0.00     0.306 A 
HETATM    9  O3  UNL     1      -3.738  -1.495  -2.572  1.00  0.00    -0.263 OA
HETATM   10  C7  UNL     1      -1.610  -1.502  -1.607  1.00  0.00     0.151 A 
HETATM   11  C8  UNL     1       0.018   0.521   0.861  1.00  0.00     0.282 A 
HETATM   12  O5  UNL     1       0.108   1.435   1.682  1.00  0.00    -0.265 OA
HETATM   13  N6  UNL     1       1.118  -0.385   0.556  1.00  0.00    -0.197 N 
ENDROOT
BRANCH  13  14
HETATM   14  N7  UNL     1       2.371  -0.319   1.180  1.00  0.00    -0.239 N 
HETATM   15  C9  UNL     1       3.575   0.094   0.558  1.00  0.00     0.358 C 
HETATM   16  O6  UNL     1       3.551   0.435  -0.651  1.00  0.00    -0.244 OA
HETATM   17  N8  UNL     1       4.799   0.132   1.259  1.00  0.00    -0.190 N 
ATOM     18  H8  UNL     1       4.833  -0.143   2.241  1.00  0.00     0.198 HD
ATOM     19  H7  UNL     1       2.420  -0.590   2.162  1.00  0.00     0.192 HD
BRANCH  17  20
HETATM   20  N9  UNL     1       5.956   0.544   0.613  1.00  0.00    -0.035 N 
HETATM   21  O7  UNL     1       7.008   0.699   1.308  1.00  0.00    -0.516 OA
HETATM   22  O8  UNL     1       5.988   0.782  -0.743  1.00  0.00    -0.516 OA
ENDBRANCH  17  20
ENDBRANCH  13  14
BRANCH   1  23
HETATM   23  N1  UNL     1       2.389  -2.895  -0.951  1.00  0.00    -0.344 N 
ATOM     24  H12 UNL     1       3.025  -2.397  -0.328  1.00  0.00     0.176 HD
ATOM     25  H11 UNL     1       2.853  -3.698  -1.375  1.00  0.00     0.176 HD
ENDBRANCH   1  23
BRANCH  10  26
HETATM   26  O4  UNL     1      -1.274  -2.572  -2.387  1.00  0.00    -0.355 OA
ATOM     27  H4  UNL     1      -1.876  -2.967  -3.007  1.00  0.00     0.218 HD
ENDBRANCH  10  26
BRANCH   6  28
HETATM   28  C5  UNL     1      -2.900   1.743   0.633  1.00  0.00     0.166 C 
HETATM   29  N3  UNL     1      -4.295   2.150   0.506  1.00  0.00    -0.078 NA
HETATM   30  N4  UNL     1      -2.252   2.430   1.449  1.00  0.00    -0.253 N 
ATOM     31  H4  UNL     1      -1.277   2.172   1.599  1.00  0.00     0.195 HD
BRANCH  30  32
HETATM   32  O1  UNL     1      -2.725   3.488   2.155  1.00  0.00    -0.288 OA
ATOM     33  H1  UNL     1      -2.232   4.011   2.776  1.00  0.00     0.244 HD
ENDBRANCH  30  32
ENDBRANCH   6  28
BRANCH   7  34
HETATM   34  O2  UNL     1      -4.515   0.583  -1.121  1.00  0.00    -0.279 OA
ATOM     35  H2  UNL     1      -5.103   0.174  -1.746  1.00  0.00     0.245 HD
ENDBRANCH   7  34
TORSDOF 7
