REMARK  2 active torsions:
REMARK  status: ('A' for Active; 'I' for Inactive)
REMARK    1  A    between atoms: N2_4  and  C1_6 
REMARK    2  A    between atoms: C1_6  and  C2_7 
ROOT
HETATM    1  N1  UNL     1       2.616   0.439   1.107  1.00  0.00    -0.349 N 
ATOM      2  H11 UNL     1       3.020   1.142   1.726  1.00  0.00     0.176 HD
ATOM      3  H12 UNL     1       2.936  -0.529   1.090  1.00  0.00     0.176 HD
HETATM    4  N2  UNL     1       1.697   0.821   0.357  1.00  0.00    -0.341 N 
ATOM      5  H2  UNL     1       1.366   1.786   0.362  1.00  0.00     0.179 HD
ENDROOT
BRANCH   4   6
HETATM    6  C1  UNL     1       1.129  -0.167  -0.514  1.00  0.00     0.164 C 
BRANCH   6   7
HETATM    7  C2  UNL     1      -0.369  -0.126  -0.471  1.00  0.00     0.151 C 
HETATM    8  C3  UNL     1      -1.011  -0.374   0.855  1.00  0.00     0.221 C 
HETATM    9  O1  UNL     1      -2.014   0.479   0.336  1.00  0.00    -0.284 OA
HETATM   10  N3  UNL     1      -0.982   1.149  -0.275  1.00  0.00    -0.092 NA
ENDBRANCH   6   7
ENDBRANCH   4   6
TORSDOF 2
