REMARK  2 active torsions:
REMARK  status: ('A' for Active; 'I' for Inactive)
REMARK    1  A    between atoms: N1_1  and  N2_4 
REMARK    2  A    between atoms: N3_6  and  C1_8 
ROOT
HETATM    1  C1  UNL     1       0.936  -0.080  -0.589  1.00  0.00     0.133 C 
HETATM    2  C2  UNL     1       0.786   1.354  -0.175  1.00  0.00     0.046 C 
HETATM    3  C3  UNL     1      -0.486   1.634   0.573  1.00  0.00     0.123 C 
HETATM    4  N4  UNL     1      -1.580   0.781   0.078  1.00  0.00    -0.196 NA
HETATM    5  C4  UNL     1      -1.562  -0.466   0.800  1.00  0.00     0.123 C 
HETATM    6  C5  UNL     1      -1.111  -1.484  -0.225  1.00  0.00     0.053 C 
HETATM    7  C6  UNL     1      -0.359  -0.553  -1.184  1.00  0.00     0.171 C 
HETATM    8  O1  UNL     1      -1.284   0.518  -1.205  1.00  0.00    -0.296 OA
ENDROOT
BRANCH   1   9
HETATM    9  N3  UNL     1       1.446  -0.932   0.445  1.00  0.00    -0.315 N 
HETATM   10  N2  UNL     1       2.674  -0.896   0.666  1.00  0.00    -0.253 N 
ATOM     11  H2  UNL     1       2.808   0.076   0.944  1.00  0.00     0.207 HD
ATOM     12  H3  UNL     1       0.829  -1.544   0.979  1.00  0.00     0.182 HD
BRANCH  10  13
HETATM   13  N1  UNL     1       3.820  -1.343   0.746  1.00  0.00    -0.331 N 
ATOM     14  H12 UNL     1       3.639  -2.306   0.462  1.00  0.00     0.178 HD
ATOM     15  H11 UNL     1       4.823  -1.314   0.927  1.00  0.00     0.178 HD
ENDBRANCH  10  13
ENDBRANCH   1   9
TORSDOF 2
