REMARK  12 active torsions:
REMARK  status: ('A' for Active; 'I' for Inactive)
REMARK    1  A    between atoms: C2_2  and  C3_3 
REMARK    2  A    between atoms: C8_10  and  C9_11 
REMARK    3  A    between atoms: C9_11  and  C10_12 
REMARK    4  A    between atoms: C10_12  and  C11_13 
REMARK    5  A    between atoms: N2_16  and  C14_17 
REMARK    6  A    between atoms: C14_17  and  C15_18 
REMARK    7  A    between atoms: C15_18  and  N3_19 
REMARK    8  A    between atoms: N3_19  and  C16_21 
REMARK    9  A    between atoms: C19_26  and  N5_27 
REMARK   10  A    between atoms: N5_27  and  C20_29 
REMARK   11  A    between atoms: C20_29  and  C21_30 
REMARK   12  A    between atoms: C21_30  and  N6_31 
ROOT
HETATM    1  C15 UNL     1       2.099   2.857  -0.379  1.00  0.00     0.182 C 
ENDROOT
BRANCH   1   2
HETATM    2  C14 UNL     1       0.816   2.803  -1.130  1.00  0.00     0.078 C 
BRANCH   2   3
HETATM    3  N2  UNL     1      -0.005   1.688  -1.001  1.00  0.00    -0.391 N 
HETATM    4  C13 UNL     1       0.445   0.475  -1.553  1.00  0.00     0.122 C 
HETATM    5  C12 UNL     1      -0.612  -0.572  -1.112  1.00  0.00     0.026 C 
HETATM    6  C11 UNL     1      -1.114  -0.017   0.204  1.00  0.00     0.005 C 
HETATM    7  C22 UNL     1      -0.666   1.436   0.230  1.00  0.00     0.126 C 
BRANCH   6   8
HETATM    8  C10 UNL     1      -2.657   0.021   0.189  1.00  0.00     0.011 C 
BRANCH   8   9
HETATM    9  C9  UNL     1      -3.224  -1.330  -0.001  1.00  0.00     0.041 C 
BRANCH   9  10
HETATM   10  C8  UNL     1      -4.668  -1.489  -0.028  1.00  0.00    -0.028 A 
HETATM   11  C3  UNL     1      -5.654  -0.589   0.166  1.00  0.00    -0.028 A 
HETATM   12  C4  UNL     1      -6.866  -1.290   0.037  1.00  0.00     0.012 A 
HETATM   13  C5  UNL     1      -8.242  -0.715   0.169  1.00  0.00     0.068 C 
HETATM   14  N1  UNL     1      -6.566  -2.563  -0.226  1.00  0.00    -0.363 N 
HETATM   15  C6  UNL     1      -5.249  -2.738  -0.276  1.00  0.00     0.012 A 
ATOM     16  H1  UNL     1      -7.254  -3.302  -0.369  1.00  0.00     0.165 HD
HETATM   17  C7  UNL     1      -4.506  -4.028  -0.548  1.00  0.00     0.068 C 
BRANCH  11  18
HETATM   18  C2  UNL     1      -5.664   0.850   0.471  1.00  0.00     0.036 C 
HETATM   19  C1  UNL     1      -5.956   0.998   1.954  1.00  0.00     0.010 C 
ENDBRANCH  11  18
ENDBRANCH   9  10
ENDBRANCH   8   9
ENDBRANCH   6   8
ENDBRANCH   2   3
ENDBRANCH   1   2
BRANCH   1  20
HETATM   20  N3  UNL     1       3.061   1.856  -0.666  1.00  0.00    -0.221 N 
ATOM     21  H3  UNL     1       2.897   1.287  -1.496  1.00  0.00     0.178 HD
BRANCH  20  22
HETATM   22  C16 UNL     1       4.112   1.596   0.011  1.00  0.00     0.679 A 
HETATM   23  N4  UNL     1       4.406   2.299   1.120  1.00  0.00    -0.202 N 
HETATM   24  C17 UNL     1       5.503   2.068   1.875  1.00  0.00     0.110 A 
ATOM     25  H4  UNL     1       3.769   3.043   1.405  1.00  0.00     0.183 HD
HETATM   26  C18 UNL     1       6.367   1.074   1.505  1.00  0.00     0.066 A 
HETATM   27  C19 UNL     1       6.073   0.355   0.376  1.00  0.00     0.118 A 
HETATM   28  N7  UNL     1       4.974   0.611  -0.350  1.00  0.00    -0.177 N 
ATOM     29  H7  UNL     1       4.783   0.058  -1.185  1.00  0.00     0.185 HD
BRANCH  27  30
HETATM   30  N5  UNL     1       6.856  -0.582  -0.001  1.00  0.00    -0.374 N 
ATOM     31  H5  UNL     1       6.646  -1.123  -0.840  1.00  0.00     0.161 HD
BRANCH  30  32
HETATM   32  C20 UNL     1       8.042  -0.867   0.773  1.00  0.00     0.148 C 
BRANCH  32  33
HETATM   33  C21 UNL     1       8.786  -1.974   0.020  1.00  0.00     0.249 C 
BRANCH  33  34
HETATM   34  N6  UNL     1       9.085  -1.411  -1.299  1.00  0.00    -0.078 N 
ATOM     35  H63 UNL     1       8.264  -1.059  -1.791  1.00  0.00     0.274 HD
ATOM     36  H62 UNL     1       9.591  -0.526  -1.263  1.00  0.00     0.274 HD
ATOM     37  H61 UNL     1       9.580  -2.148  -1.800  1.00  0.00     0.274 HD
ENDBRANCH  33  34
ENDBRANCH  32  33
ENDBRANCH  30  32
ENDBRANCH  27  30
ENDBRANCH  20  22
ENDBRANCH   1  20
TORSDOF 12
