REMARK  15 active torsions:
REMARK  status: ('A' for Active; 'I' for Inactive)
REMARK    1  A    between atoms: C2_2  and  C3_3 
REMARK    2  A    between atoms: C3_3  and  C4_4 
REMARK    3  A    between atoms: C4_4  and  C5_5 
REMARK    4  A    between atoms: C5_5  and  C6_6 
REMARK    5  A    between atoms: C6_6  and  C7_7 
REMARK    6  A    between atoms: C7_7  and  O2_9 
REMARK    7  A    between atoms: O2_9  and  C8_10 
REMARK    8  A    between atoms: C10_13  and  C11_14 
REMARK    9  A    between atoms: C12_15  and  C13_16 
REMARK   10  A    between atoms: C12_15  and  C25_28 
REMARK   11  A    between atoms: C14_17  and  C15_18 
REMARK   12  A    between atoms: C25_28  and  C26_29 
REMARK   13  A    between atoms: C26_29  and  C27_30 
REMARK   14  A    between atoms: C30_33  and  C31_34 
REMARK   15  A    between atoms: C31_34  and  O3_37 
ROOT
HETATM    1  C8  UNL     1       3.217  -0.128  -0.472  1.00  0.00     0.356 A 
HETATM    2  C9  UNL     1       2.719  -0.892  -1.545  1.00  0.00     0.358 A 
HETATM    3  N1  UNL     1       1.822  -0.524  -0.383  1.00  0.00     0.148 N 
HETATM    4  C10 UNL     1       1.022   0.687  -0.571  1.00  0.00     0.265 C 
HETATM    5  C30 UNL     1       1.908   1.718   0.087  1.00  0.00     0.131 C 
HETATM    6  C34 UNL     1       3.215   1.361  -0.497  1.00  0.00     0.204 C 
HETATM    7  O4  UNL     1       4.065   2.109  -0.895  1.00  0.00    -0.292 OA
ENDROOT
BRANCH   4   8
HETATM    8  C11 UNL     1      -0.246   0.501   0.134  1.00  0.00     0.021 C 
HETATM    9  C12 UNL     1      -1.384   0.055  -0.394  1.00  0.00    -0.038 C 
BRANCH   9  10
HETATM   10  C13 UNL     1      -2.537  -0.050   0.510  1.00  0.00     0.007 C 
HETATM   11  C14 UNL     1      -3.729  -0.493   0.152  1.00  0.00    -0.020 C 
BRANCH  11  12
HETATM   12  C15 UNL     1      -4.867  -0.589   1.076  1.00  0.00     0.024 C 
HETATM   13  C16 UNL     1      -5.117  -2.042   1.426  1.00  0.00    -0.040 C 
HETATM   14  C17 UNL     1      -5.580  -2.889   0.299  1.00  0.00     0.015 C 
HETATM   15  C18 UNL     1      -3.806  -2.614   1.961  1.00  0.00     0.015 C 
HETATM   16  C19 UNL     1      -6.076  -2.037   2.591  1.00  0.00     0.009 C 
HETATM   17  C20 UNL     1      -7.379  -1.476   2.159  1.00  0.00     0.002 C 
HETATM   18  C21 UNL     1      -7.370  -0.585   0.975  1.00  0.00     0.009 C 
HETATM   19  C22 UNL     1      -6.082   0.172   0.759  1.00  0.00    -0.040 C 
HETATM   20  C23 UNL     1      -6.099   0.641  -0.666  1.00  0.00     0.015 C 
HETATM   21  C24 UNL     1      -6.205   1.459   1.601  1.00  0.00     0.015 C 
ENDBRANCH  11  12
ENDBRANCH   9  10
BRANCH   9  22
HETATM   22  C25 UNL     1      -1.492  -0.393  -1.764  1.00  0.00     0.011 C 
BRANCH  22  23
HETATM   23  C26 UNL     1      -2.313   0.305  -2.729  1.00  0.00     0.003 C 
BRANCH  23  24
HETATM   24  C27 UNL     1      -2.828   1.485  -2.790  1.00  0.00    -0.088 C 
HETATM   25  C28 UNL     1      -3.662   1.821  -4.029  1.00  0.00     0.043 C 
HETATM   26  C29 UNL     1      -2.636   2.559  -1.796  1.00  0.00     0.043 C 
ENDBRANCH  23  24
ENDBRANCH  22  23
ENDBRANCH   9  22
ENDBRANCH   4   8
BRANCH   5  27
HETATM   27  C31 UNL     1       1.502   3.120  -0.023  1.00  0.00     0.063 C 
HETATM   28  C32 UNL     1       1.381   3.702  -1.376  1.00  0.00     0.046 C 
HETATM   29  C33 UNL     1       2.550   3.952   0.735  1.00  0.00     0.046 C 
BRANCH  27  30
HETATM   30  O3  UNL     1       0.319   3.285   0.734  1.00  0.00    -0.390 OA
ATOM     31  H3  UNL     1       0.055   4.195   0.663  1.00  0.00     0.210 HD
ENDBRANCH  27  30
ENDBRANCH   5  27
BRANCH   1  32
HETATM   32  O2  UNL     1       4.034  -0.639   0.574  1.00  0.00    -0.271 OA
BRANCH  32  33
HETATM   33  C7  UNL     1       5.267  -1.209   0.302  1.00  0.00     0.261 C 
HETATM   34  O1  UNL     1       5.633  -1.261  -0.900  1.00  0.00    -0.265 OA
BRANCH  33  35
HETATM   35  C6  UNL     1       6.146  -1.745   1.377  1.00  0.00     0.111 C 
BRANCH  35  36
HETATM   36  C5  UNL     1       7.197  -0.720   1.768  1.00  0.00     0.010 C 
BRANCH  36  37
HETATM   37  C4  UNL     1       8.097  -0.325   0.642  1.00  0.00     0.000 C 
BRANCH  37  38
HETATM   38  C3  UNL     1       8.887  -1.475   0.071  1.00  0.00    -0.000 C 
BRANCH  38  39
HETATM   39  C2  UNL     1       9.781  -2.108   1.134  1.00  0.00    -0.005 C 
HETATM   40  C1  UNL     1      10.554  -3.243   0.529  1.00  0.00     0.005 C 
ENDBRANCH  38  39
ENDBRANCH  37  38
ENDBRANCH  36  37
ENDBRANCH  35  36
ENDBRANCH  33  35
ENDBRANCH  32  33
ENDBRANCH   1  32
TORSDOF 15
