REMARK  15 active torsions:
REMARK  status: ('A' for Active; 'I' for Inactive)
REMARK    1  A    between atoms: C2_2  and  C4_4 
REMARK    2  A    between atoms: C4_4  and  N1_5 
REMARK    3  A    between atoms: C4_4  and  C5_9 
REMARK    4  A    between atoms: C5_9  and  C6_10 
REMARK    5  A    between atoms: C5_9  and  N2_17 
REMARK    6  A    between atoms: C6_10  and  C7_11 
REMARK       I    between atoms: N2_17  and  C13_19 
REMARK    7  A    between atoms: C13_19  and  O2_21 
REMARK    8  A    between atoms: O2_21  and  C14_22 
REMARK    9  A    between atoms: C14_22  and  C15_23 
REMARK   10  A    between atoms: C15_23  and  C16_24 
REMARK   11  A    between atoms: C15_23  and  C24_33 
REMARK   12  A    between atoms: C15_23  and  C30_39 
REMARK   13  A    between atoms: C16_24  and  O3_25 
REMARK   14  A    between atoms: O3_25  and  C17_26 
REMARK   15  A    between atoms: C17_26  and  C18_27 
ROOT
HETATM    1  C14 UNL     1      -1.035  -0.160  -1.521  1.00  0.00     0.202 C 
ENDROOT
BRANCH   1   2
HETATM    2  O2  UNL     1       0.180  -0.131  -0.793  1.00  0.00    -0.303 OA
BRANCH   2   3
HETATM    3  C13 UNL     1       1.436  -0.075  -1.392  1.00  0.00     0.360 C 
HETATM    4  N2  UNL     1       2.627  -0.047  -0.640  1.00  0.00    -0.330 N 
ATOM      5  H2  UNL     1       2.517  -0.068   0.374  1.00  0.00     0.165 HD
HETATM    6  O1  UNL     1       1.389  -0.054  -2.659  1.00  0.00    -0.239 OA
BRANCH   4   7
HETATM    7  C5  UNL     1       3.953   0.007  -1.117  1.00  0.00     0.121 C 
BRANCH   7   8
HETATM    8  C4  UNL     1       4.330   1.339  -1.740  1.00  0.00     0.209 C 
BRANCH   8   9
HETATM    9  C2  UNL     1       3.915   2.501  -0.882  1.00  0.00     0.010 C 
HETATM   10  C1  UNL     1       4.347   2.348   0.547  1.00  0.00     0.011 C 
HETATM   11  C3  UNL     1       4.580   3.755  -1.433  1.00  0.00     0.011 C 
ENDBRANCH   8   9
BRANCH   8  12
HETATM   12  N1  UNL     1       3.906   1.515  -3.085  1.00  0.00    -0.073 N 
ATOM     13  H13 UNL     1       2.902   1.683  -3.142  1.00  0.00     0.274 HD
ATOM     14  H12 UNL     1       4.235   2.401  -3.469  1.00  0.00     0.274 HD
ATOM     15  H11 UNL     1       4.188   0.726  -3.667  1.00  0.00     0.274 HD
ENDBRANCH   8  12
ENDBRANCH   7   8
BRANCH   7  16
HETATM   16  C6  UNL     1       4.409  -1.067  -2.051  1.00  0.00     0.065 C 
BRANCH  16  17
HETATM   17  C7  UNL     1       4.148  -2.443  -1.629  1.00  0.00    -0.056 A 
HETATM   18  C8  UNL     1       5.086  -3.064  -0.807  1.00  0.00     0.007 A 
HETATM   19  C9  UNL     1       4.926  -4.362  -0.370  1.00  0.00     0.001 A 
HETATM   20  C10 UNL     1       3.830  -5.095  -0.733  1.00  0.00     0.000 A 
HETATM   21  C11 UNL     1       2.887  -4.504  -1.546  1.00  0.00     0.001 A 
HETATM   22  C12 UNL     1       3.060  -3.213  -1.972  1.00  0.00     0.007 A 
ENDBRANCH  16  17
ENDBRANCH   7  16
ENDBRANCH   4   7
ENDBRANCH   2   3
ENDBRANCH   1   2
BRANCH   1  23
HETATM   23  C15 UNL     1      -2.134  -0.222  -0.447  1.00  0.00     0.057 C 
BRANCH  23  24
HETATM   24  C16 UNL     1      -1.975   1.005   0.379  1.00  0.00     0.189 C 
BRANCH  24  25
HETATM   25  O3  UNL     1      -2.869   1.165   1.408  1.00  0.00    -0.385 OA
BRANCH  25  26
HETATM   26  C17 UNL     1      -2.598   2.341   2.075  1.00  0.00     0.206 C 
BRANCH  26  27
HETATM   27  C18 UNL     1      -3.494   2.612   3.199  1.00  0.00    -0.035 A 
HETATM   28  C19 UNL     1      -4.506   1.800   3.625  1.00  0.00     0.009 A 
HETATM   29  C20 UNL     1      -5.294   2.158   4.704  1.00  0.00     0.001 A 
HETATM   30  C21 UNL     1      -5.056   3.365   5.366  1.00  0.00     0.000 A 
HETATM   31  C22 UNL     1      -4.042   4.199   4.955  1.00  0.00     0.001 A 
HETATM   32  C23 UNL     1      -3.287   3.811   3.888  1.00  0.00     0.009 A 
ENDBRANCH  26  27
ENDBRANCH  25  26
ENDBRANCH  24  25
ENDBRANCH  23  24
BRANCH  23  33
HETATM   33  C24 UNL     1      -1.827  -1.463   0.329  1.00  0.00    -0.041 A 
HETATM   34  C25 UNL     1      -1.958  -2.683  -0.330  1.00  0.00     0.008 A 
HETATM   35  C26 UNL     1      -1.686  -3.851   0.329  1.00  0.00     0.001 A 
HETATM   36  C27 UNL     1      -1.281  -3.848   1.645  1.00  0.00     0.000 A 
HETATM   37  C28 UNL     1      -1.150  -2.649   2.301  1.00  0.00     0.001 A 
HETATM   38  C29 UNL     1      -1.425  -1.472   1.634  1.00  0.00     0.008 A 
ENDBRANCH  23  33
BRANCH  23  39
HETATM   39  C30 UNL     1      -3.472  -0.359  -1.050  1.00  0.00    -0.041 A 
HETATM   40  C31 UNL     1      -3.635  -0.320  -2.421  1.00  0.00     0.008 A 
HETATM   41  C32 UNL     1      -4.859  -0.445  -3.045  1.00  0.00     0.001 A 
HETATM   42  C33 UNL     1      -5.958  -0.617  -2.216  1.00  0.00     0.000 A 
HETATM   43  C34 UNL     1      -5.801  -0.657  -0.846  1.00  0.00     0.001 A 
HETATM   44  C35 UNL     1      -4.560  -0.528  -0.249  1.00  0.00     0.008 A 
ENDBRANCH  23  39
ENDBRANCH   1  23
TORSDOF 15
