REMARK  14 active torsions:
REMARK  status: ('A' for Active; 'I' for Inactive)
REMARK    1  A    between atoms: C2_3  and  O2_4 
REMARK    2  A    between atoms: C2_3  and  C3_6 
REMARK    3  A    between atoms: C3_6  and  C4_7 
REMARK    4  A    between atoms: C4_7  and  C6_9 
REMARK       I    between atoms: C6_9  and  N1_11 
REMARK    5  A    between atoms: N1_11  and  C7_12 
REMARK    6  A    between atoms: N1_11  and  C26_38 
REMARK    7  A    between atoms: C7_12  and  C8_13 
REMARK       I    between atoms: N2_16  and  C11_18 
REMARK       I    between atoms: C11_18  and  N3_20 
REMARK    8  A    between atoms: N3_20  and  C12_22 
REMARK    9  A    between atoms: C12_22  and  C14_24 
REMARK   10  A    between atoms: C14_24  and  C15_25 
REMARK   11  A    between atoms: C16_26  and  C18_28 
REMARK   12  A    between atoms: C18_28  and  C19_29 
REMARK   13  A    between atoms: C19_29  and  C20_30 
REMARK   14  A    between atoms: C20_30  and  C21_31 
ROOT
HETATM    1  C1  UNL     1      -9.070   0.812  -3.288  1.00  0.00     0.204 C 
HETATM    2  O1  UNL     1      -8.637  -0.046  -2.384  1.00  0.00    -0.365 OA
HETATM    3  C2  UNL     1      -8.243  -0.958  -1.618  1.00  0.00     0.265 C 
ENDROOT
BRANCH   3   4
HETATM    4  O2  UNL     1      -8.231  -2.146  -2.186  1.00  0.00    -0.370 OA
ATOM      5  H2  UNL     1      -7.933  -2.837  -1.606  1.00  0.00     0.212 HD
ENDBRANCH   3   4
BRANCH   3   6
HETATM    6  C3  UNL     1      -7.786  -0.919  -0.152  1.00  0.00     0.021 C 
HETATM    7  C29 UNL     1      -7.552  -2.299   0.361  1.00  0.00     0.015 C 
HETATM    8  C30 UNL     1      -9.015  -2.337   0.823  1.00  0.00     0.002 C 
HETATM    9  C31 UNL     1      -9.033  -0.832   0.716  1.00  0.00     0.015 C 
BRANCH   6  10
HETATM   10  C4  UNL     1      -6.785   0.155   0.049  1.00  0.00     0.087 C 
HETATM   11  C5  UNL     1      -7.408   1.529  -0.283  1.00  0.00     0.021 C 
BRANCH  10  12
HETATM   12  C6  UNL     1      -6.183   0.197   1.380  1.00  0.00     0.228 C 
HETATM   13  O3  UNL     1      -6.700  -0.503   2.302  1.00  0.00    -0.273 OA
HETATM   14  N1  UNL     1      -5.056   0.962   1.785  1.00  0.00    -0.322 N 
BRANCH  14  15
HETATM   15  C7  UNL     1      -4.292   1.743   0.895  1.00  0.00     0.123 C 
BRANCH  15  16
HETATM   16  C8  UNL     1      -3.108   1.145   0.255  1.00  0.00     0.050 A 
HETATM   17  C9  UNL     1      -1.953   1.924   0.040  1.00  0.00     0.060 A 
HETATM   18  C10 UNL     1      -0.826   1.442  -0.573  1.00  0.00     0.039 A 
HETATM   19  N2  UNL     1       0.203   2.216  -0.761  1.00  0.00    -0.309 N 
HETATM   20  C24 UNL     1      -0.806   0.140  -1.002  1.00  0.00     0.046 A 
HETATM   21  C11 UNL     1       1.331   1.594  -1.420  1.00  0.00     0.321 C 
ATOM     22  H2  UNL     1       0.214   3.192  -0.465  1.00  0.00     0.170 HD
HETATM   23  O4  UNL     1       1.427   1.830  -2.633  1.00  0.00    -0.247 OA
HETATM   24  N3  UNL     1       2.231   0.789  -0.698  1.00  0.00    -0.338 N 
ATOM     25  H3  UNL     1       2.048   0.680   0.299  1.00  0.00     0.164 HD
HETATM   26  C25 UNL     1      -1.939  -0.624  -0.790  1.00  0.00     0.090 A 
HETATM   27  N4  UNL     1      -3.039  -0.109  -0.177  1.00  0.00    -0.365 N 
ATOM     28  H4  UNL     1      -3.849  -0.714  -0.043  1.00  0.00     0.165 HD
BRANCH  24  29
HETATM   29  C12 UNL     1       3.382   0.104  -1.220  1.00  0.00     0.085 C 
HETATM   30  C13 UNL     1       3.612  -1.256  -0.681  1.00  0.00     0.032 C 
BRANCH  29  31
HETATM   31  C14 UNL     1       4.644   0.968  -1.142  1.00  0.00     0.052 C 
BRANCH  31  32
HETATM   32  C15 UNL     1       5.811   0.194  -1.649  1.00  0.00    -0.022 C 
HETATM   33  C16 UNL     1       6.945   0.081  -0.888  1.00  0.00    -0.087 C 
HETATM   34  C17 UNL     1       6.921   0.748   0.414  1.00  0.00     0.043 C 
BRANCH  33  35
HETATM   35  C18 UNL     1       8.075  -0.694  -1.430  1.00  0.00     0.033 C 
BRANCH  35  36
HETATM   36  C19 UNL     1       9.367  -0.029  -1.627  1.00  0.00     0.005 C 
BRANCH  36  37
HETATM   37  C20 UNL     1      10.218   0.439  -0.530  1.00  0.00     0.004 C 
BRANCH  37  38
HETATM   38  C21 UNL     1      10.864  -0.568   0.357  1.00  0.00    -0.023 C 
HETATM   39  C22 UNL     1      10.050  -1.524   1.122  1.00  0.00     0.009 C 
HETATM   40  C23 UNL     1      11.939  -1.335  -0.437  1.00  0.00     0.009 C 
ENDBRANCH  37  38
ENDBRANCH  36  37
ENDBRANCH  35  36
ENDBRANCH  33  35
ENDBRANCH  31  32
ENDBRANCH  29  31
ENDBRANCH  24  29
ENDBRANCH  15  16
ENDBRANCH  14  15
BRANCH  14  41
HETATM   41  C26 UNL     1      -4.720   0.949   3.209  1.00  0.00     0.084 C 
HETATM   42  C27 UNL     1      -3.386   0.354   3.489  1.00  0.00     0.032 C 
HETATM   43  C28 UNL     1      -4.881   2.287   3.842  1.00  0.00     0.032 C 
ENDBRANCH  14  41
ENDBRANCH  10  12
ENDBRANCH   6  10
ENDBRANCH   3   6
TORSDOF 14
