REMARK  15 active torsions:
REMARK  status: ('A' for Active; 'I' for Inactive)
REMARK    1  A    between atoms: C2_2  and  C3_3 
REMARK    2  A    between atoms: C3_3  and  C5_5 
REMARK    3  A    between atoms: C5_5  and  C6_6 
REMARK    4  A    between atoms: C5_5  and  C11_15 
REMARK    5  A    between atoms: C5_5  and  C24_31 
REMARK    6  A    between atoms: C7_7  and  C8_8 
REMARK    7  A    between atoms: C8_8  and  N1_11 
REMARK    8  A    between atoms: C11_15  and  C12_16 
REMARK    9  A    between atoms: C17_21  and  O1_22 
REMARK   10  A    between atoms: O1_22  and  C18_23 
REMARK   11  A    between atoms: C18_23  and  C19_24 
REMARK       I    between atoms: C19_24  and  N2_26 
REMARK   12  A    between atoms: C24_31  and  C26_33 
REMARK   13  A    between atoms: C26_33  and  C27_34 
REMARK   14  A    between atoms: C27_34  and  C29_36 
REMARK       I    between atoms: C29_36  and  N3_38 
REMARK   15  A    between atoms: N3_38  and  C30_40 
ROOT
HETATM    1  C5  UNL     1      -0.784   0.988   0.818  1.00  0.00     0.002 C 
ENDROOT
BRANCH   1   2
HETATM    2  C3  UNL     1       0.106   1.482   1.842  1.00  0.00    -0.003 C 
HETATM    3  C4  UNL     1       0.557   0.439   2.903  1.00  0.00     0.011 C 
BRANCH   2   4
HETATM    4  C2  UNL     1      -0.347   2.604   2.730  1.00  0.00     0.001 C 
HETATM    5  C1  UNL     1       0.894   3.016   3.555  1.00  0.00     0.005 C 
ENDBRANCH   2   4
ENDBRANCH   1   2
BRANCH   1   6
HETATM    6  C6  UNL     1      -1.143   2.199  -0.099  1.00  0.00    -0.014 C 
HETATM    7  C7  UNL     1      -0.358   3.237  -0.247  1.00  0.00     0.008 C 
BRANCH   7   8
HETATM    8  C8  UNL     1      -0.682   4.390  -1.106  1.00  0.00     0.134 C 
HETATM    9  C9  UNL     1      -1.638   4.093  -2.234  1.00  0.00     0.050 C 
HETATM   10  C10 UNL     1       0.579   5.093  -1.631  1.00  0.00     0.050 C 
BRANCH   8  11
HETATM   11  N1  UNL     1      -1.369   5.452  -0.331  1.00  0.00    -0.068 N 
ATOM     12  H13 UNL     1      -2.196   5.094   0.147  1.00  0.00     0.275 HD
ATOM     13  H12 UNL     1      -0.827   5.732   0.487  1.00  0.00     0.275 HD
ATOM     14  H11 UNL     1      -1.593   6.250  -0.925  1.00  0.00     0.275 HD
ENDBRANCH   8  11
ENDBRANCH   7   8
ENDBRANCH   1   6
BRANCH   1  15
HETATM   15  C11 UNL     1      -0.294  -0.025  -0.190  1.00  0.00     0.002 C 
BRANCH  15  16
HETATM   16  C12 UNL     1       0.774   0.263  -1.117  1.00  0.00    -0.005 A 
HETATM   17  C13 UNL     1       0.443   0.802  -2.338  1.00  0.00     0.014 A 
HETATM   18  C14 UNL     1       1.375   1.136  -3.271  1.00  0.00     0.001 A 
HETATM   19  C15 UNL     1       2.704   0.928  -2.983  1.00  0.00     0.003 A 
HETATM   20  C16 UNL     1       3.085   0.397  -1.788  1.00  0.00     0.037 A 
HETATM   21  C17 UNL     1       2.099   0.059  -0.844  1.00  0.00     0.079 A 
BRANCH  21  22
HETATM   22  O1  UNL     1       2.547  -0.480   0.350  1.00  0.00    -0.341 OA
BRANCH  22  23
HETATM   23  C18 UNL     1       3.820  -0.763   0.726  1.00  0.00     0.278 C 
BRANCH  23  24
HETATM   24  C19 UNL     1       4.393  -1.857  -0.129  1.00  0.00     0.244 C 
HETATM   25  O2  UNL     1       3.729  -2.462  -1.011  1.00  0.00    -0.271 OA
HETATM   26  N2  UNL     1       5.747  -2.271   0.023  1.00  0.00    -0.350 N 
HETATM   27  C20 UNL     1       6.444  -3.299  -0.722  1.00  0.00     0.126 C 
HETATM   28  C23 UNL     1       6.658  -1.701   0.991  1.00  0.00     0.126 C 
HETATM   29  C21 UNL     1       7.413  -3.861   0.290  1.00  0.00     0.021 C 
HETATM   30  C22 UNL     1       7.766  -2.704   1.171  1.00  0.00     0.021 C 
ENDBRANCH  23  24
ENDBRANCH  22  23
ENDBRANCH  21  22
ENDBRANCH  15  16
ENDBRANCH   1  15
BRANCH   1  31
HETATM   31  C24 UNL     1      -2.175   0.494   1.177  1.00  0.00    -0.002 C 
HETATM   32  C25 UNL     1      -3.067   1.505   1.815  1.00  0.00     0.011 C 
BRANCH  31  33
HETATM   33  C26 UNL     1      -2.256  -0.879   1.717  1.00  0.00     0.019 C 
BRANCH  33  34
HETATM   34  C27 UNL     1      -3.634  -1.386   2.046  1.00  0.00     0.074 C 
HETATM   35  C28 UNL     1      -3.414  -2.810   2.600  1.00  0.00     0.020 C 
BRANCH  34  36
HETATM   36  C29 UNL     1      -4.409  -1.636   0.771  1.00  0.00     0.222 C 
HETATM   37  O3  UNL     1      -5.474  -1.048   0.490  1.00  0.00    -0.273 OA
HETATM   38  N3  UNL     1      -3.938  -2.582  -0.182  1.00  0.00    -0.353 N 
ATOM     39  H3  UNL     1      -3.069  -3.071   0.033  1.00  0.00     0.163 HD
BRANCH  38  40
HETATM   40  C30 UNL     1      -4.584  -2.902  -1.415  1.00  0.00     0.022 C 
HETATM   41  C31 UNL     1      -5.994  -3.448  -1.187  1.00  0.00     0.037 C 
HETATM   42  C32 UNL     1      -4.684  -1.723  -2.334  1.00  0.00     0.037 C 
HETATM   43  C33 UNL     1      -3.831  -4.010  -2.121  1.00  0.00     0.037 C 
ENDBRANCH  38  40
ENDBRANCH  34  36
ENDBRANCH  33  34
ENDBRANCH  31  33
ENDBRANCH   1  31
TORSDOF 15
