REMARK  11 active torsions:
REMARK  status: ('A' for Active; 'I' for Inactive)
REMARK    1  A    between atoms: C2_2  and  C3_3 
REMARK    2  A    between atoms: C3_3  and  C4_4 
REMARK    3  A    between atoms: C4_4  and  C5_5 
REMARK    4  A    between atoms: C5_5  and  C6_6 
REMARK    5  A    between atoms: C8_11  and  C9_12 
REMARK    6  A    between atoms: C9_12  and  C10_13 
REMARK    7  A    between atoms: C14_20  and  C15_21 
REMARK    8  A    between atoms: C26_37  and  C27_38 
REMARK    9  A    between atoms: C27_38  and  C28_39 
REMARK   10  A    between atoms: C28_39  and  C29_40 
REMARK   11  A    between atoms: C29_40  and  N5_41 
ROOT
HETATM    1  C6  UNL     1      -0.723   2.043  -1.165  1.00  0.00     0.176 C 
HETATM    2  N1  UNL     1      -2.124   1.855  -0.839  1.00  0.00    -0.346 N 
ATOM      3  H1  UNL     1      -2.722   1.643  -1.638  1.00  0.00     0.163 HD
HETATM    4  C7  UNL     1      -2.786   1.915   0.377  1.00  0.00     0.241 C 
HETATM    5  O1  UNL     1      -3.668   2.835   0.535  1.00  0.00    -0.271 OA
HETATM    6  C8  UNL     1      -2.639   1.050   1.581  1.00  0.00     0.177 C 
HETATM    7  N2  UNL     1      -3.910   0.322   1.758  1.00  0.00    -0.346 N 
ATOM      8  H2  UNL     1      -4.725   0.849   2.072  1.00  0.00     0.163 HD
HETATM    9  C13 UNL     1      -4.065  -1.062   1.518  1.00  0.00     0.241 C 
HETATM   10  O2  UNL     1      -4.849  -1.716   2.255  1.00  0.00    -0.271 OA
HETATM   11  C14 UNL     1      -3.373  -1.831   0.450  1.00  0.00     0.180 C 
HETATM   12  N3  UNL     1      -3.001  -3.102   1.044  1.00  0.00    -0.347 N 
ATOM     13  H3  UNL     1      -3.745  -3.783   1.196  1.00  0.00     0.163 HD
HETATM   14  C18 UNL     1      -1.705  -3.469   1.425  1.00  0.00     0.218 C 
HETATM   15  O3  UNL     1      -1.595  -4.440   2.239  1.00  0.00    -0.274 OA
HETATM   16  C19 UNL     1      -0.467  -2.832   0.969  1.00  0.00     0.109 C 
HETATM   17  C20 UNL     1      -0.136  -3.149  -0.476  1.00  0.00     0.013 C 
HETATM   18  C21 UNL     1      -0.353  -4.605  -0.811  1.00  0.00     0.012 C 
HETATM   19  C22 UNL     1       1.273  -2.687  -0.770  1.00  0.00     0.087 C 
HETATM   20  C23 UNL     1       2.048  -3.739  -1.539  1.00  0.00     0.033 C 
HETATM   21  N4  UNL     1       1.201  -1.478  -1.587  1.00  0.00    -0.350 N 
HETATM   22  C24 UNL     1       0.431  -1.612  -2.836  1.00  0.00     0.153 C 
HETATM   23  C25 UNL     1       1.824  -0.255  -1.222  1.00  0.00     0.242 C 
HETATM   24  O4  UNL     1       2.314   0.415  -2.171  1.00  0.00    -0.271 OA
HETATM   25  C26 UNL     1       1.945   0.287   0.135  1.00  0.00     0.176 C 
HETATM   26  N8  UNL     1       0.928   1.132   0.621  1.00  0.00    -0.346 N 
ATOM     27  H8  UNL     1       0.703   0.984   1.605  1.00  0.00     0.163 HD
HETATM   28  C31 UNL     1       0.168   2.136   0.011  1.00  0.00     0.241 C 
HETATM   29  O5  UNL     1       0.213   3.331   0.502  1.00  0.00    -0.271 OA
ENDROOT
BRANCH  25  30
HETATM   30  C27 UNL     1       3.355   0.895   0.286  1.00  0.00     0.036 C 
BRANCH  30  31
HETATM   31  C28 UNL     1       4.302  -0.274   0.040  1.00  0.00     0.022 C 
BRANCH  31  32
HETATM   32  C29 UNL     1       5.752   0.149   0.154  1.00  0.00     0.122 C 
BRANCH  32  33
HETATM   33  N5  UNL     1       6.020   0.671   1.478  1.00  0.00    -0.367 N 
HETATM   34  C30 UNL     1       7.129   0.388   2.048  1.00  0.00     0.196 C 
HETATM   35  N6  UNL     1       7.433   0.882   3.353  1.00  0.00    -0.067 NA
HETATM   36  N7  UNL     1       8.135  -0.432   1.440  1.00  0.00    -0.067 NA
ATOM     37  H5  UNL     1       5.332   1.258   1.950  1.00  0.00     0.161 HD
ENDBRANCH  32  33
ENDBRANCH  31  32
ENDBRANCH  30  31
ENDBRANCH  25  30
BRANCH   1  38
HETATM   38  C5  UNL     1      -0.642   3.351  -1.970  1.00  0.00     0.035 C 
BRANCH  38  39
HETATM   39  C4  UNL     1       0.743   3.685  -2.386  1.00  0.00     0.006 C 
BRANCH  39  40
HETATM   40  C3  UNL     1       0.784   4.981  -3.171  1.00  0.00     0.026 C 
BRANCH  40  41
HETATM   41  C2  UNL     1      -0.024   4.931  -4.393  1.00  0.00    -0.037 C 
HETATM   42  C1  UNL     1       0.535   5.116  -5.584  1.00  0.00     0.007 C 
ENDBRANCH  40  41
ENDBRANCH  39  40
ENDBRANCH  38  39
ENDBRANCH   1  38
BRANCH   6  43
HETATM   43  C9  UNL     1      -2.494   1.976   2.756  1.00  0.00     0.038 C 
BRANCH  43  44
HETATM   44  C10 UNL     1      -2.323   1.340   4.086  1.00  0.00    -0.020 C 
HETATM   45  C11 UNL     1      -1.104   0.444   4.188  1.00  0.00     0.009 C 
HETATM   46  C12 UNL     1      -3.555   0.735   4.687  1.00  0.00     0.009 C 
ENDBRANCH  43  44
ENDBRANCH   6  43
BRANCH  11  47
HETATM   47  C15 UNL     1      -4.441  -2.125  -0.603  1.00  0.00     0.009 C 
HETATM   48  C16 UNL     1      -5.036  -0.876  -1.173  1.00  0.00     0.012 C 
HETATM   49  C17 UNL     1      -3.915  -2.974  -1.722  1.00  0.00     0.012 C 
ENDBRANCH  11  47
TORSDOF 11
