REMARK  11 active torsions:
REMARK  status: ('A' for Active; 'I' for Inactive)
REMARK    1  A    between atoms: O1_2  and  C2_3 
REMARK    2  A    between atoms: C3_4  and  N1_5 
REMARK    3  A    between atoms: C7_12  and  C8_13 
REMARK    4  A    between atoms: C8_13  and  O2_14 
REMARK    5  A    between atoms: O2_14  and  C9_15 
REMARK    6  A    between atoms: C12_19  and  N2_20 
REMARK       I    between atoms: N2_20  and  C13_22 
REMARK    7  A    between atoms: C13_22  and  C14_24 
REMARK    8  A    between atoms: C15_25  and  O5_26 
REMARK    9  A    between atoms: C17_30  and  O7_31 
REMARK   10  A    between atoms: C18_33  and  N3_34 
REMARK   11  A    between atoms: N3_34  and  C19_36 
ROOT
HETATM    1  C9  UNL     1      -0.172  -0.782   0.517  1.00  0.00     0.177 C 
HETATM    2  C10 UNL     1       0.010  -2.097   1.195  1.00  0.00     0.151 C 
HETATM    3  C11 UNL     1      -0.137  -1.877   2.696  1.00  0.00     0.042 C 
HETATM    4  O3  UNL     1       1.221  -2.641   0.860  1.00  0.00    -0.357 OA
HETATM    5  C12 UNL     1       1.857  -1.791  -0.033  1.00  0.00     0.249 C 
HETATM    6  C18 UNL     1       1.278  -0.412   0.209  1.00  0.00     0.163 C 
ENDROOT
BRANCH   1   7
HETATM    7  O2  UNL     1      -0.933  -0.866  -0.620  1.00  0.00    -0.381 OA
BRANCH   7   8
HETATM    8  C8  UNL     1      -1.954   0.030  -0.746  1.00  0.00     0.175 C 
BRANCH   8   9
HETATM    9  C7  UNL     1      -3.017  -0.038   0.329  1.00  0.00     0.040 C 
HETATM   10  C2  UNL     1      -4.021   1.037  -0.020  1.00  0.00     0.157 C 
HETATM   11  C3  UNL     1      -5.337   0.859   0.720  1.00  0.00     0.212 C 
HETATM   12  C4  UNL     1      -5.911  -0.441   0.138  1.00  0.00     0.035 C 
HETATM   13  C5  UNL     1      -5.043  -1.539   0.640  1.00  0.00     0.003 C 
HETATM   14  C6  UNL     1      -3.586  -1.394   0.460  1.00  0.00     0.009 C 
BRANCH  10  15
HETATM   15  O1  UNL     1      -4.341   1.016  -1.374  1.00  0.00    -0.388 OA
HETATM   16  C1  UNL     1      -4.069   2.266  -1.909  1.00  0.00     0.202 C 
ENDBRANCH  10  15
BRANCH  11  17
HETATM   17  N1  UNL     1      -5.075   0.761   2.121  1.00  0.00    -0.073 N 
ATOM     18  H13 UNL     1      -4.404   0.024   2.340  1.00  0.00     0.274 HD
ATOM     19  H12 UNL     1      -4.537   1.553   2.471  1.00  0.00     0.274 HD
ATOM     20  H11 UNL     1      -5.958   0.642   2.617  1.00  0.00     0.274 HD
ENDBRANCH  11  17
ENDBRANCH   8   9
ENDBRANCH   7   8
ENDBRANCH   1   7
BRANCH   6  21
HETATM   21  N3  UNL     1       1.392   0.456  -0.922  1.00  0.00    -0.367 N 
ATOM     22  H3  UNL     1       1.311   0.091  -1.871  1.00  0.00     0.161 HD
BRANCH  21  23
HETATM   23  C19 UNL     1       1.601   1.720  -0.711  1.00  0.00     0.113 A 
HETATM   24  S1  UNL     1       1.777   2.609   0.728  1.00  0.00    -0.076 SA
HETATM   25  C20 UNL     1       2.032   4.241   0.350  1.00  0.00     0.066 A 
HETATM   26  C21 UNL     1       2.037   4.464  -1.002  1.00  0.00    -0.012 A 
HETATM   27  C22 UNL     1       2.248   5.848  -1.560  1.00  0.00     0.057 C 
HETATM   28  S2  UNL     1       1.782   2.998  -1.819  1.00  0.00    -0.070 SA
ENDBRANCH  21  23
ENDBRANCH   6  21
BRANCH   5  29
HETATM   29  N2  UNL     1       3.285  -1.836   0.265  1.00  0.00    -0.328 N 
HETATM   30  C13 UNL     1       4.237  -2.296  -0.675  1.00  0.00     0.261 C 
HETATM   31  O4  UNL     1       3.756  -2.669  -1.804  1.00  0.00    -0.267 OA
ATOM     32  H2  UNL     1       3.607  -1.525   1.182  1.00  0.00     0.165 HD
BRANCH  30  33
HETATM   33  C14 UNL     1       5.666  -2.374  -0.465  1.00  0.00     0.125 A 
HETATM   34  C15 UNL     1       6.600  -2.821  -1.378  1.00  0.00     0.108 A 
HETATM   35  C16 UNL     1       7.812  -2.713  -0.736  1.00  0.00     0.182 A 
HETATM   36  O6  UNL     1       7.610  -2.241   0.457  1.00  0.00    -0.297 OA
HETATM   37  C17 UNL     1       6.325  -2.013   0.684  1.00  0.00     0.201 A 
BRANCH  34  38
HETATM   38  O5  UNL     1       6.413  -3.287  -2.666  1.00  0.00    -0.358 OA
ATOM     39  H5  UNL     1       7.056  -3.595  -3.294  1.00  0.00     0.217 HD
ENDBRANCH  34  38
BRANCH  37  40
HETATM   40  O7  UNL     1       5.861  -1.508   1.889  1.00  0.00    -0.340 OA
ATOM     41  H7  UNL     1       6.317  -1.258   2.684  1.00  0.00     0.220 HD
ENDBRANCH  37  40
ENDBRANCH  30  33
ENDBRANCH   5  29
TORSDOF 11
