REMARK  4 active torsions:
REMARK  status: ('A' for Active; 'I' for Inactive)
REMARK    1  A    between atoms: N1_1  and  N2_4 
REMARK    2  A    between atoms: C1_6  and  C2_7 
REMARK    3  A    between atoms: C2_7  and  C3_8 
REMARK    4  A    between atoms: C4_9  and  C5_10 
ROOT
HETATM    1  N2  UNL     1       3.544   0.168  -0.913  1.00  0.00    -0.321 N 
ATOM      2  H2  UNL     1       3.323  -0.128  -1.864  1.00  0.00     0.185 HD
HETATM    3  C1  UNL     1       2.845  -0.290   0.067  1.00  0.00     0.091 C 
ENDROOT
BRANCH   3   4
HETATM    4  C2  UNL     1       1.723  -1.239  -0.145  1.00  0.00     0.140 C 
BRANCH   4   5
HETATM    5  C3  UNL     1       0.419  -0.564   0.045  1.00  0.00    -0.101 C 
HETATM    6  C4  UNL     1      -0.632   0.003   0.205  1.00  0.00    -0.101 C 
BRANCH   6   7
HETATM    7  C5  UNL     1      -1.896   0.713   0.398  1.00  0.00     0.065 A 
HETATM    8  C6  UNL     1      -2.735   1.033  -0.786  1.00  0.00     0.018 A 
HETATM    9  C7  UNL     1      -3.124  -0.105   0.108  1.00  0.00     0.018 A 
ENDBRANCH   6   7
ENDBRANCH   4   5
ENDBRANCH   3   4
BRANCH   1  10
HETATM   10  N1  UNL     1       4.582   1.047  -0.707  1.00  0.00    -0.346 N 
ATOM     11  H12 UNL     1       4.790   1.333   0.250  1.00  0.00     0.176 HD
ATOM     12  H11 UNL     1       5.136   1.410  -1.483  1.00  0.00     0.176 HD
ENDBRANCH   1  10
TORSDOF 4
