REMARK  6 active torsions:
REMARK  status: ('A' for Active; 'I' for Inactive)
REMARK    1  A    between atoms: C2_5  and  N2_6 
REMARK    2  A    between atoms: N2_6  and  C3_8 
REMARK    3  A    between atoms: C15_20  and  C16_21 
REMARK    4  A    between atoms: C19_26  and  N4_27 
REMARK    5  A    between atoms: N4_27  and  C20_29 
REMARK    6  A    between atoms: C20_29  and  C21_30 
ROOT
HETATM    1  O1  UNL     1       0.657   1.507   1.060  1.00  0.00    -0.267 OA
HETATM    2  C1  UNL     1       1.334   0.548   0.612  1.00  0.00     0.259 A 
HETATM    3  N1  UNL     1       2.653   0.719   0.323  1.00  0.00    -0.308 N 
ATOM      4  H1  UNL     1       3.074   1.635   0.478  1.00  0.00     0.170 HD
HETATM    5  C2  UNL     1       3.430  -0.283  -0.164  1.00  0.00     0.119 A 
HETATM    6  C9  UNL     1       2.837  -1.514  -0.367  1.00  0.00     0.019 A 
HETATM    7  C10 UNL     1       3.554  -2.578  -0.863  1.00  0.00     0.016 A 
HETATM    8  C11 UNL     1       2.958  -3.802  -1.068  1.00  0.00     0.001 A 
HETATM    9  C12 UNL     1       1.629  -3.947  -0.768  1.00  0.00     0.001 A 
HETATM   10  C13 UNL     1       0.878  -2.909  -0.271  1.00  0.00     0.013 A 
HETATM   11  C14 UNL     1       1.470  -1.683  -0.065  1.00  0.00    -0.006 A 
HETATM   12  C15 UNL     1       0.704  -0.654   0.427  1.00  0.00     0.053 A 
ENDROOT
BRANCH  12  13
HETATM   13  C16 UNL     1      -0.717  -0.804   0.756  1.00  0.00    -0.015 A 
HETATM   14  C17 UNL     1      -1.085  -0.983   2.084  1.00  0.00     0.029 A 
HETATM   15  C18 UNL     1      -2.405  -1.126   2.441  1.00  0.00     0.090 A 
HETATM   16  N3  UNL     1      -3.372  -1.094   1.484  1.00  0.00    -0.353 N 
HETATM   17  C19 UNL     1      -3.068  -0.924   0.188  1.00  0.00     0.101 A 
ATOM     18  H3  UNL     1      -4.349  -1.202   1.758  1.00  0.00     0.166 HD
HETATM   19  C27 UNL     1      -1.726  -0.778  -0.176  1.00  0.00     0.060 A 
BRANCH  17  20
HETATM   20  N4  UNL     1      -3.957  -0.897  -0.718  1.00  0.00    -0.372 N 
ATOM     21  H4  UNL     1      -3.632  -0.764  -1.676  1.00  0.00     0.161 HD
BRANCH  20  22
HETATM   22  C20 UNL     1      -5.381  -1.036  -0.530  1.00  0.00     0.159 C 
BRANCH  22  23
HETATM   23  C21 UNL     1      -6.009   0.264  -0.218  1.00  0.00    -0.041 A 
HETATM   24  C22 UNL     1      -7.299   0.218   0.323  1.00  0.00     0.009 A 
HETATM   25  C23 UNL     1      -7.899   1.403   0.611  1.00  0.00     0.001 A 
HETATM   26  C24 UNL     1      -7.289   2.603   0.392  1.00  0.00     0.000 A 
HETATM   27  C25 UNL     1      -6.011   2.618  -0.144  1.00  0.00     0.001 A 
HETATM   28  C26 UNL     1      -5.368   1.435  -0.451  1.00  0.00     0.009 A 
ENDBRANCH  22  23
ENDBRANCH  20  22
ENDBRANCH  17  20
ENDBRANCH  12  13
BRANCH   5  29
HETATM   29  N2  UNL     1       4.801  -0.100  -0.409  1.00  0.00    -0.342 N 
ATOM     30  H2  UNL     1       5.314  -0.936  -0.691  1.00  0.00     0.167 HD
BRANCH  29  31
HETATM   31  C3  UNL     1       5.560   1.074  -0.319  1.00  0.00     0.033 A 
HETATM   32  C4  UNL     1       6.809   1.022   0.257  1.00  0.00     0.029 A 
HETATM   33  C5  UNL     1       7.644   2.111   0.350  1.00  0.00     0.002 A 
HETATM   34  C6  UNL     1       7.239   3.319  -0.147  1.00  0.00     0.000 A 
HETATM   35  C7  UNL     1       5.994   3.409  -0.731  1.00  0.00     0.002 A 
HETATM   36  C8  UNL     1       5.159   2.283  -0.815  1.00  0.00     0.029 A 
ENDBRANCH  29  31
ENDBRANCH   5  29
TORSDOF 6
