REMARK  5 active torsions:
REMARK  status: ('A' for Active; 'I' for Inactive)
REMARK       I    between atoms: C1_2  and  N1_3 
REMARK    1  A    between atoms: C1_2  and  C24_30 
REMARK    2  A    between atoms: N1_3  and  C2_5 
REMARK    3  A    between atoms: C6_9  and  C7_10 
REMARK    4  A    between atoms: C10_13  and  C11_14 
REMARK    5  A    between atoms: C11_14  and  C12_15 
ROOT
HETATM    1  C7  UNL     1       0.480  -0.134  -0.999  1.00  0.00    -0.026 A 
HETATM    2  C8  UNL     1       0.163   0.345   0.251  1.00  0.00     0.013 A 
HETATM    3  C9  UNL     1      -1.073   0.951   0.478  1.00  0.00     0.008 A 
HETATM    4  C10 UNL     1      -2.010   1.083  -0.556  1.00  0.00    -0.054 A 
HETATM    5  C21 UNL     1      -1.639   0.593  -1.761  1.00  0.00     0.008 A 
HETATM    6  C22 UNL     1      -0.427  -0.012  -2.024  1.00  0.00     0.013 A 
ENDROOT
BRANCH   1   7
HETATM    7  C6  UNL     1       1.772  -0.756  -1.208  1.00  0.00    -0.024 A 
HETATM    8  C5  UNL     1       1.934  -1.764  -2.129  1.00  0.00     0.012 A 
HETATM    9  C4  UNL     1       3.170  -2.362  -2.339  1.00  0.00     0.003 A 
HETATM   10  C3  UNL     1       4.233  -1.921  -1.602  1.00  0.00     0.029 A 
HETATM   11  C2  UNL     1       4.131  -0.889  -0.640  1.00  0.00     0.035 A 
HETATM   12  C23 UNL     1       2.891  -0.334  -0.473  1.00  0.00     0.042 A 
BRANCH  11  13
HETATM   13  N1  UNL     1       5.300  -0.509   0.040  1.00  0.00    -0.323 N 
HETATM   14  C1  UNL     1       5.334   0.271   1.196  1.00  0.00     0.259 C 
HETATM   15  O1  UNL     1       4.354   0.752   1.816  1.00  0.00    -0.267 OA
ATOM     16  H1  UNL     1       6.191  -0.827  -0.340  1.00  0.00     0.169 HD
BRANCH  14  17
HETATM   17  C24 UNL     1       6.647   0.607   1.813  1.00  0.00     0.066 A 
HETATM   18  C25 UNL     1       6.851   1.260   2.991  1.00  0.00     0.125 A 
HETATM   19  N3  UNL     1       8.182   1.351   3.161  1.00  0.00    -0.311 N 
HETATM   20  N4  UNL     1       8.814   0.786   2.147  1.00  0.00    -0.311 N 
ATOM     21  H3  UNL     1       8.639   1.793   3.959  1.00  0.00     0.186 HD
HETATM   22  C26 UNL     1       7.889   0.317   1.296  1.00  0.00     0.125 A 
ATOM     23  H4  UNL     1       9.825   0.719   2.032  1.00  0.00     0.186 HD
ENDBRANCH  14  17
ENDBRANCH  11  13
ENDBRANCH   1   7
BRANCH   4  24
HETATM   24  C11 UNL     1      -3.275   1.760  -0.205  1.00  0.00     0.078 C 
BRANCH  24  25
HETATM   25  C12 UNL     1      -4.253   0.903   0.492  1.00  0.00    -0.036 A 
HETATM   26  C13 UNL     1      -4.206   0.897   1.899  1.00  0.00     0.082 A 
HETATM   27  C14 UNL     1      -5.054   0.049   2.574  1.00  0.00     0.246 A 
HETATM   28  O2  UNL     1      -4.970   0.084   3.845  1.00  0.00    -0.268 OA
HETATM   29  N2  UNL     1      -5.912  -0.759   1.936  1.00  0.00    -0.323 N 
HETATM   30  C15 UNL     1      -5.950  -0.744   0.591  1.00  0.00     0.045 A 
ATOM     31  H2  UNL     1      -6.528  -1.377   2.463  1.00  0.00     0.169 HD
HETATM   32  C16 UNL     1      -6.851  -1.565  -0.073  1.00  0.00     0.030 A 
HETATM   33  C20 UNL     1      -5.120   0.091  -0.170  1.00  0.00    -0.003 A 
HETATM   34  C17 UNL     1      -6.936  -1.566  -1.448  1.00  0.00     0.002 A 
HETATM   35  C18 UNL     1      -6.130  -0.750  -2.216  1.00  0.00     0.001 A 
HETATM   36  C19 UNL     1      -5.220   0.078  -1.530  1.00  0.00     0.014 A 
ENDBRANCH  24  25
ENDBRANCH   4  24
TORSDOF 5
