REMARK  13 active torsions:
REMARK  status: ('A' for Active; 'I' for Inactive)
REMARK    1  A    between atoms: C4_6  and  C5_7 
REMARK    2  A    between atoms: C5_7  and  C6_8 
REMARK    3  A    between atoms: C10_15  and  C11_16 
REMARK    4  A    between atoms: C11_16  and  C12_17 
REMARK    5  A    between atoms: C16_24  and  C18_26 
REMARK    6  A    between atoms: C18_26  and  O3_27 
REMARK    7  A    between atoms: C19_31  and  O4_32 
REMARK    8  A    between atoms: N6_38  and  C22_39 
REMARK    9  A    between atoms: C22_39  and  C23_40 
REMARK   10  A    between atoms: N7_43  and  C26_44 
REMARK   11  A    between atoms: C26_44  and  C27_45 
REMARK   12  A    between atoms: C27_45  and  C28_46 
REMARK   13  A    between atoms: C28_46  and  C29_47 
ROOT
HETATM    1  C1  UNL     1       0.889   0.769   2.654  1.00  0.00     0.065 C 
HETATM    2  C2  UNL     1       0.341  -0.078   1.788  1.00  0.00     0.113 C 
HETATM    3  N1  UNL     1      -0.778   0.364   1.047  1.00  0.00    -0.374 N 
ATOM      4  H1  UNL     1      -1.230  -0.232   0.353  1.00  0.00     0.161 HD
HETATM    5  C3  UNL     1      -1.242   1.682   1.317  1.00  0.00     0.146 C 
HETATM    6  C4  UNL     1      -2.283   2.104   0.263  1.00  0.00     0.102 C 
HETATM    7  N2  UNL     1      -3.638   1.789   0.638  1.00  0.00    -0.353 N 
ATOM      8  H2  UNL     1      -3.987   2.252   1.477  1.00  0.00     0.163 HD
HETATM    9  C9  UNL     1      -4.547   0.918  -0.010  1.00  0.00     0.240 C 
HETATM   10  O1  UNL     1      -5.582   1.480  -0.521  1.00  0.00    -0.271 OA
HETATM   11  C10 UNL     1      -4.439  -0.544  -0.159  1.00  0.00     0.177 C 
HETATM   12  N3  UNL     1      -4.751  -1.045  -1.490  1.00  0.00    -0.346 N 
ATOM     13  H3  UNL     1      -5.322  -0.439  -2.079  1.00  0.00     0.163 HD
HETATM   14  C15 UNL     1      -4.355  -2.268  -2.055  1.00  0.00     0.248 C 
HETATM   15  O2  UNL     1      -5.257  -3.040  -2.498  1.00  0.00    -0.271 OA
HETATM   16  C16 UNL     1      -2.940  -2.795  -2.206  1.00  0.00     0.131 C 
HETATM   17  C17 UNL     1      -3.015  -4.016  -3.201  1.00  0.00     0.051 C 
HETATM   18  N4  UNL     1      -2.487  -3.405  -1.007  1.00  0.00    -0.350 N 
ATOM     19  H4  UNL     1      -3.070  -4.221  -0.822  1.00  0.00     0.163 HD
HETATM   20  C19 UNL     1      -1.567  -3.304  -0.018  1.00  0.00     0.161 C 
HETATM   21  C20 UNL     1      -0.112  -3.122   0.143  1.00  0.00     0.073 C 
HETATM   22  C21 UNL     1       0.702  -2.823  -1.040  1.00  0.00     0.074 C 
HETATM   23  N5  UNL     1       0.152  -2.505   1.361  1.00  0.00    -0.293 N 
ATOM     24  H5  UNL     1      -0.271  -2.956   2.172  1.00  0.00     0.187 HD
HETATM   25  N6  UNL     1       0.870  -1.419   1.635  1.00  0.00    -0.251 N 
ENDROOT
BRANCH  25  26
HETATM   26  C22 UNL     1       2.273  -1.522   1.889  1.00  0.00     0.130 C 
BRANCH  26  27
HETATM   27  C23 UNL     1       3.220  -0.757   1.126  1.00  0.00    -0.010 A 
HETATM   28  C24 UNL     1       2.955   0.088   0.115  1.00  0.00     0.030 A 
HETATM   29  C25 UNL     1       3.937   0.809  -0.573  1.00  0.00     0.091 A 
HETATM   30  N7  UNL     1       5.218   0.670  -0.230  1.00  0.00    -0.366 N 
HETATM   31  C31 UNL     1       5.508  -0.177   0.784  1.00  0.00     0.098 A 
HETATM   32  C32 UNL     1       4.572  -0.899   1.480  1.00  0.00    -0.035 A 
HETATM   33  C33 UNL     1       4.962  -1.822   2.588  1.00  0.00     0.050 C 
BRANCH  30  34
HETATM   34  C26 UNL     1       6.310   1.406  -0.896  1.00  0.00     0.128 C 
BRANCH  34  35
HETATM   35  C27 UNL     1       6.858   0.664  -2.059  1.00  0.00     0.020 C 
BRANCH  35  36
HETATM   36  C28 UNL     1       7.977   1.489  -2.666  1.00  0.00     0.001 C 
BRANCH  36  37
HETATM   37  C29 UNL     1       9.091   1.746  -1.687  1.00  0.00    -0.004 C 
HETATM   38  C30 UNL     1       9.726   0.480  -1.174  1.00  0.00     0.005 C 
ENDBRANCH  36  37
ENDBRANCH  35  36
ENDBRANCH  34  35
ENDBRANCH  30  34
ENDBRANCH  26  27
ENDBRANCH  25  26
BRANCH  20  39
HETATM   39  O4  UNL     1      -2.098  -3.396   1.199  1.00  0.00    -0.345 OA
ATOM     40  H4  UNL     1      -1.453  -3.325   1.893  1.00  0.00     0.219 HD
ENDBRANCH  20  39
BRANCH   6  41
HETATM   41  C5  UNL     1      -2.072   3.465  -0.267  1.00  0.00     0.030 C 
BRANCH  41  42
HETATM   42  C6  UNL     1      -2.086   4.619   0.643  1.00  0.00    -0.021 C 
HETATM   43  C7  UNL     1      -1.826   5.861  -0.242  1.00  0.00     0.009 C 
HETATM   44  C8  UNL     1      -3.410   4.921   1.311  1.00  0.00     0.009 C 
ENDBRANCH  41  42
ENDBRANCH   6  41
BRANCH  16  45
HETATM   45  C18 UNL     1      -2.108  -1.859  -2.974  1.00  0.00     0.204 C 
BRANCH  45  46
HETATM   46  O3  UNL     1      -1.717  -0.682  -2.396  1.00  0.00    -0.398 OA
ATOM     47  H3  UNL     1      -1.179  -0.077  -2.893  1.00  0.00     0.209 HD
ENDBRANCH  45  46
ENDBRANCH  16  45
BRANCH  11  48
HETATM   48  C11 UNL     1      -5.042  -1.339   0.938  1.00  0.00     0.038 C 
BRANCH  48  49
HETATM   49  C12 UNL     1      -6.465  -1.228   1.269  1.00  0.00    -0.020 C 
HETATM   50  C13 UNL     1      -6.681  -2.244   2.432  1.00  0.00     0.009 C 
HETATM   51  C14 UNL     1      -6.940   0.075   1.838  1.00  0.00     0.009 C 
ENDBRANCH  48  49
ENDBRANCH  11  48
TORSDOF 13
