REMARK  12 active torsions:
REMARK  status: ('A' for Active; 'I' for Inactive)
REMARK    1  A    between atoms: C2_3  and  C3_4 
REMARK       I    between atoms: C3_4  and  N2_6 
REMARK    2  A    between atoms: N2_6  and  C4_8 
REMARK    3  A    between atoms: C4_8  and  C5_9 
REMARK    4  A    between atoms: C16_20  and  C17_21 
REMARK       I    between atoms: C17_21  and  N3_23 
REMARK    5  A    between atoms: N3_23  and  C18_25 
REMARK    6  A    between atoms: C18_25  and  C19_26 
REMARK    7  A    between atoms: C18_25  and  C23_34 
REMARK    8  A    between atoms: C19_26  and  C20_27 
REMARK    9  A    between atoms: C20_27  and  C21_28 
REMARK   10  A    between atoms: C21_28  and  N4_29 
REMARK       I    between atoms: C23_34  and  N7_36 
REMARK   11  A    between atoms: C24_38  and  C25_39 
REMARK   12  A    between atoms: C25_39  and  N8_40 
REMARK       I    between atoms: N9_43  and  C28_44 
ROOT
HETATM    1  C1  UNL     1      -3.522   1.003   2.682  1.00  0.00     0.222 C 
HETATM    2  N1  UNL     1      -3.912   0.354   1.785  1.00  0.00    -0.450 NA
HETATM    3  C2  UNL     1      -4.410  -0.409   0.705  1.00  0.00     0.176 C 
HETATM    4  C8  UNL     1      -3.325  -0.557  -0.398  1.00  0.00     0.067 C 
HETATM    5  C9  UNL     1      -3.070  -1.985  -0.337  1.00  0.00    -0.015 A 
HETATM    6  C10 UNL     1      -4.508  -2.393  -0.329  1.00  0.00     0.020 C 
HETATM    7  C11 UNL     1      -4.827  -1.786   1.039  1.00  0.00     0.042 C 
HETATM    8  C12 UNL     1      -4.067  -2.660   1.951  1.00  0.00    -0.005 C 
HETATM    9  C13 UNL     1      -3.999  -4.125   1.441  1.00  0.00     0.005 C 
HETATM   10  C14 UNL     1      -2.859  -4.381   0.524  1.00  0.00     0.007 C 
HETATM   11  C15 UNL     1      -2.294  -3.137  -0.205  1.00  0.00     0.014 A 
HETATM   12  C16 UNL     1      -2.128  -2.132   0.747  1.00  0.00     0.054 A 
HETATM   13  C31 UNL     1      -2.610  -2.400   2.123  1.00  0.00     0.025 C 
ENDROOT
BRANCH   3  14
HETATM   14  C3  UNL     1      -5.570   0.294   0.088  1.00  0.00     0.260 C 
HETATM   15  O1  UNL     1      -6.341  -0.150  -0.788  1.00  0.00    -0.269 OA
HETATM   16  N2  UNL     1      -5.878   1.621   0.507  1.00  0.00    -0.358 N 
ATOM     17  H2  UNL     1      -5.302   2.070   1.219  1.00  0.00     0.162 HD
BRANCH  16  18
HETATM   18  C4  UNL     1      -7.018   2.355  -0.075  1.00  0.00     0.126 C 
BRANCH  18  19
HETATM   19  C5  UNL     1      -7.131   3.729   0.532  1.00  0.00    -0.005 C 
HETATM   20  C6  UNL     1      -5.908   4.566   0.314  1.00  0.00     0.011 C 
HETATM   21  C7  UNL     1      -8.365   4.422   0.010  1.00  0.00     0.011 C 
ENDBRANCH  18  19
ENDBRANCH  16  18
ENDBRANCH   3  14
BRANCH  12  22
HETATM   22  C17 UNL     1      -0.862  -1.355   0.712  1.00  0.00     0.228 C 
HETATM   23  O2  UNL     1      -0.474  -0.598   1.641  1.00  0.00    -0.273 OA
HETATM   24  N3  UNL     1       0.037  -1.417  -0.423  1.00  0.00    -0.347 N 
ATOM     25  H3  UNL     1      -0.213  -2.009  -1.215  1.00  0.00     0.163 HD
BRANCH  24  26
HETATM   26  C18 UNL     1       1.264  -0.679  -0.475  1.00  0.00     0.177 C 
BRANCH  26  27
HETATM   27  C19 UNL     1       2.440  -1.358  -1.068  1.00  0.00     0.036 C 
BRANCH  27  28
HETATM   28  C20 UNL     1       2.953  -2.592  -0.454  1.00  0.00     0.022 C 
BRANCH  28  29
HETATM   29  C21 UNL     1       2.031  -3.759  -0.417  1.00  0.00     0.122 C 
BRANCH  29  30
HETATM   30  N4  UNL     1       2.742  -4.893   0.196  1.00  0.00    -0.367 N 
HETATM   31  C22 UNL     1       3.419  -5.718  -0.540  1.00  0.00     0.196 C 
HETATM   32  N5  UNL     1       3.517  -5.589  -1.944  1.00  0.00    -0.067 NA
HETATM   33  N6  UNL     1       4.077  -6.785   0.119  1.00  0.00    -0.067 NA
ATOM     34  H4  UNL     1       2.702  -5.030   1.206  1.00  0.00     0.161 HD
ENDBRANCH  29  30
ENDBRANCH  28  29
ENDBRANCH  27  28
ENDBRANCH  26  27
BRANCH  26  35
HETATM   35  C23 UNL     1       1.065   0.582  -1.311  1.00  0.00     0.244 C 
HETATM   36  O3  UNL     1      -0.119   0.821  -1.745  1.00  0.00    -0.271 OA
HETATM   37  N7  UNL     1       2.050   1.482  -1.641  1.00  0.00    -0.337 N 
HETATM   38  C24 UNL     1       2.924   2.143  -1.064  1.00  0.00     0.094 C 
ATOM     39  H7  UNL     1       2.066   1.654  -2.646  1.00  0.00     0.167 HD
BRANCH  38  40
HETATM   40  C25 UNL     1       3.275   2.219   0.369  1.00  0.00     0.317 C 
BRANCH  40  41
HETATM   41  N8  UNL     1       4.613   2.764   0.574  1.00  0.00     0.096 N 
HETATM   42  C26 UNL     1       5.569   1.822   0.075  1.00  0.00     0.292 C 
HETATM   43  C27 UNL     1       6.990   2.258   0.245  1.00  0.00     0.156 C 
HETATM   44  N9  UNL     1       7.160   3.698   0.289  1.00  0.00    -0.353 N 
HETATM   45  C28 UNL     1       8.451   4.209  -0.019  1.00  0.00     0.184 C 
HETATM   46  C29 UNL     1       6.094   4.620   0.627  1.00  0.00     0.156 C 
HETATM   47  N10 UNL     1       9.227   4.675   0.904  1.00  0.00    -0.374 N 
HETATM   48  N11 UNL     1       8.926   4.219  -1.358  1.00  0.00    -0.064 NA
ATOM     49 2H10 UNL     1       8.886   4.668   1.865  1.00  0.00     0.158 HD
ATOM     50 1H10 UNL     1      10.153   5.041   0.683  1.00  0.00     0.158 HD
HETATM   51  C30 UNL     1       4.816   4.050  -0.001  1.00  0.00     0.292 C 
ENDBRANCH  40  41
ENDBRANCH  38  40
ENDBRANCH  26  35
ENDBRANCH  24  26
ENDBRANCH  12  22
TORSDOF 12
