REMARK  14 active torsions:
REMARK  status: ('A' for Active; 'I' for Inactive)
REMARK    1  A    between atoms: C5_7  and  C6_8 
REMARK    2  A    between atoms: C6_8  and  C7_9 
REMARK    3  A    between atoms: C7_9  and  N2_10 
REMARK    4  A    between atoms: C8_11  and  C9_12 
REMARK    5  A    between atoms: C9_12  and  C10_13 
REMARK    6  A    between atoms: C13_16  and  O1_17 
REMARK    7  A    between atoms: C14_21  and  C15_22 
REMARK    8  A    between atoms: C15_22  and  C16_23 
REMARK    9  A    between atoms: C16_23  and  C17_24 
REMARK   10  A    between atoms: C17_24  and  N4_25 
REMARK   11  A    between atoms: C19_30  and  O2_31 
REMARK   12  A    between atoms: C20_35  and  C21_36 
REMARK   13  A    between atoms: C21_36  and  C22_37 
REMARK   14  A    between atoms: C26_44  and  C27_45 
ROOT
HETATM    1  C1  UNL     1       7.302  -2.456  -3.598  1.00  0.00     0.018 C 
HETATM    2  C2  UNL     1       6.507  -1.722  -3.048  1.00  0.00    -0.076 C 
HETATM    3  C3  UNL     1       5.570  -0.851  -2.366  1.00  0.00     0.034 A 
HETATM    4  C4  UNL     1       4.521  -0.163  -2.931  1.00  0.00     0.108 A 
HETATM    5  N1  UNL     1       3.855   0.560  -1.973  1.00  0.00    -0.368 N 
ATOM      6  H1  UNL     1       3.042   1.156  -2.126  1.00  0.00     0.165 HD
HETATM    7  C5  UNL     1       4.459   0.344  -0.814  1.00  0.00     0.011 A 
HETATM    8  C32 UNL     1       5.540  -0.537  -1.028  1.00  0.00     0.047 A 
ENDROOT
BRANCH   7   9
HETATM    9  C6  UNL     1       4.130   0.886   0.532  1.00  0.00     0.073 C 
BRANCH   9  10
HETATM   10  C7  UNL     1       3.223  -0.035   1.235  1.00  0.00     0.121 C 
BRANCH  10  11
HETATM   11  N2  UNL     1       1.919  -0.304   0.812  1.00  0.00    -0.214 NA
HETATM   12  C8  UNL     1       0.892   0.721   1.075  1.00  0.00     0.154 C 
HETATM   13  C13 UNL     1       0.447   1.358  -0.156  1.00  0.00     0.136 C 
HETATM   14  N3  UNL     1      -0.591   1.140  -1.060  1.00  0.00    -0.339 N 
HETATM   15  C14 UNL     1      -1.954   1.356  -1.208  1.00  0.00     0.062 C 
ATOM     16  H3  UNL     1      -0.229   0.664  -1.887  1.00  0.00     0.167 HD
HETATM   17  C19 UNL     1      -2.855   0.268  -0.790  1.00  0.00     0.159 C 
HETATM   18  N7  UNL     1      -2.788  -1.108  -0.889  1.00  0.00    -0.356 N 
HETATM   19  C20 UNL     1      -1.778  -2.061  -0.528  1.00  0.00     0.176 C 
ATOM     20  H7  UNL     1      -3.621  -1.530  -1.300  1.00  0.00     0.162 HD
HETATM   21  C25 UNL     1      -0.910  -2.410  -1.709  1.00  0.00     0.241 C 
HETATM   22  O3  UNL     1      -1.583  -2.902  -2.662  1.00  0.00    -0.271 OA
HETATM   23  N8  UNL     1       0.469  -2.259  -1.856  1.00  0.00    -0.346 N 
HETATM   24  C26 UNL     1       1.567  -2.732  -1.086  1.00  0.00     0.181 C 
ATOM     25  H8  UNL     1       0.741  -1.705  -2.668  1.00  0.00     0.163 HD
HETATM   26  C30 UNL     1       1.447  -2.708   0.373  1.00  0.00     0.257 C 
HETATM   27  O4  UNL     1       1.221  -3.835   0.911  1.00  0.00    -0.270 OA
HETATM   28  N9  UNL     1       1.557  -1.587   1.226  1.00  0.00    -0.282 N 
HETATM   29  C31 UNL     1       1.279  -1.804   2.635  1.00  0.00     0.175 C 
BRANCH  12  30
HETATM   30  C9  UNL     1       1.232   1.520   2.254  1.00  0.00     0.034 C 
BRANCH  30  31
HETATM   31  C10 UNL     1       0.415   2.608   2.804  1.00  0.00    -0.021 C 
HETATM   32  C11 UNL     1       0.161   3.831   1.981  1.00  0.00     0.009 C 
HETATM   33  C12 UNL     1       1.056   3.155   4.118  1.00  0.00     0.009 C 
ENDBRANCH  30  31
ENDBRANCH  12  30
BRANCH  13  34
HETATM   34  O1  UNL     1       1.214   2.363  -0.476  1.00  0.00    -0.348 OA
ATOM     35  H1  UNL     1       0.924   2.779  -1.279  1.00  0.00     0.219 HD
ENDBRANCH  13  34
BRANCH  15  36
HETATM   36  C15 UNL     1      -2.549   2.687  -0.839  1.00  0.00     0.063 C 
BRANCH  36  37
HETATM   37  C16 UNL     1      -1.996   3.848  -1.621  1.00  0.00     0.026 C 
BRANCH  37  38
HETATM   38  C17 UNL     1      -2.734   5.095  -1.099  1.00  0.00     0.122 C 
BRANCH  38  39
HETATM   39  N4  UNL     1      -4.150   4.898  -1.344  1.00  0.00    -0.367 N 
HETATM   40  C18 UNL     1      -4.938   5.909  -1.147  1.00  0.00     0.196 C 
HETATM   41  N5  UNL     1      -4.467   7.174  -0.709  1.00  0.00    -0.067 NA
HETATM   42  N6  UNL     1      -6.343   5.766  -1.374  1.00  0.00    -0.067 NA
ATOM     43  H4  UNL     1      -4.512   3.998  -1.659  1.00  0.00     0.161 HD
ENDBRANCH  38  39
ENDBRANCH  37  38
ENDBRANCH  36  37
ENDBRANCH  15  36
BRANCH  17  44
HETATM   44  O2  UNL     1      -3.935   0.740  -0.215  1.00  0.00    -0.345 OA
ATOM     45  H2  UNL     1      -4.516   0.038   0.055  1.00  0.00     0.219 HD
ENDBRANCH  17  44
BRANCH  19  46
HETATM   46  C21 UNL     1      -2.395  -3.314   0.030  1.00  0.00     0.038 C 
BRANCH  46  47
HETATM   47  C22 UNL     1      -3.192  -3.237   1.268  1.00  0.00    -0.020 C 
HETATM   48  C23 UNL     1      -3.630  -4.703   1.559  1.00  0.00     0.009 C 
HETATM   49  C24 UNL     1      -4.388  -2.363   1.305  1.00  0.00     0.009 C 
ENDBRANCH  46  47
ENDBRANCH  19  46
BRANCH  24  50
HETATM   50  C27 UNL     1       2.100  -4.080  -1.610  1.00  0.00     0.009 C 
HETATM   51  C28 UNL     1       3.256  -4.560  -0.787  1.00  0.00     0.012 C 
HETATM   52  C29 UNL     1       1.064  -5.126  -1.746  1.00  0.00     0.012 C 
ENDBRANCH  24  50
ENDBRANCH  10  11
ENDBRANCH   9  10
ENDBRANCH   7   9
TORSDOF 14
