REMARK  12 active torsions:
REMARK  status: ('A' for Active; 'I' for Inactive)
REMARK    1  A    between atoms: C2_2  and  C3_3 
REMARK    2  A    between atoms: C3_3  and  C4_4 
REMARK    3  A    between atoms: C4_4  and  C5_5 
REMARK    4  A    between atoms: C4_4  and  C7_7 
REMARK    5  A    between atoms: C9_12  and  C10_13 
REMARK    6  A    between atoms: C10_13  and  S1_14 
REMARK    7  A    between atoms: C13_17  and  C14_18 
REMARK    8  A    between atoms: C14_18  and  C15_19 
REMARK    9  A    between atoms: C22_32  and  C23_33 
REMARK   10  A    between atoms: C25_39  and  C26_40 
REMARK   11  A    between atoms: C26_40  and  C27_41 
REMARK   12  A    between atoms: C31_49  and  O6_50 
ROOT
HETATM    1  C7  UNL     1       0.426   2.090   0.802  1.00  0.00     0.088 C 
HETATM    2  N1  UNL     1      -0.678   1.584   0.005  1.00  0.00    -0.319 N 
ATOM      3  H1  UNL     1      -1.164   2.321  -0.506  1.00  0.00     0.169 HD
HETATM    4  C8  UNL     1      -1.219   0.335  -0.219  1.00  0.00     0.254 C 
HETATM    5  O1  UNL     1      -0.888  -0.161  -1.374  1.00  0.00    -0.268 OA
HETATM    6  C9  UNL     1      -2.087  -0.563   0.558  1.00  0.00     0.034 C 
HETATM    7  C13 UNL     1      -3.270  -1.204   0.054  1.00  0.00     0.041 C 
HETATM    8  C18 UNL     1      -3.330  -2.652   0.501  1.00  0.00     0.252 C 
HETATM    9  O2  UNL     1      -3.846  -2.990   1.629  1.00  0.00    -0.268 OA
HETATM   10  N2  UNL     1      -2.848  -3.738  -0.243  1.00  0.00    -0.344 N 
ATOM     11  H2  UNL     1      -3.491  -4.520  -0.370  1.00  0.00     0.163 HD
HETATM   12  C19 UNL     1      -1.537  -3.876  -0.853  1.00  0.00     0.172 C 
HETATM   13  C20 UNL     1      -1.616  -4.789  -2.063  1.00  0.00     0.042 C 
HETATM   14  C21 UNL     1      -0.648  -4.439   0.197  1.00  0.00     0.242 C 
HETATM   15  O3  UNL     1      -1.078  -5.551   0.683  1.00  0.00    -0.271 OA
HETATM   16  N3  UNL     1       0.552  -3.895   0.679  1.00  0.00    -0.332 N 
ATOM     17  H3  UNL     1       0.552  -3.679   1.676  1.00  0.00     0.165 HD
HETATM   18  C22 UNL     1       1.770  -3.595   0.006  1.00  0.00     0.249 C 
HETATM   19  N4  UNL     1       1.764  -2.429  -0.839  1.00  0.00    -0.332 N 
ATOM     20  H4  UNL     1       1.010  -2.388  -1.525  1.00  0.00     0.165 HD
HETATM   21  C24 UNL     1       2.651  -1.341  -0.851  1.00  0.00     0.242 C 
HETATM   22  O5  UNL     1       3.293  -1.096  -1.954  1.00  0.00    -0.271 OA
HETATM   23  C25 UNL     1       2.969  -0.404   0.251  1.00  0.00     0.181 C 
HETATM   24  N6  UNL     1       1.855  -0.085   1.111  1.00  0.00    -0.355 N 
ATOM     25  H6  UNL     1       1.411  -0.906   1.523  1.00  0.00     0.162 HD
HETATM   26  C31 UNL     1       1.260   1.123   1.494  1.00  0.00     0.164 C 
ENDROOT
BRANCH  23  27
HETATM   27  C26 UNL     1       4.141  -0.951   1.101  1.00  0.00     0.091 C 
BRANCH  27  28
HETATM   28  C27 UNL     1       5.306  -1.111   0.233  1.00  0.00     0.011 A 
HETATM   29  C28 UNL     1       6.271  -0.125  -0.003  1.00  0.00     0.026 A 
HETATM   30  C29 UNL     1       7.228  -0.611  -0.869  1.00  0.00     0.019 A 
HETATM   31  C30 UNL     1       6.842  -1.897  -1.159  1.00  0.00     0.088 A 
HETATM   32  N5  UNL     1       5.706  -2.163  -0.494  1.00  0.00    -0.369 N 
ATOM     33  H5  UNL     1       5.210  -3.053  -0.537  1.00  0.00     0.165 HD
ENDBRANCH  27  28
ENDBRANCH  23  27
BRANCH  26  34
HETATM   34  O6  UNL     1       1.523   1.420   2.748  1.00  0.00    -0.345 OA
ATOM     35  H6  UNL     1       2.069   0.788   3.201  1.00  0.00     0.219 HD
ENDBRANCH  26  34
BRANCH  18  36
HETATM   36  C23 UNL     1       2.276  -4.715  -0.864  1.00  0.00     0.277 C 
HETATM   37  O4  UNL     1       1.693  -5.762  -0.952  1.00  0.00    -0.303 OA
ENDBRANCH  18  36
BRANCH   1  38
HETATM   38  C4  UNL     1       1.077   3.304   0.199  1.00  0.00    -0.049 C 
BRANCH  38  39
HETATM   39  C3  UNL     1       2.234   3.808   1.005  1.00  0.00     0.036 C 
BRANCH  39  40
HETATM   40  C2  UNL     1       2.509   5.267   0.753  1.00  0.00    -0.000 C 
HETATM   41  C1  UNL     1       1.357   6.157   1.087  1.00  0.00     0.005 C 
ENDBRANCH  39  40
ENDBRANCH  38  39
BRANCH  38  42
HETATM   42  C5  UNL     1       1.195   3.398  -1.270  1.00  0.00     0.032 C 
HETATM   43  C6  UNL     1       2.296   2.710  -1.969  1.00  0.00     0.010 C 
ENDBRANCH  38  42
ENDBRANCH   1  38
BRANCH   6  44
HETATM   44  C10 UNL     1      -2.254  -0.170   1.998  1.00  0.00     0.108 C 
BRANCH  44  45
HETATM   45  S1  UNL     1      -2.954   1.321   2.443  1.00  0.00    -0.223 SA
HETATM   46  C11 UNL     1      -2.902   1.341   4.267  1.00  0.00     0.078 C 
HETATM   47  C12 UNL     1      -4.651   1.576   2.069  1.00  0.00     0.078 C 
ENDBRANCH  44  45
ENDBRANCH   6  44
BRANCH   7  48
HETATM   48  C14 UNL     1      -3.995  -1.090  -1.185  1.00  0.00    -0.005 C 
BRANCH  48  49
HETATM   49  C15 UNL     1      -4.667   0.143  -1.651  1.00  0.00     0.001 C 
HETATM   50  C16 UNL     1      -5.327  -0.248  -3.000  1.00  0.00     0.013 C 
HETATM   51  C17 UNL     1      -3.927   1.387  -1.886  1.00  0.00     0.013 C 
ENDBRANCH  48  49
ENDBRANCH   7  48
TORSDOF 12
