REMARK  17 active torsions:
REMARK  status: ('A' for Active; 'I' for Inactive)
REMARK    1  A    between atoms: S1_2  and  C2_3 
REMARK    2  A    between atoms: C2_3  and  C3_4 
REMARK    3  A    between atoms: C3_4  and  C4_5 
REMARK    4  A    between atoms: C4_5  and  C5_6 
REMARK    5  A    between atoms: C5_6  and  C6_7 
REMARK    6  A    between atoms: C6_7  and  C7_8 
REMARK    7  A    between atoms: C7_8  and  C8_9 
REMARK    8  A    between atoms: C9_12  and  O1_13 
REMARK    9  A    between atoms: N2_15  and  C10_16 
REMARK   10  A    between atoms: C10_16  and  C11_17 
REMARK   11  A    between atoms: C12_20  and  O4_21 
REMARK   12  A    between atoms: C13_23  and  C14_24 
REMARK   13  A    between atoms: C14_24  and  C15_25 
REMARK   14  A    between atoms: C15_25  and  C16_26 
REMARK   15  A    between atoms: C16_26  and  N3_27 
REMARK   16  A    between atoms: C19_36  and  C20_37 
REMARK   17  A    between atoms: C20_37  and  C21_38 
ROOT
HETATM    1  C8  UNL     1       1.771  -1.478   0.506  1.00  0.00     0.177 C 
HETATM    2  N1  UNL     1       1.905  -0.082   0.937  1.00  0.00    -0.343 N 
ATOM      3  H1  UNL     1       2.620   0.066   1.649  1.00  0.00     0.164 HD
HETATM    4  C9  UNL     1       1.230   1.092   0.551  1.00  0.00     0.222 C 
HETATM    5  N2  UNL     1      -0.042   1.712   0.708  1.00  0.00    -0.285 N 
HETATM    6  C12 UNL     1      -1.362   1.222   0.787  1.00  0.00     0.144 C 
HETATM    7  C13 UNL     1      -2.309   0.514  -0.091  1.00  0.00     0.159 C 
HETATM    8  N6  UNL     1      -3.064  -0.565   0.488  1.00  0.00    -0.347 N 
ATOM      9  H6  UNL     1      -3.669  -0.266   1.253  1.00  0.00     0.163 HD
HETATM   10  C18 UNL     1      -3.145  -1.933   0.226  1.00  0.00     0.241 C 
HETATM   11  O5  UNL     1      -4.179  -2.466  -0.226  1.00  0.00    -0.271 OA
HETATM   12  C19 UNL     1      -1.983  -2.933   0.463  1.00  0.00     0.177 C 
HETATM   13  N7  UNL     1      -0.817  -2.135   0.597  1.00  0.00    -0.346 N 
ATOM     14  H7  UNL     1      -0.915  -1.645   1.486  1.00  0.00     0.163 HD
HETATM   15  C24 UNL     1       0.353  -1.734   0.085  1.00  0.00     0.241 C 
HETATM   16  O6  UNL     1       0.414  -1.432  -1.171  1.00  0.00    -0.271 OA
ENDROOT
BRANCH   1  17
HETATM   17  C7  UNL     1       2.670  -1.847  -0.642  1.00  0.00     0.035 C 
BRANCH  17  18
HETATM   18  C6  UNL     1       4.119  -1.760  -0.533  1.00  0.00     0.002 C 
BRANCH  18  19
HETATM   19  C5  UNL     1       4.779  -0.453  -0.331  1.00  0.00     0.000 C 
BRANCH  19  20
HETATM   20  C4  UNL     1       6.309  -0.624  -0.270  1.00  0.00     0.001 C 
BRANCH  20  21
HETATM   21  C3  UNL     1       6.917   0.718  -0.045  1.00  0.00     0.010 C 
BRANCH  21  22
HETATM   22  C2  UNL     1       6.643   1.745  -1.091  1.00  0.00     0.073 C 
BRANCH  22  23
HETATM   23  S1  UNL     1       7.454   3.329  -0.715  1.00  0.00    -0.173 SA
HETATM   24  C1  UNL     1       6.768   4.103   0.760  1.00  0.00     0.089 C 
ENDBRANCH  22  23
ENDBRANCH  21  22
ENDBRANCH  20  21
ENDBRANCH  19  20
ENDBRANCH  18  19
ENDBRANCH  17  18
ENDBRANCH   1  17
BRANCH   4  25
HETATM   25  O1  UNL     1       2.011   1.857  -0.174  1.00  0.00    -0.332 OA
ATOM     26  H1  UNL     1       1.556   2.649  -0.434  1.00  0.00     0.220 HD
ENDBRANCH   4  25
BRANCH   5  27
HETATM   27  C10 UNL     1      -0.042   3.221   0.830  1.00  0.00     0.247 C 
BRANCH  27  28
HETATM   28  C11 UNL     1      -0.165   3.910  -0.415  1.00  0.00     0.192 C 
HETATM   29  O2  UNL     1      -0.207   5.153  -0.574  1.00  0.00    -0.647 OA
HETATM   30  O3  UNL     1      -0.250   3.162  -1.606  1.00  0.00    -0.647 OA
ENDBRANCH  27  28
ENDBRANCH   5  27
BRANCH  12  31
HETATM   31  C20 UNL     1      -2.117  -4.079  -0.422  1.00  0.00     0.038 C 
BRANCH  31  32
HETATM   32  C21 UNL     1      -1.189  -5.213  -0.375  1.00  0.00    -0.020 C 
HETATM   33  C22 UNL     1      -1.680  -6.221  -1.452  1.00  0.00     0.009 C 
HETATM   34  C23 UNL     1       0.246  -5.006  -0.656  1.00  0.00     0.009 C 
ENDBRANCH  31  32
ENDBRANCH  12  31
BRANCH   6  35
HETATM   35  O4  UNL     1      -1.931   1.441   1.944  1.00  0.00    -0.348 OA
ATOM     36  H4  UNL     1      -2.820   1.111   1.997  1.00  0.00     0.219 HD
ENDBRANCH   6  35
BRANCH   7  37
HETATM   37  C14 UNL     1      -3.378   1.467  -0.653  1.00  0.00     0.035 C 
BRANCH  37  38
HETATM   38  C15 UNL     1      -4.208   2.145   0.360  1.00  0.00     0.022 C 
BRANCH  38  39
HETATM   39  C16 UNL     1      -5.193   3.027  -0.431  1.00  0.00     0.122 C 
BRANCH  39  40
HETATM   40  N3  UNL     1      -6.044   3.729   0.469  1.00  0.00    -0.367 N 
HETATM   41  C17 UNL     1      -7.146   3.199   0.860  1.00  0.00     0.196 C 
HETATM   42  N4  UNL     1      -7.496   1.915   0.383  1.00  0.00    -0.067 NA
HETATM   43  N5  UNL     1      -7.952   3.942   1.755  1.00  0.00    -0.067 NA
ATOM     44  H3  UNL     1      -5.778   4.655   0.804  1.00  0.00     0.161 HD
ENDBRANCH  39  40
ENDBRANCH  38  39
ENDBRANCH  37  38
ENDBRANCH   7  37
TORSDOF 17
