REMARK  10 active torsions:
REMARK  status: ('A' for Active; 'I' for Inactive)
REMARK    1  A    between atoms: C2_3  and  C3_4 
REMARK    2  A    between atoms: C3_4  and  N2_5 
REMARK    3  A    between atoms: C4_8  and  O1_9 
REMARK    4  A    between atoms: O1_9  and  C5_10 
REMARK    5  A    between atoms: C5_10  and  C6_11 
REMARK    6  A    between atoms: C12_21  and  O2_22 
REMARK    7  A    between atoms: O2_22  and  C13_23 
REMARK    8  A    between atoms: C21_34  and  C22_35 
REMARK    9  A    between atoms: C22_35  and  O3_36 
REMARK   10  A    between atoms: N5_38  and  C23_39 
ROOT
HETATM    1  N1  UNL     1       1.811   1.413   3.917  1.00  0.00    -0.197 NA
HETATM    2  C1  UNL     1       1.924   0.478   3.246  1.00  0.00     0.061 C 
HETATM    3  C2  UNL     1       2.083  -0.690   2.437  1.00  0.00     0.158 C 
ENDROOT
BRANCH   3   4
HETATM    4  C3  UNL     1       1.758  -0.570   0.984  1.00  0.00     0.084 C 
HETATM    5  C19 UNL     1       1.802  -2.025   0.450  1.00  0.00     0.075 C 
HETATM    6  C20 UNL     1       3.164  -2.620   0.571  1.00  0.00     0.197 C 
HETATM    7  F4  UNL     1       3.122  -3.800  -0.186  1.00  0.00    -0.247 F 
HETATM    8  C21 UNL     1       4.271  -1.708   0.102  1.00  0.00     0.137 C 
HETATM    9  N5  UNL     1       3.718  -0.596  -0.539  1.00  0.00    -0.393 N 
HETATM   10  C26 UNL     1       2.725   0.169   0.141  1.00  0.00     0.152 C 
BRANCH   4  11
HETATM   11  N2  UNL     1       0.364  -0.184   0.781  1.00  0.00    -0.277 N 
HETATM   12  N3  UNL     1      -0.681  -0.994   0.723  1.00  0.00    -0.276 N 
HETATM   13  C4  UNL     1      -1.827  -0.378   0.526  1.00  0.00     0.170 A 
ATOM     14  H3  UNL     1      -0.605  -2.006   0.822  1.00  0.00     0.189 HD
HETATM   15  C10 UNL     1      -1.537   0.968   0.443  1.00  0.00     0.047 A 
HETATM   16  C11 UNL     1      -2.334   2.069   0.246  1.00  0.00     0.055 A 
HETATM   17  C18 UNL     1      -0.165   1.052   0.606  1.00  0.00     0.066 A 
HETATM   18  C12 UNL     1      -1.775   3.354   0.202  1.00  0.00     0.070 A 
HETATM   19  C16 UNL     1      -0.417   3.415   0.366  1.00  0.00     0.039 A 
HETATM   20  C17 UNL     1       0.386   2.292   0.566  1.00  0.00     0.035 A 
BRANCH  13  21
HETATM   21  O1  UNL     1      -3.125  -0.890   0.410  1.00  0.00    -0.334 OA
BRANCH  21  22
HETATM   22  C5  UNL     1      -3.264  -2.303   0.518  1.00  0.00     0.186 C 
BRANCH  22  23
HETATM   23  C6  UNL     1      -4.704  -2.730   0.378  1.00  0.00     0.071 C 
HETATM   24  C7  UNL     1      -5.269  -2.317  -0.967  1.00  0.00     0.241 C 
HETATM   25  N4  UNL     1      -6.430  -3.197  -1.067  1.00  0.00    -0.072 N 
HETATM   26  C8  UNL     1      -5.980  -4.472  -0.581  1.00  0.00     0.269 C 
ATOM     27  H42 UNL     1      -7.258  -2.843  -0.588  1.00  0.00     0.277 HD
ATOM     28  H41 UNL     1      -6.840  -3.233  -2.000  1.00  0.00     0.277 HD
HETATM   29  C9  UNL     1      -4.778  -4.237   0.289  1.00  0.00     0.203 C 
HETATM   30  F1  UNL     1      -3.669  -4.764  -0.353  1.00  0.00    -0.247 F 
ENDBRANCH  22  23
ENDBRANCH  21  22
ENDBRANCH  13  21
BRANCH  18  31
HETATM   31  O2  UNL     1      -2.583   4.453   0.004  1.00  0.00    -0.340 OA
BRANCH  31  32
HETATM   32  C13 UNL     1      -2.062   5.743  -0.046  1.00  0.00     0.206 A 
HETATM   33  C14 UNL     1      -2.808   6.669  -1.035  1.00  0.00     0.120 A 
HETATM   34  C15 UNL     1      -2.980   6.810   0.463  1.00  0.00     0.272 A 
HETATM   35  F2  UNL     1      -2.423   7.948   1.041  1.00  0.00    -0.203 F 
HETATM   36  F3  UNL     1      -4.182   6.437   1.013  1.00  0.00    -0.203 F 
ENDBRANCH  31  32
ENDBRANCH  18  31
ENDBRANCH   4  11
BRANCH   8  37
HETATM   37  C22 UNL     1       5.315  -2.429  -0.703  1.00  0.00     0.191 C 
BRANCH  37  38
HETATM   38  O3  UNL     1       4.900  -2.947  -1.900  1.00  0.00    -0.399 OA
ATOM     39  H3  UNL     1       5.560  -3.403  -2.409  1.00  0.00     0.209 HD
ENDBRANCH  37  38
ENDBRANCH   8  37
BRANCH   9  40
HETATM   40  C23 UNL     1       4.463   0.057  -1.529  1.00  0.00     0.127 C 
HETATM   41  C24 UNL     1       3.822   1.321  -2.063  1.00  0.00     0.194 C 
HETATM   42  O4  UNL     1       5.147   1.724  -2.373  1.00  0.00    -0.387 OA
HETATM   43  C25 UNL     1       5.480   1.076  -1.157  1.00  0.00     0.194 C 
ENDBRANCH   9  40
ENDBRANCH   3   4
TORSDOF 10
