REMARK  12 active torsions:
REMARK  status: ('A' for Active; 'I' for Inactive)
REMARK    1  A    between atoms: O1_2  and  C2_3 
REMARK    2  A    between atoms: C2_3  and  C3_5 
REMARK    3  A    between atoms: C3_5  and  O3_6 
REMARK    4  A    between atoms: O3_6  and  C4_7 
REMARK    5  A    between atoms: C4_7  and  C5_8 
REMARK    6  A    between atoms: C8_11  and  C9_12 
REMARK    7  A    between atoms: C9_12  and  O4_13 
REMARK    8  A    between atoms: C10_16  and  S1_17 
REMARK    9  A    between atoms: S1_17  and  C11_18 
REMARK   10  A    between atoms: C12_21  and  O6_22 
REMARK   11  A    between atoms: O6_22  and  S2_23 
REMARK   12  A    between atoms: S2_23  and  N1_25 
ROOT
HETATM    1  C3  UNL     1      -0.229   0.792  -0.203  1.00  0.00     0.227 C 
HETATM    2  C10 UNL     1      -1.106  -0.277   0.433  1.00  0.00     0.135 C 
HETATM    3  C12 UNL     1      -2.396   0.326   0.879  1.00  0.00     0.175 C 
HETATM    4  C14 UNL     1      -2.111   1.369   1.914  1.00  0.00     0.124 C 
HETATM    5 BR1  UNL     1      -3.709   1.956   2.827  1.00  0.00    -0.086 Br
HETATM    6  C15 UNL     1      -1.462   2.531   1.150  1.00  0.00     0.214 A 
HETATM    7  O8  UNL     1      -1.863   2.624  -0.183  1.00  0.00    -0.334 OA
HETATM    8  C16 UNL     1      -0.513   2.181   0.228  1.00  0.00     0.275 A 
HETATM    9  F3  UNL     1       0.385   3.114  -0.271  1.00  0.00    -0.205 F 
ENDROOT
BRANCH   1  10
HETATM   10  C2  UNL     1      -0.609   0.698  -1.676  1.00  0.00     0.301 C 
HETATM   11  O2  UNL     1      -1.732   0.972  -2.113  1.00  0.00    -0.262 OA
BRANCH  10  12
HETATM   12  O1  UNL     1       0.357   0.282  -2.568  1.00  0.00    -0.324 OA
HETATM   13  C1  UNL     1       0.021   0.186  -3.960  1.00  0.00     0.213 C 
ENDBRANCH  10  12
ENDBRANCH   1  10
BRANCH   1  14
HETATM   14  O3  UNL     1       1.066   0.439  -0.169  1.00  0.00    -0.357 OA
BRANCH  14  15
HETATM   15  C4  UNL     1       1.908   0.578   0.832  1.00  0.00     0.234 C 
BRANCH  15  16
HETATM   16  C5  UNL     1       3.252   0.025   0.376  1.00  0.00     0.077 A 
HETATM   17  C6  UNL     1       3.523  -0.667  -0.778  1.00  0.00     0.037 A 
HETATM   18  C7  UNL     1       4.852  -0.967  -0.778  1.00  0.00     0.037 A 
HETATM   19  C8  UNL     1       5.365  -0.449   0.382  1.00  0.00     0.076 A 
HETATM   20  O5  UNL     1       4.381   0.124   1.024  1.00  0.00    -0.315 OA
BRANCH  19  21
HETATM   21  C9  UNL     1       6.804  -0.573   0.748  1.00  0.00     0.229 C 
BRANCH  21  22
HETATM   22  O4  UNL     1       7.482   0.549   0.225  1.00  0.00    -0.394 OA
ATOM     23  H4  UNL     1       8.399   0.470   0.458  1.00  0.00     0.209 HD
ENDBRANCH  21  22
ENDBRANCH  19  21
ENDBRANCH  15  16
ENDBRANCH  14  15
ENDBRANCH   1  14
BRANCH   2  24
HETATM   24  S1  UNL     1      -0.294  -1.321   1.608  1.00  0.00    -0.089 SA
BRANCH  24  25
HETATM   25  C11 UNL     1      -1.336  -2.529   2.414  1.00  0.00     0.416 C 
HETATM   26  F1  UNL     1      -1.922  -3.435   1.559  1.00  0.00    -0.202 F 
HETATM   27  F2  UNL     1      -2.204  -1.908   3.275  1.00  0.00    -0.202 F 
ENDBRANCH  24  25
ENDBRANCH   2  24
BRANCH   3  28
HETATM   28  O6  UNL     1      -3.396  -0.574   1.202  1.00  0.00    -0.284 OA
BRANCH  28  29
HETATM   29  S2  UNL     1      -4.734  -0.481   0.203  1.00  0.00     0.135 S 
HETATM   30  C13 UNL     1      -4.605  -1.631  -1.158  1.00  0.00     0.168 C 
HETATM   31  O7  UNL     1      -5.936  -0.857   0.992  1.00  0.00    -0.222 OA
BRANCH  29  32
HETATM   32  N1  UNL     1      -4.960   0.914  -0.403  1.00  0.00    -0.340 N 
ATOM     33  H12 UNL     1      -4.341   1.700  -0.204  1.00  0.00     0.167 HD
ATOM     34  H11 UNL     1      -5.776   0.971  -1.012  1.00  0.00     0.167 HD
ENDBRANCH  29  32
ENDBRANCH  28  29
ENDBRANCH   3  28
TORSDOF 12
