REMARK  7 active torsions:
REMARK  status: ('A' for Active; 'I' for Inactive)
REMARK    1  A    between atoms: C3_3  and  C4_4 
REMARK    2  A    between atoms: C4_4  and  C5_5 
REMARK    3  A    between atoms: C5_5  and  O2_7 
REMARK    4  A    between atoms: O2_7  and  C6_8 
REMARK    5  A    between atoms: C23_25  and  O3_26 
REMARK    6  A    between atoms: C23_25  and  C24_28 
REMARK       I    between atoms: C24_28  and  N1_30 
REMARK    7  A    between atoms: N1_30  and  C25_32 
ROOT
HETATM    1  C1  UNL     1      -2.443   7.486   0.841  1.00  0.00     0.112 C 
HETATM    2  C2  UNL     1      -2.194   6.121   1.279  1.00  0.00    -0.111 C 
HETATM    3  C3  UNL     1      -1.980   4.969   1.628  1.00  0.00    -0.097 C 
ENDROOT
BRANCH   3   4
HETATM    4  C4  UNL     1      -1.726   3.603   2.015  1.00  0.00     0.204 C 
BRANCH   4   5
HETATM    5  C5  UNL     1      -1.711   2.705   0.819  1.00  0.00     0.270 C 
HETATM    6  O1  UNL     1      -1.911   3.251  -0.284  1.00  0.00    -0.264 OA
BRANCH   5   7
HETATM    7  O2  UNL     1      -1.493   1.359   0.908  1.00  0.00    -0.315 OA
BRANCH   7   8
HETATM    8  C6  UNL     1      -1.466   0.493  -0.240  1.00  0.00     0.142 C 
HETATM    9  C7  UNL     1      -2.821  -0.197  -0.222  1.00  0.00     0.039 C 
HETATM   10  C8  UNL     1      -2.712  -1.662   0.014  1.00  0.00     0.008 C 
HETATM   11  C9  UNL     1      -4.010  -2.330   0.240  1.00  0.00    -0.043 C 
HETATM   12  C15 UNL     1      -1.840  -2.268  -1.077  1.00  0.00    -0.016 C 
HETATM   13  C10 UNL     1      -5.072  -2.101  -0.775  1.00  0.00     0.015 C 
HETATM   14  C11 UNL     1      -4.554  -1.755   1.562  1.00  0.00     0.015 C 
HETATM   15  C12 UNL     1      -3.807  -3.800   0.506  1.00  0.00     0.009 C 
HETATM   16  C13 UNL     1      -2.365  -4.231   0.245  1.00  0.00     0.002 C 
HETATM   17  C14 UNL     1      -2.028  -3.726  -1.143  1.00  0.00     0.014 C 
HETATM   18  C16 UNL     1      -2.163  -1.680  -2.437  1.00  0.00     0.020 C 
HETATM   19  C17 UNL     1      -0.478  -1.782  -0.710  1.00  0.00    -0.066 C 
HETATM   20  C18 UNL     1       0.539  -2.585  -0.879  1.00  0.00    -0.022 C 
HETATM   21  C30 UNL     1      -0.294  -0.429  -0.132  1.00  0.00     0.072 C 
HETATM   22  C19 UNL     1       1.893  -2.099  -0.516  1.00  0.00     0.039 C 
HETATM   23  C20 UNL     1       2.066  -0.678  -1.031  1.00  0.00    -0.012 C 
HETATM   24  C21 UNL     1       1.890  -0.789  -2.559  1.00  0.00     0.018 C 
HETATM   25  C22 UNL     1       3.483  -0.316  -0.813  1.00  0.00     0.064 C 
HETATM   26  C29 UNL     1       1.011   0.237  -0.526  1.00  0.00     0.072 C 
HETATM   27  C23 UNL     1       3.717   1.147  -0.515  1.00  0.00     0.156 C 
HETATM   28  C27 UNL     1       2.785   1.482   0.591  1.00  0.00     0.018 C 
HETATM   29  C28 UNL     1       1.549   1.058   0.575  1.00  0.00    -0.000 C 
HETATM   30 CL1  UNL     1       0.609   1.358  -1.872  1.00  0.00    -0.113 Cl
BRANCH  27  31
HETATM   31  O3  UNL     1       3.626   1.962  -1.615  1.00  0.00    -0.376 OA
ATOM     32  H3  UNL     1       3.773   2.882  -1.428  1.00  0.00     0.211 HD
ENDBRANCH  27  31
BRANCH  27  33
HETATM   33  C24 UNL     1       5.094   1.242   0.024  1.00  0.00     0.256 C 
HETATM   34  O4  UNL     1       5.924   1.977  -0.556  1.00  0.00    -0.270 OA
HETATM   35  N1  UNL     1       5.535   0.539   1.179  1.00  0.00    -0.359 N 
ATOM     36  H1  UNL     1       4.873  -0.065   1.667  1.00  0.00     0.162 HD
BRANCH  35  37
HETATM   37  C25 UNL     1       6.883   0.646   1.688  1.00  0.00     0.118 C 
HETATM   38  C26 UNL     1       7.240   2.060   2.071  1.00  0.00     0.026 C 
ENDBRANCH  35  37
ENDBRANCH  27  33
ENDBRANCH   7   8
ENDBRANCH   5   7
ENDBRANCH   4   5
ENDBRANCH   3   4
TORSDOF 7
