REMARK  6 active torsions:
REMARK  status: ('A' for Active; 'I' for Inactive)
REMARK    1  A    between atoms: C2_2  and  C3_3 
REMARK    2  A    between atoms: C3_3  and  C4_4 
REMARK       I    between atoms: C4_4  and  N1_6 
REMARK    3  A    between atoms: N1_6  and  C5_8 
REMARK    4  A    between atoms: C5_8  and  C6_9 
REMARK    5  A    between atoms: C6_9  and  C7_10 
REMARK    6  A    between atoms: C15_20  and  C16_21 
ROOT
HETATM    1  C7  UNL     1      -0.375   0.110  -0.181  1.00  0.00    -0.014 C 
HETATM    2  C8  UNL     1      -0.575  -1.414  -0.032  1.00  0.00     0.020 C 
HETATM    3  C9  UNL     1      -1.455  -1.039   1.150  1.00  0.00     0.034 C 
HETATM    4  C10 UNL     1      -0.431   0.092   1.287  1.00  0.00     0.025 C 
HETATM    5  C11 UNL     1      -0.879   1.154   2.131  1.00  0.00    -0.024 C 
HETATM    6  C12 UNL     1      -1.659   1.237   3.199  1.00  0.00    -0.025 C 
HETATM    7  C13 UNL     1      -2.461   0.330   4.073  1.00  0.00     0.071 C 
HETATM    8  C14 UNL     1      -3.312  -0.587   3.193  1.00  0.00     0.060 C 
HETATM    9  N2  UNL     1      -3.464   0.059   1.951  1.00  0.00    -0.383 N 
ATOM     10  H2  UNL     1      -3.995   0.924   1.855  1.00  0.00     0.160 HD
HETATM   11  C15 UNL     1      -2.824  -0.574   0.818  1.00  0.00     0.127 C 
HETATM   12  C17 UNL     1      -2.859   0.429  -0.296  1.00  0.00     0.044 C 
HETATM   13  C18 UNL     1      -3.848   0.126  -1.382  1.00  0.00     0.009 C 
HETATM   14  C19 UNL     1      -3.080  -0.188  -2.619  1.00  0.00     0.008 C 
HETATM   15  C20 UNL     1      -1.613   0.060  -2.348  1.00  0.00     0.022 C 
HETATM   16  C21 UNL     1      -1.035   1.047  -3.320  1.00  0.00     0.128 C 
HETATM   17  N3  UNL     1      -0.768   2.233  -2.574  1.00  0.00    -0.360 N 
ATOM     18  H3  UNL     1      -0.264   3.050  -2.920  1.00  0.00     0.162 HD
HETATM   19  C22 UNL     1      -1.317   2.093  -1.271  1.00  0.00     0.228 C 
HETATM   20  O4  UNL     1      -1.575   3.070  -0.554  1.00  0.00    -0.273 OA
HETATM   21  C23 UNL     1      -1.511   0.657  -0.952  1.00  0.00     0.061 C 
ENDROOT
BRANCH   1  22
HETATM   22  C6  UNL     1       0.946   0.481  -0.805  1.00  0.00     0.031 C 
BRANCH  22  23
HETATM   23  C5  UNL     1       2.151   0.021  -0.044  1.00  0.00     0.123 C 
BRANCH  23  24
HETATM   24  N1  UNL     1       3.373   0.421  -0.707  1.00  0.00    -0.361 N 
HETATM   25  C4  UNL     1       4.609   0.079  -0.142  1.00  0.00     0.217 C 
HETATM   26  O1  UNL     1       4.660  -0.565   0.923  1.00  0.00    -0.274 OA
ATOM     27  H1  UNL     1       3.335   0.948  -1.579  1.00  0.00     0.162 HD
BRANCH  25  28
HETATM   28  C3  UNL     1       5.861   0.483  -0.812  1.00  0.00     0.102 C 
BRANCH  28  29
HETATM   29  C2  UNL     1       7.048   0.010  -0.033  1.00  0.00     0.005 C 
HETATM   30  C1  UNL     1       7.075  -1.478   0.110  1.00  0.00     0.005 C 
ENDBRANCH  28  29
ENDBRANCH  25  28
ENDBRANCH  23  24
ENDBRANCH  22  23
ENDBRANCH   1  22
BRANCH  11  31
HETATM   31  C16 UNL     1      -3.649  -1.801   0.538  1.00  0.00     0.203 C 
HETATM   32  O2  UNL     1      -4.677  -2.099   1.210  1.00  0.00    -0.646 OA
HETATM   33  O3  UNL     1      -3.347  -2.700  -0.476  1.00  0.00    -0.646 OA
ENDBRANCH  11  31
TORSDOF 6
