REMARK  8 active torsions:
REMARK  status: ('A' for Active; 'I' for Inactive)
REMARK    1  A    between atoms: C2_2  and  O2_4 
REMARK    2  A    between atoms: O2_4  and  C3_5 
REMARK    3  A    between atoms: C3_5  and  C5_7 
REMARK    4  A    between atoms: C7_9  and  C8_10 
REMARK    5  A    between atoms: C8_10  and  O3_11 
REMARK    6  A    between atoms: O3_11  and  C9_12 
REMARK    7  A    between atoms: C11_16  and  O5_17 
REMARK    8  A    between atoms: O5_17  and  C12_18 
ROOT
HETATM    1  C5  UNL     1       1.500   0.342  -1.458  1.00  0.00     0.024 C 
HETATM    2  C6  UNL     1       1.595   1.576  -0.546  1.00  0.00     0.015 C 
HETATM    3  C7  UNL     1       0.726   1.192   0.669  1.00  0.00     0.018 C 
HETATM    4  C10 UNL     1      -0.063   0.024   0.275  1.00  0.00     0.033 C 
HETATM    5  C11 UNL     1      -1.405  -0.183   0.833  1.00  0.00     0.171 C 
HETATM    6  C14 UNL     1      -1.999  -1.557   0.757  1.00  0.00     0.084 C 
HETATM    7  C15 UNL     1      -2.970  -1.645   1.986  1.00  0.00     0.049 C 
HETATM    8  C16 UNL     1      -1.089  -2.724   0.984  1.00  0.00     0.040 C 
HETATM    9  C17 UNL     1      -0.848  -3.495  -0.326  1.00  0.00     0.004 C 
HETATM   10  C18 UNL     1       0.159  -2.702  -1.084  1.00  0.00     0.005 C 
HETATM   11  C19 UNL     1      -0.259  -1.467  -1.764  1.00  0.00    -0.004 C 
HETATM   12  C20 UNL     1      -1.641  -1.578  -2.337  1.00  0.00     0.032 C 
HETATM   13  C21 UNL     1      -2.826  -1.591  -1.494  1.00  0.00     0.169 C 
HETATM   14  O7  UNL     1      -2.811  -1.895  -0.226  1.00  0.00    -0.378 OA
HETATM   15  C22 UNL     1       0.135  -0.143  -1.195  1.00  0.00    -0.028 C 
HETATM   16  C23 UNL     1      -0.716   0.881  -1.994  1.00  0.00     0.016 C 
ENDROOT
BRANCH   1  17
HETATM   17  C3  UNL     1       2.753  -0.347  -1.353  1.00  0.00     0.132 C 
HETATM   18  C4  UNL     1       3.848   0.707  -1.691  1.00  0.00     0.040 C 
BRANCH  17  19
HETATM   19  O2  UNL     1       3.141  -0.756  -0.059  1.00  0.00    -0.316 OA
BRANCH  19  20
HETATM   20  C2  UNL     1       3.813  -1.895   0.277  1.00  0.00     0.255 C 
HETATM   21  C1  UNL     1       4.131  -2.149   1.706  1.00  0.00     0.126 C 
HETATM   22  O1  UNL     1       4.131  -2.679  -0.659  1.00  0.00    -0.266 OA
ENDBRANCH  19  20
ENDBRANCH  17  19
ENDBRANCH   1  17
BRANCH   3  23
HETATM   23  C8  UNL     1       0.105   2.452   1.106  1.00  0.00     0.185 C 
BRANCH  23  24
HETATM   24  O3  UNL     1       1.196   3.342   1.432  1.00  0.00    -0.306 OA
BRANCH  24  25
HETATM   25  C9  UNL     1       0.944   4.630   1.883  1.00  0.00     0.372 C 
HETATM   26  N1  UNL     1       1.958   5.549   2.219  1.00  0.00    -0.032 NA
HETATM   27  O4  UNL     1      -0.277   4.955   1.984  1.00  0.00    -0.242 OA
ENDBRANCH  24  25
ENDBRANCH  23  24
ENDBRANCH   3  23
BRANCH   5  28
HETATM   28  O5  UNL     1      -2.425   0.687   0.400  1.00  0.00    -0.313 OA
BRANCH  28  29
HETATM   29  C12 UNL     1      -3.224   1.489   1.163  1.00  0.00     0.255 C 
HETATM   30  C13 UNL     1      -4.272   2.383   0.590  1.00  0.00     0.126 C 
HETATM   31  O6  UNL     1      -3.093   1.494   2.394  1.00  0.00    -0.266 OA
ENDBRANCH  28  29
ENDBRANCH   5  28
TORSDOF 8
