REMARK  7 active torsions:
REMARK  status: ('A' for Active; 'I' for Inactive)
REMARK    1  A    between atoms: C2_2  and  N1_3 
REMARK    2  A    between atoms: N1_3  and  C19_26 
REMARK    3  A    between atoms: N2_6  and  C5_7 
REMARK    4  A    between atoms: N2_6  and  C17_24 
REMARK    5  A    between atoms: C5_7  and  C6_8 
REMARK    6  A    between atoms: C7_9  and  O1_10 
REMARK    7  A    between atoms: C7_9  and  C8_12 
ROOT
HETATM    1  C6  UNL     1      -1.619   0.017  -0.879  1.00  0.00     0.259 C 
HETATM    2  C7  UNL     1      -2.384  -0.742  -2.009  1.00  0.00     0.167 C 
HETATM    3  C9  UNL     1      -3.495  -1.441  -1.330  1.00  0.00     0.078 C 
HETATM    4  C10 UNL     1      -3.820  -0.473  -0.251  1.00  0.00     0.241 C 
HETATM    5  N4  UNL     1      -2.437  -0.092   0.235  1.00  0.00    -0.058 N 
HETATM    6  C11 UNL     1      -2.722   1.241   0.807  1.00  0.00     0.238 C 
HETATM    7  C12 UNL     1      -2.919   1.029   2.282  1.00  0.00     0.029 C 
HETATM    8  C13 UNL     1      -1.978  -0.119   2.562  1.00  0.00     0.029 C 
HETATM    9  C14 UNL     1      -2.207  -0.938   1.313  1.00  0.00     0.238 C 
ENDROOT
BRANCH   1  10
HETATM   10  C5  UNL     1      -0.246  -0.475  -1.010  1.00  0.00     0.275 C 
BRANCH  10  11
HETATM   11  N2  UNL     1       0.908  -0.111  -0.317  1.00  0.00    -0.055 N 
HETATM   12  C4  UNL     1       1.014   1.180   0.277  1.00  0.00     0.266 C 
HETATM   13  C3  UNL     1       2.418   1.404   0.805  1.00  0.00     0.266 C 
HETATM   14  N1  UNL     1       3.340   0.358   0.467  1.00  0.00    -0.058 N 
HETATM   15  C16 UNL     1       2.838  -0.858   1.052  1.00  0.00     0.266 C 
HETATM   16  C15 UNL     1       1.453  -1.092   0.602  1.00  0.00     0.266 C 
BRANCH  14  17
HETATM   17  C2  UNL     1       4.642   0.734   0.935  1.00  0.00     0.233 C 
HETATM   18  C1  UNL     1       4.833   0.502   2.410  1.00  0.00     0.035 C 
ENDBRANCH  14  17
BRANCH  14  19
HETATM   19  C19 UNL     1       3.314   0.159  -0.958  1.00  0.00     0.223 A 
HETATM   20  C17 UNL     1       1.955  -0.058  -1.400  1.00  0.00     0.223 A 
HETATM   21  C18 UNL     1       2.914  -1.139  -1.564  1.00  0.00     0.071 A 
ENDBRANCH  14  19
ENDBRANCH  10  11
ENDBRANCH   1  10
BRANCH   2  22
HETATM   22  O1  UNL     1      -1.569  -1.743  -2.558  1.00  0.00    -0.378 OA
ATOM     23  H1  UNL     1      -2.034  -2.205  -3.245  1.00  0.00     0.211 HD
ENDBRANCH   2  22
BRANCH   2  24
HETATM   24  C8  UNL     1      -2.799   0.121  -3.099  1.00  0.00     0.268 C 
HETATM   25  N3  UNL     1      -3.623   1.237  -2.843  1.00  0.00    -0.059 NA
HETATM   26  O2  UNL     1      -2.442  -0.099  -4.277  1.00  0.00    -0.273 OA
ENDBRANCH   2  24
TORSDOF 7
