REMARK  5 active torsions:
REMARK  status: ('A' for Active; 'I' for Inactive)
REMARK    1  A    between atoms: C4_4  and  S1_5 
REMARK    2  A    between atoms: S1_5  and  S2_6 
REMARK    3  A    between atoms: S2_6  and  C5_7 
REMARK    4  A    between atoms: C5_7  and  N2_11 
REMARK    5  A    between atoms: N2_11  and  C6_13 
ROOT
HETATM    1  C5  UNL     1       1.726   0.094  -0.998  1.00  0.00     0.145 C 
HETATM    2  N1  UNL     1       1.352   1.319  -0.841  1.00  0.00    -0.379 N 
ATOM      3  H11 UNL     1       2.053   1.963  -0.474  1.00  0.00     0.158 HD
ATOM      4  H12 UNL     1       0.404   1.616  -1.073  1.00  0.00     0.158 HD
ENDROOT
BRANCH   1   5
HETATM    5  S2  UNL     1       0.495  -1.038  -1.642  1.00  0.00    -0.017 SA
BRANCH   5   6
HETATM    6  S1  UNL     1      -1.341  -0.101  -2.011  1.00  0.00    -0.049 SA
BRANCH   6   7
HETATM    7  C4  UNL     1      -2.414  -0.157  -0.545  1.00  0.00     0.019 A 
HETATM    8  C3  UNL     1      -3.650   0.387  -0.552  1.00  0.00     0.034 A 
HETATM    9  C2  UNL     1      -4.372   0.286   0.610  1.00  0.00    -0.020 A 
HETATM   10  C1  UNL     1      -5.757   0.795   0.883  1.00  0.00     0.056 C 
HETATM   11  S3  UNL     1      -3.321  -0.549   1.653  1.00  0.00    -0.105 SA
HETATM   12  C9  UNL     1      -1.996  -0.753   0.605  1.00  0.00     0.069 A 
ENDBRANCH   6   7
ENDBRANCH   5   6
ENDBRANCH   1   5
BRANCH   1  13
HETATM   13  N2  UNL     1       3.026  -0.314  -0.680  1.00  0.00    -0.366 N 
ATOM     14  H2  UNL     1       3.555  -0.901  -1.325  1.00  0.00     0.162 HD
BRANCH  13  15
HETATM   15  C6  UNL     1       3.612   0.106   0.574  1.00  0.00     0.083 A 
HETATM   16  C7  UNL     1       4.991  -0.373   0.827  1.00  0.00     0.027 A 
HETATM   17  C8  UNL     1       3.825  -0.947   1.616  1.00  0.00     0.027 A 
ENDBRANCH  13  15
ENDBRANCH   1  13
TORSDOF 5
