REMARK  2 active torsions:
REMARK  status: ('A' for Active; 'I' for Inactive)
REMARK    1  A    between atoms: C1_2  and  C2_3 
REMARK    2  A    between atoms: C2_3  and  C3_4 
ROOT
HETATM    1  C3  UNL     1       0.323  -0.921   0.160  1.00  0.00     0.048 C 
HETATM    2  C4  UNL     1       0.152  -0.011  -0.998  1.00  0.00     0.279 C 
HETATM    3  N1  UNL     1      -0.251   1.027  -0.023  1.00  0.00     0.093 N 
HETATM    4  C5  UNL     1      -1.429   1.758  -0.433  1.00  0.00     0.273 C 
HETATM    5  C6  UNL     1      -2.500   0.775  -0.789  1.00  0.00     0.032 C 
HETATM    6  C7  UNL     1      -2.123  -0.448   0.041  1.00  0.00     0.038 C 
HETATM    7  C8  UNL     1      -0.847  -0.099   0.712  1.00  0.00     0.228 C 
ENDROOT
BRANCH   1   8
HETATM    8  C2  UNL     1       1.520  -0.786   1.020  1.00  0.00     0.019 C 
BRANCH   8   9
HETATM    9  C1  UNL     1       2.847  -0.990   0.420  1.00  0.00     0.086 C 
HETATM   10  S1  UNL     1       3.411   0.113  -0.846  1.00  0.00    -0.098 SA
ENDBRANCH   8   9
ENDBRANCH   1   8
TORSDOF 2
