REMARK  2 active torsions:
REMARK  status: ('A' for Active; 'I' for Inactive)
REMARK    1  A    between atoms: N2_4  and  N3_6 
REMARK    2  A    between atoms: C1_8  and  C2_9 
ROOT
HETATM    1  N3  UNL     1       1.838  -0.118  -0.070  1.00  0.00    -0.297 N 
ATOM      2  H3  UNL     1       1.760  -1.060  -0.454  1.00  0.00     0.187 HD
HETATM    3  C1  UNL     1       0.780   0.520   0.301  1.00  0.00     0.121 C 
ENDROOT
BRANCH   1   4
HETATM    4  N2  UNL     1       3.087   0.486   0.056  1.00  0.00    -0.250 N 
HETATM    5  N1  UNL     1       4.149  -0.135  -0.257  1.00  0.00    -0.331 N 
ATOM      6  H12 UNL     1       4.069  -1.091  -0.605  1.00  0.00     0.178 HD
ATOM      7  H11 UNL     1       5.064   0.307  -0.165  1.00  0.00     0.178 HD
ATOM      8  H2  UNL     1       3.149   1.442   0.405  1.00  0.00     0.207 HD
ENDBRANCH   1   4
BRANCH   3   9
HETATM    9  C2  UNL     1      -0.547  -0.090   0.181  1.00  0.00     0.005 A 
HETATM   10  C3  UNL     1      -1.750   0.481   0.538  1.00  0.00     0.039 A 
HETATM   11  C4  UNL     1      -2.752  -0.441   0.256  1.00  0.00     0.142 A 
HETATM   12  O1  UNL     1      -2.165  -1.487  -0.237  1.00  0.00    -0.334 OA
HETATM   13  C5  UNL     1      -0.865  -1.340  -0.306  1.00  0.00     0.154 A 
ENDBRANCH   3   9
TORSDOF 2
