REMARK  3 active torsions:
REMARK  status: ('A' for Active; 'I' for Inactive)
REMARK    1  A    between atoms: N1_1  and  N2_4 
REMARK    2  A    between atoms: N3_7  and  C3_8 
REMARK    3  A    between atoms: C3_8  and  O1_9 
ROOT
HETATM    1  N2  UNL     1      -1.434  -0.098   0.046  1.00  0.00    -0.247 N 
HETATM    2  C1  UNL     1      -1.131   1.201  -0.176  1.00  0.00     0.136 A 
HETATM    3  C2  UNL     1       0.217   1.327  -0.346  1.00  0.00     0.115 A 
HETATM    4  N3  UNL     1       0.737   0.090  -0.226  1.00  0.00    -0.309 N 
HETATM    5  C4  UNL     1      -0.272  -0.786   0.014  1.00  0.00     0.200 A 
HETATM    6  S1  UNL     1      -0.052  -2.393   0.222  1.00  0.00    -0.038 SA
ENDROOT
BRANCH   1   7
HETATM    7  N1  UNL     1      -2.686  -0.676   0.271  1.00  0.00    -0.337 N 
ATOM      8  H12 UNL     1      -3.563  -0.156   0.295  1.00  0.00     0.177 HD
ATOM      9  H11 UNL     1      -2.915  -1.656   0.438  1.00  0.00     0.177 HD
ENDBRANCH   1   7
BRANCH   4  10
HETATM   10  C3  UNL     1       2.150  -0.245  -0.337  1.00  0.00     0.297 C 
BRANCH  10  11
HETATM   11  O1  UNL     1       2.810  -0.188   0.872  1.00  0.00    -0.382 OA
ATOM     12  H1  UNL     1       3.732  -0.407   0.800  1.00  0.00     0.211 HD
ENDBRANCH  10  11
ENDBRANCH   4  10
TORSDOF 3
