REMARK  10 active torsions:
REMARK  status: ('A' for Active; 'I' for Inactive)
REMARK    1  A    between atoms: C4_4  and  O1_5 
REMARK    2  A    between atoms: O1_5  and  C5_6 
REMARK       I    between atoms: C5_6  and  N1_8 
REMARK    3  A    between atoms: N1_8  and  C6_10 
REMARK    4  A    between atoms: C6_10  and  C7_11 
REMARK    5  A    between atoms: C7_11  and  C8_12 
REMARK    6  A    between atoms: C8_12  and  N2_13 
REMARK    7  A    between atoms: N2_13  and  C9_15 
REMARK    8  A    between atoms: C9_15  and  N3_17 
REMARK    9  A    between atoms: N3_17  and  C10_19 
REMARK   10  A    between atoms: C10_19  and  C11_20 
ROOT
HETATM    1  C1  UNL     1       0.941   2.729   2.070  1.00  0.00     0.010 C 
HETATM    2  C2  UNL     1      -0.196   1.701   2.170  1.00  0.00    -0.012 C 
HETATM    3  C3  UNL     1       0.430   0.359   2.191  1.00  0.00     0.038 C 
HETATM    4  C4  UNL     1       0.851   0.020   0.784  1.00  0.00     0.142 C 
HETATM    5  C15 UNL     1      -0.278   0.036  -0.201  1.00  0.00    -0.012 C 
HETATM    6  C16 UNL     1       0.461   0.010  -1.563  1.00  0.00     0.018 C 
HETATM    7  C17 UNL     1      -0.922  -1.337  -0.162  1.00  0.00     0.012 C 
HETATM    8  C18 UNL     1      -2.153  -1.260   0.636  1.00  0.00     0.007 C 
HETATM    9  C19 UNL     1      -3.176  -0.490  -0.218  1.00  0.00    -0.002 C 
HETATM   10  C20 UNL     1      -4.465  -0.566   0.565  1.00  0.00    -0.005 C 
HETATM   11  C21 UNL     1      -4.931  -1.993   0.498  1.00  0.00     0.006 C 
HETATM   12  C22 UNL     1      -6.325  -2.245   0.097  1.00  0.00     0.007 C 
HETATM   13  C23 UNL     1      -7.037  -1.124  -0.572  1.00  0.00     0.009 C 
HETATM   14  C24 UNL     1      -8.423  -1.467  -1.001  1.00  0.00     0.017 C 
HETATM   15  C25 UNL     1      -9.380  -1.803   0.076  1.00  0.00     0.023 C 
HETATM   16  C26 UNL     1      -8.329  -2.646  -1.973  1.00  0.00     0.023 C 
HETATM   17  C27 UNL     1      -8.950  -0.307  -1.771  1.00  0.00     0.135 C 
HETATM   18  O4  UNL     1      -9.985  -0.329  -2.408  1.00  0.00    -0.297 OA
HETATM   19  C28 UNL     1      -8.154   0.937  -1.750  1.00  0.00     0.080 C 
HETATM   20  C29 UNL     1      -7.755   1.190  -0.307  1.00  0.00     0.017 C 
HETATM   21  C30 UNL     1      -6.898   0.094   0.258  1.00  0.00    -0.035 C 
HETATM   22  C31 UNL     1      -7.334  -0.094   1.710  1.00  0.00     0.016 C 
HETATM   23  C32 UNL     1      -5.464   0.482   0.328  1.00  0.00    -0.002 C 
HETATM   24  C33 UNL     1      -4.980   1.271  -0.903  1.00  0.00     0.006 C 
HETATM   25  C34 UNL     1      -3.648   1.873  -0.401  1.00  0.00     0.010 C 
HETATM   26  C35 UNL     1      -2.634   0.801  -0.629  1.00  0.00    -0.035 C 
HETATM   27  C36 UNL     1      -2.465   0.777  -2.168  1.00  0.00     0.016 C 
HETATM   28  C37 UNL     1      -1.242   1.154  -0.092  1.00  0.00     0.009 C 
HETATM   29  C38 UNL     1      -1.276   1.929   1.178  1.00  0.00    -0.009 C 
HETATM   30  C39 UNL     1      -1.264   3.451   0.953  1.00  0.00     0.011 C 
ENDROOT
BRANCH   4  31
HETATM   31  O1  UNL     1       1.904   0.876   0.400  1.00  0.00    -0.298 OA
BRANCH  31  32
HETATM   32  C5  UNL     1       3.236   0.484   0.198  1.00  0.00     0.360 C 
HETATM   33  O2  UNL     1       3.508  -0.728   0.375  1.00  0.00    -0.239 OA
HETATM   34  N1  UNL     1       4.163   1.477  -0.187  1.00  0.00    -0.337 N 
ATOM     35  H1  UNL     1       3.851   2.440  -0.309  1.00  0.00     0.164 HD
BRANCH  34  36
HETATM   36  C6  UNL     1       5.546   1.141  -0.409  1.00  0.00     0.126 C 
BRANCH  36  37
HETATM   37  C7  UNL     1       6.156   0.596   0.835  1.00  0.00     0.039 C 
BRANCH  37  38
HETATM   38  C8  UNL     1       7.634   0.270   0.575  1.00  0.00     0.123 C 
BRANCH  38  39
HETATM   39  N2  UNL     1       8.353   1.453   0.247  1.00  0.00    -0.367 N 
ATOM     40  H2  UNL     1       7.784   2.298   0.189  1.00  0.00     0.161 HD
BRANCH  39  41
HETATM   41  C9  UNL     1       9.704   1.642  -0.007  1.00  0.00     0.167 C 
HETATM   42  S1  UNL     1      10.162   3.241  -0.349  1.00  0.00    -0.041 SA
BRANCH  41  43
HETATM   43  N3  UNL     1      10.734   0.731  -0.026  1.00  0.00    -0.365 N 
ATOM     44  H3  UNL     1      11.640   1.165  -0.201  1.00  0.00     0.161 HD
BRANCH  43  45
HETATM   45  C10 UNL     1      10.822  -0.670   0.142  1.00  0.00     0.154 C 
BRANCH  45  46
HETATM   46  C11 UNL     1      10.394  -1.512  -1.018  1.00  0.00     0.139 C 
HETATM   47  C12 UNL     1      10.819  -2.951  -0.694  1.00  0.00     0.035 C 
HETATM   48  C13 UNL     1      12.319  -2.872  -0.988  1.00  0.00     0.029 C 
HETATM   49  C14 UNL     1      12.460  -1.624  -1.812  1.00  0.00     0.168 C 
HETATM   50  O3  UNL     1      11.179  -1.221  -2.148  1.00  0.00    -0.384 OA
ENDBRANCH  45  46
ENDBRANCH  43  45
ENDBRANCH  41  43
ENDBRANCH  39  41
ENDBRANCH  38  39
ENDBRANCH  37  38
ENDBRANCH  36  37
ENDBRANCH  34  36
ENDBRANCH  31  32
ENDBRANCH   4  31
TORSDOF 10
