REMARK  13 active torsions:
REMARK  status: ('A' for Active; 'I' for Inactive)
REMARK    1  A    between atoms: C1_4  and  C2_5 
REMARK    2  A    between atoms: C1_4  and  N2_13 
REMARK    3  A    between atoms: C2_5  and  C3_6 
REMARK    4  A    between atoms: N2_13  and  C9_15 
REMARK    5  A    between atoms: C9_15  and  O1_16 
REMARK    6  A    between atoms: C9_15  and  N3_18 
REMARK    7  A    between atoms: N3_18  and  C10_21 
REMARK    8  A    between atoms: C10_21  and  C11_22 
REMARK    9  A    between atoms: C11_22  and  C12_23 
REMARK   10  A    between atoms: C12_23  and  S1_24 
REMARK   11  A    between atoms: S1_24  and  C13_26 
REMARK   12  A    between atoms: C13_26  and  C14_27 
REMARK   13  A    between atoms: C14_27  and  N4_28 
ROOT
HETATM    1  C9  UNL     1      -2.261   1.144  -0.793  1.00  0.00     0.427 C 
ENDROOT
BRANCH   1   2
HETATM    2  N2  UNL     1      -2.924   0.052  -0.133  1.00  0.00    -0.331 N 
ATOM      3  H2  UNL     1      -2.866  -0.051   0.880  1.00  0.00     0.165 HD
BRANCH   2   4
HETATM    4  C1  UNL     1      -3.657  -0.876  -0.907  1.00  0.00     0.078 C 
HETATM    5  N1  UNL     1      -3.167  -1.937  -1.448  1.00  0.00    -0.389 N 
ATOM      6  H12 UNL     1      -3.696  -2.607  -2.007  1.00  0.00     0.157 HD
ATOM      7  H11 UNL     1      -2.177  -2.150  -1.328  1.00  0.00     0.157 HD
BRANCH   4   8
HETATM    8  C2  UNL     1      -5.120  -0.562  -1.085  1.00  0.00     0.114 C 
BRANCH   8   9
HETATM    9  C3  UNL     1      -5.705  -0.526   0.286  1.00  0.00    -0.051 A 
HETATM   10  C4  UNL     1      -6.214  -1.673   0.840  1.00  0.00     0.010 A 
HETATM   11  C5  UNL     1      -6.753  -1.642   2.105  1.00  0.00     0.043 A 
HETATM   12  C6  UNL     1      -6.814  -0.488   2.871  1.00  0.00     0.116 A 
HETATM   13  F1  UNL     1      -7.353  -0.493   4.115  1.00  0.00    -0.206 F 
HETATM   14  C7  UNL     1      -6.293   0.642   2.280  1.00  0.00     0.043 A 
HETATM   15  C8  UNL     1      -5.749   0.634   1.018  1.00  0.00     0.010 A 
ENDBRANCH   8   9
ENDBRANCH   4   8
ENDBRANCH   2   4
ENDBRANCH   1   2
BRANCH   1  16
HETATM   16  O1  UNL     1      -3.216   1.856  -1.505  1.00  0.00    -0.354 OA
ATOM     17  H1  UNL     1      -2.778   2.577  -1.941  1.00  0.00     0.214 HD
ENDBRANCH   1  16
BRANCH   1  18
HETATM   18  N3  UNL     1      -1.185   0.636  -1.591  1.00  0.00    -0.031 N 
ATOM     19  H32 UNL     1      -1.530   0.010  -2.318  1.00  0.00     0.282 HD
ATOM     20  H31 UNL     1      -0.787   1.367  -2.181  1.00  0.00     0.282 HD
BRANCH  18  21
HETATM   21  C10 UNL     1      -0.170  -0.000  -0.798  1.00  0.00     0.238 C 
BRANCH  21  22
HETATM   22  C11 UNL     1       0.957  -0.544  -1.638  1.00  0.00     0.040 C 
BRANCH  22  23
HETATM   23  C12 UNL     1       1.970  -1.192  -0.702  1.00  0.00     0.110 C 
BRANCH  23  24
HETATM   24  S1  UNL     1       2.553  -0.137   0.343  1.00  0.00     0.016 S 
HETATM   25  O2  UNL     1       2.638  -0.558   1.645  1.00  0.00    -0.258 OA
BRANCH  24  26
HETATM   26  C13 UNL     1       3.333   1.167  -0.061  1.00  0.00     0.129 C 
BRANCH  26  27
HETATM   27  C14 UNL     1       4.587   1.011  -0.823  1.00  0.00     0.140 C 
BRANCH  27  28
HETATM   28  N4  UNL     1       5.644   0.292  -0.197  1.00  0.00    -0.366 N 
HETATM   29  C15 UNL     1       5.756  -1.029  -0.374  1.00  0.00     0.090 A 
HETATM   30  C16 UNL     1       6.798  -1.729   0.253  1.00  0.00     0.017 A 
HETATM   31  C17 UNL     1       7.707  -1.064   1.051  1.00  0.00     0.003 A 
HETATM   32  C18 UNL     1       7.586   0.281   1.226  1.00  0.00     0.017 A 
HETATM   33  C19 UNL     1       6.553   0.933   0.596  1.00  0.00     0.090 A 
ENDBRANCH  27  28
ENDBRANCH  26  27
ENDBRANCH  24  26
ENDBRANCH  23  24
ENDBRANCH  22  23
ENDBRANCH  21  22
ENDBRANCH  18  21
ENDBRANCH   1  18
TORSDOF 13
