REMARK  5 active torsions:
REMARK  status: ('A' for Active; 'I' for Inactive)
REMARK    1  A    between atoms: C4_5  and  O1_6 
REMARK    2  A    between atoms: C5_8  and  C6_9 
REMARK    3  A    between atoms: C6_9  and  C7_11 
REMARK    4  A    between atoms: C7_11  and  C8_12 
REMARK    5  A    between atoms: C8_12  and  O3_13 
ROOT
HETATM    1  C1  UNL     1      -4.245   0.370   0.196  1.00  0.00     0.052 C 
HETATM    2  C2  UNL     1      -2.769   0.173   0.148  1.00  0.00    -0.014 A 
HETATM    3  C3  UNL     1      -2.180  -0.987   0.601  1.00  0.00     0.075 A 
HETATM    4 CL1  UNL     1      -3.225  -2.231   1.240  1.00  0.00    -0.081 Cl
HETATM    5  C4  UNL     1      -0.814  -1.148   0.547  1.00  0.00     0.103 A 
HETATM    6  C5  UNL     1       0.044  -0.160   0.036  1.00  0.00     0.068 A 
HETATM    7  C9  UNL     1      -0.560   0.985  -0.409  1.00  0.00     0.073 A 
HETATM    8 CL2  UNL     1       0.371   2.299  -1.069  1.00  0.00    -0.081 Cl
HETATM    9  C10 UNL     1      -1.944   1.151  -0.355  1.00  0.00     0.064 A 
HETATM   10 CL3  UNL     1      -2.706   2.621  -0.929  1.00  0.00    -0.082 Cl
ENDROOT
BRANCH   6  11
HETATM   11  C6  UNL     1       1.482  -0.409   0.014  1.00  0.00     0.166 C 
HETATM   12  O2  UNL     1       1.919  -1.530   0.464  1.00  0.00    -0.292 OA
BRANCH  11  13
HETATM   13  C7  UNL     1       2.514   0.511  -0.482  1.00  0.00     0.110 C 
BRANCH  13  14
HETATM   14  C8  UNL     1       3.906  -0.136  -0.327  1.00  0.00     0.171 C 
BRANCH  14  15
HETATM   15  O3  UNL     1       4.871   0.751  -0.803  1.00  0.00    -0.400 OA
ATOM     16  H3  UNL     1       5.728   0.353  -0.708  1.00  0.00     0.209 HD
ENDBRANCH  14  15
ENDBRANCH  13  14
ENDBRANCH  11  13
ENDBRANCH   6  11
BRANCH   5  17
HETATM   17  O1  UNL     1      -0.239  -2.317   1.005  1.00  0.00    -0.358 OA
ATOM     18  H1  UNL     1       0.704  -2.428   0.968  1.00  0.00     0.217 HD
ENDBRANCH   5  17
TORSDOF 5
