REMARK  1 active torsions:
REMARK  status: ('A' for Active; 'I' for Inactive)
REMARK    1  A    between atoms: C1_2  and  C2_4 
ROOT
HETATM    1  C2  UNL     1       0.366   0.219  -0.724  1.00  0.00     0.095 A 
HETATM    2  C3  UNL     1       1.204  -0.603   0.283  1.00  0.00     0.036 A 
HETATM    3  C4  UNL     1       0.983   0.859   0.459  1.00  0.00     0.096 A 
HETATM    4 CL1  UNL     1       2.329   1.972   0.188  1.00  0.00    -0.124 Cl
ENDROOT
BRANCH   1   5
HETATM    5  C1  UNL     1      -1.067  -0.115  -0.766  1.00  0.00     0.236 C 
HETATM    6  N1  UNL     1      -1.873  -0.357   0.359  1.00  0.00    -0.062 NA
HETATM    7  O1  UNL     1      -1.624  -0.192  -1.897  1.00  0.00    -0.276 OA
ENDBRANCH   1   5
TORSDOF 1
