REMARK  7 active torsions:
REMARK  status: ('A' for Active; 'I' for Inactive)
REMARK    1  A    between atoms: C2_2  and  C3_3 
REMARK    2  A    between atoms: C3_3  and  C4_4 
REMARK    3  A    between atoms: C4_4  and  C5_5 
REMARK    4  A    between atoms: C5_5  and  N1_6 
REMARK    5  A    between atoms: C7_8  and  C8_9 
REMARK    6  A    between atoms: C18_24  and  C19_25 
REMARK    7  A    between atoms: C19_25  and  N6_26 
ROOT
HETATM    1  N1  UNL     1      -1.635   0.392   0.150  1.00  0.00    -0.358 N 
HETATM    2  C6  UNL     1      -0.354  -0.040   0.346  1.00  0.00     0.104 A 
HETATM    3  C7  UNL     1       0.725   0.306  -0.415  1.00  0.00     0.006 A 
HETATM    4  C16 UNL     1       0.478   1.173  -1.484  1.00  0.00     0.017 A 
HETATM    5  C17 UNL     1      -0.806   1.611  -1.686  1.00  0.00     0.028 A 
HETATM    6  C18 UNL     1      -1.873   1.221  -0.864  1.00  0.00     0.031 A 
ENDROOT
BRANCH   3   7
HETATM    7  C8  UNL     1       2.098  -0.096  -0.151  1.00  0.00     0.048 A 
HETATM    8  C9  UNL     1       3.051  -0.000  -1.178  1.00  0.00     0.049 A 
HETATM    9  C10 UNL     1       4.265  -0.413  -0.700  1.00  0.00     0.052 A 
HETATM   10  C11 UNL     1       5.511  -0.530  -1.275  1.00  0.00     0.131 A 
HETATM   11  C14 UNL     1       3.998  -0.774   0.710  1.00  0.00     0.124 A 
HETATM   12  N2  UNL     1       5.749  -0.174  -2.636  1.00  0.00    -0.082 NA
HETATM   13  N3  UNL     1       6.480  -0.998  -0.471  1.00  0.00    -0.340 N 
HETATM   14  C12 UNL     1       6.254  -1.330   0.799  1.00  0.00     0.185 A 
ATOM     15  H3  UNL     1       7.423  -1.103  -0.846  1.00  0.00     0.167 HD
HETATM   16  N4  UNL     1       5.026  -1.227   1.408  1.00  0.00    -0.333 N 
HETATM   17  C13 UNL     1       4.892  -1.655   2.780  1.00  0.00     0.158 C 
HETATM   18  N5  UNL     1       2.669  -0.548   0.956  1.00  0.00    -0.336 N 
HETATM   19  C15 UNL     1       2.077  -0.710   2.284  1.00  0.00     0.158 C 
ENDBRANCH   3   7
BRANCH   1  20
HETATM   20  C5  UNL     1      -2.706  -0.090   0.990  1.00  0.00     0.128 C 
BRANCH  20  21
HETATM   21  C4  UNL     1      -3.255  -1.421   0.628  1.00  0.00     0.020 C 
BRANCH  21  22
HETATM   22  C3  UNL     1      -3.836  -1.567  -0.742  1.00  0.00     0.001 C 
BRANCH  22  23
HETATM   23  C2  UNL     1      -4.348  -3.000  -0.961  1.00  0.00    -0.004 C 
HETATM   24  C1  UNL     1      -5.415  -3.343   0.043  1.00  0.00     0.005 C 
ENDBRANCH  22  23
ENDBRANCH  21  22
ENDBRANCH  20  21
ENDBRANCH   1  20
BRANCH   6  25
HETATM   25  C19 UNL     1      -3.159   1.854  -1.210  1.00  0.00     0.207 C 
BRANCH  25  26
HETATM   26  N6  UNL     1      -3.047   3.240  -0.701  1.00  0.00    -0.281 N 
HETATM   27  C20 UNL     1      -2.584   4.288  -1.377  1.00  0.00     0.201 A 
HETATM   28  N7  UNL     1      -2.654   5.363  -0.538  1.00  0.00    -0.346 N 
HETATM   29  C21 UNL     1      -3.158   4.955   0.630  1.00  0.00     0.198 A 
ATOM     30  H7  UNL     1      -2.370   6.316  -0.765  1.00  0.00     0.167 HD
HETATM   31  N8  UNL     1      -3.395   3.640   0.512  1.00  0.00    -0.293 N 
ATOM     32  H8  UNL     1      -3.782   3.042   1.242  1.00  0.00     0.188 HD
ENDBRANCH  25  26
ENDBRANCH   6  25
TORSDOF 7
