REMARK  4 active torsions:
REMARK  status: ('A' for Active; 'I' for Inactive)
REMARK    1  A    between atoms: C2_2  and  N1_3 
REMARK    2  A    between atoms: N1_3  and  N2_4 
REMARK    3  A    between atoms: N1_3  and  C3_7 
REMARK    4  A    between atoms: C4_10  and  N4_11 
ROOT
HETATM    1  C3  UNL     1       0.294   0.142   0.208  1.00  0.00     0.727 A 
HETATM    2  N3  UNL     1       1.213   1.120   0.455  1.00  0.00    -0.020 N 
ATOM      3  H3  UNL     1       0.909   2.008   0.854  1.00  0.00     0.203 HD
HETATM    4  C4  UNL     1       2.512   0.928   0.180  1.00  0.00     0.705 A 
HETATM    5  N5  UNL     1       2.973  -0.222  -0.346  1.00  0.00    -0.022 N 
ATOM      6  H5  UNL     1       3.964  -0.352  -0.549  1.00  0.00     0.203 HD
HETATM    7  C5  UNL     1       2.078  -1.191  -0.593  1.00  0.00     0.705 A 
HETATM    8  N6  UNL     1       2.479  -2.310  -1.098  1.00  0.00    -0.234 N 
ATOM      9  H61 UNL     1       1.799  -3.046  -1.286  1.00  0.00     0.174 HD
ATOM     10  H62 UNL     1       3.467  -2.455  -1.307  1.00  0.00     0.174 HD
HETATM   11  N7  UNL     1       0.752  -0.996  -0.313  1.00  0.00    -0.020 N 
ATOM     12  H7  UNL     1       0.092  -1.748  -0.510  1.00  0.00     0.203 HD
ENDROOT
BRANCH   1  13
HETATM   13  N1  UNL     1      -1.072   0.361   0.502  1.00  0.00    -0.130 N 
BRANCH  13  14
HETATM   14  C2  UNL     1      -2.087  -0.610   0.288  1.00  0.00     0.163 C 
HETATM   15  C1  UNL     1      -3.081  -0.038  -0.709  1.00  0.00     0.029 C 
ENDBRANCH  13  14
BRANCH  13  16
HETATM   16  N2  UNL     1      -1.480   1.605   1.034  1.00  0.00    -0.329 N 
ATOM     17  H22 UNL     1      -2.465   1.763   1.246  1.00  0.00     0.177 HD
ATOM     18  H21 UNL     1      -0.751   2.302   1.188  1.00  0.00     0.177 HD
ENDBRANCH  13  16
ENDBRANCH   1  13
BRANCH   4  19
HETATM   19  N4  UNL     1       3.416   1.850   0.407  1.00  0.00    -0.234 N 
ATOM     20  H42 UNL     1       3.067   2.721   0.806  1.00  0.00     0.174 HD
ATOM     21  H41 UNL     1       4.404   1.704   0.198  1.00  0.00     0.174 HD
ENDBRANCH   4  19
TORSDOF 4
