REMARK  12 active torsions:
REMARK  status: ('A' for Active; 'I' for Inactive)
REMARK    1  A    between atoms: C2_2  and  O1_5 
REMARK    2  A    between atoms: O1_5  and  C5_6 
REMARK       I    between atoms: C5_6  and  N1_8 
REMARK    3  A    between atoms: N1_8  and  C6_10 
REMARK    4  A    between atoms: C6_10  and  C7_11 
REMARK    5  A    between atoms: C6_10  and  C23_36 
REMARK       I    between atoms: C7_11  and  N2_13 
REMARK    6  A    between atoms: N2_13  and  C8_15 
REMARK    7  A    between atoms: C8_15  and  C9_16 
REMARK    8  A    between atoms: C8_15  and  C16_23 
REMARK    9  A    between atoms: C9_16  and  C10_17 
REMARK   10  A    between atoms: C16_23  and  C17_25 
REMARK       I    between atoms: C17_25  and  N3_27 
REMARK   11  A    between atoms: N3_27  and  C18_29 
REMARK   12  A    between atoms: C21_32  and  O6_33 
ROOT
HETATM    1  C8  UNL     1       1.566   0.743  -0.078  1.00  0.00     0.165 C 
ENDROOT
BRANCH   1   2
HETATM    2  N2  UNL     1       0.331   0.626  -0.836  1.00  0.00    -0.347 N 
HETATM    3  C7  UNL     1      -0.899   0.450  -0.199  1.00  0.00     0.241 C 
HETATM    4  O3  UNL     1      -0.835   0.430   1.096  1.00  0.00    -0.271 OA
ATOM      5  H2  UNL     1       0.364   0.673  -1.854  1.00  0.00     0.163 HD
BRANCH   3   6
HETATM    6  C6  UNL     1      -2.209   0.282  -0.803  1.00  0.00     0.186 C 
BRANCH   6   7
HETATM    7  N1  UNL     1      -3.216   0.146   0.266  1.00  0.00    -0.323 N 
HETATM    8  C5  UNL     1      -3.978  -1.015   0.461  1.00  0.00     0.362 C 
HETATM    9  O2  UNL     1      -3.781  -1.997  -0.333  1.00  0.00    -0.238 OA
ATOM     10  H1  UNL     1      -3.366   0.935   0.894  1.00  0.00     0.165 HD
BRANCH   8  11
HETATM   11  O1  UNL     1      -4.920  -1.191   1.432  1.00  0.00    -0.294 OA
BRANCH  11  12
HETATM   12  C2  UNL     1      -5.692  -2.334   1.648  1.00  0.00     0.061 C 
HETATM   13  C1  UNL     1      -6.594  -2.032   2.851  1.00  0.00     0.046 C 
HETATM   14  C3  UNL     1      -4.870  -3.547   2.017  1.00  0.00     0.046 C 
HETATM   15  C4  UNL     1      -6.601  -2.659   0.489  1.00  0.00     0.046 C 
ENDBRANCH  11  12
ENDBRANCH   8  11
ENDBRANCH   6   7
BRANCH   6  16
HETATM   16  C23 UNL     1      -2.668   1.312  -1.798  1.00  0.00    -0.022 C 
HETATM   17  C24 UNL     1      -2.847   2.687  -1.217  1.00  0.00     0.017 C 
HETATM   18  C25 UNL     1      -1.888   1.380  -3.063  1.00  0.00     0.017 C 
HETATM   19  C26 UNL     1      -4.097   0.833  -2.265  1.00  0.00     0.017 C 
ENDBRANCH   6  16
ENDBRANCH   3   6
ENDBRANCH   1   2
BRANCH   1  20
HETATM   20  C9  UNL     1       2.508   1.790  -0.456  1.00  0.00     0.038 C 
BRANCH  20  21
HETATM   21  C10 UNL     1       2.162   3.216  -0.403  1.00  0.00    -0.012 C 
HETATM   22  C11 UNL     1       1.059   3.747  -1.220  1.00  0.00     0.005 C 
HETATM   23  C12 UNL     1       0.456   5.024  -0.662  1.00  0.00     0.000 C 
HETATM   24  C13 UNL     1       1.489   5.907  -0.016  1.00  0.00     0.000 C 
HETATM   25  C14 UNL     1       2.334   5.196   0.986  1.00  0.00     0.000 C 
HETATM   26  C15 UNL     1       1.961   3.732   1.024  1.00  0.00     0.005 C 
ENDBRANCH  20  21
ENDBRANCH   1  20
BRANCH   1  27
HETATM   27  C16 UNL     1       2.223  -0.604  -0.244  1.00  0.00     0.238 C 
HETATM   28  O4  UNL     1       1.734  -1.454  -1.070  1.00  0.00    -0.285 OA
BRANCH  27  29
HETATM   29  C17 UNL     1       3.396  -1.031   0.479  1.00  0.00     0.289 C 
HETATM   30  O5  UNL     1       3.889  -0.252   1.351  1.00  0.00    -0.264 OA
HETATM   31  N3  UNL     1       4.009  -2.305   0.233  1.00  0.00    -0.350 N 
ATOM     32  H3  UNL     1       3.615  -2.933  -0.468  1.00  0.00     0.163 HD
BRANCH  31  33
HETATM   33  C18 UNL     1       5.168  -2.695   0.967  1.00  0.00     0.087 C 
HETATM   34  C19 UNL     1       6.343  -3.005   0.033  1.00  0.00     0.028 C 
HETATM   35  C20 UNL     1       5.859  -4.314  -0.586  1.00  0.00     0.034 C 
HETATM   36  C21 UNL     1       5.158  -5.049   0.548  1.00  0.00     0.120 C 
HETATM   37  C22 UNL     1       4.998  -4.037   1.654  1.00  0.00     0.057 C 
BRANCH  36  38
HETATM   38  O6  UNL     1       5.939  -6.132   0.948  1.00  0.00    -0.396 OA
ATOM     39  H6  UNL     1       5.502  -6.591   1.656  1.00  0.00     0.210 HD
ENDBRANCH  36  38
ENDBRANCH  31  33
ENDBRANCH  27  29
ENDBRANCH   1  27
TORSDOF 12
