REMARK  3 active torsions:
REMARK  status: ('A' for Active; 'I' for Inactive)
REMARK    1  A    between atoms: C2_2  and  C3_3 
REMARK    2  A    between atoms: C11_13  and  O3_14 
REMARK    3  A    between atoms: C16_21  and  C17_22 
ROOT
HETATM    1  C3  UNL     1      -2.820   1.073   0.030  1.00  0.00     0.019 C 
HETATM    2  C4  UNL     1      -2.500   0.268  -1.237  1.00  0.00     0.019 C 
HETATM    3  C5  UNL     1      -0.992   0.171  -1.137  1.00  0.00    -0.036 C 
HETATM    4  C6  UNL     1      -0.410   1.273  -1.967  1.00  0.00     0.015 C 
HETATM    5  C7  UNL     1      -0.484  -1.170  -1.613  1.00  0.00     0.045 C 
HETATM    6  C8  UNL     1       0.639  -1.531  -0.646  1.00  0.00     0.165 C 
HETATM    7  O1  UNL     1       1.857  -1.077  -1.059  1.00  0.00    -0.234 OA
HETATM    8  O2  UNL     1       2.787  -1.694  -0.359  1.00  0.00    -0.222 OA
HETATM    9  C9  UNL     1       3.360  -0.737   0.474  1.00  0.00     0.167 C 
HETATM   10  C10 UNL     1       4.620  -1.218   1.164  1.00  0.00     0.057 C 
HETATM   11  C11 UNL     1       3.503   0.633  -0.151  1.00  0.00     0.297 C 
HETATM   12  O4  UNL     1       2.299   0.979   0.462  1.00  0.00    -0.350 OA
HETATM   13  C12 UNL     1       2.381  -0.063   1.364  1.00  0.00     0.167 C 
HETATM   14  C13 UNL     1       1.168  -0.812   1.700  1.00  0.00     0.043 C 
HETATM   15  C14 UNL     1       0.143  -0.978   0.640  1.00  0.00     0.026 C 
HETATM   16  C15 UNL     1      -0.639   0.257   0.319  1.00  0.00     0.012 C 
HETATM   17  C16 UNL     1      -1.998   0.257   1.030  1.00  0.00     0.060 C 
ENDROOT
BRANCH   1  18
HETATM   18  C2  UNL     1      -4.255   1.047   0.352  1.00  0.00    -0.031 C 
HETATM   19  C1  UNL     1      -5.115   0.566  -0.522  1.00  0.00     0.007 C 
ENDBRANCH   1  18
BRANCH  17  20
HETATM   20  C17 UNL     1      -1.926   0.912   2.345  1.00  0.00     0.236 C 
HETATM   21  O5  UNL     1      -2.120   2.104   2.476  1.00  0.00    -0.306 OA
ENDBRANCH  17  20
BRANCH  11  22
HETATM   22  O3  UNL     1       3.479   0.666  -1.533  1.00  0.00    -0.368 OA
ATOM     23  H3  UNL     1       3.569   1.526  -1.926  1.00  0.00     0.212 HD
ENDBRANCH  11  22
TORSDOF 3
