REMARK  2 active torsions:
REMARK  status: ('A' for Active; 'I' for Inactive)
REMARK    1  A    between atoms: N1_2  and  C4_5 
REMARK    2  A    between atoms: C4_5  and  C5_6 
ROOT
HETATM    1  C5  UNL     1       0.455   0.690  -0.474  1.00  0.00     0.211 C 
HETATM    2  C6  UNL     1       1.014  -0.625  -0.889  1.00  0.00     0.034 C 
HETATM    3  C7  UNL     1       2.020  -1.050   0.191  1.00  0.00     0.004 C 
HETATM    4  C8  UNL     1       3.267  -0.237  -0.092  1.00  0.00     0.027 C 
HETATM    5  C9  UNL     1       2.819   1.132  -0.543  1.00  0.00     0.233 C 
HETATM    6  N2  UNL     1       1.543   1.512   0.018  1.00  0.00    -0.069 N 
ATOM      7  H21 UNL     1       1.574   1.508   1.038  1.00  0.00     0.277 HD
ATOM      8  H22 UNL     1       1.354   2.502  -0.136  1.00  0.00     0.277 HD
ENDROOT
BRANCH   1   9
HETATM    9  C4  UNL     1      -0.626   0.650   0.543  1.00  0.00     0.268 C 
BRANCH   9  10
HETATM   10  N1  UNL     1      -1.810  -0.056   0.213  1.00  0.00    -0.077 N 
HETATM   11  C1  UNL     1      -2.212   0.075  -1.171  1.00  0.00     0.271 C 
HETATM   12  C2  UNL     1      -2.893   0.562   1.002  1.00  0.00     0.271 C 
HETATM   13  C3  UNL     1      -1.819  -1.453   0.561  1.00  0.00     0.271 C 
ENDBRANCH   9  10
ENDBRANCH   1   9
TORSDOF 2
