REMARK  7 active torsions:
REMARK  status: ('A' for Active; 'I' for Inactive)
REMARK    1  A    between atoms: C2_2  and  O1_3 
REMARK    2  A    between atoms: O1_3  and  C3_4 
REMARK    3  A    between atoms: C3_4  and  C4_6 
REMARK    4  A    between atoms: C7_15  and  C8_16 
REMARK    5  A    between atoms: C9_21  and  C10_22 
REMARK    6  A    between atoms: C10_22  and  C11_26 
REMARK    7  A    between atoms: C12_32  and  N8_33 
ROOT
HETATM    1  C8  UNL     1       0.185   0.615  -0.424  1.00  0.00     0.183 A 
HETATM    2  N3  UNL     1       0.354  -0.567   0.119  1.00  0.00    -0.277 N 
ATOM      3  H3  UNL     1      -0.401  -1.184   0.418  1.00  0.00     0.189 HD
HETATM    4  N4  UNL     1       1.629  -0.842   0.223  1.00  0.00    -0.276 N 
ATOM      5  H4  UNL     1       2.024  -1.699   0.611  1.00  0.00     0.189 HD
HETATM    6  C9  UNL     1       2.323   0.182  -0.261  1.00  0.00     0.193 A 
HETATM    7  O6  UNL     1       1.393   1.056  -0.649  1.00  0.00    -0.271 OA
ENDROOT
BRANCH   1   8
HETATM    8  C7  UNL     1      -0.978   1.395  -0.763  1.00  0.00     0.118 A 
HETATM    9  C4  UNL     1      -2.264   1.010  -0.562  1.00  0.00     0.132 A 
HETATM   10  N1  UNL     1      -3.268   1.889  -0.956  1.00  0.00    -0.302 N 
HETATM   11  C5  UNL     1      -3.023   3.062  -1.508  1.00  0.00     0.327 A 
ATOM     12  H1  UNL     1      -4.239   1.614  -0.811  1.00  0.00     0.171 HD
HETATM   13  O3  UNL     1      -3.946   3.838  -1.855  1.00  0.00    -0.247 OA
HETATM   14  N2  UNL     1      -1.756   3.480  -1.724  1.00  0.00    -0.275 N 
HETATM   15  C6  UNL     1      -0.770   2.656  -1.356  1.00  0.00     0.266 A 
ATOM     16  H2  UNL     1      -1.560   4.386  -2.150  1.00  0.00     0.173 HD
HETATM   17  O4  UNL     1       0.403   3.062  -1.565  1.00  0.00    -0.267 OA
BRANCH   9  18
HETATM   18  C3  UNL     1      -2.686  -0.238   0.025  1.00  0.00     0.311 C 
HETATM   19  O2  UNL     1      -1.977  -1.130   0.436  1.00  0.00    -0.258 OA
BRANCH  18  20
HETATM   20  O1  UNL     1      -4.066  -0.512   0.161  1.00  0.00    -0.317 OA
BRANCH  20  21
HETATM   21  C2  UNL     1      -4.492  -1.733   0.734  1.00  0.00     0.175 C 
HETATM   22  C1  UNL     1      -4.048  -1.967   2.130  1.00  0.00     0.034 C 
ENDBRANCH  20  21
ENDBRANCH  18  20
ENDBRANCH   9  18
ENDBRANCH   1   8
BRANCH   6  23
HETATM   23  C10 UNL     1       3.741   0.362  -0.369  1.00  0.00     0.112 C 
HETATM   24  N5  UNL     1       4.129   1.513  -0.907  1.00  0.00    -0.394 N 
ATOM     25  H52 UNL     1       3.383   2.150  -1.188  1.00  0.00     0.156 HD
ATOM     26  H51 UNL     1       5.138   1.641  -0.984  1.00  0.00     0.156 HD
BRANCH  23  27
HETATM   27  C11 UNL     1       4.784  -0.529   0.024  1.00  0.00     0.132 A 
HETATM   28  N6  UNL     1       6.110  -0.201  -0.151  1.00  0.00    -0.236 N 
HETATM   29  O5  UNL     1       6.844  -1.171   0.284  1.00  0.00    -0.155 OA
ATOM     30  H6  UNL     1       6.457   0.668  -0.558  1.00  0.00     0.197 HD
HETATM   31  N7  UNL     1       6.157  -2.132   0.740  1.00  0.00    -0.224 N 
HETATM   32  C12 UNL     1       4.842  -1.767   0.594  1.00  0.00     0.152 A 
ATOM     33  H7  UNL     1       6.510  -3.003   1.136  1.00  0.00     0.198 HD
BRANCH  32  34
HETATM   34  N8  UNL     1       3.840  -2.483   0.942  1.00  0.00    -0.382 N 
ATOM     35  H82 UNL     1       2.863  -2.212   0.833  1.00  0.00     0.157 HD
ATOM     36  H81 UNL     1       3.883  -3.409   1.368  1.00  0.00     0.157 HD
ENDBRANCH  32  34
ENDBRANCH  23  27
ENDBRANCH   6  23
TORSDOF 7
