REMARK  11 active torsions:
REMARK  status: ('A' for Active; 'I' for Inactive)
REMARK    1  A    between atoms: C2_7  and  N3_8 
REMARK    2  A    between atoms: C4_14  and  C5_15 
REMARK    3  A    between atoms: C5_15  and  N5_20 
REMARK    4  A    between atoms: N4_16  and  O1_18 
REMARK       I    between atoms: N5_20  and  C6_22 
REMARK    5  A    between atoms: C6_22  and  C7_24 
REMARK    6  A    between atoms: C7_24  and  N6_25 
REMARK    7  A    between atoms: C7_24  and  C15_34 
REMARK    8  A    between atoms: N6_25  and  O3_26 
REMARK    9  A    between atoms: O3_26  and  C8_27 
REMARK   10  A    between atoms: C8_27  and  C9_28 
REMARK       I    between atoms: C15_34  and  N7_36 
REMARK   11  A    between atoms: N7_36  and  C16_38 
ROOT
HETATM    1  C7  UNL     1       0.237   1.174   0.552  1.00  0.00     0.290 C 
ENDROOT
BRANCH   1   2
HETATM    2  C6  UNL     1       1.551   0.439   0.612  1.00  0.00     0.254 C 
HETATM    3  N5  UNL     1       1.685  -0.829   1.189  1.00  0.00    -0.312 N 
ATOM      4  H5  UNL     1       0.835  -1.239   1.575  1.00  0.00     0.170 HD
HETATM    5  O2  UNL     1       2.575   0.992   0.119  1.00  0.00    -0.271 OA
BRANCH   3   6
HETATM    6  C5  UNL     1       2.853  -1.606   1.300  1.00  0.00     0.125 C 
HETATM    7  N4  UNL     1       2.754  -2.775   1.889  1.00  0.00    -0.255 N 
ATOM      8  H4  UNL     1       3.592  -3.352   1.966  1.00  0.00     0.195 HD
BRANCH   6   9
HETATM    9  C4  UNL     1       4.195  -1.254   0.807  1.00  0.00     0.183 C 
HETATM   10  C1  UNL     1       5.240  -2.184   1.308  1.00  0.00     0.093 C 
HETATM   11  N1  UNL     1       5.222  -2.396   2.600  1.00  0.00    -0.388 N 
HETATM   12  N2  UNL     1       6.194  -2.783   0.480  1.00  0.00    -0.351 N 
ATOM     13  H12 UNL     1       5.939  -3.034   2.944  1.00  0.00     0.157 HD
ATOM     14  H11 UNL     1       4.526  -1.959   3.204  1.00  0.00     0.157 HD
HETATM   15  C2  UNL     1       5.876  -3.496  -0.728  1.00  0.00     0.292 C 
ATOM     16  H2  UNL     1       7.175  -2.710   0.749  1.00  0.00     0.163 HD
HETATM   17  C3  UNL     1       4.658  -3.031  -1.449  1.00  0.00     0.129 C 
HETATM   18  S1  UNL     1       4.253  -1.318  -1.015  1.00  0.00    -0.145 SA
BRANCH  15  19
HETATM   19  N3  UNL     1       6.997  -3.351  -1.649  1.00  0.00    -0.058 N 
ATOM     20  H33 UNL     1       7.242  -2.376  -1.820  1.00  0.00     0.276 HD
ATOM     21  H32 UNL     1       7.884  -3.646  -1.240  1.00  0.00     0.276 HD
ATOM     22  H31 UNL     1       6.771  -3.857  -2.506  1.00  0.00     0.276 HD
ENDBRANCH  15  19
ENDBRANCH   6   9
BRANCH   7  23
HETATM   23  O1  UNL     1       1.596  -3.252   2.399  1.00  0.00    -0.288 OA
ATOM     24  H1  UNL     1       1.524  -4.098   2.825  1.00  0.00     0.244 HD
ENDBRANCH   7  23
ENDBRANCH   3   6
ENDBRANCH   1   2
BRANCH   1  25
HETATM   25  N6  UNL     1       0.553   2.436  -0.158  1.00  0.00    -0.076 NA
BRANCH  25  26
HETATM   26  O3  UNL     1      -0.596   3.117  -0.301  1.00  0.00    -0.281 OA
BRANCH  26  27
HETATM   27  C8  UNL     1      -0.422   4.438   0.036  1.00  0.00     0.234 C 
BRANCH  27  28
HETATM   28  C9  UNL     1      -1.768   5.081  -0.162  1.00  0.00    -0.033 A 
HETATM   29  C10 UNL     1      -2.593   5.242   0.931  1.00  0.00     0.009 A 
HETATM   30  C11 UNL     1      -3.826   5.816   0.753  1.00  0.00     0.001 A 
HETATM   31  C12 UNL     1      -4.206   6.215  -0.514  1.00  0.00     0.000 A 
HETATM   32  C13 UNL     1      -3.365   6.048  -1.612  1.00  0.00     0.001 A 
HETATM   33  C14 UNL     1      -2.130   5.471  -1.418  1.00  0.00     0.009 A 
ENDBRANCH  27  28
ENDBRANCH  26  27
ENDBRANCH  25  26
ENDBRANCH   1  25
BRANCH   1  34
HETATM   34  C15 UNL     1      -0.751   0.410  -0.249  1.00  0.00     0.250 C 
HETATM   35  O4  UNL     1      -0.837   0.676  -1.474  1.00  0.00    -0.271 OA
HETATM   36  N7  UNL     1      -1.584  -0.585   0.319  1.00  0.00    -0.331 N 
ATOM     37  H7  UNL     1      -1.505  -0.785   1.316  1.00  0.00     0.165 HD
BRANCH  36  38
HETATM   38  C16 UNL     1      -2.525  -1.313  -0.455  1.00  0.00     0.258 C 
HETATM   39  N8  UNL     1      -2.549  -2.758  -0.167  1.00  0.00    -0.304 N 
HETATM   40  N9  UNL     1      -3.494  -3.721  -0.009  1.00  0.00    -0.266 N 
ATOM     41  H8  UNL     1      -1.607  -3.135  -0.057  1.00  0.00     0.183 HD
HETATM   42  C17 UNL     1      -4.990  -3.695   0.213  1.00  0.00     0.293 C 
ATOM     43  H9  UNL     1      -3.112  -4.666  -0.049  1.00  0.00     0.190 HD
HETATM   44  O5  UNL     1      -5.839  -4.371   0.433  1.00  0.00    -0.264 OA
HETATM   45  C18 UNL     1      -5.460  -2.257   0.089  1.00  0.00     0.145 A 
HETATM   46  C19 UNL     1      -6.178  -1.166   0.046  1.00  0.00     0.045 A 
HETATM   47  O6  UNL     1      -4.446  -1.757  -0.122  1.00  0.00    -0.305 OA
HETATM   48  C20 UNL     1      -5.151  -0.121  -0.239  1.00  0.00     0.040 A 
HETATM   49  C21 UNL     1      -3.955  -0.761  -0.324  1.00  0.00     0.097 A 
ENDBRANCH  36  38
ENDBRANCH   1  34
TORSDOF 11
