REMARK  12 active torsions:
REMARK  status: ('A' for Active; 'I' for Inactive)
REMARK    1  A    between atoms: O1_2  and  C2_3 
REMARK    2  A    between atoms: C2_3  and  C3_5 
REMARK    3  A    between atoms: C3_5  and  N1_6 
REMARK    4  A    between atoms: N1_6  and  N2_7 
REMARK    5  A    between atoms: N2_7  and  C4_9 
REMARK    6  A    between atoms: C5_12  and  C6_13 
REMARK    7  A    between atoms: C9_25  and  N9_26 
REMARK    8  A    between atoms: N9_26  and  C10_28 
REMARK    9  A    between atoms: C10_28  and  O3_29 
REMARK   10  A    between atoms: C10_28  and  C11_31 
REMARK   11  A    between atoms: C13_41  and  N13_42 
REMARK   12  A    between atoms: N13_42  and  N14_44 
ROOT
HETATM    1  C6  UNL     1       0.094   3.617   0.616  1.00  0.00     0.167 A 
HETATM    2  N4  UNL     1       1.091   4.496   0.481  1.00  0.00    -0.315 N 
ATOM      3  H4  UNL     1       1.998   4.282   0.067  1.00  0.00     0.170 HD
HETATM    4  C7  UNL     1       0.739   5.703   0.965  1.00  0.00     0.204 A 
HETATM    5  C8  UNL     1       1.535   6.912   1.001  1.00  0.00     0.138 C 
HETATM    6  N5  UNL     1       2.160   7.895   1.022  1.00  0.00    -0.188 NA
HETATM    7  N6  UNL     1      -0.518   5.560   1.413  1.00  0.00    -0.275 N 
ATOM      8  H6  UNL     1      -1.083   6.292   1.843  1.00  0.00     0.189 HD
HETATM    9  N7  UNL     1      -0.906   4.301   1.202  1.00  0.00    -0.280 N 
ATOM     10  H7  UNL     1      -1.819   3.917   1.447  1.00  0.00     0.188 HD
ENDROOT
BRANCH   1  11
HETATM   11  C5  UNL     1       0.032   2.209   0.247  1.00  0.00     0.155 A 
HETATM   12  N3  UNL     1       1.066   1.577  -0.322  1.00  0.00    -0.322 N 
HETATM   13  C4  UNL     1       1.025   0.281  -0.676  1.00  0.00     0.165 A 
ATOM     14  H3  UNL     1       1.923   2.102  -0.495  1.00  0.00     0.169 HD
HETATM   15  C13 UNL     1      -0.101  -0.476  -0.469  1.00  0.00     0.138 A 
HETATM   16  C9  UNL     1      -1.195   0.173   0.127  1.00  0.00     0.137 A 
HETATM   17  N8  UNL     1      -1.095   1.474   0.462  1.00  0.00    -0.324 N 
ATOM     18  H8  UNL     1      -1.898   1.929   0.896  1.00  0.00     0.169 HD
BRANCH  13  19
HETATM   19  N2  UNL     1       2.137  -0.411  -1.281  1.00  0.00    -0.217 N 
ATOM     20  H2  UNL     1       2.374  -0.240  -2.258  1.00  0.00     0.203 HD
BRANCH  19  21
HETATM   21  N1  UNL     1       2.841  -1.258  -0.576  1.00  0.00    -0.331 NA
BRANCH  21  22
HETATM   22  C3  UNL     1       3.355  -2.052   0.117  1.00  0.00     0.290 C 
BRANCH  22  23
HETATM   23  C2  UNL     1       4.797  -2.338   0.096  1.00  0.00     0.313 C 
HETATM   24  O2  UNL     1       5.290  -3.224   0.886  1.00  0.00    -0.257 OA
BRANCH  23  25
HETATM   25  O1  UNL     1       5.677  -1.708  -0.728  1.00  0.00    -0.321 OA
HETATM   26  C1  UNL     1       7.081  -2.010  -0.721  1.00  0.00     0.213 C 
ENDBRANCH  23  25
ENDBRANCH  22  23
ENDBRANCH  21  22
ENDBRANCH  19  21
ENDBRANCH  13  19
BRANCH  15  27
HETATM   27  N13 UNL     1      -0.186  -1.840  -0.790  1.00  0.00    -0.300 N 
ATOM     28  H13 UNL     1      -0.126  -2.115  -1.770  1.00  0.00     0.186 HD
BRANCH  27  29
HETATM   29  N14 UNL     1      -0.350  -2.842   0.180  1.00  0.00    -0.344 N 
ATOM     30 2H14 UNL     1      -0.408  -2.549   1.155  1.00  0.00     0.176 HD
ATOM     31 1H14 UNL     1      -0.412  -3.833  -0.053  1.00  0.00     0.176 HD
ENDBRANCH  27  29
ENDBRANCH  15  27
BRANCH  16  32
HETATM   32  N9  UNL     1      -2.214  -0.563   0.306  1.00  0.00    -0.341 N 
ATOM     33  H9  UNL     1      -2.185  -1.540   0.015  1.00  0.00     0.164 HD
BRANCH  32  34
HETATM   34  C10 UNL     1      -3.411  -0.040   0.914  1.00  0.00     0.297 C 
BRANCH  34  35
HETATM   35  O3  UNL     1      -3.418  -0.230   2.308  1.00  0.00    -0.369 OA
ATOM     36  H3  UNL     1      -4.207   0.115   2.709  1.00  0.00     0.212 HD
ENDBRANCH  34  35
BRANCH  34  37
HETATM   37  C11 UNL     1      -4.544  -0.821   0.331  1.00  0.00     0.191 A 
HETATM   38  N10 UNL     1      -5.555  -1.426   0.948  1.00  0.00    -0.276 N 
HETATM   39  N11 UNL     1      -6.318  -1.996   0.049  1.00  0.00    -0.263 N 
ATOM     40  H10 UNL     1      -5.711  -1.443   1.956  1.00  0.00     0.189 HD
HETATM   41  C12 UNL     1      -5.780  -1.744  -1.149  1.00  0.00     0.238 A 
ATOM     42  H11 UNL     1      -7.166  -2.533   0.229  1.00  0.00     0.190 HD
HETATM   43  N12 UNL     1      -6.236  -2.134  -2.284  1.00  0.00    -0.364 N 
HETATM   44  O4  UNL     1      -4.706  -1.029  -0.940  1.00  0.00    -0.259 OA
ATOM     45 2H12 UNL     1      -7.074  -2.692  -2.447  1.00  0.00     0.159 HD
ATOM     46 1H12 UNL     1      -5.826  -1.942  -3.198  1.00  0.00     0.159 HD
ENDBRANCH  34  37
ENDBRANCH  32  34
ENDBRANCH  16  32
ENDBRANCH   1  11
TORSDOF 12
