REMARK  14 active torsions:
REMARK  status: ('A' for Active; 'I' for Inactive)
REMARK    1  A    between atoms: C2_2  and  O1_4 
REMARK    2  A    between atoms: C2_2  and  O2_6 
REMARK    3  A    between atoms: O2_6  and  C4_7 
REMARK    4  A    between atoms: C4_7  and  C5_9 
REMARK    5  A    between atoms: C14_21  and  C15_22 
REMARK    6  A    between atoms: C14_21  and  C16_25 
REMARK    7  A    between atoms: C17_30  and  C18_31 
REMARK       I    between atoms: C18_31  and  N1_33 
REMARK    8  A    between atoms: N1_33  and  C19_35 
REMARK    9  A    between atoms: C19_35  and  C20_36 
REMARK   10  A    between atoms: N2_39  and  C21_40 
REMARK   11  A    between atoms: C21_40  and  C22_45 
REMARK   12  A    between atoms: N3_41  and  O15_43 
REMARK   13  A    between atoms: C22_45  and  C23_47 
REMARK   14  A    between atoms: C23_47  and  C24_48 
ROOT
HETATM    1  C5  UNL     1       1.017  -0.034   0.993  1.00  0.00     0.399 C 
HETATM    2  O4  UNL     1       0.892   1.096   1.782  1.00  0.00    -0.321 OA
HETATM    3  C6  UNL     1       1.001   2.315   1.267  1.00  0.00     0.208 C 
HETATM    4  C7  UNL     1       0.520   2.624  -0.085  1.00  0.00     0.173 C 
HETATM    5  C8  UNL     1       1.259   3.848  -0.653  1.00  0.00     0.210 C 
HETATM    6  O5  UNL     1       2.627   3.732  -0.515  1.00  0.00    -0.341 OA
HETATM    7  C9  UNL     1       3.686   3.732  -1.331  1.00  0.00     0.112 C 
HETATM    8  S1  UNL     1       4.872   4.880  -1.054  1.00  0.00    -0.058 SA
HETATM    9  C10 UNL     1       4.007   2.862  -2.482  1.00  0.00     0.077 C 
HETATM   10  C11 UNL     1       2.981   1.906  -2.927  1.00  0.00     0.007 C 
HETATM   11  C12 UNL     1       3.021   0.534  -2.324  1.00  0.00     0.004 C 
HETATM   12  C13 UNL     1       3.869   0.348  -1.138  1.00  0.00     0.061 C 
HETATM   13  C14 UNL     1       3.064  -0.604  -0.153  1.00  0.00     0.241 C 
HETATM   14  O10 UNL     1       1.973   0.042   0.093  1.00  0.00    -0.289 OA
HETATM   15  O11 UNL     1      -0.863   2.907  -0.034  1.00  0.00    -0.346 OA
HETATM   16  C17 UNL     1      -1.512   1.883   0.642  1.00  0.00     0.345 C 
HETATM   17  N2  UNL     1      -1.065   0.627   0.124  1.00  0.00    -0.192 N 
HETATM   18  O18 UNL     1      -0.172  -0.348   0.293  1.00  0.00    -0.196 OA
ENDROOT
BRANCH  17  19
HETATM   19  C21 UNL     1      -1.863   0.219  -0.999  1.00  0.00     0.197 C 
HETATM   20  N3  UNL     1      -2.036   0.792  -2.092  1.00  0.00    -0.248 N 
ATOM     21  H3  UNL     1      -2.662   0.243  -2.681  1.00  0.00     0.196 HD
BRANCH  20  22
HETATM   22  O15 UNL     1      -1.665   1.880  -2.722  1.00  0.00    -0.288 OA
ATOM     23  H15 UNL     1      -1.797   2.317  -3.555  1.00  0.00     0.244 HD
ENDBRANCH  20  22
BRANCH  19  24
HETATM   24  C22 UNL     1      -2.543  -1.081  -0.844  1.00  0.00     0.205 C 
HETATM   25  O16 UNL     1      -2.447  -1.701   0.219  1.00  0.00    -0.289 OA
BRANCH  24  26
HETATM   26  C23 UNL     1      -3.329  -1.620  -1.964  1.00  0.00     0.186 C 
BRANCH  26  27
HETATM   27  C24 UNL     1      -4.720  -2.010  -1.601  1.00  0.00     0.238 C 
HETATM   28  N4  UNL     1      -5.627  -2.536  -2.570  1.00  0.00    -0.062 NA
HETATM   29  O17 UNL     1      -5.164  -1.894  -0.423  1.00  0.00    -0.276 OA
ENDBRANCH  26  27
ENDBRANCH  24  26
ENDBRANCH  19  24
ENDBRANCH  17  19
BRANCH  16  30
HETATM   30  C18 UNL     1      -2.973   2.134   0.555  1.00  0.00     0.269 C 
HETATM   31  O12 UNL     1      -3.390   3.111  -0.111  1.00  0.00    -0.268 OA
HETATM   32  N1  UNL     1      -3.954   1.327   1.192  1.00  0.00    -0.347 N 
ATOM     33  H1  UNL     1      -3.681   0.514   1.744  1.00  0.00     0.163 HD
BRANCH  32  34
HETATM   34  C19 UNL     1      -5.344   1.683   1.041  1.00  0.00     0.235 C 
BRANCH  34  35
HETATM   35  C20 UNL     1      -6.269   0.790   1.754  1.00  0.00     0.191 C 
HETATM   36  O13 UNL     1      -5.857  -0.180   2.416  1.00  0.00    -0.647 OA
HETATM   37  O14 UNL     1      -7.627   1.039   1.684  1.00  0.00    -0.647 OA
ENDBRANCH  34  35
ENDBRANCH  32  34
ENDBRANCH  16  30
BRANCH   1  38
HETATM   38  C4  UNL     1       1.032  -1.153   1.985  1.00  0.00     0.358 C 
HETATM   39  O3  UNL     1       0.945  -0.935   3.251  1.00  0.00    -0.256 OA
BRANCH  38  40
HETATM   40  O2  UNL     1       1.132  -2.488   1.665  1.00  0.00    -0.278 OA
BRANCH  40  41
HETATM   41  C2  UNL     1       1.134  -3.508   2.646  1.00  0.00     0.163 C 
HETATM   42  C1  UNL     1      -0.182  -3.370   3.408  1.00  0.00     0.078 C 
HETATM   43  C3  UNL     1       1.143  -4.871   1.985  1.00  0.00     0.078 C 
BRANCH  41  44
HETATM   44  O1  UNL     1       2.213  -3.463   3.501  1.00  0.00    -0.365 OA
ATOM     45  H1  UNL     1       3.032  -3.549   3.027  1.00  0.00     0.213 HD
ENDBRANCH  41  44
ENDBRANCH  40  41
ENDBRANCH  38  40
ENDBRANCH   1  38
BRANCH  13  46
HETATM   46  C15 UNL     1       2.817  -1.781  -1.065  1.00  0.00     0.221 C 
HETATM   47  O6  UNL     1       1.738  -2.086  -1.568  1.00  0.00    -0.645 OA
HETATM   48  O7  UNL     1       3.937  -2.582  -1.345  1.00  0.00    -0.645 OA
ENDBRANCH  13  46
BRANCH  13  49
HETATM   49  C16 UNL     1       4.080  -0.895   0.855  1.00  0.00     0.221 C 
HETATM   50  O8  UNL     1       4.030  -0.484   2.027  1.00  0.00    -0.645 OA
HETATM   51  O9  UNL     1       5.174  -1.675   0.512  1.00  0.00    -0.645 OA
ENDBRANCH  13  49
TORSDOF 14
