REMARK  14 active torsions:
REMARK  status: ('A' for Active; 'I' for Inactive)
REMARK    1  A    between atoms: C2_2  and  C3_3 
REMARK    2  A    between atoms: C3_3  and  C4_4 
REMARK    3  A    between atoms: C3_3  and  C22_29 
REMARK    4  A    between atoms: C5_5  and  C6_6 
REMARK    5  A    between atoms: C6_6  and  C7_7 
REMARK    6  A    between atoms: C6_6  and  O2_9 
REMARK    7  A    between atoms: O2_9  and  C8_10 
REMARK    8  A    between atoms: C8_10  and  C9_12 
REMARK    9  A    between atoms: C9_12  and  O4_13 
REMARK   10  A    between atoms: C18_23  and  O5_24 
REMARK   11  A    between atoms: C22_29  and  C23_30 
REMARK   12  A    between atoms: C23_30  and  C24_31 
REMARK   13  A    between atoms: C24_31  and  C25_32 
REMARK   14  A    between atoms: C25_32  and  O6_34 
ROOT
HETATM    1  C8  UNL     1      -1.013  -0.068   2.889  1.00  0.00     0.295 C 
HETATM    2  O3  UNL     1      -1.037   0.381   4.056  1.00  0.00    -0.262 OA
ENDROOT
BRANCH   1   3
HETATM    3  O2  UNL     1       0.194  -0.091   2.232  1.00  0.00    -0.303 OA
BRANCH   3   4
HETATM    4  C6  UNL     1       1.346   0.388   2.880  1.00  0.00     0.215 C 
BRANCH   4   5
HETATM    5  C5  UNL     1       2.451  -0.581   2.992  1.00  0.00     0.009 C 
HETATM    6  C4  UNL     1       3.177  -1.083   2.020  1.00  0.00    -0.023 C 
BRANCH   6   7
HETATM    7  C3  UNL     1       3.020  -0.767   0.589  1.00  0.00     0.007 C 
BRANCH   7   8
HETATM    8  C2  UNL     1       2.893  -2.086  -0.203  1.00  0.00     0.004 C 
HETATM    9  C1  UNL     1       1.691  -2.846   0.299  1.00  0.00     0.006 C 
ENDBRANCH   7   8
BRANCH   7  10
HETATM   10  C22 UNL     1       4.345  -0.137   0.157  1.00  0.00     0.008 C 
BRANCH  10  11
HETATM   11  C23 UNL     1       4.397   0.151  -1.305  1.00  0.00     0.003 C 
BRANCH  11  12
HETATM   12  C24 UNL     1       5.724   0.759  -1.661  1.00  0.00     0.031 C 
BRANCH  12  13
HETATM   13  C25 UNL     1       5.989   2.056  -0.946  1.00  0.00     0.114 C 
HETATM   14  C26 UNL     1       7.360   2.540  -1.422  1.00  0.00     0.039 C 
BRANCH  13  15
HETATM   15  O6  UNL     1       5.038   3.001  -1.258  1.00  0.00    -0.396 OA
ATOM     16  H6  UNL     1       5.205   3.820  -0.807  1.00  0.00     0.210 HD
ENDBRANCH  13  15
ENDBRANCH  12  13
ENDBRANCH  11  12
ENDBRANCH  10  11
ENDBRANCH   7  10
ENDBRANCH   6   7
ENDBRANCH   4   5
BRANCH   4  17
HETATM   17  C7  UNL     1       1.772   1.625   2.167  1.00  0.00     0.267 C 
HETATM   18  O1  UNL     1       2.743   2.232   2.546  1.00  0.00    -0.304 OA
ENDBRANCH   4  17
ENDBRANCH   3   4
ENDBRANCH   1   3
BRANCH   1  19
HETATM   19  C9  UNL     1      -2.219  -0.568   2.197  1.00  0.00     0.149 C 
HETATM   20  C10 UNL     1      -2.107  -2.063   1.912  1.00  0.00     0.049 C 
HETATM   21  C11 UNL     1      -3.047  -2.166   0.703  1.00  0.00     0.009 C 
HETATM   22  C12 UNL     1      -2.599  -0.982  -0.105  1.00  0.00    -0.002 C 
HETATM   23  C13 UNL     1      -2.319   0.104   0.860  1.00  0.00     0.035 C 
HETATM   24  C21 UNL     1      -3.524  -0.629  -1.222  1.00  0.00     0.001 C 
HETATM   25  C14 UNL     1      -3.370   1.177   0.929  1.00  0.00     0.009 C 
HETATM   26  C15 UNL     1      -4.738   0.685   0.538  1.00  0.00     0.012 C 
HETATM   27  C16 UNL     1      -4.759   0.086  -0.846  1.00  0.00    -0.014 C 
HETATM   28  C17 UNL     1      -6.019  -0.747  -0.960  1.00  0.00     0.018 C 
HETATM   29  C18 UNL     1      -4.922   1.253  -1.826  1.00  0.00     0.126 C 
HETATM   30  C19 UNL     1      -3.843   1.085  -2.861  1.00  0.00     0.033 C 
HETATM   31  C20 UNL     1      -2.761   0.263  -2.194  1.00  0.00     0.008 C 
BRANCH  19  32
HETATM   32  O4  UNL     1      -3.367  -0.420   2.973  1.00  0.00    -0.379 OA
ATOM     33  H4  UNL     1      -4.142  -0.741   2.528  1.00  0.00     0.211 HD
ENDBRANCH  19  32
BRANCH  29  34
HETATM   34  O5  UNL     1      -6.142   1.229  -2.465  1.00  0.00    -0.395 OA
ATOM     35  H5  UNL     1      -6.243   1.952  -3.072  1.00  0.00     0.210 HD
ENDBRANCH  29  34
ENDBRANCH   1  19
TORSDOF 14
