REMARK  12 active torsions:
REMARK  status: ('A' for Active; 'I' for Inactive)
REMARK    1  A    between atoms: C4_4  and  N1_5 
REMARK    2  A    between atoms: N2_8  and  C7_9 
REMARK    3  A    between atoms: C7_9  and  C8_10 
REMARK    4  A    between atoms: C11_17  and  N5_18 
REMARK       I    between atoms: N5_18  and  C12_20 
REMARK       I    between atoms: C12_20  and  N6_22 
REMARK    5  A    between atoms: N6_22  and  N7_24 
REMARK    6  A    between atoms: N7_24  and  C14_26 
REMARK    7  A    between atoms: C14_26  and  C16_28 
REMARK    8  A    between atoms: C16_28  and  C17_30 
REMARK    9  A    between atoms: C17_30  and  O3_31 
REMARK   10  A    between atoms: C17_30  and  C18_33 
REMARK   11  A    between atoms: C18_33  and  O4_34 
REMARK   12  A    between atoms: C19_38  and  N9_39 
ROOT
HETATM    1  C8  UNL     1      -3.286   1.202  -2.550  1.00  0.00     0.141 C 
HETATM    2  C9  UNL     1      -2.113   1.645  -3.403  1.00  0.00     0.151 C 
HETATM    3  N3  UNL     1      -0.925   0.872  -3.201  1.00  0.00    -0.373 N 
ATOM      4  H3  UNL     1      -0.530   0.473  -4.053  1.00  0.00     0.161 HD
HETATM    5  C10 UNL     1      -0.194   0.563  -2.004  1.00  0.00     0.136 A 
HETATM    6  N4  UNL     1       0.973  -0.009  -2.203  1.00  0.00    -0.175 N 
ATOM      7  H4  UNL     1       1.281  -0.197  -3.157  1.00  0.00     0.186 HD
HETATM    8  C11 UNL     1       1.782  -0.357  -1.158  1.00  0.00     0.689 A 
HETATM    9  N8  UNL     1       1.335  -0.090   0.086  1.00  0.00    -0.176 N 
ATOM     10  H8  UNL     1       1.933  -0.346   0.871  1.00  0.00     0.186 HD
HETATM   11  C19 UNL     1       0.155   0.491   0.361  1.00  0.00     0.134 A 
HETATM   12  C20 UNL     1      -0.645   0.834  -0.713  1.00  0.00     0.120 A 
HETATM   13  C21 UNL     1      -1.918   1.456  -0.331  1.00  0.00     0.259 C 
HETATM   14  O5  UNL     1      -1.920   1.964   0.819  1.00  0.00    -0.267 OA
HETATM   15  N10 UNL     1      -3.080   1.512  -1.144  1.00  0.00    -0.346 N 
ATOM     16  H10 UNL     1      -3.919   1.825  -0.656  1.00  0.00     0.163 HD
ENDROOT
BRANCH   8  17
HETATM   17  N5  UNL     1       2.921  -0.919  -1.395  1.00  0.00    -0.140 N 
HETATM   18  C12 UNL     1       3.810  -1.306  -0.364  1.00  0.00     0.354 C 
HETATM   19  O1  UNL     1       3.508  -2.314   0.325  1.00  0.00    -0.244 OA
HETATM   20  N6  UNL     1       5.022  -0.556  -0.124  1.00  0.00    -0.250 N 
HETATM   21  C13 UNL     1       5.295   0.593  -0.929  1.00  0.00     0.182 C 
ATOM     22  H5  UNL     1       3.190  -1.091  -2.364  1.00  0.00     0.189 HD
BRANCH  20  23
HETATM   23  N7  UNL     1       5.879  -0.985   0.861  1.00  0.00    -0.319 N 
ATOM     24  H7  UNL     1       5.710  -1.843   1.387  1.00  0.00     0.181 HD
BRANCH  23  25
HETATM   25  C14 UNL     1       7.019  -0.163   1.107  1.00  0.00     0.167 C 
HETATM   26  C15 UNL     1       6.530   1.184   1.631  1.00  0.00     0.042 C 
BRANCH  25  27
HETATM   27  C16 UNL     1       7.921  -0.839   2.077  1.00  0.00     0.180 C 
HETATM   28  O2  UNL     1       7.628  -1.915   2.547  1.00  0.00    -0.293 OA
BRANCH  27  29
HETATM   29  C17 UNL     1       9.188  -0.151   2.444  1.00  0.00     0.213 C 
BRANCH  29  30
HETATM   30  O3  UNL     1       9.947  -0.885   3.326  1.00  0.00    -0.386 OA
ATOM     31  H3  UNL     1      10.756  -0.446   3.560  1.00  0.00     0.210 HD
ENDBRANCH  29  30
BRANCH  29  32
HETATM   32  C18 UNL     1       9.996   0.187   1.203  1.00  0.00     0.203 C 
BRANCH  32  33
HETATM   33  O4  UNL     1      10.420  -0.972   0.549  1.00  0.00    -0.398 OA
ATOM     34  H4  UNL     1      10.925  -0.761  -0.227  1.00  0.00     0.209 HD
ENDBRANCH  32  33
ENDBRANCH  29  32
ENDBRANCH  27  29
ENDBRANCH  25  27
ENDBRANCH  23  25
ENDBRANCH  20  23
ENDBRANCH   8  17
BRANCH  11  35
HETATM   35  N9  UNL     1      -0.283   0.752   1.534  1.00  0.00    -0.384 N 
ATOM     36  H92 UNL     1       0.307   0.499   2.326  1.00  0.00     0.157 HD
ATOM     37  H91 UNL     1      -1.179   1.193   1.743  1.00  0.00     0.157 HD
ENDBRANCH  11  35
BRANCH   1  38
HETATM   38  C7  UNL     1      -3.462  -0.278  -2.734  1.00  0.00     0.090 C 
BRANCH  38  39
HETATM   39  N2  UNL     1      -4.508  -0.895  -2.044  1.00  0.00    -0.369 N 
HETATM   40  C6  UNL     1      -5.827  -0.573  -2.438  1.00  0.00     0.147 C 
HETATM   41  C5  UNL     1      -6.871  -1.162  -1.510  1.00  0.00     0.145 C 
HETATM   42  N1  UNL     1      -6.570  -0.887  -0.129  1.00  0.00    -0.360 N 
HETATM   43  C23 UNL     1      -5.215  -0.948   0.328  1.00  0.00     0.169 C 
HETATM   44  C22 UNL     1      -4.321  -1.428  -0.762  1.00  0.00     0.083 C 
BRANCH  42  45
HETATM   45  C4  UNL     1      -7.655  -0.555   0.737  1.00  0.00     0.126 A 
HETATM   46  C3  UNL     1      -7.593  -0.303   2.096  1.00  0.00     0.084 A 
HETATM   47  C2  UNL     1      -8.866  -0.017   2.536  1.00  0.00     0.076 A 
HETATM   48  C1  UNL     1      -9.283   0.321   3.939  1.00  0.00     0.079 C 
HETATM   49  O6  UNL     1      -9.640  -0.099   1.480  1.00  0.00    -0.241 OA
HETATM   50  N11 UNL     1      -8.954  -0.411   0.420  1.00  0.00    -0.245 N 
ATOM     51  H11 UNL     1      -9.344  -0.529  -0.515  1.00  0.00     0.196 HD
ENDBRANCH  42  45
ENDBRANCH  38  39
ENDBRANCH   1  38
TORSDOF 12
