REMARK  4 active torsions:
REMARK  status: ('A' for Active; 'I' for Inactive)
REMARK    1  A    between atoms: C2_2  and  C3_3 
REMARK    2  A    between atoms: C3_3  and  C4_4 
REMARK    3  A    between atoms: N1_6  and  C6_7 
REMARK    4  A    between atoms: C6_7  and  N2_8 
ROOT
HETATM    1  C4  UNL     1       0.934  -0.532  -0.009  1.00  0.00     0.029 A 
HETATM    2  C5  UNL     1      -0.021   0.113   0.746  1.00  0.00     0.118 A 
HETATM    3  N1  UNL     1      -1.143  -0.629   0.734  1.00  0.00    -0.327 N 
HETATM    4  C7  UNL     1      -0.861  -1.716  -0.028  1.00  0.00     0.184 A 
HETATM    5  N3  UNL     1       0.405  -1.652  -0.478  1.00  0.00    -0.354 N 
ATOM      6  H3  UNL     1       0.871  -2.339  -1.071  1.00  0.00     0.166 HD
ENDROOT
BRANCH   3   7
HETATM    7  C6  UNL     1      -2.412  -0.362   1.384  1.00  0.00     0.359 C 
BRANCH   7   8
HETATM    8  N2  UNL     1      -3.298   0.401   0.508  1.00  0.00    -0.063 N 
ATOM      9  H23 UNL     1      -2.855   1.259   0.180  1.00  0.00     0.276 HD
ATOM     10  H22 UNL     1      -3.426  -0.061  -0.392  1.00  0.00     0.276 HD
ATOM     11  H21 UNL     1      -4.190   0.589   0.965  1.00  0.00     0.276 HD
ENDBRANCH   7   8
ENDBRANCH   3   7
BRANCH   1  12
HETATM   12  C3  UNL     1       2.304  -0.003  -0.220  1.00  0.00     0.084 C 
BRANCH  12  13
HETATM   13  C2  UNL     1       2.244   0.863  -1.429  1.00  0.00    -0.031 C 
HETATM   14  C1  UNL     1       2.561   2.137  -1.343  1.00  0.00     0.007 C 
ENDBRANCH  12  13
ENDBRANCH   1  12
TORSDOF 4
