REMARK  2 active torsions:
REMARK  status: ('A' for Active; 'I' for Inactive)
REMARK    1  A    between atoms: N1_2  and  C2_5 
REMARK    2  A    between atoms: C2_5  and  C3_6 
ROOT
HETATM    1  C3  UNL     1       0.434   1.033   0.322  1.00  0.00     0.242 A 
HETATM    2  C4  UNL     1      -0.548   1.326  -0.792  1.00  0.00     0.273 A 
HETATM    3  N2  UNL     1      -0.779   0.314   0.204  1.00  0.00    -0.058 N 
HETATM    4  C5  UNL     1      -0.818  -1.068  -0.139  1.00  0.00     0.238 C 
HETATM    5  C6  UNL     1      -2.296  -1.278  -0.458  1.00  0.00     0.029 C 
HETATM    6  C7  UNL     1      -3.022  -0.179   0.283  1.00  0.00     0.029 C 
HETATM    7  C8  UNL     1      -1.908   0.546   1.052  1.00  0.00     0.238 C 
ENDROOT
BRANCH   1   8
HETATM    8  C2  UNL     1       1.733   0.459  -0.137  1.00  0.00     0.267 C 
BRANCH   8   9
HETATM    9  N1  UNL     1       2.624   0.206   1.004  1.00  0.00    -0.077 N 
HETATM   10  C1  UNL     1       3.846  -0.348   0.419  1.00  0.00     0.267 C 
ATOM     11  H12 UNL     1       2.210  -0.382   1.728  1.00  0.00     0.276 HD
ATOM     12  H11 UNL     1       2.783   1.024   1.593  1.00  0.00     0.276 HD
ENDBRANCH   8   9
ENDBRANCH   1   8
TORSDOF 2
