REMARK  2 active torsions:
REMARK  status: ('A' for Active; 'I' for Inactive)
REMARK    1  A    between atoms: N1_2  and  C2_4 
REMARK    2  A    between atoms: C4_6  and  N2_7 
ROOT
HETATM    1  C2  UNL     1      -0.979  -0.236   0.172  1.00  0.00     0.024 C 
HETATM    2  C3  UNL     1      -1.049  -0.686  -1.229  1.00  0.00     0.069 C 
HETATM    3  C4  UNL     1       0.156   0.070   0.774  1.00  0.00     0.226 C 
ENDROOT
BRANCH   1   4
HETATM    4  N1  UNL     1      -2.181  -0.121   0.921  1.00  0.00    -0.397 N 
HETATM    5  C1  UNL     1      -2.994   1.063   0.766  1.00  0.00     0.146 C 
ATOM      6  H1  UNL     1      -2.466  -0.864   1.559  1.00  0.00     0.158 HD
ENDBRANCH   1   4
BRANCH   3   7
HETATM    7  N2  UNL     1       1.372  -0.041   0.035  1.00  0.00    -0.046 N 
HETATM    8  C5  UNL     1       1.832   1.186  -0.596  1.00  0.00     0.278 C 
HETATM    9  C6  UNL     1       1.752  -1.313  -0.507  1.00  0.00     0.271 A 
HETATM   10  C7  UNL     1       2.465  -0.772   0.677  1.00  0.00     0.271 A 
ENDBRANCH   3   7
TORSDOF 2
