REMARK  4 active torsions:
REMARK  status: ('A' for Active; 'I' for Inactive)
REMARK    1  A    between atoms: C2_2  and  C3_3 
REMARK    2  A    between atoms: C3_3  and  C4_4 
REMARK    3  A    between atoms: C4_4  and  C5_5 
REMARK    4  A    between atoms: C5_5  and  N1_6 
ROOT
HETATM    1  N1  UNL     1      -0.340  -0.918   0.895  1.00  0.00    -0.326 N 
ATOM      2  H1  UNL     1      -1.106  -1.550   1.126  1.00  0.00     0.169 HD
HETATM    3  C6  UNL     1       0.859  -1.348   0.577  1.00  0.00     0.219 C 
HETATM    4  N2  UNL     1       1.991  -0.542   0.240  1.00  0.00    -0.354 N 
ATOM      5  H2  UNL     1       1.952   0.392  -0.169  1.00  0.00     0.163 HD
HETATM    6  C7  UNL     1       3.226  -1.279   0.579  1.00  0.00     0.150 C 
HETATM    7  C8  UNL     1       2.741  -2.698   0.453  1.00  0.00     0.198 C 
HETATM    8  O1  UNL     1       1.323  -2.660   0.491  1.00  0.00    -0.321 OA
ENDROOT
BRANCH   1   9
HETATM    9  C5  UNL     1      -0.495   0.544   0.893  1.00  0.00     0.147 C 
BRANCH   9  10
HETATM   10  C4  UNL     1      -1.219   1.121  -0.105  1.00  0.00    -0.111 C 
BRANCH  10  11
HETATM   11  C3  UNL     1      -1.913   1.676  -1.064  1.00  0.00     0.056 C 
BRANCH  11  12
HETATM   12  C2  UNL     1      -3.327   1.379  -1.162  1.00  0.00    -0.002 C 
HETATM   13  C1  UNL     1      -4.011   1.955  -2.175  1.00  0.00     0.012 C 
ENDBRANCH  11  12
ENDBRANCH  10  11
ENDBRANCH   9  10
ENDBRANCH   1   9
TORSDOF 4
