REMARK  12 active torsions:
REMARK  status: ('A' for Active; 'I' for Inactive)
REMARK    1  A    between atoms: C2_2  and  O1_5 
REMARK    2  A    between atoms: O1_5  and  C5_6 
REMARK    3  A    between atoms: C5_6  and  C6_8 
REMARK    4  A    between atoms: C10_12  and  C11_13 
REMARK    5  A    between atoms: C11_13  and  C12_14 
REMARK    6  A    between atoms: C12_14  and  C13_15 
REMARK    7  A    between atoms: C13_15  and  C14_16 
REMARK    8  A    between atoms: C14_16  and  C15_17 
REMARK    9  A    between atoms: C15_17  and  C16_18 
REMARK   10  A    between atoms: C16_18  and  C17_19 
REMARK   11  A    between atoms: C17_19  and  O3_20 
REMARK   12  A    between atoms: N1_22  and  O4_24 
ROOT
HETATM    1  C6  UNL     1      -2.547  -0.597  -0.425  1.00  0.00     0.155 A 
HETATM    2  C7  UNL     1      -2.482  -1.920   0.242  1.00  0.00     0.043 A 
HETATM    3  C8  UNL     1      -2.108  -0.608   0.946  1.00  0.00     0.022 A 
HETATM    4  C9  UNL     1      -0.707  -0.304   1.167  1.00  0.00     0.027 C 
HETATM    5  C10 UNL     1      -0.027   0.232  -0.026  1.00  0.00     0.110 C 
HETATM    6  S1  UNL     1      -1.124  -0.142  -1.381  1.00  0.00     0.167 S 
HETATM    7  O5  UNL     1      -0.589  -1.351  -2.105  1.00  0.00    -0.226 OA
HETATM    8  O6  UNL     1      -1.359   1.015  -2.268  1.00  0.00    -0.226 OA
ENDROOT
BRANCH   5   9
HETATM    9  C11 UNL     1       1.328  -0.412  -0.283  1.00  0.00     0.020 C 
BRANCH   9  10
HETATM   10  C12 UNL     1       2.262  -0.199   0.878  1.00  0.00     0.001 C 
BRANCH  10  11
HETATM   11  C13 UNL     1       3.574  -0.866   0.603  1.00  0.00     0.000 C 
BRANCH  11  12
HETATM   12  C14 UNL     1       4.247  -0.324  -0.625  1.00  0.00     0.000 C 
BRANCH  12  13
HETATM   13  C15 UNL     1       5.562  -1.004  -0.839  1.00  0.00     0.008 C 
BRANCH  13  14
HETATM   14  C16 UNL     1       6.565  -0.867   0.248  1.00  0.00     0.086 C 
BRANCH  14  15
HETATM   15  C17 UNL     1       6.956   0.534   0.494  1.00  0.00     0.135 C 
HETATM   16  N1  UNL     1       8.175   0.954   0.234  1.00  0.00    -0.251 N 
ATOM     17  H1  UNL     1       8.439   1.924   0.406  1.00  0.00     0.196 HD
BRANCH  15  18
HETATM   18  O3  UNL     1       6.033   1.428   1.005  1.00  0.00    -0.348 OA
ATOM     19  H3  UNL     1       6.285   2.330   1.163  1.00  0.00     0.219 HD
ENDBRANCH  15  18
BRANCH  16  20
HETATM   20  O4  UNL     1       9.080   0.063  -0.272  1.00  0.00    -0.288 OA
ATOM     21  H4  UNL     1       9.960   0.366  -0.460  1.00  0.00     0.244 HD
ENDBRANCH  16  20
ENDBRANCH  14  15
ENDBRANCH  13  14
ENDBRANCH  12  13
ENDBRANCH  11  12
ENDBRANCH  10  11
ENDBRANCH   9  10
ENDBRANCH   5   9
BRANCH   1  22
HETATM   22  C5  UNL     1      -3.848   0.028  -0.737  1.00  0.00     0.283 C 
HETATM   23  O2  UNL     1      -4.128   0.288  -1.925  1.00  0.00    -0.263 OA
BRANCH  22  24
HETATM   24  O1  UNL     1      -4.722   0.313   0.265  1.00  0.00    -0.310 OA
BRANCH  24  25
HETATM   25  C2  UNL     1      -5.989   0.908   0.091  1.00  0.00     0.060 C 
HETATM   26  C1  UNL     1      -6.913   0.121  -0.776  1.00  0.00     0.045 C 
HETATM   27  C3  UNL     1      -5.873   2.333  -0.428  1.00  0.00     0.045 C 
HETATM   28  C4  UNL     1      -6.621   1.010   1.472  1.00  0.00     0.045 C 
ENDBRANCH  24  25
ENDBRANCH  22  24
ENDBRANCH   1  22
TORSDOF 12
