REMARK  2 active torsions:
REMARK  status: ('A' for Active; 'I' for Inactive)
REMARK    1  A    between atoms: C2_2  and  N1_3 
REMARK       I    between atoms: N1_3  and  C4_5 
REMARK    2  A    between atoms: N3_7  and  C5_9 
ROOT
HETATM    1  N1  UNL     1      -0.539  -0.025  -0.106  1.00  0.00    -0.360 N 
HETATM    2  C3  UNL     1      -0.234  -0.776   1.114  1.00  0.00     0.152 C 
HETATM    3  C4  UNL     1       0.362   0.963  -0.528  1.00  0.00     0.191 C 
HETATM    4  N2  UNL     1      -0.169   2.274  -0.813  1.00  0.00    -0.063 NA
HETATM    5  N3  UNL     1       1.613   0.830  -0.691  1.00  0.00    -0.325 N 
ATOM      6  H3  UNL     1       2.106   1.666  -1.005  1.00  0.00     0.169 HD
ENDROOT
BRANCH   1   7
HETATM    7  C2  UNL     1      -1.770  -0.389  -0.767  1.00  0.00     0.120 C 
HETATM    8  C1  UNL     1      -2.991  -0.004   0.050  1.00  0.00     0.026 C 
ENDBRANCH   1   7
BRANCH   5   9
HETATM    9  C5  UNL     1       2.409  -0.302  -0.500  1.00  0.00     0.075 C 
HETATM   10  C6  UNL     1       3.295  -0.560   0.657  1.00  0.00     0.082 C 
HETATM   11  S1  UNL     1       2.368  -1.455  -1.656  1.00  0.00    -0.066 SA
ENDBRANCH   5   9
TORSDOF 2
