REMARK  1 active torsions:
REMARK  status: ('A' for Active; 'I' for Inactive)
REMARK    1  A    between atoms: C3_3  and  N1_4 
REMARK       I    between atoms: N1_4  and  C6_7 
REMARK       I    between atoms: C6_7  and  N3_11 
ROOT
HETATM    1  C1  UNL     1       3.081   0.517   1.933  1.00  0.00     0.113 C 
HETATM    2  C2  UNL     1       2.004   0.131   1.014  1.00  0.00    -0.080 C 
HETATM    3  C3  UNL     1       1.113  -0.179   0.260  1.00  0.00     0.124 C 
ENDROOT
BRANCH   3   4
HETATM    4  N1  UNL     1       0.076  -0.536  -0.648  1.00  0.00     0.050 N 
HETATM    5  C4  UNL     1      -0.029  -1.974  -0.742  1.00  0.00     0.300 C 
HETATM    6  C5  UNL     1       0.515  -0.060  -1.971  1.00  0.00     0.300 C 
HETATM    7  C6  UNL     1      -1.123   0.108  -0.291  1.00  0.00     0.289 C 
HETATM    8  N2  UNL     1      -1.858  -0.244   0.686  1.00  0.00    -0.359 N 
HETATM    9  N3  UNL     1      -1.546   1.223  -1.064  1.00  0.00    -0.359 N 
HETATM   10  C7  UNL     1      -1.668  -1.310   1.608  1.00  0.00     0.149 C 
ATOM     11  H2  UNL     1      -2.699   0.315   0.827  1.00  0.00     0.162 HD
HETATM   12  C8  UNL     1      -1.430   2.566  -0.568  1.00  0.00     0.149 C 
ATOM     13  H3  UNL     1      -1.941   1.066  -1.991  1.00  0.00     0.162 HD
ENDBRANCH   3   4
TORSDOF 1
