REMARK  4 active torsions:
REMARK  status: ('A' for Active; 'I' for Inactive)
REMARK    1  A    between atoms: C3_3  and  C4_4 
REMARK    2  A    between atoms: C5_5  and  C6_6 
REMARK       I    between atoms: C6_6  and  N1_8 
REMARK    3  A    between atoms: N1_8  and  C7_10 
REMARK    4  A    between atoms: C7_10  and  C8_11 
ROOT
HETATM    1  C1  UNL     1       5.767  -2.379   0.365  1.00  0.00     0.113 C 
HETATM    2  C2  UNL     1       4.519  -1.605   0.251  1.00  0.00    -0.097 C 
HETATM    3  C3  UNL     1       3.480  -0.982   0.164  1.00  0.00    -0.015 C 
ENDROOT
BRANCH   3   4
HETATM    4  C4  UNL     1       2.253  -0.270   0.077  1.00  0.00    -0.005 C 
HETATM    5  C5  UNL     1       1.199   0.319   0.009  1.00  0.00     0.009 C 
BRANCH   5   6
HETATM    6  C6  UNL     1      -0.063   1.000  -0.057  1.00  0.00     0.298 C 
HETATM    7  O1  UNL     1      -0.557   1.263  -1.182  1.00  0.00    -0.258 OA
HETATM    8  N1  UNL     1      -0.785   1.394   1.101  1.00  0.00    -0.340 N 
ATOM      9  H1  UNL     1      -0.397   1.187   2.021  1.00  0.00     0.164 HD
BRANCH   8  10
HETATM   10  C7  UNL     1      -2.044   2.074   1.013  1.00  0.00     0.218 C 
BRANCH  10  11
HETATM   11  C8  UNL     1      -3.056   1.264   0.297  1.00  0.00    -0.087 C 
HETATM   12  C9  UNL     1      -3.889   0.613  -0.277  1.00  0.00    -0.109 C 
HETATM   13  C10 UNL     1      -4.889  -0.187  -0.979  1.00  0.00     0.112 C 
ENDBRANCH  10  11
ENDBRANCH   8  10
ENDBRANCH   5   6
ENDBRANCH   3   4
TORSDOF 4
