REMARK  11 active torsions:
REMARK  status: ('A' for Active; 'I' for Inactive)
REMARK    1  A    between atoms: C1_2  and  C2_4 
REMARK    2  A    between atoms: C5_12  and  N4_13 
REMARK    3  A    between atoms: N5_16  and  C8_17 
REMARK    4  A    between atoms: C8_17  and  C9_18 
REMARK    5  A    between atoms: C9_18  and  C10_19 
REMARK    6  A    between atoms: C10_19  and  C11_20 
REMARK    7  A    between atoms: N6_22  and  C13_23 
REMARK    8  A    between atoms: C13_23  and  C14_24 
REMARK    9  A    between atoms: C15_27  and  O3_28 
REMARK   10  A    between atoms: C16_30  and  O4_31 
REMARK   11  A    between atoms: C17_33  and  O5_34 
ROOT
HETATM    1  N4  UNL     1      -3.610   0.183  -0.754  1.00  0.00    -0.189 N 
HETATM    2  C6  UNL     1      -3.289   1.581  -0.433  1.00  0.00     0.173 C 
HETATM    3  C7  UNL     1      -2.077   1.743  -1.328  1.00  0.00     0.295 C 
HETATM    4  N5  UNL     1      -1.331   0.474  -1.180  1.00  0.00     0.107 N 
HETATM    5  C18 UNL     1      -2.398  -0.516  -1.081  1.00  0.00     0.414 C 
ENDROOT
BRANCH   4   6
HETATM    6  C8  UNL     1      -0.670   0.580   0.087  1.00  0.00     0.275 C 
BRANCH   6   7
HETATM    7  C9  UNL     1       0.376  -0.436   0.395  1.00  0.00     0.036 C 
BRANCH   7   8
HETATM    8  C10 UNL     1       1.508  -0.409  -0.598  1.00  0.00     0.061 C 
BRANCH   8   9
HETATM    9  C11 UNL     1       2.607  -1.341  -0.266  1.00  0.00     0.040 A 
HETATM   10  C12 UNL     1       3.717  -1.007   0.534  1.00  0.00     0.134 A 
HETATM   11  N6  UNL     1       4.542  -2.036   0.631  1.00  0.00    -0.283 N 
HETATM   12  N9  UNL     1       3.997  -3.023  -0.080  1.00  0.00    -0.020 NA
HETATM   13  N10 UNL     1       2.836  -2.610  -0.619  1.00  0.00    -0.287 N 
ATOM     14  H10 UNL     1       2.225  -3.177  -1.206  1.00  0.00     0.184 HD
BRANCH  11  15
HETATM   15  C13 UNL     1       5.796  -2.061   1.363  1.00  0.00     0.171 C 
BRANCH  15  16
HETATM   16  C14 UNL     1       6.926  -1.646   0.485  1.00  0.00     0.146 C 
HETATM   17  N7  UNL     1       8.173  -1.698   1.262  1.00  0.00    -0.137 NA
HETATM   18  N8  UNL     1       8.566  -0.422   1.642  1.00  0.00    -0.113 NA
HETATM   19  C15 UNL     1       8.992   0.417   0.559  1.00  0.00     0.258 C 
HETATM   20  C16 UNL     1       8.163   0.070  -0.687  1.00  0.00     0.194 C 
HETATM   21  C17 UNL     1       6.769  -0.267  -0.123  1.00  0.00     0.173 C 
BRANCH  19  22
HETATM   22  O3  UNL     1      10.344   0.288   0.349  1.00  0.00    -0.376 OA
ATOM     23  H3  UNL     1      10.626   0.844  -0.368  1.00  0.00     0.211 HD
ENDBRANCH  19  22
BRANCH  20  24
HETATM   24  O4  UNL     1       8.055   1.165  -1.504  1.00  0.00    -0.389 OA
ATOM     25  H4  UNL     1       7.542   0.950  -2.274  1.00  0.00     0.210 HD
ENDBRANCH  20  24
BRANCH  21  26
HETATM   26  O5  UNL     1       6.520   0.718   0.849  1.00  0.00    -0.391 OA
ATOM     27  H5  UNL     1       6.422   1.583   0.468  1.00  0.00     0.210 HD
ENDBRANCH  21  26
ENDBRANCH  15  16
ENDBRANCH  11  15
ENDBRANCH   8   9
ENDBRANCH   7   8
ENDBRANCH   6   7
ENDBRANCH   4   6
BRANCH   1  28
HETATM   28  C5  UNL     1      -4.917  -0.325  -0.730  1.00  0.00     0.687 C 
HETATM   29  N3  UNL     1      -5.394  -0.935   0.393  1.00  0.00    -0.154 N 
HETATM   30  C4  UNL     1      -6.673  -0.836   0.868  1.00  0.00     0.288 C 
ATOM     31  H3  UNL     1      -4.742  -1.514   0.923  1.00  0.00     0.187 HD
HETATM   32  C3  UNL     1      -7.749  -0.119   0.345  1.00  0.00     0.136 A 
HETATM   33  O2  UNL     1      -6.949  -1.467   1.921  1.00  0.00    -0.265 OA
HETATM   34  N2  UNL     1      -8.849   0.269   1.004  1.00  0.00    -0.332 N 
HETATM   35  C20 UNL     1      -7.914   0.352  -0.954  1.00  0.00     0.136 A 
HETATM   36  C2  UNL     1      -9.690   0.956   0.181  1.00  0.00     0.173 A 
ATOM     37  H2  UNL     1      -9.032   0.076   1.989  1.00  0.00     0.168 HD
HETATM   38  N12 UNL     1      -9.088   0.997  -1.037  1.00  0.00    -0.332 N 
ATOM     39  H12 UNL     1      -9.465   1.443  -1.873  1.00  0.00     0.168 HD
HETATM   40  C19 UNL     1      -6.980   0.167  -1.972  1.00  0.00     0.288 C 
HETATM   41  N11 UNL     1      -5.678  -0.164  -1.856  1.00  0.00    -0.154 N 
HETATM   42  O6  UNL     1      -7.469   0.344  -3.115  1.00  0.00    -0.265 OA
ATOM     43  H11 UNL     1      -5.188  -0.317  -2.737  1.00  0.00     0.187 HD
BRANCH  36  44
HETATM   44  C1  UNL     1     -10.976   1.543   0.547  1.00  0.00     0.298 C 
HETATM   45  N1  UNL     1     -11.406   1.425   1.888  1.00  0.00    -0.054 NA
HETATM   46  O1  UNL     1     -11.642   2.127  -0.349  1.00  0.00    -0.268 OA
ENDBRANCH  36  44
ENDBRANCH   1  28
TORSDOF 11
