REMARK  4 active torsions:
REMARK  status: ('A' for Active; 'I' for Inactive)
REMARK    1  A    between atoms: C4_4  and  N1_5 
REMARK    2  A    between atoms: C5_10  and  N3_11 
REMARK    3  A    between atoms: N3_11  and  C6_13 
REMARK    4  A    between atoms: N7_24  and  N8_25 
ROOT
HETATM    1  C1  UNL     1      -4.110  -1.326  -0.009  1.00  0.00     0.071 C 
HETATM    2  C2  UNL     1      -2.872  -0.507  -0.090  1.00  0.00     0.051 A 
HETATM    3  C3  UNL     1      -2.890   0.817  -0.540  1.00  0.00     0.075 A 
HETATM    4  C4  UNL     1      -1.708   1.527  -0.593  1.00  0.00     0.116 A 
HETATM    5  N2  UNL     1      -0.555   0.951  -0.216  1.00  0.00    -0.175 N 
ATOM      6  H2  UNL     1       0.312   1.486  -0.260  1.00  0.00     0.186 HD
HETATM    7  C5  UNL     1      -0.527  -0.325   0.220  1.00  0.00     0.705 A 
HETATM    8  N7  UNL     1      -1.680  -1.003   0.267  1.00  0.00    -0.097 N 
ENDROOT
BRANCH   7   9
HETATM    9  N3  UNL     1       0.575  -0.909   0.591  1.00  0.00    -0.181 N 
ATOM     10  H3  UNL     1       0.554  -1.876   0.914  1.00  0.00     0.184 HD
BRANCH   9  11
HETATM   11  C6  UNL     1       1.809  -0.202   0.548  1.00  0.00     0.158 A 
HETATM   12  C7  UNL     1       2.504  -0.048  -0.652  1.00  0.00     0.153 A 
HETATM   13  N4  UNL     1       1.973  -0.608  -1.858  1.00  0.00    -0.080 NA
HETATM   14  N5  UNL     1       3.655   0.623  -0.634  1.00  0.00    -0.295 N 
HETATM   15  C8  UNL     1       4.179   1.161   0.490  1.00  0.00     0.328 A 
ATOM     16  H5  UNL     1       4.165   0.736  -1.510  1.00  0.00     0.172 HD
HETATM   17  O1  UNL     1       5.282   1.793   0.455  1.00  0.00    -0.247 OA
HETATM   18  N6  UNL     1       3.541   1.034   1.654  1.00  0.00    -0.273 N 
HETATM   19  C9  UNL     1       2.376   0.361   1.671  1.00  0.00     0.280 A 
ATOM     20  H6  UNL     1       3.926   1.436   2.509  1.00  0.00     0.173 HD
HETATM   21  O2  UNL     1       1.799   0.259   2.785  1.00  0.00    -0.265 OA
ENDBRANCH   9  11
ENDBRANCH   7   9
BRANCH   8  22
HETATM   22  N8  UNL     1      -1.663  -2.333   0.719  1.00  0.00    -0.324 N 
ATOM     23  H82 UNL     1      -2.542  -2.850   0.755  1.00  0.00     0.178 HD
ATOM     24  H81 UNL     1      -0.755  -2.711   0.991  1.00  0.00     0.178 HD
ENDBRANCH   8  22
BRANCH   4  25
HETATM   25  N1  UNL     1      -1.718   2.766  -1.014  1.00  0.00    -0.385 N 
ATOM     26  H12 UNL     1      -2.594   3.204  -1.300  1.00  0.00     0.157 HD
ATOM     27  H11 UNL     1      -0.844   3.291  -1.053  1.00  0.00     0.157 HD
ENDBRANCH   4  25
TORSDOF 4
