REMARK  1 active torsions:
REMARK  status: ('A' for Active; 'I' for Inactive)
REMARK    1  A    between atoms: C3_3  and  C4_4 
ROOT
HETATM    1  C1  UNL     1      -3.781   0.555   0.204  1.00  0.00     0.012 C 
HETATM    2  C2  UNL     1      -2.739   0.140  -0.241  1.00  0.00    -0.115 C 
HETATM    3  C3  UNL     1      -1.489  -0.355  -0.795  1.00  0.00     0.126 C 
ENDROOT
BRANCH   3   4
HETATM    4  C4  UNL     1      -0.497  -0.669   0.299  1.00  0.00     0.199 C 
HETATM    5  C5  UNL     1       0.826  -1.189  -0.222  1.00  0.00     0.066 C 
HETATM    6  C6  UNL     1       1.160   0.268  -0.310  1.00  0.00     0.184 C 
HETATM    7  C7  UNL     1       2.555   0.645   0.120  1.00  0.00     0.040 C 
HETATM    8  N1  UNL     1       0.233   0.492   0.767  1.00  0.00    -0.066 N 
ATOM      9  H12 UNL     1      -0.230   1.393   0.883  1.00  0.00     0.278 HD
ATOM     10  H11 UNL     1       0.554   0.557   1.733  1.00  0.00     0.278 HD
ENDBRANCH   3   4
TORSDOF 1
