REMARK  13 active torsions:
REMARK  status: ('A' for Active; 'I' for Inactive)
REMARK    1  A    between atoms: C2_2  and  C3_3 
REMARK    2  A    between atoms: C3_3  and  N1_4 
REMARK    3  A    between atoms: N1_4  and  C4_6 
REMARK    4  A    between atoms: C4_6  and  O1_7 
REMARK    5  A    between atoms: C4_6  and  C5_9 
REMARK    6  A    between atoms: C6_10  and  C7_11 
REMARK    7  A    between atoms: C9_13  and  C10_14 
REMARK    8  A    between atoms: C10_14  and  O2_15 
REMARK    9  A    between atoms: N3_20  and  C13_21 
REMARK   10  A    between atoms: N5_28  and  C17_29 
REMARK   11  A    between atoms: C17_29  and  C18_30 
REMARK   12  A    between atoms: C18_30  and  C19_31 
REMARK   13  A    between atoms: C19_31  and  N6_32 
ROOT
HETATM    1  C10 UNL     1      -2.432  -0.961   0.628  1.00  0.00     0.119 C 
HETATM    2  N2  UNL     1      -1.460  -1.433  -0.182  1.00  0.00    -0.362 N 
HETATM    3  C11 UNL     1      -0.664  -2.600   0.124  1.00  0.00     0.155 C 
HETATM    4  C12 UNL     1       0.832  -2.236  -0.091  1.00  0.00     0.293 C 
HETATM    5  N3  UNL     1       1.049  -1.802  -1.435  1.00  0.00     0.107 N 
HETATM    6  C21 UNL     1      -0.203  -1.737  -2.182  1.00  0.00     0.293 C 
HETATM    7  C22 UNL     1      -1.180  -0.813  -1.478  1.00  0.00     0.155 C 
ENDROOT
BRANCH   5   8
HETATM    8  C13 UNL     1       1.768  -0.580  -1.544  1.00  0.00     0.339 C 
HETATM    9  C14 UNL     1       1.961  -0.229  -3.039  1.00  0.00     0.277 C 
HETATM   10  N4  UNL     1       3.295   0.237  -3.232  1.00  0.00    -0.071 N 
HETATM   11  C15 UNL     1       4.167  -0.815  -3.766  1.00  0.00     0.252 C 
ATOM     12  H42 UNL     1       3.316   1.071  -3.819  1.00  0.00     0.277 HD
ATOM     13  H41 UNL     1       3.677   0.636  -2.375  1.00  0.00     0.277 HD
HETATM   14  C16 UNL     1       4.806  -1.498  -2.559  1.00  0.00     0.153 C 
HETATM   15  N5  UNL     1       4.421  -0.748  -1.362  1.00  0.00    -0.349 N 
HETATM   16  C20 UNL     1       3.103  -0.539  -0.928  1.00  0.00     0.255 C 
HETATM   17  O3  UNL     1       3.049  -0.245   0.325  1.00  0.00    -0.271 OA
BRANCH  15  18
HETATM   18  C17 UNL     1       5.513  -0.147  -0.603  1.00  0.00     0.127 C 
BRANCH  18  19
HETATM   19  C18 UNL     1       5.910  -1.116   0.481  1.00  0.00     0.047 C 
BRANCH  19  20
HETATM   20  C19 UNL     1       7.032  -0.579   1.338  1.00  0.00     0.231 C 
BRANCH  20  21
HETATM   21  N6  UNL     1       6.686   0.658   1.993  1.00  0.00    -0.079 N 
ATOM     22  H63 UNL     1       6.375   1.356   1.317  1.00  0.00     0.274 HD
ATOM     23  H62 UNL     1       5.827   0.558   2.534  1.00  0.00     0.274 HD
ATOM     24  H61 UNL     1       7.444   1.021   2.572  1.00  0.00     0.274 HD
ENDBRANCH  20  21
ENDBRANCH  19  20
ENDBRANCH  18  19
ENDBRANCH  15  18
ENDBRANCH   5   8
BRANCH   1  25
HETATM   25  C9  UNL     1      -3.326   0.182   0.637  1.00  0.00     0.081 A 
HETATM   26  C5  UNL     1      -4.244   0.600   1.655  1.00  0.00     0.081 A 
HETATM   27  C6  UNL     1      -4.829  -0.260   0.593  1.00  0.00     0.032 A 
BRANCH  26  28
HETATM   28  C4  UNL     1      -4.774   1.942   1.902  1.00  0.00     0.120 C 
BRANCH  28  29
HETATM   29  N1  UNL     1      -5.580   2.369   2.919  1.00  0.00    -0.350 N 
ATOM     30  H1  UNL     1      -5.839   1.598   3.535  1.00  0.00     0.167 HD
BRANCH  29  31
HETATM   31  C3  UNL     1      -6.148   3.573   3.348  1.00  0.00     0.089 C 
BRANCH  31  32
HETATM   32  C2  UNL     1      -5.264   4.584   3.937  1.00  0.00     0.007 C 
HETATM   33  C1  UNL     1      -5.333   5.075   5.139  1.00  0.00     0.012 C 
ENDBRANCH  31  32
ENDBRANCH  29  31
ENDBRANCH  28  29
BRANCH  28  34
HETATM   34  O1  UNL     1      -4.421   2.899   1.002  1.00  0.00    -0.349 OA
ATOM     35  H1  UNL     1      -3.861   2.602   0.295  1.00  0.00     0.219 HD
ENDBRANCH  28  34
ENDBRANCH  26  28
BRANCH  27  36
HETATM   36  C7  UNL     1      -5.505   0.237  -0.628  1.00  0.00    -0.031 C 
HETATM   37  C8  UNL     1      -6.039  -0.615  -1.469  1.00  0.00     0.007 C 
ENDBRANCH  27  36
ENDBRANCH   1  25
BRANCH   1  38
HETATM   38  O2  UNL     1      -2.660  -1.721   1.729  1.00  0.00    -0.349 OA
ATOM     39  H2  UNL     1      -2.075  -2.469   1.723  1.00  0.00     0.219 HD
ENDBRANCH   1  38
TORSDOF 13
