REMARK  10 active torsions:
REMARK  status: ('A' for Active; 'I' for Inactive)
REMARK       I    between atoms: C1_2  and  N3_4 
REMARK    1  A    between atoms: N3_4  and  C2_5 
REMARK    2  A    between atoms: C2_5  and  C3_6 
REMARK    3  A    between atoms: C3_6  and  C4_7 
REMARK    4  A    between atoms: C4_7  and  C5_8 
REMARK    5  A    between atoms: C5_8  and  N4_9 
REMARK    6  A    between atoms: C5_8  and  C6_13 
REMARK       I    between atoms: C6_13  and  N5_15 
REMARK    7  A    between atoms: N5_15  and  C7_17 
REMARK    8  A    between atoms: C7_17  and  C8_18 
REMARK    9  A    between atoms: C7_17  and  C19_33 
REMARK       I    between atoms: C8_18  and  N6_20 
REMARK   10  A    between atoms: C12_24  and  C13_25 
REMARK       I    between atoms: C13_25  and  N7_27 
ROOT
HETATM    1  C7  UNL     1       0.468  -0.405   0.560  1.00  0.00     0.181 C 
ENDROOT
BRANCH   1   2
HETATM    2  N5  UNL     1       1.893  -0.825   0.609  1.00  0.00    -0.346 N 
HETATM    3  C6  UNL     1       2.710  -0.760  -0.547  1.00  0.00     0.249 C 
HETATM    4  O1  UNL     1       2.192  -0.337  -1.611  1.00  0.00    -0.271 OA
ATOM      5  H5  UNL     1       2.288  -1.164   1.486  1.00  0.00     0.163 HD
BRANCH   3   6
HETATM    6  C5  UNL     1       4.137  -1.191  -0.458  1.00  0.00     0.275 C 
BRANCH   6   7
HETATM    7  C4  UNL     1       4.810  -0.389   0.620  1.00  0.00     0.049 C 
BRANCH   7   8
HETATM    8  C3  UNL     1       4.870   1.074   0.414  1.00  0.00     0.062 C 
BRANCH   8   9
HETATM    9  C2  UNL     1       5.610   1.558  -0.806  1.00  0.00     0.158 C 
BRANCH   9  10
HETATM   10  N3  UNL     1       6.895   1.168  -0.811  1.00  0.00    -0.393 NA
HETATM   11  C1  UNL     1       8.003   0.751  -0.819  1.00  0.00     0.274 C 
HETATM   12  N1  UNL     1       8.323  -0.652  -0.886  1.00  0.00    -0.052 NA
HETATM   13  N2  UNL     1       9.137   1.651  -0.760  1.00  0.00    -0.052 NA
ENDBRANCH   9  10
ENDBRANCH   8   9
ENDBRANCH   7   8
ENDBRANCH   6   7
BRANCH   6  14
HETATM   14  N4  UNL     1       4.765  -1.072  -1.734  1.00  0.00    -0.066 N 
ATOM     15  H43 UNL     1       4.842  -0.093  -2.008  1.00  0.00     0.275 HD
ATOM     16  H42 UNL     1       5.755  -1.310  -1.672  1.00  0.00     0.275 HD
ATOM     17  H41 UNL     1       4.308  -1.616  -2.466  1.00  0.00     0.275 HD
ENDBRANCH   6  14
ENDBRANCH   3   6
ENDBRANCH   1   2
BRANCH   1  18
HETATM   18  C8  UNL     1      -0.365  -1.494   1.058  1.00  0.00     0.243 C 
HETATM   19  O2  UNL     1       0.092  -2.241   1.960  1.00  0.00    -0.271 OA
HETATM   20  N6  UNL     1      -1.656  -1.740   0.565  1.00  0.00    -0.350 N 
HETATM   21  C9  UNL     1      -2.478  -2.837   1.117  1.00  0.00     0.126 C 
HETATM   22  C18 UNL     1      -2.268  -0.995  -0.498  1.00  0.00     0.139 C 
HETATM   23  C10 UNL     1      -3.549  -3.135   0.085  1.00  0.00     0.021 C 
HETATM   24  C11 UNL     1      -4.482  -1.922  -0.046  1.00  0.00     0.017 C 
HETATM   25  C12 UNL     1      -3.685  -0.635  -0.042  1.00  0.00     0.096 C 
BRANCH  25  26
HETATM   26  C13 UNL     1      -4.256   0.352  -0.985  1.00  0.00     0.225 C 
HETATM   27  O3  UNL     1      -3.573   0.723  -1.971  1.00  0.00    -0.273 OA
HETATM   28  N7  UNL     1      -5.544   0.889  -0.814  1.00  0.00    -0.352 N 
HETATM   29  C14 UNL     1      -6.453   0.589   0.260  1.00  0.00     0.126 C 
HETATM   30  C17 UNL     1      -6.197   1.834  -1.682  1.00  0.00     0.126 C 
HETATM   31  C15 UNL     1      -7.104   1.941   0.537  1.00  0.00     0.021 C 
HETATM   32  C16 UNL     1      -7.012   2.695  -0.763  1.00  0.00     0.021 C 
ENDBRANCH  25  26
ENDBRANCH   1  18
BRANCH   1  33
HETATM   33  C19 UNL     1       0.411   0.824   1.441  1.00  0.00     0.018 A 
HETATM   34  C20 UNL     1      -0.790   1.601   1.712  1.00  0.00     0.007 A 
HETATM   35  C21 UNL     1      -0.291   0.616   2.751  1.00  0.00     0.007 A 
ENDBRANCH   1  33
TORSDOF 10
