REMARK  2 active torsions:
REMARK  status: ('A' for Active; 'I' for Inactive)
REMARK    1  A    between atoms: C3_4  and  O2_5 
REMARK    2  A    between atoms: C4_7  and  O3_8 
ROOT
HETATM    1  C1  UNL     1       2.235  -0.907  -0.110  1.00  0.00     0.040 C 
HETATM    2  C2  UNL     1       0.933  -0.278  -0.520  1.00  0.00     0.127 C 
HETATM    3  O1  UNL     1       0.995   1.105  -0.590  1.00  0.00    -0.353 OA
HETATM    4  C3  UNL     1      -0.343   1.501  -0.407  1.00  0.00     0.286 C 
HETATM    5  C4  UNL     1      -0.619   0.769   0.906  1.00  0.00     0.179 C 
HETATM    6  C5  UNL     1      -0.156  -0.628   0.467  1.00  0.00     0.044 C 
HETATM    7  C6  UNL     1      -1.300  -1.268  -0.306  1.00  0.00     0.015 C 
ENDROOT
BRANCH   4   8
HETATM    8  O2  UNL     1      -0.497   2.854  -0.302  1.00  0.00    -0.369 OA
ATOM      9  H2  UNL     1      -1.400   3.121  -0.178  1.00  0.00     0.212 HD
ENDBRANCH   4   8
BRANCH   5  10
HETATM   10  O3  UNL     1      -1.945   0.792   1.253  1.00  0.00    -0.390 OA
ATOM     11  H3  UNL     1      -2.117   0.337   2.069  1.00  0.00     0.210 HD
ENDBRANCH   5  10
TORSDOF 2
