REMARK  5 active torsions:
REMARK  status: ('A' for Active; 'I' for Inactive)
REMARK    1  A    between atoms: C2_2  and  N1_3 
REMARK    2  A    between atoms: C3_4  and  O1_5 
REMARK    3  A    between atoms: C6_9  and  O2_10 
REMARK    4  A    between atoms: C7_12  and  O3_13 
REMARK    5  A    between atoms: O3_13  and  C8_14 
REMARK       I    between atoms: C8_14  and  N2_16 
ROOT
HETATM    1  N1  UNL     1      -1.667   1.104   1.809  1.00  0.00    -0.308 N 
HETATM    2  C3  UNL     1      -2.244  -0.097   1.620  1.00  0.00     0.151 A 
HETATM    3  C4  UNL     1      -1.440  -0.790   0.773  1.00  0.00     0.007 A 
HETATM    4  C5  UNL     1      -0.366   0.017   0.453  1.00  0.00     0.033 A 
HETATM    5  C6  UNL     1      -0.527   1.194   1.110  1.00  0.00     0.153 A 
HETATM    6  C7  UNL     1       0.629  -0.596  -0.481  1.00  0.00     0.172 C 
HETATM    7  C11 UNL     1      -0.102  -1.036  -1.695  1.00  0.00     0.046 C 
HETATM    8  C12 UNL     1      -1.098  -2.110  -1.315  1.00  0.00    -0.041 C 
HETATM    9  C13 UNL     1      -2.408  -1.930  -2.091  1.00  0.00     0.015 C 
HETATM   10  C14 UNL     1      -0.561  -3.491  -1.695  1.00  0.00     0.015 C 
HETATM   11  C15 UNL     1      -1.438  -2.147   0.134  1.00  0.00     0.052 C 
ENDROOT
BRANCH   6  12
HETATM   12  O3  UNL     1       1.737   0.219  -0.703  1.00  0.00    -0.294 OA
BRANCH  12  13
HETATM   13  C8  UNL     1       3.027  -0.060  -0.342  1.00  0.00     0.362 C 
HETATM   14  O4  UNL     1       3.252  -1.147   0.246  1.00  0.00    -0.238 OA
HETATM   15  N2  UNL     1       4.066   0.867  -0.633  1.00  0.00    -0.337 N 
HETATM   16  C9  UNL     1       5.445   0.616  -0.269  1.00  0.00     0.154 C 
HETATM   17  C10 UNL     1       3.761   2.111  -1.313  1.00  0.00     0.154 C 
ENDBRANCH  12  13
ENDBRANCH   6  12
BRANCH   5  18
HETATM   18  O2  UNL     1       0.368   2.271   1.034  1.00  0.00    -0.345 OA
ATOM     19  H2  UNL     1       1.176   2.335   0.539  1.00  0.00     0.219 HD
ENDBRANCH   5  18
BRANCH   2  20
HETATM   20  O1  UNL     1      -3.438  -0.589   2.165  1.00  0.00    -0.345 OA
ATOM     21  H1  UNL     1      -3.845  -1.437   2.032  1.00  0.00     0.219 HD
ENDBRANCH   2  20
BRANCH   1  22
HETATM   22  C2  UNL     1      -2.200   2.162   2.652  1.00  0.00     0.129 C 
HETATM   23  C1  UNL     1      -3.106   3.035   1.800  1.00  0.00     0.027 C 
ENDBRANCH   1  22
TORSDOF 5
