REMARK  11 active torsions:
REMARK  status: ('A' for Active; 'I' for Inactive)
REMARK    1  A    between atoms: C1_2  and  C2_3 
REMARK       I    between atoms: C1_2  and  N5_27 
REMARK    2  A    between atoms: C2_3  and  N1_4 
REMARK    3  A    between atoms: N2_8  and  C6_9 
REMARK    4  A    between atoms: C6_9  and  C7_10 
REMARK    5  A    between atoms: C7_10  and  O2_11 
REMARK    6  A    between atoms: N3_13  and  O3_15 
REMARK    7  A    between atoms: N5_27  and  C14_29 
REMARK    8  A    between atoms: C14_29  and  C15_30 
REMARK    9  A    between atoms: C14_29  and  C16_37 
REMARK   10  A    between atoms: C15_30  and  O5_31 
REMARK   11  A    between atoms: N6_33  and  O6_35 
ROOT
HETATM    1  N1  UNL     1      -0.253  -0.121  -0.811  1.00  0.00    -0.383 N 
HETATM    2  C3  UNL     1      -0.991   0.621   0.148  1.00  0.00     0.127 C 
HETATM    3  C4  UNL     1      -1.879  -0.361   0.881  1.00  0.00     0.064 C 
HETATM    4  C5  UNL     1      -3.010   0.280   1.635  1.00  0.00     0.060 C 
HETATM    5  N2  UNL     1      -4.120   0.701   0.913  1.00  0.00    -0.384 N 
HETATM    6  C8  UNL     1      -4.341   0.348  -0.418  1.00  0.00     0.150 C 
HETATM    7  C9  UNL     1      -4.970  -1.047  -0.566  1.00  0.00     0.252 C 
HETATM    8  N4  UNL     1      -4.426  -1.773  -1.689  1.00  0.00    -0.072 N 
ATOM      9  H41 UNL     1      -4.890  -2.676  -1.785  1.00  0.00     0.277 HD
ATOM     10  H42 UNL     1      -3.477  -2.084  -1.483  1.00  0.00     0.277 HD
HETATM   11  C10 UNL     1      -4.458  -1.066  -2.926  1.00  0.00     0.258 C 
HETATM   12  C11 UNL     1      -3.219  -1.303  -3.764  1.00  0.00     0.195 C 
HETATM   13  O4  UNL     1      -2.248  -0.333  -3.607  1.00  0.00    -0.388 OA
HETATM   14  C12 UNL     1      -1.220  -0.868  -2.849  1.00  0.00     0.187 C 
HETATM   15  C13 UNL     1      -0.388   0.228  -2.173  1.00  0.00     0.148 C 
ENDROOT
BRANCH   1  16
HETATM   16  C2  UNL     1       0.916  -0.781  -0.389  1.00  0.00     0.160 C 
BRANCH  16  17
HETATM   17  C1  UNL     1       2.036   0.108  -0.008  1.00  0.00     0.257 C 
HETATM   18  O1  UNL     1       2.015   1.353  -0.041  1.00  0.00    -0.267 OA
HETATM   19  N5  UNL     1       3.235  -0.531   0.433  1.00  0.00    -0.344 N 
ATOM     20  H5  UNL     1       3.274  -1.550   0.469  1.00  0.00     0.163 HD
BRANCH  19  21
HETATM   21  C14 UNL     1       4.407   0.244   0.834  1.00  0.00     0.167 C 
BRANCH  21  22
HETATM   22  C15 UNL     1       4.721  -0.159   2.229  1.00  0.00     0.159 C 
HETATM   23  N6  UNL     1       4.751   0.693   3.170  1.00  0.00    -0.249 N 
ATOM     24  H6  UNL     1       4.550   1.666   2.938  1.00  0.00     0.196 HD
BRANCH  22  25
HETATM   25  O5  UNL     1       4.979  -1.480   2.476  1.00  0.00    -0.347 OA
ATOM     26  H5  UNL     1       5.180  -1.738   3.368  1.00  0.00     0.219 HD
ENDBRANCH  22  25
BRANCH  23  27
HETATM   27  O6  UNL     1       5.035   0.393   4.478  1.00  0.00    -0.288 OA
ATOM     28  H6  UNL     1       5.057   1.030   5.182  1.00  0.00     0.244 HD
ENDBRANCH  23  27
ENDBRANCH  21  22
BRANCH  21  29
HETATM   29  C16 UNL     1       5.543  -0.226  -0.043  1.00  0.00     0.043 C 
HETATM   30  C17 UNL     1       6.835   0.504   0.265  1.00  0.00     0.036 C 
HETATM   31  C18 UNL     1       7.617   0.238  -1.009  1.00  0.00     0.232 C 
HETATM   32  N7  UNL     1       6.655  -0.061  -2.039  1.00  0.00    -0.075 N 
HETATM   33  C19 UNL     1       5.332   0.122  -1.493  1.00  0.00     0.239 C 
ATOM     34  H72 UNL     1       6.808   0.483  -2.888  1.00  0.00     0.277 HD
ATOM     35  H71 UNL     1       6.788  -0.988  -2.443  1.00  0.00     0.277 HD
ENDBRANCH  21  29
ENDBRANCH  19  21
ENDBRANCH  16  17
ENDBRANCH   1  16
BRANCH   5  36
HETATM   36  C6  UNL     1      -4.669   1.933   1.370  1.00  0.00     0.207 C 
BRANCH  36  37
HETATM   37  C7  UNL     1      -5.340   1.851   2.690  1.00  0.00     0.153 C 
HETATM   38  N3  UNL     1      -5.458   0.716   3.286  1.00  0.00    -0.250 N 
ATOM     39  H3  UNL     1      -5.091  -0.132   2.854  1.00  0.00     0.196 HD
BRANCH  37  40
HETATM   40  O2  UNL     1      -5.826   3.039   3.236  1.00  0.00    -0.347 OA
ATOM     41  H2  UNL     1      -6.256   2.986   4.082  1.00  0.00     0.219 HD
ENDBRANCH  37  40
BRANCH  38  42
HETATM   42  O3  UNL     1      -6.073   0.657   4.492  1.00  0.00    -0.288 OA
ATOM     43  H3  UNL     1      -6.160  -0.181   4.932  1.00  0.00     0.244 HD
ENDBRANCH  38  42
ENDBRANCH  36  37
ENDBRANCH   5  36
TORSDOF 11
