REMARK  12 active torsions:
REMARK  status: ('A' for Active; 'I' for Inactive)
REMARK    1  A    between atoms: C2_2  and  C3_3 
REMARK    2  A    between atoms: C3_3  and  C4_4 
REMARK    3  A    between atoms: C4_4  and  C5_5 
REMARK    4  A    between atoms: C5_5  and  C6_6 
REMARK    5  A    between atoms: C5_5  and  N5_19 
REMARK       I    between atoms: C6_6  and  N1_8 
REMARK    6  A    between atoms: N1_8  and  C7_10 
REMARK    7  A    between atoms: C7_10  and  C8_11 
REMARK    8  A    between atoms: C8_11  and  N2_12 
REMARK       I    between atoms: N2_12  and  C9_14 
REMARK    9  A    between atoms: C12_22  and  C13_23 
REMARK       I    between atoms: C13_23  and  N6_25 
REMARK   10  A    between atoms: N7_32  and  C19_34 
REMARK   11  A    between atoms: C19_34  and  C20_35 
REMARK   12  A    between atoms: C20_35  and  N8_36 
ROOT
HETATM    1  N5  UNL     1      -0.156   0.911  -0.280  1.00  0.00    -0.357 N 
HETATM    2  C10 UNL     1      -0.466   2.249  -0.801  1.00  0.00     0.126 C 
HETATM    3  C11 UNL     1      -2.020   2.272  -0.844  1.00  0.00     0.042 C 
HETATM    4  C12 UNL     1      -2.241   1.492   0.466  1.00  0.00     0.146 C 
HETATM    5  C18 UNL     1      -1.380   0.324   0.211  1.00  0.00     0.089 C 
HETATM    6  N7  UNL     1      -1.628  -0.886   0.368  1.00  0.00    -0.378 N 
ATOM      7  H7  UNL     1      -0.838  -1.473   0.100  1.00  0.00     0.160 HD
ENDROOT
BRANCH   1   8
HETATM    8  C5  UNL     1       1.144   0.366  -0.317  1.00  0.00     0.177 C 
BRANCH   8   9
HETATM    9  C4  UNL     1       1.375  -0.936   0.389  1.00  0.00     0.039 C 
BRANCH   9  10
HETATM   10  C3  UNL     1       1.408  -0.819   1.874  1.00  0.00     0.029 C 
BRANCH  10  11
HETATM   11  C2  UNL     1       1.665  -2.145   2.475  1.00  0.00    -0.037 C 
HETATM   12  C1  UNL     1       1.888  -3.217   1.737  1.00  0.00     0.007 C 
ENDBRANCH  10  11
ENDBRANCH   9  10
ENDBRANCH   8   9
BRANCH   8  13
HETATM   13  C6  UNL     1       2.242   1.308   0.051  1.00  0.00     0.240 C 
HETATM   14  O1  UNL     1       2.009   2.458   0.500  1.00  0.00    -0.271 OA
HETATM   15  N1  UNL     1       3.611   0.948  -0.092  1.00  0.00    -0.358 N 
ATOM     16  H1  UNL     1       3.835   0.022  -0.456  1.00  0.00     0.162 HD
BRANCH  15  17
HETATM   17  C7  UNL     1       4.697   1.831   0.254  1.00  0.00     0.142 C 
BRANCH  17  18
HETATM   18  C8  UNL     1       6.037   1.211   0.010  1.00  0.00     0.142 C 
BRANCH  18  19
HETATM   19  N2  UNL     1       6.163   0.878  -1.380  1.00  0.00    -0.363 N 
HETATM   20  C9  UNL     1       7.331   0.271  -1.926  1.00  0.00     0.181 C 
HETATM   21  N3  UNL     1       7.218  -0.741  -2.693  1.00  0.00    -0.374 N 
HETATM   22  N4  UNL     1       8.577   0.832  -1.583  1.00  0.00    -0.064 NA
ATOM     23  H32 UNL     1       6.316  -1.147  -2.941  1.00  0.00     0.158 HD
ATOM     24  H31 UNL     1       8.054  -1.175  -3.084  1.00  0.00     0.158 HD
ATOM     25  H2  UNL     1       5.383   1.085  -2.004  1.00  0.00     0.162 HD
ENDBRANCH  18  19
ENDBRANCH  17  18
ENDBRANCH  15  17
ENDBRANCH   8  13
ENDBRANCH   1   8
BRANCH   4  26
HETATM   26  C13 UNL     1      -3.597   1.322   0.863  1.00  0.00     0.231 C 
HETATM   27  O2  UNL     1      -3.859   1.473   2.117  1.00  0.00    -0.273 OA
HETATM   28  N6  UNL     1      -4.672   1.007   0.031  1.00  0.00    -0.347 N 
HETATM   29  C14 UNL     1      -4.678   0.799  -1.389  1.00  0.00     0.152 C 
HETATM   30  C17 UNL     1      -6.011   0.860   0.663  1.00  0.00     0.152 C 
HETATM   31  C15 UNL     1      -6.062   0.222  -1.740  1.00  0.00     0.187 C 
HETATM   32  O3  UNL     1      -6.378  -0.861  -0.956  1.00  0.00    -0.388 OA
HETATM   33  C16 UNL     1      -6.453  -0.542   0.400  1.00  0.00     0.187 C 
ENDBRANCH   4  26
BRANCH   6  34
HETATM   34  C19 UNL     1      -2.711  -1.646   0.817  1.00  0.00     0.148 C 
BRANCH  34  35
HETATM   35  C20 UNL     1      -2.228  -3.073   1.162  1.00  0.00     0.249 C 
BRANCH  35  36
HETATM   36  N8  UNL     1      -1.695  -3.653  -0.030  1.00  0.00    -0.078 N 
ATOM     37  H83 UNL     1      -2.354  -3.635  -0.808  1.00  0.00     0.274 HD
ATOM     38  H82 UNL     1      -0.967  -3.081  -0.457  1.00  0.00     0.274 HD
ATOM     39  H81 UNL     1      -1.376  -4.595   0.198  1.00  0.00     0.274 HD
ENDBRANCH  35  36
ENDBRANCH  34  35
ENDBRANCH   6  34
TORSDOF 12
