REMARK  4 active torsions:
REMARK  status: ('A' for Active; 'I' for Inactive)
REMARK    1  A    between atoms: C7_10  and  N2_11 
REMARK    2  A    between atoms: N2_11  and  O2_12 
REMARK    3  A    between atoms: N2_11  and  N3_14 
REMARK    4  A    between atoms: N3_14  and  N4_16 
ROOT
HETATM    1  C1  UNL     1      -3.499  -0.769   0.604  1.00  0.00     0.017 C 
HETATM    2  C2  UNL     1      -2.496   0.267   0.200  1.00  0.00    -0.021 C 
HETATM    3  C3  UNL     1      -3.209   1.578  -0.025  1.00  0.00     0.017 C 
HETATM    4  C4  UNL     1      -1.841  -0.146  -1.106  1.00  0.00     0.177 C 
HETATM    5  O1  UNL     1      -1.277  -1.408  -0.928  1.00  0.00    -0.378 OA
HETATM    6  C5  UNL     1      -0.159  -1.346  -0.079  1.00  0.00     0.185 A 
HETATM    7  C6  UNL     1       1.087  -1.781  -0.748  1.00  0.00     0.176 A 
HETATM    8  N1  UNL     1       2.134  -0.839  -0.675  1.00  0.00    -0.220 N 
ATOM      9  H1  UNL     1       3.008  -1.107  -1.127  1.00  0.00     0.177 HD
HETATM   10  C7  UNL     1       2.124   0.289  -0.122  1.00  0.00     0.721 A 
HETATM   11  N6  UNL     1       0.926   0.729   0.532  1.00  0.00    -0.193 N 
ATOM     12  H6  UNL     1       0.907   1.643   0.984  1.00  0.00     0.184 HD
HETATM   13  C8  UNL     1      -0.123  -0.011   0.557  1.00  0.00     0.035 A 
HETATM   14  C9  UNL     1      -1.385   0.428   1.235  1.00  0.00     0.066 C 
ENDROOT
BRANCH  10  15
HETATM   15  N2  UNL     1       3.258   1.172  -0.110  1.00  0.00     0.032 N 
BRANCH  15  16
HETATM   16  O2  UNL     1       3.000   2.490  -0.175  1.00  0.00    -0.253 OA
ATOM     17  H2  UNL     1       3.750   3.074  -0.167  1.00  0.00     0.247 HD
ENDBRANCH  15  16
BRANCH  15  18
HETATM   18  N3  UNL     1       4.548   0.694  -0.034  1.00  0.00    -0.187 N 
ATOM     19  H3  UNL     1       5.296   1.283  -0.399  1.00  0.00     0.213 HD
BRANCH  18  20
HETATM   20  N4  UNL     1       4.896  -0.532   0.504  1.00  0.00    -0.232 N 
HETATM   21  N5  UNL     1       5.205  -1.484  -0.251  1.00  0.00    -0.330 N 
ATOM     22  H52 UNL     1       5.195  -1.338  -1.260  1.00  0.00     0.178 HD
ATOM     23  H51 UNL     1       5.462  -2.388   0.146  1.00  0.00     0.178 HD
ATOM     24  H4  UNL     1       4.901  -0.662   1.516  1.00  0.00     0.209 HD
ENDBRANCH  18  20
ENDBRANCH  15  18
ENDBRANCH  10  15
TORSDOF 4
