REMARK  12 active torsions:
REMARK  status: ('A' for Active; 'I' for Inactive)
REMARK    1  A    between atoms: C2_5  and  C3_6 
REMARK    2  A    between atoms: C3_6  and  N3_7 
REMARK    3  A    between atoms: C3_6  and  C4_11 
REMARK    4  A    between atoms: C4_11  and  N4_12 
REMARK    5  A    between atoms: C4_11  and  C12_36 
REMARK       I    between atoms: N4_12  and  C5_14 
REMARK       I    between atoms: C5_14  and  N5_16 
REMARK    6  A    between atoms: N5_16  and  C6_18 
REMARK    7  A    between atoms: C7_22  and  O2_23 
REMARK    8  A    between atoms: C8_25  and  C9_26 
REMARK    9  A    between atoms: C11_31  and  O3_32 
REMARK   10  A    between atoms: C12_36  and  O6_37 
REMARK   11  A    between atoms: C12_36  and  C13_39 
REMARK   12  A    between atoms: C13_39  and  O7_40 
ROOT
HETATM    1  N4  UNL     1      -0.682  -0.216  -0.619  1.00  0.00    -0.334 N 
ATOM      2  H4  UNL     1      -0.430  -1.199  -0.717  1.00  0.00     0.164 HD
HETATM    3  C5  UNL     1       0.352   0.743  -0.521  1.00  0.00     0.319 C 
HETATM    4  O1  UNL     1       0.089   1.965  -0.401  1.00  0.00    -0.247 OA
HETATM    5  N5  UNL     1       1.721   0.356  -0.555  1.00  0.00    -0.294 N 
ATOM      6  H5  UNL     1       1.950  -0.633  -0.652  1.00  0.00     0.168 HD
ENDROOT
BRANCH   1   7
HETATM    7  C4  UNL     1      -2.096   0.145  -0.585  1.00  0.00     0.151 C 
BRANCH   7   8
HETATM    8  C3  UNL     1      -2.741  -0.452   0.656  1.00  0.00     0.258 C 
BRANCH   8   9
HETATM    9  C2  UNL     1      -4.190  -0.154   0.816  1.00  0.00     0.274 C 
HETATM   10  N2  UNL     1      -4.448   1.245   0.768  1.00  0.00    -0.352 N 
HETATM   11  C1  UNL     1      -5.580   1.794   1.001  1.00  0.00     0.107 C 
ATOM     12  H2  UNL     1      -3.669   1.858   0.529  1.00  0.00     0.163 HD
HETATM   13  N1  UNL     1      -5.817   3.190   0.947  1.00  0.00    -0.087 NA
HETATM   14  C14 UNL     1      -6.708   0.899   1.349  1.00  0.00     0.243 C 
HETATM   15  S1  UNL     1      -6.080  -0.249   2.552  1.00  0.00     0.273 S 
HETATM   16  O8  UNL     1      -4.576  -0.762   2.036  1.00  0.00    -0.247 OA
HETATM   17  O9  UNL     1      -6.973  -1.447   2.694  1.00  0.00    -0.198 OA
HETATM   18  O10 UNL     1      -5.975   0.510   3.853  1.00  0.00    -0.198 OA
ENDBRANCH   8   9
BRANCH   8  19
HETATM   19  N3  UNL     1      -2.068   0.100   1.841  1.00  0.00    -0.069 N 
ATOM     20  H33 UNL     1      -2.263   1.090   1.991  1.00  0.00     0.275 HD
ATOM     21  H32 UNL     1      -2.456  -0.241   2.721  1.00  0.00     0.275 HD
ATOM     22  H31 UNL     1      -1.075  -0.104   1.731  1.00  0.00     0.275 HD
ENDBRANCH   8  19
ENDBRANCH   7   8
BRANCH   7  23
HETATM   23  C12 UNL     1      -2.732  -0.211  -1.871  1.00  0.00     0.166 C 
BRANCH  23  24
HETATM   24  O6  UNL     1      -4.054   0.091  -2.005  1.00  0.00    -0.391 OA
ATOM     25  H6  UNL     1      -4.463  -0.138  -2.831  1.00  0.00     0.210 HD
ENDBRANCH  23  24
BRANCH  23  26
HETATM   26  C13 UNL     1      -2.537  -1.652  -2.276  1.00  0.00     0.197 C 
BRANCH  26  27
HETATM   27  O7  UNL     1      -3.246  -2.553  -1.527  1.00  0.00    -0.398 OA
ATOM     28  H7  UNL     1      -3.123  -3.460  -1.782  1.00  0.00     0.209 HD
ENDBRANCH  26  27
ENDBRANCH  23  26
ENDBRANCH   7  23
ENDBRANCH   1   7
BRANCH   5  29
HETATM   29  C6  UNL     1       2.801   1.318  -0.457  1.00  0.00     0.436 C 
HETATM   30  N6  UNL     1       3.568   1.228  -1.692  1.00  0.00    -0.002 N 
HETATM   31  C7  UNL     1       4.961   1.373  -1.227  1.00  0.00     0.357 C 
ATOM     32  H62 UNL     1       3.388   0.390  -2.245  1.00  0.00     0.285 HD
ATOM     33  H61 UNL     1       3.289   1.890  -2.416  1.00  0.00     0.285 HD
HETATM   34  C8  UNL     1       4.837   0.675   0.107  1.00  0.00     0.238 C 
HETATM   35  O5  UNL     1       3.641   1.140   0.601  1.00  0.00    -0.329 OA
BRANCH  31  36
HETATM   36  O2  UNL     1       5.796   0.624  -2.035  1.00  0.00    -0.368 OA
ATOM     37  H2  UNL     1       6.693   0.717  -1.736  1.00  0.00     0.212 HD
ENDBRANCH  31  36
BRANCH  34  38
HETATM   38  C9  UNL     1       4.906  -0.831  -0.040  1.00  0.00     0.357 C 
HETATM   39  N7  UNL     1       4.697  -1.385   1.275  1.00  0.00    -0.042 N 
HETATM   40  C10 UNL     1       5.935  -1.931   1.726  1.00  0.00     0.295 C 
ATOM     41  H72 UNL     1       4.302  -0.709   1.929  1.00  0.00     0.280 HD
ATOM     42  H71 UNL     1       3.935  -2.062   1.301  1.00  0.00     0.280 HD
HETATM   43  C11 UNL     1       6.936  -1.437   0.704  1.00  0.00     0.285 C 
HETATM   44  O4  UNL     1       6.206  -1.143  -0.437  1.00  0.00    -0.325 OA
BRANCH  43  45
HETATM   45  O3  UNL     1       7.871  -2.406   0.364  1.00  0.00    -0.369 OA
ATOM     46  H3  UNL     1       8.499  -2.096  -0.278  1.00  0.00     0.212 HD
ENDBRANCH  43  45
ENDBRANCH  34  38
ENDBRANCH   5  29
TORSDOF 12
