REMARK  5 active torsions:
REMARK  status: ('A' for Active; 'I' for Inactive)
REMARK    1  A    between atoms: C3_4  and  C4_5 
REMARK    2  A    between atoms: C4_5  and  N2_6 
REMARK       I    between atoms: N2_6  and  C5_8 
REMARK       I    between atoms: C5_8  and  N3_10 
REMARK    3  A    between atoms: C6_13  and  C7_14 
REMARK    4  A    between atoms: C8_17  and  C9_18 
REMARK       I    between atoms: C9_18  and  N6_20 
REMARK    5  A    between atoms: N6_20  and  N7_22 
ROOT
HETATM    1  N2  UNL     1       1.413   1.606   0.604  1.00  0.00    -0.337 N 
ATOM      2  H2  UNL     1       1.005   2.242  -0.081  1.00  0.00     0.164 HD
HETATM    3  C5  UNL     1       0.672   0.507   1.050  1.00  0.00     0.343 C 
HETATM    4  O1  UNL     1       1.277  -0.235   1.916  1.00  0.00    -0.245 OA
HETATM    5  N3  UNL     1      -0.638   0.157   0.642  1.00  0.00    -0.190 N 
HETATM    6  N4  UNL     1      -1.242  -0.917   1.135  1.00  0.00    -0.283 N 
ATOM      7  H4  UNL     1      -0.836  -1.555   1.820  1.00  0.00     0.188 HD
HETATM    8  C6  UNL     1      -2.489  -1.042   0.589  1.00  0.00     0.133 A 
HETATM    9  C8  UNL     1      -2.625   0.012  -0.266  1.00  0.00     0.110 A 
HETATM   10  C10 UNL     1      -1.426   0.777  -0.224  1.00  0.00     0.161 A 
HETATM   11  N8  UNL     1      -1.201   1.944  -0.979  1.00  0.00    -0.079 NA
ENDROOT
BRANCH   1  12
HETATM   12  C4  UNL     1       2.759   1.857   1.102  1.00  0.00     0.166 C 
BRANCH  12  13
HETATM   13  C3  UNL     1       3.755   0.959   0.485  1.00  0.00    -0.006 A 
HETATM   14  C2  UNL     1       4.320  -0.158   1.028  1.00  0.00     0.119 A 
HETATM   15  N1  UNL     1       5.192  -0.707   0.128  1.00  0.00    -0.308 N 
HETATM   16  C1  UNL     1       5.996  -1.897   0.310  1.00  0.00     0.177 C 
HETATM   17  N9  UNL     1       5.143   0.077  -0.930  1.00  0.00    -0.310 N 
HETATM   18  C11 UNL     1       4.301   1.090  -0.775  1.00  0.00     0.117 A 
ATOM     19  H9  UNL     1       5.692  -0.078  -1.775  1.00  0.00     0.186 HD
ENDBRANCH  12  13
ENDBRANCH   1  12
BRANCH   8  20
HETATM   20  C7  UNL     1      -3.403  -2.131   0.925  1.00  0.00     0.283 C 
HETATM   21  N5  UNL     1      -4.191  -2.116   2.100  1.00  0.00    -0.056 NA
HETATM   22  O2  UNL     1      -3.481  -3.103   0.140  1.00  0.00    -0.269 OA
ENDBRANCH   8  20
BRANCH   9  23
HETATM   23  C9  UNL     1      -3.743   0.374  -1.106  1.00  0.00     0.275 C 
HETATM   24  O3  UNL     1      -3.623   1.391  -1.878  1.00  0.00    -0.266 OA
HETATM   25  N6  UNL     1      -4.959  -0.327  -1.123  1.00  0.00    -0.272 N 
ATOM     26  H6  UNL     1      -5.110  -1.140  -0.526  1.00  0.00     0.189 HD
BRANCH  25  27
HETATM   27  N7  UNL     1      -5.978   0.142  -2.009  1.00  0.00    -0.342 N 
ATOM     28  H72 UNL     1      -5.812   0.957  -2.600  1.00  0.00     0.176 HD
ATOM     29  H71 UNL     1      -6.862  -0.367  -2.021  1.00  0.00     0.176 HD
ENDBRANCH  25  27
ENDBRANCH   9  23
TORSDOF 5
