REMARK  2 active torsions:
REMARK  status: ('A' for Active; 'I' for Inactive)
REMARK    1  A    between atoms: C2_2  and  N1_3 
REMARK    2  A    between atoms: N2_6  and  N3_7 
ROOT
HETATM    1  N1  UNL     1      -0.517  -0.232   0.487  1.00  0.00     0.103 N 
HETATM    2  C3  UNL     1       0.275   0.317   1.580  1.00  0.00     0.290 C 
HETATM    3  C4  UNL     1       1.612  -0.322   1.159  1.00  0.00     0.145 C 
HETATM    4  N2  UNL     1       1.671   0.328  -0.159  1.00  0.00    -0.209 NA
HETATM    5  C5  UNL     1       0.325   0.132  -0.654  1.00  0.00     0.385 C 
ENDROOT
BRANCH   4   6
HETATM    6  N3  UNL     1       2.687  -0.065  -0.958  1.00  0.00    -0.362 NA
ATOM      7  H32 UNL     1       3.635   0.073  -0.609  1.00  0.00     0.171 HD
ATOM      8  H31 UNL     1       2.728   0.386  -1.872  1.00  0.00     0.171 HD
ENDBRANCH   4   6
BRANCH   1   9
HETATM    9  C2  UNL     1      -1.807   0.432   0.392  1.00  0.00     0.269 C 
HETATM   10  C1  UNL     1      -2.626  -0.405  -0.583  1.00  0.00     0.037 C 
ENDBRANCH   1   9
TORSDOF 2
