REMARK  2 active torsions:
REMARK  status: ('A' for Active; 'I' for Inactive)
REMARK    1  A    between atoms: C2_2  and  O1_3 
REMARK    2  A    between atoms: C2_2  and  C3_5 
ROOT
HETATM    1  C3  UNL     1       0.149  -0.117   0.247  1.00  0.00     0.278 A 
HETATM    2  C4  UNL     1       0.633   1.293   0.464  1.00  0.00     0.311 A 
HETATM    3  N1  UNL     1       1.180   0.485  -0.581  1.00  0.00     0.095 N 
HETATM    4  C5  UNL     1       2.518  -0.012  -0.538  1.00  0.00     0.310 C 
ENDROOT
BRANCH   1   5
HETATM    5  C2  UNL     1      -1.149  -0.350  -0.499  1.00  0.00     0.149 C 
HETATM    6  C1  UNL     1      -2.084  -1.085   0.462  1.00  0.00     0.041 C 
BRANCH   5   7
HETATM    7  O1  UNL     1      -1.705   0.799  -0.998  1.00  0.00    -0.394 OA
ATOM      8  H1  UNL     1      -1.124   1.256  -1.595  1.00  0.00     0.210 HD
ENDBRANCH   5   7
ENDBRANCH   1   5
TORSDOF 2
