REMARK  9 active torsions:
REMARK  status: ('A' for Active; 'I' for Inactive)
REMARK    1  A    between atoms: N1_1  and  C1_4 
REMARK    2  A    between atoms: C3_12  and  N5_13 
REMARK    3  A    between atoms: N5_13  and  C4_15 
REMARK    4  A    between atoms: C5_17  and  C6_18 
REMARK    5  A    between atoms: C6_18  and  O2_19 
REMARK    6  A    between atoms: C7_24  and  N7_25 
REMARK    7  A    between atoms: C7_24  and  C8_29 
REMARK    8  A    between atoms: C8_29  and  O3_30 
REMARK    9  A    between atoms: C9_34  and  C10_35 
ROOT
HETATM    1  C1  UNL     1      -4.218   2.024   1.114  1.00  0.00     0.144 A 
HETATM    2  N2  UNL     1      -3.807   3.171   1.706  1.00  0.00    -0.269 N 
ATOM      3  H2  UNL     1      -4.475   3.828   2.110  1.00  0.00     0.190 HD
HETATM    4  N3  UNL     1      -2.506   3.405   1.740  1.00  0.00    -0.240 N 
ATOM      5  H3  UNL     1      -2.173   4.262   2.182  1.00  0.00     0.208 HD
HETATM    6  N4  UNL     1      -1.610   2.562   1.218  1.00  0.00    -0.280 N 
ATOM      7  H4  UNL     1      -0.617   2.791   1.271  1.00  0.00     0.188 HD
HETATM    8  C2  UNL     1      -1.990   1.424   0.628  1.00  0.00     0.123 A 
HETATM    9  C3  UNL     1      -1.091   0.518   0.072  1.00  0.00     0.136 A 
HETATM   10  N8  UNL     1      -1.518  -0.632  -0.521  1.00  0.00    -0.323 N 
ATOM     11  H8  UNL     1      -0.848  -1.287  -0.924  1.00  0.00     0.169 HD
HETATM   12  C9  UNL     1      -2.837  -0.890  -0.566  1.00  0.00     0.174 A 
HETATM   13  N10 UNL     1      -3.725  -0.030  -0.036  1.00  0.00    -0.333 N 
ATOM     14  H10 UNL     1      -4.720  -0.251  -0.085  1.00  0.00     0.168 HD
HETATM   15  C11 UNL     1      -3.333   1.124   0.562  1.00  0.00     0.111 A 
ENDROOT
BRANCH   9  16
HETATM   16  N5  UNL     1       0.151   0.836   0.155  1.00  0.00    -0.344 N 
ATOM     17  H5  UNL     1       0.435   1.706   0.606  1.00  0.00     0.163 HD
BRANCH  16  18
HETATM   18  C4  UNL     1       1.125  -0.047  -0.394  1.00  0.00     0.292 C 
HETATM   19  O1  UNL     1       1.308  -1.217   0.333  1.00  0.00    -0.328 OA
HETATM   20  C5  UNL     1       2.557  -1.697   0.037  1.00  0.00     0.349 C 
HETATM   21  N6  UNL     1       3.310  -0.666  -0.614  1.00  0.00    -0.006 N 
HETATM   22  C7  UNL     1       2.524   0.533  -0.380  1.00  0.00     0.350 C 
ATOM     23  H62 UNL     1       4.282  -0.599  -0.311  1.00  0.00     0.283 HD
ATOM     24  H61 UNL     1       3.516  -0.850  -1.596  1.00  0.00     0.283 HD
BRANCH  20  25
HETATM   25  C6  UNL     1       3.301  -2.190   1.262  1.00  0.00     0.225 C 
BRANCH  25  26
HETATM   26  O2  UNL     1       4.544  -2.707   0.914  1.00  0.00    -0.397 OA
ATOM     27  H2  UNL     1       5.010  -3.016   1.682  1.00  0.00     0.209 HD
ENDBRANCH  25  26
ENDBRANCH  20  25
BRANCH  22  28
HETATM   28  N7  UNL     1       2.875   1.043   0.908  1.00  0.00    -0.038 N 
ATOM     29  H73 UNL     1       2.189   1.721   1.238  1.00  0.00     0.277 HD
ATOM     30  H72 UNL     1       2.760   0.334   1.632  1.00  0.00     0.277 HD
ATOM     31  H71 UNL     1       3.817   1.434   0.917  1.00  0.00     0.277 HD
ENDBRANCH  22  28
BRANCH  22  32
HETATM   32  C8  UNL     1       2.713   1.546  -1.487  1.00  0.00     0.238 C 
BRANCH  32  33
HETATM   33  O3  UNL     1       1.948   2.673  -1.227  1.00  0.00    -0.396 OA
ATOM     34  H3  UNL     1       2.067   3.309  -1.922  1.00  0.00     0.209 HD
ENDBRANCH  32  33
ENDBRANCH  22  32
ENDBRANCH  16  18
ENDBRANCH   9  16
BRANCH  12  35
HETATM   35  C10 UNL     1      -3.321  -2.119  -1.198  1.00  0.00     0.298 C 
HETATM   36  N9  UNL     1      -2.453  -3.071  -1.777  1.00  0.00    -0.054 NA
HETATM   37  O4  UNL     1      -4.557  -2.370  -1.246  1.00  0.00    -0.268 OA
ENDBRANCH  12  35
BRANCH   1  38
HETATM   38  N1  UNL     1      -5.463   1.760   1.060  1.00  0.00    -0.382 N 
ATOM     39  H12 UNL     1      -6.118   2.426   1.469  1.00  0.00     0.157 HD
ATOM     40  H11 UNL     1      -5.772   0.896   0.614  1.00  0.00     0.157 HD
ENDBRANCH   1  38
TORSDOF 9
