REMARK  2 active torsions:
REMARK  status: ('A' for Active; 'I' for Inactive)
REMARK    1  A    between atoms: C2_2  and  C3_3 
REMARK    2  A    between atoms: C3_3  and  N1_4 
ROOT
HETATM    1  N1  UNL     1       1.109  -0.023  -0.610  1.00  0.00    -0.272 N 
HETATM    2  C4  UNL     1       0.984  -1.342  -0.872  1.00  0.00     0.319 C 
HETATM    3  O1  UNL     1       1.957  -1.787  -1.527  1.00  0.00    -0.262 OA
HETATM    4  C5  UNL     1      -0.041  -2.153  -0.504  1.00  0.00     0.314 C 
HETATM    5  O2  UNL     1       0.183  -3.381  -0.690  1.00  0.00    -0.262 OA
HETATM    6  N2  UNL     1      -1.252  -1.866   0.024  1.00  0.00    -0.318 N 
ATOM      7  H2  UNL     1      -1.786  -2.664   0.367  1.00  0.00     0.169 HD
HETATM    8  C6  UNL     1      -1.846  -0.663   0.156  1.00  0.00     0.051 A 
HETATM    9  C7  UNL     1      -3.177  -0.708   0.429  1.00  0.00     0.030 A 
HETATM   10  C8  UNL     1      -3.926   0.445   0.592  1.00  0.00     0.002 A 
HETATM   11  C9  UNL     1      -3.306   1.681   0.475  1.00  0.00     0.001 A 
HETATM   12  C10 UNL     1      -1.956   1.700   0.199  1.00  0.00     0.019 A 
HETATM   13  C11 UNL     1      -1.208   0.556   0.035  1.00  0.00     0.059 A 
HETATM   14  C12 UNL     1       0.136   0.827  -0.238  1.00  0.00     0.263 C 
HETATM   15  O3  UNL     1       0.459   2.022  -0.115  1.00  0.00    -0.267 OA
ENDROOT
BRANCH   1  16
HETATM   16  C3  UNL     1       2.400   0.580  -0.727  1.00  0.00     0.162 C 
BRANCH  16  17
HETATM   17  C2  UNL     1       3.193   0.561   0.508  1.00  0.00    -0.017 C 
HETATM   18  C1  UNL     1       4.353  -0.052   0.527  1.00  0.00     0.008 C 
ENDBRANCH  16  17
ENDBRANCH   1  16
TORSDOF 2
