REMARK  3 active torsions:
REMARK  status: ('A' for Active; 'I' for Inactive)
REMARK    1  A    between atoms: C5_5  and  S1_6 
REMARK    2  A    between atoms: S1_6  and  N1_7 
REMARK    3  A    between atoms: C8_14  and  N2_15 
ROOT
HETATM    1  C1  UNL     1       3.033  -1.696  -1.704  1.00  0.00     0.103 C 
HETATM    2  C2  UNL     1       2.200  -1.072  -1.060  1.00  0.00    -0.146 C 
HETATM    3  C3  UNL     1       1.197  -0.357  -0.301  1.00  0.00     0.039 A 
HETATM    4  C4  UNL     1      -0.120  -0.822  -0.282  1.00  0.00     0.047 A 
HETATM    5  C5  UNL     1      -1.088  -0.162   0.431  1.00  0.00     0.080 A 
HETATM    6  C6  UNL     1      -0.706   0.964   1.118  1.00  0.00     0.028 A 
HETATM    7  C7  UNL     1       0.582   1.423   1.103  1.00  0.00     0.039 A 
HETATM    8  C8  UNL     1       1.592   0.769   0.382  1.00  0.00     0.120 A 
ENDROOT
BRANCH   8   9
HETATM    9  N2  UNL     1       2.906   1.291   0.405  1.00  0.00    -0.114 N 
HETATM   10  O3  UNL     1       3.253   1.939   1.402  1.00  0.00    -0.532 OA
HETATM   11  O4  UNL     1       3.763   1.090  -0.630  1.00  0.00    -0.532 OA
ENDBRANCH   8   9
BRANCH   5  12
HETATM   12  S1  UNL     1      -2.741  -0.747   0.455  1.00  0.00     0.256 S 
HETATM   13  O1  UNL     1      -3.383  -0.306   1.759  1.00  0.00    -0.201 OA
HETATM   14  O2  UNL     1      -2.815  -2.241   0.401  1.00  0.00    -0.201 OA
BRANCH  12  15
HETATM   15  N1  UNL     1      -3.647  -0.036  -0.858  1.00  0.00    -0.324 N 
ATOM     16  H12 UNL     1      -3.257   0.622  -1.532  1.00  0.00     0.169 HD
ATOM     17  H11 UNL     1      -4.608  -0.376  -0.844  1.00  0.00     0.169 HD
ENDBRANCH  12  15
ENDBRANCH   5  12
TORSDOF 3
