REMARK  4 active torsions:
REMARK  status: ('A' for Active; 'I' for Inactive)
REMARK    1  A    between atoms: C2_2  and  O1_3 
REMARK    2  A    between atoms: O1_3  and  C3_4 
REMARK    3  A    between atoms: C9_12  and  N2_13 
REMARK    4  A    between atoms: N4_19  and  O2_20 
ROOT
HETATM    1  C3  UNL     1      -0.915  -0.070   0.478  1.00  0.00     0.097 A 
HETATM    2  C4  UNL     1      -1.561   1.124   0.475  1.00  0.00     0.039 A 
HETATM    3  C5  UNL     1      -0.807   2.307   0.417  1.00  0.00     0.005 A 
HETATM    4  C6  UNL     1       0.567   2.273   0.364  1.00  0.00     0.034 A 
HETATM    5  C7  UNL     1       1.219   1.048   0.367  1.00  0.00     0.093 A 
HETATM    6  C8  UNL     1       0.472  -0.091   0.423  1.00  0.00     0.097 A 
HETATM    7  N1  UNL     1       1.141  -1.273   0.425  1.00  0.00    -0.336 N 
ATOM      8  H1  UNL     1       0.602  -2.138   0.467  1.00  0.00     0.168 HD
HETATM    9  C9  UNL     1       2.479  -1.354   0.374  1.00  0.00     0.140 A 
HETATM   10  C10 UNL     1       3.188  -0.177   0.318  1.00  0.00     0.186 A 
HETATM   11  C11 UNL     1       4.614  -0.237   0.263  1.00  0.00     0.124 C 
HETATM   12  N3  UNL     1       5.770  -0.289   0.233  1.00  0.00    -0.190 NA
HETATM   13  N4  UNL     1       2.586   1.014   0.314  1.00  0.00    -0.208 N 
ENDROOT
BRANCH   9  14
HETATM   14  N2  UNL     1       3.015  -2.514   0.380  1.00  0.00    -0.383 N 
ATOM     15  H22 UNL     1       2.489  -3.387   0.422  1.00  0.00     0.157 HD
ATOM     16  H21 UNL     1       4.032  -2.576   0.341  1.00  0.00     0.157 HD
ENDBRANCH   9  14
BRANCH  13  17
HETATM   17  O2  UNL     1       3.276   2.214   0.258  1.00  0.00    -0.281 OA
ATOM     18  H2  UNL     1       4.225   2.190   0.221  1.00  0.00     0.245 HD
ENDBRANCH  13  17
BRANCH   1  19
HETATM   19  O1  UNL     1      -1.595  -1.255   0.534  1.00  0.00    -0.349 OA
BRANCH  19  20
HETATM   20  C2  UNL     1      -2.961  -1.377   0.577  1.00  0.00     0.171 C 
HETATM   21  C1  UNL     1      -3.643  -0.823  -0.657  1.00  0.00     0.034 C 
ENDBRANCH  19  20
ENDBRANCH   1  19
TORSDOF 4
