REMARK  17 active torsions:
REMARK  status: ('A' for Active; 'I' for Inactive)
REMARK    1  A    between atoms: C2_2  and  O1_3 
REMARK    2  A    between atoms: C2_2  and  C3_5 
REMARK    3  A    between atoms: C3_5  and  C4_6 
REMARK    4  A    between atoms: C5_8  and  O3_9 
REMARK    5  A    between atoms: O3_9  and  C6_10 
REMARK    6  A    between atoms: C7_12  and  O5_13 
REMARK    7  A    between atoms: O5_13  and  C8_14 
REMARK    8  A    between atoms: C9_16  and  C10_17 
REMARK    9  A    between atoms: C10_17  and  N1_18 
REMARK   10  A    between atoms: C11_22  and  O7_23 
REMARK   11  A    between atoms: C12_25  and  O8_26 
REMARK   12  A    between atoms: C13_28  and  N2_29 
REMARK   13  A    between atoms: C14_34  and  C15_35 
REMARK   14  A    between atoms: C15_35  and  N3_36 
REMARK   15  A    between atoms: C17_41  and  O10_42 
REMARK   16  A    between atoms: C18_44  and  N6_45 
REMARK   17  A    between atoms: C19_49  and  O11_50 
ROOT
HETATM    1  C6  UNL     1       0.835   1.191   1.280  1.00  0.00     0.299 C 
HETATM    2  O4  UNL     1      -0.295   1.318   0.495  1.00  0.00    -0.305 OA
HETATM    3  C7  UNL     1      -1.118   0.299   0.919  1.00  0.00     0.418 C 
HETATM    4  O9  UNL     1      -1.068   0.368   2.296  1.00  0.00    -0.327 OA
HETATM    5  C14 UNL     1       0.155   0.882   2.627  1.00  0.00     0.200 C 
ENDROOT
BRANCH   1   6
HETATM    6  O3  UNL     1       1.594   0.138   0.836  1.00  0.00    -0.326 OA
BRANCH   6   7
HETATM    7  C5  UNL     1       2.940   0.380   0.796  1.00  0.00     0.295 C 
HETATM    8  O2  UNL     1       3.602  -0.629   1.414  1.00  0.00    -0.339 OA
HETATM    9  C4  UNL     1       4.733  -1.126   0.788  1.00  0.00     0.224 C 
HETATM   10  C19 UNL     1       5.638   0.023   0.318  1.00  0.00     0.191 C 
HETATM   11  C18 UNL     1       4.901   0.918  -0.614  1.00  0.00     0.248 C 
HETATM   12  C17 UNL     1       3.397   0.590  -0.651  1.00  0.00     0.206 C 
BRANCH   9  13
HETATM   13  C3  UNL     1       4.594  -2.073  -0.260  1.00  0.00    -0.118 C 
BRANCH  13  14
HETATM   14  C2  UNL     1       4.468  -2.924  -1.201  1.00  0.00     0.182 C 
HETATM   15  C1  UNL     1       5.253  -2.649  -2.505  1.00  0.00     0.052 C 
BRANCH  14  16
HETATM   16  O1  UNL     1       3.737  -4.096  -1.302  1.00  0.00    -0.385 OA
ATOM     17  H1  UNL     1       3.255  -4.265  -0.501  1.00  0.00     0.211 HD
ENDBRANCH  14  16
ENDBRANCH  13  14
ENDBRANCH   9  13
BRANCH  10  18
HETATM   18  O11 UNL     1       6.209   0.687   1.410  1.00  0.00    -0.390 OA
ATOM     19  H11 UNL     1       6.769   1.398   1.119  1.00  0.00     0.210 HD
ENDBRANCH  10  18
BRANCH  11  20
HETATM   20  N6  UNL     1       5.397   1.023  -1.940  1.00  0.00    -0.070 N 
ATOM     21  H63 UNL     1       5.198   0.189  -2.493  1.00  0.00     0.274 HD
ATOM     22  H62 UNL     1       4.870   1.696  -2.496  1.00  0.00     0.274 HD
ATOM     23  H61 UNL     1       6.393   1.240  -1.915  1.00  0.00     0.274 HD
ENDBRANCH  11  20
BRANCH  12  24
HETATM   24  O10 UNL     1       2.789   1.762  -1.098  1.00  0.00    -0.388 OA
ATOM     25  H10 UNL     1       3.072   1.892  -1.995  1.00  0.00     0.210 HD
ENDBRANCH  12  24
ENDBRANCH   6   7
ENDBRANCH   1   6
BRANCH   5  26
HETATM   26  C15 UNL     1      -0.089   2.275   3.244  1.00  0.00     0.159 C 
BRANCH  26  27
HETATM   27  N3  UNL     1      -0.679   3.066   2.222  1.00  0.00    -0.364 N 
HETATM   28  C16 UNL     1      -1.434   4.067   2.253  1.00  0.00     0.197 C 
HETATM   29  N4  UNL     1      -1.842   4.625   0.977  1.00  0.00    -0.067 NA
HETATM   30  N5  UNL     1      -1.917   4.695   3.417  1.00  0.00    -0.067 NA
ATOM     31  H3  UNL     1      -0.442   2.760   1.278  1.00  0.00     0.161 HD
ENDBRANCH  26  27
ENDBRANCH   5  26
BRANCH   3  32
HETATM   32  O5  UNL     1      -2.424   0.519   0.523  1.00  0.00    -0.306 OA
BRANCH  32  33
HETATM   33  C8  UNL     1      -2.932  -0.563  -0.179  1.00  0.00     0.298 C 
HETATM   34  O6  UNL     1      -3.506  -0.155  -1.325  1.00  0.00    -0.349 OA
HETATM   35  C9  UNL     1      -4.279  -1.093  -1.985  1.00  0.00     0.181 C 
HETATM   36  C11 UNL     1      -5.523  -1.276  -1.093  1.00  0.00     0.179 C 
HETATM   37  C12 UNL     1      -5.046  -1.921   0.176  1.00  0.00     0.184 C 
HETATM   38  C13 UNL     1      -3.858  -1.282   0.788  1.00  0.00     0.269 C 
BRANCH  35  39
HETATM   39  C10 UNL     1      -4.727  -0.563  -3.340  1.00  0.00     0.264 C 
BRANCH  39  40
HETATM   40  N1  UNL     1      -5.508  -1.547  -4.055  1.00  0.00    -0.077 N 
ATOM     41  H13 UNL     1      -5.006  -2.430  -4.145  1.00  0.00     0.274 HD
ATOM     42  H12 UNL     1      -6.299  -1.873  -3.500  1.00  0.00     0.274 HD
ATOM     43  H11 UNL     1      -5.808  -1.192  -4.963  1.00  0.00     0.274 HD
ENDBRANCH  39  40
ENDBRANCH  35  39
BRANCH  36  44
HETATM   44  O7  UNL     1      -6.059  -0.001  -0.840  1.00  0.00    -0.390 OA
ATOM     45  H7  UNL     1      -6.826  -0.114  -0.290  1.00  0.00     0.210 HD
ENDBRANCH  36  44
BRANCH  37  46
HETATM   46  O8  UNL     1      -4.871  -3.284  -0.083  1.00  0.00    -0.391 OA
ATOM     47  H8  UNL     1      -4.569  -3.692   0.720  1.00  0.00     0.210 HD
ENDBRANCH  37  46
BRANCH  38  48
HETATM   48  N2  UNL     1      -3.055  -2.360   1.389  1.00  0.00    -0.068 N 
ATOM     49  H23 UNL     1      -2.623  -2.978   0.702  1.00  0.00     0.275 HD
ATOM     50  H22 UNL     1      -2.190  -2.033   1.820  1.00  0.00     0.275 HD
ATOM     51  H21 UNL     1      -3.677  -2.843   2.038  1.00  0.00     0.275 HD
ENDBRANCH  38  48
ENDBRANCH  32  33
ENDBRANCH   3  32
TORSDOF 17
