REMARK  8 active torsions:
REMARK  status: ('A' for Active; 'I' for Inactive)
REMARK    1  A    between atoms: N1_1  and  C1_4 
REMARK    2  A    between atoms: N3_8  and  C3_9 
REMARK    3  A    between atoms: C3_9  and  C4_10 
REMARK    4  A    between atoms: C4_10  and  N4_11 
REMARK    5  A    between atoms: N4_11  and  N5_13 
REMARK    6  A    between atoms: N5_13  and  N6_15 
REMARK    7  A    between atoms: C5_17  and  C6_18 
REMARK    8  A    between atoms: N10_29  and  N11_31 
ROOT
HETATM    1  C4  UNL     1      -0.958  -1.908   1.492  1.00  0.00     0.130 C 
HETATM    2  N10 UNL     1       0.103  -2.551   1.148  1.00  0.00    -0.293 N 
ATOM      3  H10 UNL     1       0.909  -2.477   1.769  1.00  0.00     0.187 HD
ENDROOT
BRANCH   1   4
HETATM    4  C3  UNL     1      -2.201  -1.926   0.686  1.00  0.00     0.227 C 
BRANCH   4   5
HETATM    5  N3  UNL     1      -2.591  -0.576   0.299  1.00  0.00    -0.172 N 
HETATM    6  C2  UNL     1      -2.043  -0.051  -0.838  1.00  0.00     0.218 A 
HETATM    7  N2  UNL     1      -2.310   1.173  -1.265  1.00  0.00    -0.187 N 
HETATM    8  C1  UNL     1      -3.163   1.932  -0.543  1.00  0.00     0.691 A 
ATOM      9  H2  UNL     1      -1.882   1.534  -2.118  1.00  0.00     0.185 HD
HETATM   10  N13 UNL     1      -3.725   1.467   0.573  1.00  0.00    -0.023 N 
HETATM   11  C10 UNL     1      -3.426   0.195   0.987  1.00  0.00     0.693 A 
ATOM     12  H13 UNL     1      -4.368   2.049   1.110  1.00  0.00     0.203 HD
HETATM   13  N12 UNL     1      -4.017  -0.190   2.046  1.00  0.00    -0.234 N 
ATOM     14 2H12 UNL     1      -3.794  -1.137   2.354  1.00  0.00     0.174 HD
ATOM     15 1H12 UNL     1      -4.658   0.402   2.574  1.00  0.00     0.174 HD
BRANCH   8  16
HETATM   16  N1  UNL     1      -3.445   3.138  -0.935  1.00  0.00    -0.234 N 
ATOM     17  H12 UNL     1      -3.015   3.494  -1.789  1.00  0.00     0.174 HD
ATOM     18  H11 UNL     1      -4.089   3.711  -0.390  1.00  0.00     0.174 HD
ENDBRANCH   8  16
ENDBRANCH   4   5
ENDBRANCH   1   4
BRANCH   1  19
HETATM   19  N4  UNL     1      -0.922  -1.161   2.687  1.00  0.00    -0.272 N 
ATOM     20  H4  UNL     1      -1.724  -1.198   3.317  1.00  0.00     0.190 HD
BRANCH  19  21
HETATM   21  N5  UNL     1       0.069  -0.448   3.003  1.00  0.00    -0.242 N 
ATOM     22  H5  UNL     1       0.064   0.080   3.875  1.00  0.00     0.208 HD
BRANCH  21  23
HETATM   23  N6  UNL     1       1.163  -0.388   2.157  1.00  0.00    -0.296 N 
HETATM   24  C5  UNL     1       1.229   0.481   1.215  1.00  0.00     0.129 C 
ATOM     25  H6  UNL     1       1.931  -1.047   2.285  1.00  0.00     0.187 HD
BRANCH  24  26
HETATM   26  C6  UNL     1       2.403   0.492   0.363  1.00  0.00     0.090 A 
HETATM   27  C7  UNL     1       2.500   1.422  -0.664  1.00  0.00     0.137 A 
HETATM   28  N7  UNL     1       1.448   2.337  -0.854  1.00  0.00    -0.081 NA
HETATM   29  N8  UNL     1       3.594   1.431  -1.457  1.00  0.00    -0.296 N 
HETATM   30  C8  UNL     1       4.617   0.573  -1.305  1.00  0.00     0.328 A 
ATOM     31  H8  UNL     1       3.646   2.121  -2.206  1.00  0.00     0.171 HD
HETATM   32  O1  UNL     1       5.628   0.608  -2.064  1.00  0.00    -0.247 OA
HETATM   33  N9  UNL     1       4.527  -0.329  -0.311  1.00  0.00    -0.275 N 
HETATM   34  C9  UNL     1       3.454  -0.382   0.511  1.00  0.00     0.264 A 
ATOM     35  H9  UNL     1       5.290  -0.992  -0.173  1.00  0.00     0.173 HD
HETATM   36  O2  UNL     1       3.385  -1.237   1.442  1.00  0.00    -0.267 OA
ENDBRANCH  24  26
ENDBRANCH  21  23
ENDBRANCH  19  21
ENDBRANCH   1  19
BRANCH   2  37
HETATM   37  N11 UNL     1       0.252  -3.325   0.027  1.00  0.00    -0.344 N 
ATOM     38 2H11 UNL     1      -0.564  -3.387  -0.581  1.00  0.00     0.176 HD
ATOM     39 1H11 UNL     1       1.093  -3.834  -0.246  1.00  0.00     0.176 HD
ENDBRANCH   2  37
TORSDOF 8
