REMARK  7 active torsions:
REMARK  status: ('A' for Active; 'I' for Inactive)
REMARK    1  A    between atoms: C2_2  and  C3_3 
REMARK    2  A    between atoms: C6_9  and  O1_10 
REMARK    3  A    between atoms: C6_9  and  C7_12 
REMARK    4  A    between atoms: C7_12  and  N2_13 
REMARK       I    between atoms: N2_13  and  C8_15 
REMARK    5  A    between atoms: C8_15  and  C9_17 
REMARK    6  A    between atoms: C9_17  and  C10_19 
REMARK    7  A    between atoms: C11_25  and  N5_26 
ROOT
HETATM    1  N2  UNL     1       1.390  -0.163   0.399  1.00  0.00    -0.351 N 
ATOM      2  H2  UNL     1       1.232   0.845   0.401  1.00  0.00     0.162 HD
HETATM    3  C8  UNL     1       2.721  -0.655   0.422  1.00  0.00     0.294 C 
HETATM    4  O2  UNL     1       2.894  -1.894   0.420  1.00  0.00    -0.264 OA
ENDROOT
BRANCH   1   5
HETATM    5  C7  UNL     1       0.261  -1.047   0.373  1.00  0.00     0.160 C 
BRANCH   5   6
HETATM    6  C6  UNL     1      -1.021  -0.247   0.353  1.00  0.00     0.074 C 
HETATM    7  C5  UNL     1      -1.109   0.609  -0.872  1.00  0.00     0.040 C 
HETATM    8  C4  UNL     1      -2.405   1.325  -1.019  1.00  0.00     0.017 C 
HETATM    9  C2  UNL     1      -3.607   0.441  -0.791  1.00  0.00    -0.012 C 
HETATM   10  C1  UNL     1      -4.900   1.214  -0.868  1.00  0.00     0.021 C 
HETATM   11  C13 UNL     1      -3.440  -0.236   0.552  1.00  0.00     0.017 C 
HETATM   12  C12 UNL     1      -2.240  -1.150   0.417  1.00  0.00     0.040 C 
BRANCH   9  13
HETATM   13  C3  UNL     1      -3.651  -0.634  -1.822  1.00  0.00     0.062 C 
HETATM   14  N1  UNL     1      -4.565  -1.521  -1.710  1.00  0.00    -0.410 N 
ATOM     15  H12 UNL     1      -5.231  -1.480  -0.938  1.00  0.00     0.155 HD
ATOM     16  H11 UNL     1      -4.595  -2.257  -2.416  1.00  0.00     0.155 HD
ENDBRANCH   9  13
BRANCH   6  17
HETATM   17  O1  UNL     1      -1.054   0.540   1.511  1.00  0.00    -0.388 OA
ATOM     18  H1  UNL     1      -0.998  -0.003   2.288  1.00  0.00     0.210 HD
ENDBRANCH   6  17
ENDBRANCH   5   6
ENDBRANCH   1   5
BRANCH   3  19
HETATM   19  C9  UNL     1       3.875   0.253   0.449  1.00  0.00     0.271 C 
HETATM   20  O3  UNL     1       3.663   1.474   0.451  1.00  0.00    -0.280 OA
BRANCH  19  21
HETATM   21  C10 UNL     1       5.210  -0.282   0.472  1.00  0.00     0.157 A 
HETATM   22  N3  UNL     1       5.629  -1.567   0.474  1.00  0.00    -0.234 N 
HETATM   23  O4  UNL     1       6.935  -1.608   0.498  1.00  0.00    -0.155 OA
ATOM     24  H3  UNL     1       5.017  -2.383   0.459  1.00  0.00     0.197 HD
HETATM   25  N4  UNL     1       7.424  -0.398   0.514  1.00  0.00    -0.224 N 
HETATM   26  C11 UNL     1       6.370   0.464   0.498  1.00  0.00     0.154 A 
ATOM     27  H4  UNL     1       8.412  -0.145   0.535  1.00  0.00     0.198 HD
BRANCH  26  28
HETATM   28  N5  UNL     1       6.430   1.748   0.505  1.00  0.00    -0.382 N 
ATOM     29  H52 UNL     1       5.640   2.394   0.493  1.00  0.00     0.157 HD
ATOM     30  H51 UNL     1       7.288   2.300   0.524  1.00  0.00     0.157 HD
ENDBRANCH  26  28
ENDBRANCH  19  21
ENDBRANCH   3  19
TORSDOF 7
