REMARK  16 active torsions:
REMARK  status: ('A' for Active; 'I' for Inactive)
REMARK    1  A    between atoms: N1_1  and  C1_4 
REMARK    2  A    between atoms: C2_7  and  C3_8 
REMARK    3  A    between atoms: C3_8  and  C4_9 
REMARK    4  A    between atoms: C4_9  and  C5_10 
REMARK    5  A    between atoms: C5_10  and  C6_11 
REMARK    6  A    between atoms: C6_11  and  N3_12 
REMARK    7  A    between atoms: C8_19  and  N5_20 
REMARK    8  A    between atoms: C9_22  and  C10_23 
REMARK    9  A    between atoms: C10_23  and  C11_24 
REMARK   10  A    between atoms: C11_24  and  S1_25 
REMARK   11  A    between atoms: S1_25  and  C12_26 
REMARK   12  A    between atoms: C12_26  and  N6_27 
REMARK   13  A    between atoms: C12_26  and  O1_31 
REMARK   14  A    between atoms: C13_35  and  C14_36 
REMARK   15  A    between atoms: C14_36  and  O2_37 
REMARK   16  A    between atoms: C14_36  and  O3_39 
ROOT
HETATM    1  C1  UNL     1      -3.270   1.658   0.209  1.00  0.00     0.115 A 
HETATM    2  N2  UNL     1      -3.552   0.357   0.082  1.00  0.00    -0.321 N 
ATOM      3  H2  UNL     1      -4.532   0.076   0.113  1.00  0.00     0.169 HD
HETATM    4  C2  UNL     1      -2.629  -0.604  -0.084  1.00  0.00     0.163 A 
HETATM    5  N4  UNL     1      -1.336  -0.252  -0.127  1.00  0.00    -0.331 N 
ATOM      6  H4  UNL     1      -0.617  -0.965  -0.252  1.00  0.00     0.168 HD
HETATM    7  C7  UNL     1      -0.987   1.037  -0.006  1.00  0.00     0.095 A 
HETATM    8  C8  UNL     1       0.348   1.438  -0.045  1.00  0.00     0.133 A 
HETATM    9  N7  UNL     1       0.627   2.785   0.087  1.00  0.00    -0.338 N 
ATOM     10  H7  UNL     1       1.603   3.078   0.057  1.00  0.00     0.167 HD
HETATM   11  C13 UNL     1      -0.300   3.718   0.250  1.00  0.00     0.091 A 
HETATM   12  C15 UNL     1      -1.633   3.373   0.296  1.00  0.00     0.090 A 
HETATM   13  N8  UNL     1      -2.640   4.358   0.464  1.00  0.00    -0.099 NA
HETATM   14  C16 UNL     1      -1.939   2.035   0.166  1.00  0.00     0.064 A 
ENDROOT
BRANCH   8  15
HETATM   15  N5  UNL     1       1.291   0.682  -0.190  1.00  0.00    -0.354 N 
HETATM   16  C9  UNL     1       1.841  -0.541  -0.361  1.00  0.00     0.063 C 
ATOM     17  H5  UNL     1       2.099   1.305  -0.174  1.00  0.00     0.166 HD
BRANCH  16  18
HETATM   18  C10 UNL     1       3.363  -0.591  -0.459  1.00  0.00     0.055 C 
BRANCH  18  19
HETATM   19  C11 UNL     1       3.716  -2.051  -0.643  1.00  0.00     0.083 C 
BRANCH  19  20
HETATM   20  S1  UNL     1       5.473  -2.359  -0.789  1.00  0.00    -0.110 SA
BRANCH  20  21
HETATM   21  C12 UNL     1       6.329  -1.976   0.750  1.00  0.00     0.380 C 
BRANCH  21  22
HETATM   22  N6  UNL     1       6.305  -0.566   1.069  1.00  0.00    -0.044 N 
ATOM     23  H63 UNL     1       6.675  -0.011   0.297  1.00  0.00     0.278 HD
ATOM     24  H62 UNL     1       5.349  -0.211   1.085  1.00  0.00     0.278 HD
ATOM     25  H61 UNL     1       6.789  -0.349   1.940  1.00  0.00     0.278 HD
ENDBRANCH  21  22
BRANCH  21  26
HETATM   26  O1  UNL     1       7.668  -2.378   0.701  1.00  0.00    -0.362 OA
ATOM     27  H1  UNL     1       8.119  -2.176   1.512  1.00  0.00     0.213 HD
ENDBRANCH  21  26
ENDBRANCH  20  21
ENDBRANCH  19  20
ENDBRANCH  18  19
ENDBRANCH  16  18
ENDBRANCH   8  15
BRANCH  11  28
HETATM   28  C14 UNL     1       0.042   5.172   0.395  1.00  0.00     0.307 C 
BRANCH  28  29
HETATM   29  O2  UNL     1       1.006   5.459  -0.600  1.00  0.00    -0.366 OA
ATOM     30  H2  UNL     1       1.222   6.379  -0.508  1.00  0.00     0.213 HD
ENDBRANCH  28  29
BRANCH  28  31
HETATM   31  O3  UNL     1      -1.040   5.996   0.112  1.00  0.00    -0.366 OA
ATOM     32  H3  UNL     1      -0.824   6.916   0.204  1.00  0.00     0.213 HD
ENDBRANCH  28  31
ENDBRANCH  11  28
BRANCH   4  33
HETATM   33  C3  UNL     1      -3.012  -2.003  -0.213  1.00  0.00    -0.030 C 
BRANCH  33  34
HETATM   34  C4  UNL     1      -3.312  -3.168  -0.308  1.00  0.00    -0.097 C 
BRANCH  34  35
HETATM   35  C5  UNL     1      -3.650  -4.587  -0.425  1.00  0.00     0.121 C 
BRANCH  35  36
HETATM   36  C6  UNL     1      -5.143  -4.699  -0.735  1.00  0.00     0.241 C 
BRANCH  36  37
HETATM   37  N3  UNL     1      -5.432  -4.012  -1.981  1.00  0.00    -0.079 N 
ATOM     38  H33 UNL     1      -5.112  -3.043  -1.970  1.00  0.00     0.274 HD
ATOM     39  H32 UNL     1      -4.852  -4.348  -2.750  1.00  0.00     0.274 HD
ATOM     40  H31 UNL     1      -6.428  -4.087  -2.188  1.00  0.00     0.274 HD
ENDBRANCH  36  37
ENDBRANCH  35  36
ENDBRANCH  34  35
ENDBRANCH  33  34
ENDBRANCH   4  33
BRANCH   1  41
HETATM   41  N1  UNL     1      -4.163   2.564   0.369  1.00  0.00    -0.385 N 
ATOM     42  H12 UNL     1      -5.144   2.286   0.401  1.00  0.00     0.157 HD
ATOM     43  H11 UNL     1      -3.948   3.556   0.466  1.00  0.00     0.157 HD
ENDBRANCH   1  41
TORSDOF 16
