REMARK  2 active torsions:
REMARK  status: ('A' for Active; 'I' for Inactive)
REMARK    1  A    between atoms: C2_2  and  C3_3 
REMARK    2  A    between atoms: C23_23  and  C24_24 
ROOT
HETATM    1  C3  UNL     1       3.533   0.660   0.458  1.00  0.00     0.016 C 
HETATM    2  C4  UNL     1       3.704   1.875  -0.467  1.00  0.00     0.009 C 
HETATM    3  C5  UNL     1       2.240   1.986  -0.939  1.00  0.00     0.006 C 
HETATM    4  C6  UNL     1       2.046   0.537  -1.410  1.00  0.00    -0.006 C 
HETATM    5  C7  UNL     1       0.677   0.161  -1.758  1.00  0.00     0.006 C 
HETATM    6  C8  UNL     1      -0.401   1.202  -1.425  1.00  0.00     0.006 C 
HETATM    7  C9  UNL     1      -1.777   0.684  -1.472  1.00  0.00     0.002 C 
HETATM    8  C10 UNL     1      -1.944  -0.737  -1.887  1.00  0.00     0.006 C 
HETATM    9  C11 UNL     1      -2.109  -1.542  -0.591  1.00  0.00     0.011 C 
HETATM   10  C12 UNL     1      -2.289  -0.611   0.531  1.00  0.00    -0.026 C 
HETATM   11  C13 UNL     1      -1.248  -0.494   1.583  1.00  0.00     0.011 C 
HETATM   12  C14 UNL     1      -0.115  -1.410   1.674  1.00  0.00     0.001 C 
HETATM   13  C15 UNL     1       1.242  -0.697   1.494  1.00  0.00     0.001 C 
HETATM   14  C16 UNL     1       2.064  -1.274   0.394  1.00  0.00     0.010 C 
HETATM   15  C17 UNL     1       2.798  -0.289  -0.454  1.00  0.00    -0.034 C 
HETATM   16  C18 UNL     1       3.907  -1.107  -1.147  1.00  0.00     0.016 C 
HETATM   17  C19 UNL     1      -3.504  -1.129   1.323  1.00  0.00     0.011 C 
HETATM   18  C20 UNL     1      -4.805  -1.005   0.659  1.00  0.00     0.001 C 
HETATM   19  C21 UNL     1      -5.013   0.503   0.426  1.00  0.00     0.001 C 
HETATM   20  C22 UNL     1      -4.019   0.810  -0.638  1.00  0.00     0.018 C 
HETATM   21  C23 UNL     1      -2.563   0.701  -0.165  1.00  0.00     0.024 C 
ENDROOT
BRANCH   1  22
HETATM   22  C2  UNL     1       4.853   0.143   0.910  1.00  0.00    -0.031 C 
HETATM   23  C1  UNL     1       5.145  -0.049   2.184  1.00  0.00     0.007 C 
ENDBRANCH   1  22
BRANCH  21  24
HETATM   24  C24 UNL     1      -2.357   1.901   0.643  1.00  0.00     0.241 C 
HETATM   25  O1  UNL     1      -2.218   2.971   0.110  1.00  0.00    -0.306 OA
ENDBRANCH  21  24
TORSDOF 2
