REMARK  6 active torsions:
REMARK  status: ('A' for Active; 'I' for Inactive)
REMARK    1  A    between atoms: C1_4  and  C2_6 
REMARK    2  A    between atoms: N3_10  and  C6_11 
REMARK    3  A    between atoms: C6_11  and  C7_12 
REMARK    4  A    between atoms: C7_12  and  C8_13 
REMARK    5  A    between atoms: C8_13  and  S1_14 
REMARK    6  A    between atoms: S1_14  and  N4_15 
ROOT
HETATM    1  C2  UNL     1       2.445   0.429  -0.058  1.00  0.00     0.020 A 
HETATM    2  C3  UNL     1       2.410   1.556   0.722  1.00  0.00     0.017 A 
HETATM    3  C4  UNL     1       1.198   2.134   1.001  1.00  0.00     0.018 A 
HETATM    4  C5  UNL     1       0.065   1.565   0.490  1.00  0.00     0.090 A 
HETATM    5  N3  UNL     1       0.066   0.457  -0.280  1.00  0.00    -0.365 N 
HETATM    6  C9  UNL     1       1.275  -0.098  -0.544  1.00  0.00     0.105 A 
ENDROOT
BRANCH   5   7
HETATM    7  C6  UNL     1      -1.135  -0.136  -0.816  1.00  0.00     0.128 C 
BRANCH   7   8
HETATM    8  C7  UNL     1      -1.650  -1.142   0.171  1.00  0.00     0.034 C 
BRANCH   8   9
HETATM    9  C8  UNL     1      -2.909  -1.821  -0.298  1.00  0.00     0.133 C 
BRANCH   9  10
HETATM   10  S1  UNL     1      -4.200  -0.599  -0.557  1.00  0.00     0.107 S 
HETATM   11  O1  UNL     1      -5.640  -1.361  -0.956  1.00  0.00    -0.236 OA
BRANCH  10  12
HETATM   12  N4  UNL     1      -4.460   0.188   0.978  1.00  0.00    -0.350 NA
ATOM     13  H42 UNL     1      -3.584   0.651   1.221  1.00  0.00     0.166 HD
ATOM     14  H41 UNL     1      -5.193   0.882   0.831  1.00  0.00     0.166 HD
ENDBRANCH  10  12
ENDBRANCH   9  10
ENDBRANCH   8   9
ENDBRANCH   7   8
ENDBRANCH   5   7
BRANCH   1  15
HETATM   15  C1  UNL     1       3.762  -0.171  -0.341  1.00  0.00     0.121 C 
HETATM   16  N1  UNL     1       3.864  -1.230  -1.068  1.00  0.00    -0.387 N 
ATOM     17  H12 UNL     1       4.775  -1.645  -1.264  1.00  0.00     0.157 HD
ATOM     18  H11 UNL     1       3.007  -1.640  -1.441  1.00  0.00     0.157 HD
HETATM   19  N2  UNL     1       4.953   0.399   0.177  1.00  0.00    -0.082 NA
ENDBRANCH   1  15
TORSDOF 6
