REMARK  10 active torsions:
REMARK  status: ('A' for Active; 'I' for Inactive)
REMARK    1  A    between atoms: C2_2  and  C3_3 
REMARK    2  A    between atoms: C3_3  and  C4_4 
REMARK    3  A    between atoms: C4_4  and  C5_5 
REMARK    4  A    between atoms: C5_5  and  C6_6 
REMARK    5  A    between atoms: C6_6  and  C7_7 
REMARK    6  A    between atoms: C7_7  and  C8_8 
REMARK       I    between atoms: C8_8  and  N1_10 
REMARK    7  A    between atoms: N1_10  and  C9_12 
REMARK       I    between atoms: N2_14  and  C11_15 
REMARK       I    between atoms: C11_15  and  N4_19 
REMARK    8  A    between atoms: N4_19  and  C12_21 
REMARK    9  A    between atoms: C12_21  and  C13_22 
REMARK   10  A    between atoms: C21_31  and  O3_32 
ROOT
HETATM    1  C9  UNL     1       0.593  -1.014  -0.827  1.00  0.00     0.139 C 
HETATM    2  C10 UNL     1      -0.706  -0.692  -0.134  1.00  0.00     0.169 C 
HETATM    3  N2  UNL     1      -1.619   0.100  -0.879  1.00  0.00    -0.209 N 
HETATM    4  C11 UNL     1      -2.461   1.099  -0.283  1.00  0.00     0.670 C 
HETATM    5  N3  UNL     1      -2.287   2.351  -0.495  1.00  0.00    -0.235 N 
ATOM      6  H31 UNL     1      -2.885   3.061  -0.072  1.00  0.00     0.174 HD
ATOM      7  H32 UNL     1      -1.518   2.618  -1.110  1.00  0.00     0.174 HD
HETATM    8  N4  UNL     1      -3.534   0.727   0.575  1.00  0.00    -0.226 N 
ATOM      9  H4  UNL     1      -3.514   0.961   1.568  1.00  0.00     0.177 HD
HETATM   10  C19 UNL     1      -1.736  -0.077  -2.303  1.00  0.00     0.222 C 
HETATM   11  C20 UNL     1      -1.004  -1.298  -2.691  1.00  0.00     0.175 C 
HETATM   12  O2  UNL     1      -1.519  -2.098  -3.438  1.00  0.00    -0.293 OA
HETATM   13  C21 UNL     1       0.366  -1.601  -2.198  1.00  0.00     0.213 C 
ENDROOT
BRANCH   1  14
HETATM   14  N1  UNL     1       1.464   0.133  -0.952  1.00  0.00    -0.352 N 
HETATM   15  C8  UNL     1       2.742   0.210  -0.372  1.00  0.00     0.218 C 
HETATM   16  O1  UNL     1       3.169  -0.755   0.294  1.00  0.00    -0.274 OA
ATOM     17  H1  UNL     1       1.132   0.932  -1.492  1.00  0.00     0.163 HD
BRANCH  15  18
HETATM   18  C7  UNL     1       3.563   1.414  -0.550  1.00  0.00     0.103 C 
BRANCH  18  19
HETATM   19  C6  UNL     1       4.925   1.366   0.055  1.00  0.00     0.009 C 
BRANCH  19  20
HETATM   20  C5  UNL     1       5.836   0.312  -0.468  1.00  0.00     0.000 C 
BRANCH  20  21
HETATM   21  C4  UNL     1       7.193   0.321   0.175  1.00  0.00     0.000 C 
BRANCH  21  22
HETATM   22  C3  UNL     1       7.161   0.103   1.660  1.00  0.00    -0.000 C 
BRANCH  22  23
HETATM   23  C2  UNL     1       8.553   0.119   2.255  1.00  0.00    -0.005 C 
HETATM   24  C1  UNL     1       9.429  -0.956   1.671  1.00  0.00     0.005 C 
ENDBRANCH  22  23
ENDBRANCH  21  22
ENDBRANCH  20  21
ENDBRANCH  19  20
ENDBRANCH  18  19
ENDBRANCH  15  18
ENDBRANCH   1  14
BRANCH   8  25
HETATM   25  C12 UNL     1      -4.653   0.010   0.007  1.00  0.00     0.142 C 
BRANCH  25  26
HETATM   26  C13 UNL     1      -5.708  -0.316   1.036  1.00  0.00     0.004 C 
HETATM   27  C14 UNL     1      -6.291   0.878   1.695  1.00  0.00     0.006 C 
HETATM   28  C15 UNL     1      -7.492   1.446   0.977  1.00  0.00     0.000 C 
HETATM   29  C16 UNL     1      -8.526   0.400   0.658  1.00  0.00     0.000 C 
HETATM   30  C17 UNL     1      -8.075  -0.991   1.029  1.00  0.00     0.000 C 
HETATM   31  C18 UNL     1      -6.734  -1.234   0.424  1.00  0.00     0.006 C 
ENDBRANCH  25  26
ENDBRANCH   8  25
BRANCH  13  32
HETATM   32  O3  UNL     1       0.566  -2.977  -2.195  1.00  0.00    -0.386 OA
ATOM     33  H3  UNL     1       0.423  -3.347  -3.058  1.00  0.00     0.210 HD
ENDBRANCH  13  32
TORSDOF 10
