REMARK  7 active torsions:
REMARK  status: ('A' for Active; 'I' for Inactive)
REMARK    1  A    between atoms: C2_2  and  C3_3 
REMARK    2  A    between atoms: C8_10  and  S1_11 
REMARK    3  A    between atoms: S1_11  and  C9_12 
REMARK    4  A    between atoms: C13_18  and  N2_19 
REMARK    5  A    between atoms: N2_19  and  C14_21 
REMARK    6  A    between atoms: C14_21  and  C16_24 
REMARK    7  A    between atoms: C16_24  and  C17_25 
ROOT
HETATM    1  C14 UNL     1      -2.838   0.919  -1.487  1.00  0.00     0.207 C 
HETATM    2  C15 UNL     1      -2.541   1.755  -2.680  1.00  0.00     0.085 C 
HETATM    3  N3  UNL     1      -2.309   2.411  -3.604  1.00  0.00    -0.195 NA
ENDROOT
BRANCH   1   4
HETATM    4  N2  UNL     1      -1.793   1.180  -0.551  1.00  0.00    -0.209 N 
ATOM      5  H2  UNL     1      -1.938   1.910   0.146  1.00  0.00     0.179 HD
BRANCH   4   6
HETATM    6  C13 UNL     1      -0.661   0.530  -0.543  1.00  0.00     0.680 A 
HETATM    7  N1  UNL     1      -0.413  -0.439  -1.432  1.00  0.00    -0.196 N 
HETATM    8  C11 UNL     1       0.739  -1.121  -1.446  1.00  0.00     0.025 A 
ATOM      9  H1  UNL     1      -1.127  -0.666  -2.124  1.00  0.00     0.184 HD
HETATM   10  C10 UNL     1       1.694  -0.803  -0.506  1.00  0.00     0.063 A 
HETATM   11  C12 UNL     1       0.977  -2.192  -2.453  1.00  0.00     0.069 C 
HETATM   12  C9  UNL     1       1.478   0.182   0.422  1.00  0.00     0.093 A 
HETATM   13  N4  UNL     1       0.289   0.817   0.361  1.00  0.00    -0.185 N 
ATOM     14  H4  UNL     1       0.102   1.556   1.039  1.00  0.00     0.185 HD
BRANCH  12  15
HETATM   15  S1  UNL     1       2.707   0.613   1.656  1.00  0.00    -0.068 SA
BRANCH  15  16
HETATM   16  C8  UNL     1       4.130  -0.436   1.417  1.00  0.00     0.056 A 
HETATM   17  C3  UNL     1       5.138  -0.051   0.583  1.00  0.00    -0.014 A 
HETATM   18  C4  UNL     1       6.219  -0.947   0.408  1.00  0.00     0.055 A 
HETATM   19  C5  UNL     1       6.263  -2.151   1.046  1.00  0.00     0.120 A 
HETATM   20  F1  UNL     1       7.350  -2.972   0.827  1.00  0.00    -0.206 F 
HETATM   21  C6  UNL     1       5.247  -2.527   1.883  1.00  0.00     0.086 A 
HETATM   22  C7  UNL     1       4.196  -1.680   2.064  1.00  0.00     0.137 A 
HETATM   23  F2  UNL     1       3.145  -1.991   2.886  1.00  0.00    -0.205 F 
BRANCH  17  24
HETATM   24  C2  UNL     1       5.165   1.198  -0.158  1.00  0.00     0.003 C 
HETATM   25  C1  UNL     1       4.742   2.345   0.233  1.00  0.00     0.012 C 
ENDBRANCH  17  24
ENDBRANCH  15  16
ENDBRANCH  12  15
ENDBRANCH   4   6
ENDBRANCH   1   4
BRANCH   1  26
HETATM   26  C16 UNL     1      -4.213   1.276  -1.059  1.00  0.00     0.049 C 
BRANCH  26  27
HETATM   27  C17 UNL     1      -4.749   0.610   0.150  1.00  0.00    -0.049 C 
HETATM   28  C18 UNL     1      -3.900   0.919   1.348  1.00  0.00     0.014 C 
HETATM   29  C19 UNL     1      -4.974  -0.875  -0.027  1.00  0.00     0.014 C 
HETATM   30  C20 UNL     1      -6.134   1.201   0.449  1.00  0.00     0.014 C 
ENDBRANCH  26  27
ENDBRANCH   1  26
TORSDOF 7
