REMARK  8 active torsions:
REMARK  status: ('A' for Active; 'I' for Inactive)
REMARK    1  A    between atoms: C3_3  and  S1_4 
REMARK    2  A    between atoms: S1_4  and  C4_5 
REMARK    3  A    between atoms: C4_5  and  C5_6 
REMARK    4  A    between atoms: C5_6  and  C6_7 
REMARK    5  A    between atoms: C6_7  and  C7_8 
REMARK    6  A    between atoms: C7_8  and  C8_9 
REMARK    7  A    between atoms: C12_17  and  C13_18 
REMARK    8  A    between atoms: C14_19  and  C15_20 
ROOT
HETATM    1  C1  UNL     1      -1.278  -2.286  -2.486  1.00  0.00     0.056 C 
HETATM    2  C2  UNL     1      -0.055  -1.744  -1.870  1.00  0.00     0.031 A 
HETATM    3  C3  UNL     1       0.031  -0.524  -1.267  1.00  0.00     0.025 A 
HETATM    4  C9  UNL     1       1.247  -0.128  -0.744  1.00  0.00     0.018 A 
HETATM    5  C10 UNL     1       1.415   1.090  -0.120  1.00  0.00     0.058 A 
HETATM    6  C11 UNL     1       2.623   1.491   0.403  1.00  0.00     0.127 A 
HETATM    7  F4  UNL     1       2.673   2.699   0.990  1.00  0.00    -0.205 F 
HETATM    8  C12 UNL     1       3.741   0.707   0.338  1.00  0.00     0.005 A 
HETATM    9  C16 UNL     1       3.586  -0.540  -0.296  1.00  0.00     0.053 A 
HETATM   10  C17 UNL     1       2.376  -0.915  -0.807  1.00  0.00     0.092 A 
HETATM   11  O3  UNL     1       2.233  -2.092  -1.405  1.00  0.00    -0.274 OA
HETATM   12  C18 UNL     1       1.122  -2.497  -1.903  1.00  0.00     0.295 A 
HETATM   13  O4  UNL     1       1.042  -3.626  -2.461  1.00  0.00    -0.259 OA
ENDROOT
BRANCH   3  14
HETATM   14  S1  UNL     1      -1.339   0.550  -1.110  1.00  0.00    -0.128 SA
BRANCH  14  15
HETATM   15  C4  UNL     1      -2.300   0.414   0.377  1.00  0.00     0.079 C 
BRANCH  15  16
HETATM   16  C5  UNL     1      -3.146  -0.779   0.553  1.00  0.00     0.011 C 
BRANCH  16  17
HETATM   17  C6  UNL     1      -4.254  -1.003  -0.398  1.00  0.00     0.010 C 
BRANCH  17  18
HETATM   18  C7  UNL     1      -5.309   0.050  -0.469  1.00  0.00     0.117 C 
BRANCH  18  19
HETATM   19  C8  UNL     1      -6.063   0.319   0.784  1.00  0.00     0.387 C 
HETATM   20  F1  UNL     1      -6.988   1.330   0.473  1.00  0.00    -0.171 F 
HETATM   21  F2  UNL     1      -6.784  -0.801   1.144  1.00  0.00    -0.171 F 
HETATM   22  F3  UNL     1      -5.352   0.741   1.851  1.00  0.00    -0.171 F 
ENDBRANCH  18  19
ENDBRANCH  17  18
ENDBRANCH  16  17
ENDBRANCH  15  16
ENDBRANCH  14  15
ENDBRANCH   3  14
BRANCH   8  23
HETATM   23  C13 UNL     1       5.052   1.046   0.858  1.00  0.00     0.021 C 
HETATM   24  C14 UNL     1       5.412   2.129   1.466  1.00  0.00     0.085 C 
BRANCH  24  25
HETATM   25  C15 UNL     1       6.807   2.279   1.920  1.00  0.00     0.198 C 
HETATM   26  O1  UNL     1       7.618   1.344   1.703  1.00  0.00    -0.645 OA
HETATM   27  O2  UNL     1       7.286   3.391   2.575  1.00  0.00    -0.645 OA
ENDBRANCH  24  25
ENDBRANCH   8  23
TORSDOF 8
