REMARK  7 active torsions:
REMARK  status: ('A' for Active; 'I' for Inactive)
REMARK    1  A    between atoms: C2_2  and  C3_3 
REMARK    2  A    between atoms: C3_3  and  N1_4 
REMARK    3  A    between atoms: C7_10  and  N2_11 
REMARK       I    between atoms: N2_11  and  C8_13 
REMARK    4  A    between atoms: C8_13  and  C9_15 
REMARK    5  A    between atoms: C9_15  and  N3_16 
REMARK    6  A    between atoms: N5_25  and  C16_26 
REMARK    7  A    between atoms: C16_26  and  C17_27 
ROOT
HETATM    1  N1  UNL     1      -4.351   1.196  -0.209  1.00  0.00    -0.265 N 
HETATM    2  C4  UNL     1      -3.053   1.504  -0.230  1.00  0.00     0.266 A 
HETATM    3  O1  UNL     1      -2.727   2.713  -0.172  1.00  0.00    -0.267 OA
HETATM    4  C5  UNL     1      -2.090   0.467  -0.315  1.00  0.00     0.091 A 
HETATM    5  C6  UNL     1      -0.733   0.578  -0.350  1.00  0.00     0.086 A 
HETATM    6 CL1  UNL     1       0.059   2.200  -0.286  1.00  0.00    -0.080 Cl
HETATM    7  C7  UNL     1       0.014  -0.549  -0.435  1.00  0.00     0.101 A 
HETATM    8  S1  UNL     1      -1.249  -1.778  -0.465  1.00  0.00    -0.051 SA
HETATM    9  C15 UNL     1      -2.614  -0.787  -0.369  1.00  0.00     0.100 A 
HETATM   10  N5  UNL     1      -3.962  -1.062  -0.345  1.00  0.00    -0.292 N 
HETATM   11  C19 UNL     1      -4.845  -0.050  -0.264  1.00  0.00     0.332 A 
HETATM   12  O3  UNL     1      -6.061  -0.263  -0.241  1.00  0.00    -0.246 OA
ENDROOT
BRANCH   7  13
HETATM   13  N2  UNL     1       1.398  -0.855  -0.492  1.00  0.00    -0.318 N 
HETATM   14  C8  UNL     1       2.546  -0.075  -0.474  1.00  0.00     0.251 C 
HETATM   15  O2  UNL     1       2.555   1.145  -0.393  1.00  0.00    -0.271 OA
ATOM     16  H2  UNL     1       1.589  -1.855  -0.560  1.00  0.00     0.169 HD
BRANCH  14  17
HETATM   17  C9  UNL     1       3.874  -0.825  -0.563  1.00  0.00     0.375 C 
BRANCH  17  18
HETATM   18  N3  UNL     1       4.969   0.074  -0.537  1.00  0.00     0.100 N 
HETATM   19  C10 UNL     1       5.101   0.694   0.725  1.00  0.00     0.303 C 
HETATM   20  C11 UNL     1       6.355   0.520   1.479  1.00  0.00     0.302 C 
HETATM   21  N4  UNL     1       7.183  -0.599   1.177  1.00  0.00     0.087 N 
HETATM   22  C12 UNL     1       8.599  -0.277   1.185  1.00  0.00     0.310 C 
HETATM   23  C13 UNL     1       6.798  -1.349   0.017  1.00  0.00     0.302 C 
HETATM   24  C14 UNL     1       6.203  -0.408  -1.010  1.00  0.00     0.303 C 
ENDBRANCH  17  18
ENDBRANCH  14  17
ENDBRANCH   7  13
BRANCH  10  25
HETATM   25  C16 UNL     1      -4.341  -2.440  -0.417  1.00  0.00     0.134 C 
BRANCH  25  26
HETATM   26  C17 UNL     1      -4.421  -3.100   0.921  1.00  0.00     0.016 C 
HETATM   27  C18 UNL     1      -5.411  -2.479   1.857  1.00  0.00     0.006 C 
ENDBRANCH  25  26
ENDBRANCH  10  25
BRANCH   1  28
HETATM   28  C3  UNL     1      -5.327   2.268  -0.123  1.00  0.00     0.137 C 
BRANCH  28  29
HETATM   29  C2  UNL     1      -5.741   2.757  -1.491  1.00  0.00     0.016 C 
HETATM   30  C1  UNL     1      -6.754   3.867  -1.350  1.00  0.00     0.006 C 
ENDBRANCH  28  29
ENDBRANCH   1  28
TORSDOF 7
