REMARK  6 active torsions:
REMARK  status: ('A' for Active; 'I' for Inactive)
REMARK    1  A    between atoms: C2_2  and  C3_3 
REMARK    2  A    between atoms: C3_3  and  N1_4 
REMARK    3  A    between atoms: C3_3  and  C5_16 
REMARK       I    between atoms: N1_4  and  C4_7 
REMARK       I    between atoms: C4_7  and  N2_8 
REMARK       I    between atoms: C4_7  and  N3_12 
REMARK    4  A    between atoms: C5_16  and  O1_17 
REMARK    5  A    between atoms: C5_16  and  O2_19 
REMARK    6  A    between atoms: O2_19  and  C6_20 
ROOT
HETATM    1  N1  UNL     1      -1.725   0.866  -0.020  1.00  0.00    -0.010 N 
ATOM      2  H11 UNL     1      -2.130   0.755  -0.950  1.00  0.00     0.282 HD
ATOM      3  H12 UNL     1      -1.602   1.879  -0.028  1.00  0.00     0.282 HD
HETATM    4  C4  UNL     1      -2.635   0.443   1.017  1.00  0.00     0.576 C 
HETATM    5  N2  UNL     1      -3.923   1.147   0.896  1.00  0.00    -0.026 N 
ATOM      6  H21 UNL     1      -4.566   0.848   1.629  1.00  0.00     0.278 HD
ATOM      7  H22 UNL     1      -4.329   1.035  -0.033  1.00  0.00     0.278 HD
ATOM      8  H23 UNL     1      -3.802   2.160   0.889  1.00  0.00     0.278 HD
HETATM    9  N3  UNL     1      -2.927  -0.948   1.049  1.00  0.00    -0.026 N 
ATOM     10  H31 UNL     1      -3.570  -1.247   1.782  1.00  0.00     0.278 HD
ATOM     11  H32 UNL     1      -2.061  -1.484   1.105  1.00  0.00     0.278 HD
ATOM     12  H33 UNL     1      -3.271  -1.253   0.138  1.00  0.00     0.278 HD
ENDROOT
BRANCH   1  13
HETATM   13  C3  UNL     1      -0.470   0.175   0.104  1.00  0.00     0.267 C 
BRANCH  13  14
HETATM   14  C2  UNL     1      -0.531  -1.272  -0.075  1.00  0.00     0.001 C 
HETATM   15  C1  UNL     1      -0.879  -1.843  -1.238  1.00  0.00     0.009 C 
ENDBRANCH  13  14
BRANCH  13  16
HETATM   16  C5  UNL     1       0.604   0.785  -0.781  1.00  0.00     0.291 C 
BRANCH  16  17
HETATM   17  O1  UNL     1       0.225   0.741  -2.118  1.00  0.00    -0.369 OA
ATOM     18  H1  UNL     1       0.896   1.122  -2.671  1.00  0.00     0.212 HD
ENDBRANCH  16  17
BRANCH  16  19
HETATM   19  O2  UNL     1       1.739  -0.019  -0.661  1.00  0.00    -0.354 OA
BRANCH  19  20
HETATM   20  C6  UNL     1       2.848   0.636  -0.200  1.00  0.00     0.124 A 
HETATM   21  C7  UNL     1       3.679  -0.144   0.834  1.00  0.00     0.034 A 
HETATM   22  C8  UNL     1       4.224   0.195  -0.522  1.00  0.00     0.034 A 
ENDBRANCH  19  20
ENDBRANCH  16  19
ENDBRANCH  13  16
ENDBRANCH   1  13
TORSDOF 6
