REMARK  4 active torsions:
REMARK  status: ('A' for Active; 'I' for Inactive)
REMARK    1  A    between atoms: N1_2  and  N2_5 
REMARK       I    between atoms: N2_5  and  C4_7 
REMARK       I    between atoms: C4_7  and  N5_17 
REMARK       I    between atoms: N3_8  and  C5_10 
REMARK       I    between atoms: C5_10  and  N4_12 
REMARK       I    between atoms: N5_17  and  C10_19 
REMARK       I    between atoms: C10_19  and  N6_21 
REMARK    2  A    between atoms: N6_21  and  C11_23 
REMARK    3  A    between atoms: C11_23  and  C12_24 
REMARK    4  A    between atoms: C12_24  and  N7_25 
ROOT
HETATM    1  N2  UNL     1      -0.044   2.340   0.863  1.00  0.00    -0.048 N 
ATOM      2  H2  UNL     1       0.878   2.762   0.755  1.00  0.00     0.213 HD
HETATM    3  C4  UNL     1      -0.545   1.513  -0.161  1.00  0.00     0.710 C 
HETATM    4  N3  UNL     1      -1.655   1.844  -0.733  1.00  0.00    -0.140 N 
ATOM      5  H3  UNL     1      -2.119   2.694  -0.413  1.00  0.00     0.189 HD
HETATM    6  C5  UNL     1      -2.270   1.111  -1.770  1.00  0.00     0.336 C 
HETATM    7  O1  UNL     1      -2.088   1.573  -2.950  1.00  0.00    -0.246 OA
HETATM    8  N4  UNL     1      -3.037  -0.054  -1.546  1.00  0.00    -0.334 N 
HETATM    9  C6  UNL     1      -3.324  -0.688  -0.280  1.00  0.00     0.127 C 
HETATM   10  C7  UNL     1      -4.388  -1.730  -0.560  1.00  0.00     0.022 C 
HETATM   11  C8  UNL     1      -4.950  -1.264  -1.886  1.00  0.00     0.022 C 
HETATM   12  C9  UNL     1      -3.681  -0.822  -2.597  1.00  0.00     0.127 C 
HETATM   13  N5  UNL     1       0.136   0.350  -0.567  1.00  0.00    -0.140 N 
ATOM     14  H5  UNL     1      -0.269  -0.212  -1.316  1.00  0.00     0.189 HD
HETATM   15  C10 UNL     1       1.358  -0.081   0.013  1.00  0.00     0.334 C 
HETATM   16  O2  UNL     1       1.859   0.595   0.931  1.00  0.00    -0.247 OA
HETATM   17  N6  UNL     1       1.996  -1.276  -0.459  1.00  0.00    -0.341 N 
ATOM     18  H6  UNL     1       1.582  -1.827  -1.211  1.00  0.00     0.164 HD
ENDROOT
BRANCH   1  19
HETATM   19  N1  UNL     1      -0.773   2.595   2.013  1.00  0.00     0.014 N 
HETATM   20  C1  UNL     1      -1.632   3.768   1.758  1.00  0.00     0.302 C 
HETATM   21  C2  UNL     1      -1.591   1.479   2.432  1.00  0.00     0.302 C 
HETATM   22  C3  UNL     1       0.127   2.907   3.112  1.00  0.00     0.302 C 
ENDBRANCH   1  19
BRANCH  17  23
HETATM   23  C11 UNL     1       3.240  -1.680   0.156  1.00  0.00     0.144 C 
BRANCH  23  24
HETATM   24  C12 UNL     1       3.750  -2.965  -0.490  1.00  0.00     0.141 C 
BRANCH  24  25
HETATM   25  N7  UNL     1       3.952  -2.698  -1.887  1.00  0.00    -0.365 N 
HETATM   26  C13 UNL     1       5.008  -2.123  -2.339  1.00  0.00     0.197 C 
HETATM   27  N8  UNL     1       5.174  -1.875  -3.723  1.00  0.00    -0.067 NA
HETATM   28  N9  UNL     1       6.034  -1.723  -1.453  1.00  0.00    -0.067 NA
ATOM     29  H7  UNL     1       3.227  -2.977  -2.548  1.00  0.00     0.161 HD
ENDBRANCH  24  25
ENDBRANCH  23  24
ENDBRANCH  17  23
TORSDOF 4
