REMARK  8 active torsions:
REMARK  status: ('A' for Active; 'I' for Inactive)
REMARK    1  A    between atoms: C2_2  and  C5_5 
REMARK    2  A    between atoms: C5_5  and  N1_6 
REMARK    3  A    between atoms: C5_5  and  C13_18 
REMARK       I    between atoms: N1_6  and  C6_8 
REMARK       I    between atoms: C6_8  and  N2_10 
REMARK    4  A    between atoms: N2_10  and  C7_12 
REMARK    5  A    between atoms: C13_18  and  C14_20 
REMARK    6  A    between atoms: C14_20  and  N3_21 
REMARK    7  A    between atoms: C17_24  and  N4_25 
REMARK    8  A    between atoms: C22_30  and  N5_31 
ROOT
HETATM    1  C13 UNL     1      -0.041  -0.737  -2.651  1.00  0.00     0.178 C 
HETATM    2  O2  UNL     1       0.589  -0.325  -3.650  1.00  0.00    -0.294 OA
ENDROOT
BRANCH   1   3
HETATM    3  C5  UNL     1       0.687  -1.077  -1.417  1.00  0.00     0.165 C 
BRANCH   3   4
HETATM    4  C2  UNL     1       1.142  -2.531  -1.587  1.00  0.00    -0.024 C 
HETATM    5  C1  UNL     1       1.715  -3.031  -0.278  1.00  0.00     0.017 C 
HETATM    6  C3  UNL     1       2.242  -2.615  -2.634  1.00  0.00     0.017 C 
HETATM    7  C4  UNL     1       0.043  -3.461  -1.989  1.00  0.00     0.017 C 
ENDBRANCH   3   4
BRANCH   3   8
HETATM    8  N1  UNL     1       1.701  -0.145  -1.165  1.00  0.00    -0.331 N 
HETATM    9  C6  UNL     1       2.676   0.159  -0.241  1.00  0.00     0.317 C 
HETATM   10  O1  UNL     1       2.991  -0.464   0.762  1.00  0.00    -0.247 OA
HETATM   11  N2  UNL     1       3.486   1.394  -0.413  1.00  0.00    -0.339 N 
ATOM     12  H2  UNL     1       3.268   2.031  -1.179  1.00  0.00     0.164 HD
ATOM     13  H1  UNL     1       1.726   0.540  -1.921  1.00  0.00     0.165 HD
BRANCH  11  14
HETATM   14  C7  UNL     1       4.561   1.708   0.469  1.00  0.00     0.086 C 
HETATM   15  C8  UNL     1       4.251   2.731   1.542  1.00  0.00     0.025 C 
HETATM   16  C9  UNL     1       5.417   2.638   2.518  1.00  0.00     0.002 C 
HETATM   17  C10 UNL     1       6.667   3.099   1.846  1.00  0.00     0.000 C 
HETATM   18  C11 UNL     1       6.947   2.267   0.635  1.00  0.00     0.002 C 
HETATM   19  C12 UNL     1       5.797   2.117  -0.309  1.00  0.00     0.025 C 
ENDBRANCH  11  14
ENDBRANCH   3   8
ENDBRANCH   1   3
BRANCH   1  20
HETATM   20  C14 UNL     1      -1.492  -0.842  -2.821  1.00  0.00     0.352 C 
BRANCH  20  21
HETATM   21  N3  UNL     1      -2.206  -0.797  -1.560  1.00  0.00     0.097 N 
HETATM   22  C15 UNL     1      -2.055   0.567  -1.070  1.00  0.00     0.275 C 
HETATM   23  C16 UNL     1      -2.536   0.603   0.368  1.00  0.00     0.066 C 
HETATM   24  C17 UNL     1      -4.007   0.204   0.311  1.00  0.00     0.223 C 
HETATM   25  C22 UNL     1      -4.170  -1.172  -0.251  1.00  0.00     0.242 C 
HETATM   26  C23 UNL     1      -3.605  -1.077  -1.687  1.00  0.00     0.307 C 
BRANCH  24  27
HETATM   27  N4  UNL     1      -4.719   0.510   1.500  1.00  0.00    -0.064 N 
HETATM   28  C18 UNL     1      -5.049   1.941   1.539  1.00  0.00     0.273 C 
HETATM   29  C19 UNL     1      -4.278   0.081   2.769  1.00  0.00     0.239 C 
HETATM   30  C20 UNL     1      -5.766   0.018   3.197  1.00  0.00     0.056 C 
HETATM   31  C21 UNL     1      -5.939  -0.250   1.715  1.00  0.00     0.239 C 
ENDBRANCH  24  27
BRANCH  25  32
HETATM   32  N5  UNL     1      -3.405  -2.184   0.397  1.00  0.00    -0.071 N 
ATOM     33  H53 UNL     1      -2.419  -1.924   0.411  1.00  0.00     0.274 HD
ATOM     34  H52 UNL     1      -3.603  -2.187   1.398  1.00  0.00     0.274 HD
ATOM     35  H51 UNL     1      -3.516  -3.123   0.014  1.00  0.00     0.274 HD
ENDBRANCH  25  32
ENDBRANCH  20  21
ENDBRANCH   1  20
TORSDOF 8
