REMARK  5 active torsions:
REMARK  status: ('A' for Active; 'I' for Inactive)
REMARK    1  A    between atoms: C2_2  and  C10_23 
REMARK    2  A    between atoms: N1_3  and  N2_5 
REMARK    3  A    between atoms: N2_5  and  N3_7 
REMARK       I    between atoms: C3_9  and  N5_11 
REMARK    4  A    between atoms: N5_11  and  N6_13 
REMARK    5  A    between atoms: N7_15  and  C4_17 
ROOT
HETATM    1  N3  UNL     1      -0.491   0.059  -0.233  1.00  0.00    -0.258 N 
ATOM      2  H3  UNL     1      -0.893  -0.755  -0.698  1.00  0.00     0.191 HD
HETATM    3  C3  UNL     1       0.707   0.410  -0.532  1.00  0.00     0.224 C 
HETATM    4  N4  UNL     1       1.278   1.526   0.096  1.00  0.00    -0.061 NA
HETATM    5  N5  UNL     1       1.401  -0.378  -1.509  1.00  0.00    -0.258 N 
ATOM      6  H5  UNL     1       1.733   0.074  -2.361  1.00  0.00     0.191 HD
ENDROOT
BRANCH   1   7
HETATM    7  N2  UNL     1      -1.255   0.738   0.691  1.00  0.00    -0.240 N 
ATOM      8  H2  UNL     1      -0.813   1.030   1.562  1.00  0.00     0.208 HD
BRANCH   7   9
HETATM    9  N1  UNL     1      -2.601   1.047   0.498  1.00  0.00    -0.294 N 
HETATM   10  C2  UNL     1      -3.458   0.114   0.601  1.00  0.00     0.005 C 
HETATM   11  C1  UNL     1      -3.046  -1.260   0.918  1.00  0.00     0.065 C 
ATOM     12  H1  UNL     1      -2.891   2.000   0.279  1.00  0.00     0.187 HD
BRANCH  10  13
HETATM   13  C10 UNL     1      -4.884   0.430   0.399  1.00  0.00     0.032 A 
HETATM   14  C11 UNL     1      -5.682  -0.217  -0.664  1.00  0.00     0.011 A 
HETATM   15  C12 UNL     1      -5.277   1.266  -0.775  1.00  0.00     0.011 A 
ENDBRANCH  10  13
ENDBRANCH   7   9
ENDBRANCH   1   7
BRANCH   5  16
HETATM   16  N6  UNL     1       1.636  -1.739  -1.333  1.00  0.00    -0.240 N 
HETATM   17  N7  UNL     1       2.668  -2.196  -0.727  1.00  0.00    -0.286 N 
ATOM     18  H7  UNL     1       2.798  -3.202  -0.622  1.00  0.00     0.188 HD
ATOM     19  H6  UNL     1       0.955  -2.402  -1.703  1.00  0.00     0.208 HD
BRANCH  17  20
HETATM   20  C4  UNL     1       3.629  -1.292  -0.203  1.00  0.00     0.049 A 
HETATM   21  C5  UNL     1       4.385  -0.531  -1.082  1.00  0.00     0.031 A 
HETATM   22  C6  UNL     1       5.331   0.361  -0.630  1.00  0.00     0.002 A 
HETATM   23  C7  UNL     1       5.501   0.472   0.725  1.00  0.00     0.000 A 
HETATM   24  C8  UNL     1       4.770  -0.265   1.624  1.00  0.00     0.002 A 
HETATM   25  C9  UNL     1       3.819  -1.162   1.153  1.00  0.00     0.031 A 
ENDBRANCH  17  20
ENDBRANCH   5  16
TORSDOF 5
