REMARK  5 active torsions:
REMARK  status: ('A' for Active; 'I' for Inactive)
REMARK    1  A    between atoms: C4_4  and  O1_5 
REMARK    2  A    between atoms: O1_5  and  C5_6 
REMARK    3  A    between atoms: C7_11  and  N2_12 
REMARK    4  A    between atoms: N2_12  and  C8_15 
REMARK    5  A    between atoms: C8_15  and  C9_16 
ROOT
HETATM    1  C5  UNL     1      -1.162  -0.010   0.575  1.00  0.00     0.158 C 
HETATM    2  C6  UNL     1      -0.220  -1.075  -0.012  1.00  0.00     0.267 C 
HETATM    3  N1  UNL     1       0.455  -0.268  -1.020  1.00  0.00    -0.044 N 
ATOM      4  H11 UNL     1      -0.109  -0.004  -1.828  1.00  0.00     0.279 HD
ATOM      5  H12 UNL     1       1.167  -0.749  -1.570  1.00  0.00     0.279 HD
HETATM    6  C7  UNL     1       0.927   0.828  -0.194  1.00  0.00     0.385 C 
HETATM    7  C13 UNL     1      -0.174   1.117   0.808  1.00  0.00     0.097 C 
ENDROOT
BRANCH   6   8
HETATM    8  N2  UNL     1       2.113   0.356   0.506  1.00  0.00    -0.040 N 
ATOM      9  H22 UNL     1       2.427   0.992   1.239  1.00  0.00     0.280 HD
ATOM     10  H21 UNL     1       1.933  -0.451   1.104  1.00  0.00     0.280 HD
BRANCH   8  11
HETATM   11  C8  UNL     1       3.135   0.102  -0.517  1.00  0.00     0.299 C 
BRANCH  11  12
HETATM   12  C9  UNL     1       4.367  -0.384   0.164  1.00  0.00     0.078 A 
HETATM   13  C10 UNL     1       4.730  -1.670   0.454  1.00  0.00     0.036 A 
HETATM   14  C11 UNL     1       5.961  -1.619   1.091  1.00  0.00     0.027 A 
HETATM   15  C12 UNL     1       6.286  -0.296   1.156  1.00  0.00     0.142 A 
HETATM   16  O2  UNL     1       5.322   0.394   0.600  1.00  0.00    -0.325 OA
ENDBRANCH  11  12
ENDBRANCH   8  11
ENDBRANCH   6   8
BRANCH   1  17
HETATM   17  O1  UNL     1      -1.994   0.375  -0.474  1.00  0.00    -0.344 OA
BRANCH  17  18
HETATM   18  C4  UNL     1      -3.377   0.364  -0.481  1.00  0.00     0.069 A 
HETATM   19  C3  UNL     1      -3.999   0.790  -1.637  1.00  0.00     0.037 A 
HETATM   20  C2  UNL     1      -5.378   0.809  -1.725  1.00  0.00     0.003 A 
HETATM   21  C1  UNL     1      -6.130   0.396  -0.642  1.00  0.00     0.000 A 
HETATM   22  C15 UNL     1      -5.504  -0.035   0.526  1.00  0.00     0.003 A 
HETATM   23  C14 UNL     1      -4.129  -0.043   0.582  1.00  0.00     0.037 A 
ENDBRANCH  17  18
ENDBRANCH   1  17
TORSDOF 5
