REMARK  17 active torsions:
REMARK  status: ('A' for Active; 'I' for Inactive)
REMARK    1  A    between atoms: N1_2  and  C3_4 
REMARK    2  A    between atoms: C3_4  and  O1_5 
REMARK    3  A    between atoms: N2_7  and  C4_9 
REMARK    4  A    between atoms: C4_9  and  C5_10 
REMARK    5  A    between atoms: C4_9  and  N5_36 
REMARK    6  A    between atoms: C6_11  and  C7_12 
REMARK    7  A    between atoms: C8_13  and  C9_14 
REMARK    8  A    between atoms: C9_14  and  N3_15 
REMARK    9  A    between atoms: N3_15  and  C12_18 
REMARK   10  A    between atoms: C12_18  and  C13_19 
REMARK   11  A    between atoms: C14_20  and  C15_21 
REMARK   12  A    between atoms: C19_25  and  S1_26 
REMARK   13  A    between atoms: S1_26  and  N4_29 
REMARK   14  A    between atoms: N4_29  and  C20_31 
REMARK   15  A    between atoms: C20_31  and  C21_32 
REMARK   16  A    between atoms: C21_32  and  O4_33 
REMARK   17  A    between atoms: N5_36  and  N6_37 
ROOT
HETATM    1  N3  UNL     1       0.451   1.128   0.476  1.00  0.00    -0.055 N 
HETATM    2  C10 UNL     1       0.925   0.624   1.734  1.00  0.00     0.274 C 
HETATM    3  C11 UNL     1       0.224   0.006  -0.410  1.00  0.00     0.274 C 
ENDROOT
BRANCH   1   4
HETATM    4  C9  UNL     1       1.477   1.993  -0.122  1.00  0.00     0.332 C 
BRANCH   4   5
HETATM    5  C8  UNL     1       2.821   1.514   0.251  1.00  0.00    -0.065 C 
HETATM    6  C7  UNL     1       3.918   1.122   0.572  1.00  0.00    -0.013 C 
BRANCH   6   7
HETATM    7  C6  UNL     1       5.210   0.658   0.930  1.00  0.00    -0.005 C 
HETATM    8  C5  UNL     1       6.311   0.266   1.229  1.00  0.00     0.001 C 
BRANCH   8   9
HETATM    9  C4  UNL     1       7.630  -0.184   1.573  1.00  0.00     0.261 C 
BRANCH   9  10
HETATM   10  N2  UNL     1       8.457  -0.675   0.532  1.00  0.00    -0.288 N 
HETATM   11  C3  UNL     1       8.606   0.031  -0.526  1.00  0.00     0.221 C 
ATOM     12  H2  UNL     1       8.926  -1.576   0.624  1.00  0.00     0.172 HD
BRANCH  11  13
HETATM   13  N1  UNL     1       9.431  -0.439  -1.587  1.00  0.00    -0.356 N 
HETATM   14  C1  UNL     1       9.429  -1.844  -1.972  1.00  0.00     0.152 C 
HETATM   15  C2  UNL     1      10.272   0.538  -2.267  1.00  0.00     0.152 C 
ENDBRANCH  11  13
BRANCH  11  16
HETATM   16  O1  UNL     1       7.964   1.249  -0.634  1.00  0.00    -0.332 OA
ATOM     17  H1  UNL     1       7.414   1.563   0.074  1.00  0.00     0.220 HD
ENDBRANCH  11  16
ENDBRANCH   9  10
BRANCH   9  18
HETATM   18  N5  UNL     1       8.048  -0.149   2.749  1.00  0.00    -0.304 NA
BRANCH  18  19
HETATM   19  N6  UNL     1       8.560   0.095   3.855  1.00  0.00    -0.278 N 
ATOM     20  H62 UNL     1       8.928   0.971   3.485  1.00  0.00     0.191 HD
ATOM     21  H61 UNL     1       8.901   0.124   4.816  1.00  0.00     0.191 HD
ENDBRANCH  18  19
ENDBRANCH   9  18
ENDBRANCH   8   9
ENDBRANCH   6   7
ENDBRANCH   4   5
ENDBRANCH   1   4
BRANCH   1  22
HETATM   22  C12 UNL     1      -0.739   1.938   0.606  1.00  0.00     0.331 C 
BRANCH  22  23
HETATM   23  C13 UNL     1      -1.896   1.073   0.760  1.00  0.00    -0.073 C 
HETATM   24  C14 UNL     1      -2.849   0.375   0.869  1.00  0.00    -0.065 C 
BRANCH  24  25
HETATM   25  C15 UNL     1      -4.028  -0.470   0.983  1.00  0.00     0.019 A 
HETATM   26  C16 UNL     1      -3.912  -1.846   0.974  1.00  0.00     0.021 A 
HETATM   27  C17 UNL     1      -5.062  -2.621   1.084  1.00  0.00     0.003 A 
HETATM   28  C18 UNL     1      -6.312  -2.055   1.202  1.00  0.00     0.025 A 
HETATM   29  C19 UNL     1      -6.438  -0.678   1.211  1.00  0.00     0.080 A 
HETATM   30  C22 UNL     1      -5.287   0.075   1.101  1.00  0.00     0.045 A 
BRANCH  29  31
HETATM   31  S1  UNL     1      -7.992   0.120   1.357  1.00  0.00     0.258 S 
HETATM   32  O2  UNL     1      -7.866   1.436   2.062  1.00  0.00    -0.201 OA
HETATM   33  O3  UNL     1      -8.881  -0.826   2.144  1.00  0.00    -0.201 OA
BRANCH  31  34
HETATM   34  N4  UNL     1      -8.608   0.354  -0.236  1.00  0.00    -0.313 N 
ATOM     35  H4  UNL     1      -8.812   1.256  -0.666  1.00  0.00     0.172 HD
BRANCH  34  36
HETATM   36  C20 UNL     1      -8.790  -0.944  -0.869  1.00  0.00     0.158 C 
BRANCH  36  37
HETATM   37  C21 UNL     1      -9.336  -0.685  -2.274  1.00  0.00     0.184 C 
BRANCH  37  38
HETATM   38  O4  UNL     1      -9.516  -1.918  -2.894  1.00  0.00    -0.399 OA
ATOM     39  H4  UNL     1      -9.855  -1.757  -3.767  1.00  0.00     0.209 HD
ENDBRANCH  37  38
ENDBRANCH  36  37
ENDBRANCH  34  36
ENDBRANCH  31  34
ENDBRANCH  29  31
ENDBRANCH  24  25
ENDBRANCH  22  23
ENDBRANCH   1  22
TORSDOF 17
