REMARK  5 active torsions:
REMARK  status: ('A' for Active; 'I' for Inactive)
REMARK    1  A    between atoms: C2_2  and  C4_4 
REMARK    2  A    between atoms: C5_5  and  N1_6 
REMARK    3  A    between atoms: C11_17  and  N4_18 
REMARK    4  A    between atoms: N4_18  and  C12_20 
REMARK    5  A    between atoms: C18_26  and  C19_27 
ROOT
HETATM    1  C4  UNL     1       1.346  -1.895   0.119  1.00  0.00     0.015 A 
HETATM    2  C5  UNL     1       0.829  -0.618  -0.044  1.00  0.00     0.113 A 
HETATM    3  N3  UNL     1      -0.488  -0.380  -0.009  1.00  0.00    -0.328 N 
ATOM      4  H3  UNL     1      -0.801   0.583  -0.136  1.00  0.00     0.169 HD
HETATM    5  C11 UNL     1      -1.423  -1.320   0.181  1.00  0.00     0.122 A 
HETATM    6  C18 UNL     1      -0.998  -2.605   0.350  1.00  0.00     0.109 A 
HETATM    7  C20 UNL     1       0.405  -2.875   0.316  1.00  0.00     0.077 A 
HETATM    8  N5  UNL     1       0.706  -4.264   0.527  1.00  0.00    -0.100 NA
ENDROOT
BRANCH   2   9
HETATM    9  N1  UNL     1       1.657   0.477  -0.285  1.00  0.00    -0.365 N 
HETATM   10  C6  UNL     1       2.018   0.685  -1.648  1.00  0.00     0.126 C 
HETATM   11  C7  UNL     1       2.712   2.057  -1.781  1.00  0.00     0.047 C 
HETATM   12  C8  UNL     1       1.763   3.149  -1.358  1.00  0.00     0.234 C 
HETATM   13  N2  UNL     1       2.045   3.494   0.003  1.00  0.00    -0.074 N 
HETATM   14  C9  UNL     1       1.343   2.611   0.908  1.00  0.00     0.252 C 
ATOM     15  H22 UNL     1       3.048   3.508   0.190  1.00  0.00     0.277 HD
ATOM     16  H21 UNL     1       1.840   4.474   0.195  1.00  0.00     0.277 HD
HETATM   17  C10 UNL     1       2.014   1.261   0.864  1.00  0.00     0.152 C 
ENDBRANCH   2   9
BRANCH   1  18
HETATM   18  C2  UNL     1       2.742  -2.198   0.154  1.00  0.00     0.016 C 
HETATM   19  C1  UNL     1       3.095  -3.636  -0.045  1.00  0.00     0.015 C 
HETATM   20  C3  UNL     1       3.570  -1.685   1.279  1.00  0.00     0.015 C 
ENDBRANCH   1  18
BRANCH   5  21
HETATM   21  N4  UNL     1      -2.774  -0.948   0.167  1.00  0.00    -0.371 N 
ATOM     22  H4  UNL     1      -3.474  -1.683   0.270  1.00  0.00     0.161 HD
BRANCH  21  23
HETATM   23  C12 UNL     1      -3.239   0.421   0.014  1.00  0.00     0.083 C 
HETATM   24  C13 UNL     1      -2.866   1.215   1.234  1.00  0.00     0.025 C 
HETATM   25  C14 UNL     1      -3.161   2.680   0.928  1.00  0.00     0.002 C 
HETATM   26  C15 UNL     1      -4.171   2.812  -0.188  1.00  0.00     0.000 C 
HETATM   27  C16 UNL     1      -3.710   2.254  -1.499  1.00  0.00     0.002 C 
HETATM   28  C17 UNL     1      -2.700   1.135  -1.177  1.00  0.00     0.025 C 
ENDBRANCH  21  23
ENDBRANCH   5  21
BRANCH   6  29
HETATM   29  C19 UNL     1      -1.901  -3.720   0.584  1.00  0.00     0.215 C 
HETATM   30  O1  UNL     1      -3.128  -3.625   0.652  1.00  0.00    -0.644 OA
HETATM   31  O2  UNL     1      -1.406  -5.020   0.752  1.00  0.00    -0.644 OA
ENDBRANCH   6  29
TORSDOF 5
