REMARK  4 active torsions:
REMARK  status: ('A' for Active; 'I' for Inactive)
REMARK    1  A    between atoms: C4_5  and  C5_6 
REMARK    2  A    between atoms: C5_6  and  O2_7 
REMARK    3  A    between atoms: C6_10  and  N1_11 
REMARK    4  A    between atoms: C10_17  and  O4_18 
ROOT
HETATM    1  C1  UNL     1      -2.909  -3.298  -0.489  1.00  0.00     0.015 C 
HETATM    2  C2  UNL     1      -2.283  -2.330  -0.145  1.00  0.00    -0.082 C 
HETATM    3  C3  UNL     1      -1.542  -1.155   0.264  1.00  0.00     0.235 C 
HETATM    4  O1  UNL     1      -2.035   0.016  -0.300  1.00  0.00    -0.339 OA
HETATM    5  C4  UNL     1      -1.367   1.073   0.284  1.00  0.00     0.287 C 
HETATM    6  O3  UNL     1      -0.060   1.055  -0.135  1.00  0.00    -0.332 OA
HETATM    7  C6  UNL     1       0.597  -0.047   0.459  1.00  0.00     0.263 C 
HETATM    8  C10 UNL     1      -0.053  -1.278  -0.093  1.00  0.00     0.208 C 
ENDROOT
BRANCH   8   9
HETATM    9  O4  UNL     1       0.380  -2.445   0.551  1.00  0.00    -0.388 OA
ATOM     10  H4  UNL     1       1.301  -2.521   0.330  1.00  0.00     0.210 HD
ENDBRANCH   8   9
BRANCH   5  11
HETATM   11  C5  UNL     1      -2.031   2.403   0.004  1.00  0.00     0.224 C 
BRANCH  11  12
HETATM   12  O2  UNL     1      -2.036   2.570  -1.400  1.00  0.00    -0.396 OA
ATOM     13  H2  UNL     1      -2.453   3.405  -1.576  1.00  0.00     0.209 HD
ENDBRANCH  11  12
ENDBRANCH   5  11
BRANCH   7  14
HETATM   14  N1  UNL     1       1.981   0.088   0.168  1.00  0.00    -0.322 N 
HETATM   15  C7  UNL     1       2.645   1.255   0.137  1.00  0.00     0.111 A 
HETATM   16  C8  UNL     1       3.946   0.993  -0.173  1.00  0.00     0.106 A 
HETATM   17  N2  UNL     1       4.083  -0.337  -0.334  1.00  0.00    -0.361 N 
HETATM   18  C9  UNL     1       2.858  -0.865  -0.117  1.00  0.00     0.184 A 
ATOM     19  H2  UNL     1       4.937  -0.842  -0.571  1.00  0.00     0.166 HD
ENDBRANCH   7  14
TORSDOF 4
