REMARK  6 active torsions:
REMARK  status: ('A' for Active; 'I' for Inactive)
REMARK    1  A    between atoms: C4_5  and  N2_6 
REMARK    2  A    between atoms: N2_6  and  N3_8 
REMARK    3  A    between atoms: N3_8  and  N4_9 
REMARK    4  A    between atoms: C6_13  and  O1_14 
REMARK    5  A    between atoms: C7_16  and  C8_17 
REMARK    6  A    between atoms: C8_17  and  O2_18 
ROOT
HETATM    1  N1  UNL     1       0.199   3.955   1.650  1.00  0.00    -0.195 NA
HETATM    2  C1  UNL     1       0.184   2.901   1.174  1.00  0.00     0.091 C 
HETATM    3  C2  UNL     1       0.141   1.549   0.561  1.00  0.00     0.230 C 
HETATM    4  C3  UNL     1       1.486   1.385  -0.135  1.00  0.00     0.074 C 
HETATM    5  C4  UNL     1       1.627   0.080  -0.836  1.00  0.00     0.120 C 
HETATM    6  C5  UNL     1       0.584  -0.937  -0.446  1.00  0.00     0.062 C 
HETATM    7  C6  UNL     1      -0.738  -0.693  -1.108  1.00  0.00     0.151 C 
HETATM    8  C7  UNL     1      -1.579   0.340  -0.437  1.00  0.00     0.175 C 
HETATM    9  O3  UNL     1      -0.921   1.527  -0.285  1.00  0.00    -0.362 OA
ENDROOT
BRANCH   5  10
HETATM   10  N2  UNL     1       2.925  -0.490  -0.526  1.00  0.00    -0.248 N 
ATOM     11  H2  UNL     1       3.751  -0.209  -1.055  1.00  0.00     0.197 HD
BRANCH  10  12
HETATM   12  N3  UNL     1       3.019  -1.320   0.386  1.00  0.00    -0.248 NA
BRANCH  12  13
HETATM   13  N4  UNL     1       3.254  -2.377   1.008  1.00  0.00    -0.261 N 
ATOM     14  H42 UNL     1       3.606  -2.892   0.201  1.00  0.00     0.193 HD
ATOM     15  H41 UNL     1       3.332  -3.062   1.760  1.00  0.00     0.193 HD
ENDBRANCH  12  13
ENDBRANCH  10  12
ENDBRANCH   5  10
BRANCH   8  16
HETATM   16  C8  UNL     1      -2.228  -0.166   0.833  1.00  0.00     0.198 C 
BRANCH  16  17
HETATM   17  O2  UNL     1      -2.875  -1.377   0.590  1.00  0.00    -0.398 OA
ATOM     18  H2  UNL     1      -3.282  -1.695   1.387  1.00  0.00     0.209 HD
ENDBRANCH  16  17
ENDBRANCH   8  16
BRANCH   7  19
HETATM   19  O1  UNL     1      -1.418  -1.882  -1.216  1.00  0.00    -0.393 OA
ATOM     20  H1  UNL     1      -2.256  -1.727  -1.636  1.00  0.00     0.210 HD
ENDBRANCH   7  19
TORSDOF 6
