REMARK  10 active torsions:
REMARK  status: ('A' for Active; 'I' for Inactive)
REMARK    1  A    between atoms: N1_2  and  O1_3 
REMARK    2  A    between atoms: N1_2  and  C2_5 
REMARK    3  A    between atoms: C2_5  and  C3_6 
REMARK    4  A    between atoms: C3_6  and  C4_7 
REMARK    5  A    between atoms: C7_10  and  N2_11 
REMARK    6  A    between atoms: C9_16  and  N4_17 
REMARK    7  A    between atoms: N4_17  and  C10_19 
REMARK    8  A    between atoms: C13_22  and  N5_23 
REMARK    9  A    between atoms: N5_23  and  C14_25 
REMARK   10  A    between atoms: C14_25  and  C15_26 
ROOT
HETATM    1  N2  UNL     1      -0.054  -0.135  -0.226  1.00  0.00    -0.239 N 
HETATM    2  C8  UNL     1      -0.061   1.036   0.427  1.00  0.00     0.335 A 
HETATM    3  O2  UNL     1       0.971   1.478   1.037  1.00  0.00    -0.246 OA
HETATM    4  N3  UNL     1      -1.190   1.768   0.442  1.00  0.00    -0.292 N 
ATOM      5  H3  UNL     1      -1.207   2.660   0.936  1.00  0.00     0.172 HD
HETATM    6  C9  UNL     1      -2.313   1.328  -0.197  1.00  0.00     0.138 A 
HETATM    7  C13 UNL     1      -2.297   0.124  -0.866  1.00  0.00     0.142 A 
HETATM    8  C17 UNL     1      -1.145  -0.611  -0.875  1.00  0.00     0.285 A 
HETATM    9  O3  UNL     1      -1.123  -1.709  -1.484  1.00  0.00    -0.265 OA
ENDROOT
BRANCH   1  10
HETATM   10  C7  UNL     1       1.109  -0.933  -0.271  1.00  0.00     0.108 C 
HETATM   11  C6  UNL     1       2.248  -0.388  -0.616  1.00  0.00    -0.059 A 
HETATM   12  C4  UNL     1       3.751  -0.640  -0.852  1.00  0.00     0.021 A 
HETATM   13  C5  UNL     1       3.207   0.689  -1.040  1.00  0.00     0.045 A 
BRANCH  12  14
HETATM   14  C3  UNL     1       4.520  -1.118   0.330  1.00  0.00     0.026 C 
BRANCH  14  15
HETATM   15  C2  UNL     1       5.788  -0.370   0.600  1.00  0.00     0.120 C 
BRANCH  15  16
HETATM   16  N1  UNL     1       6.720  -0.433  -0.498  1.00  0.00    -0.204 NA
HETATM   17  C1  UNL     1       7.263  -1.744  -0.700  1.00  0.00     0.143 C 
BRANCH  16  18
HETATM   18  O1  UNL     1       7.682   0.490  -0.368  1.00  0.00    -0.314 OA
ATOM     19  H1  UNL     1       7.322   1.359  -0.234  1.00  0.00     0.237 HD
ENDBRANCH  16  18
ENDBRANCH  15  16
ENDBRANCH  14  15
ENDBRANCH  12  14
ENDBRANCH   1  10
BRANCH   7  20
HETATM   20  N5  UNL     1      -3.433  -0.377  -1.550  1.00  0.00    -0.380 N 
ATOM     21  H5  UNL     1      -3.530  -0.175  -2.545  1.00  0.00     0.160 HD
BRANCH  20  22
HETATM   22  C14 UNL     1      -4.452  -1.155  -0.907  1.00  0.00     0.154 C 
BRANCH  22  23
HETATM   23  C15 UNL     1      -3.969  -2.377  -0.197  1.00  0.00     0.229 A 
HETATM   24  C16 UNL     1      -5.089  -3.175   0.464  1.00  0.00     0.267 A 
HETATM   25  N6  UNL     1      -4.249  -3.700  -0.651  1.00  0.00    -0.066 N 
ATOM     26  H62 UNL     1      -4.468  -4.094  -1.566  1.00  0.00     0.277 HD
ATOM     27  H61 UNL     1      -3.677  -4.537  -0.761  1.00  0.00     0.277 HD
ENDBRANCH  22  23
ENDBRANCH  20  22
ENDBRANCH   7  20
BRANCH   6  28
HETATM   28  N4  UNL     1      -3.485   2.089  -0.181  1.00  0.00    -0.370 N 
ATOM     29  H4  UNL     1      -4.320   1.750  -0.659  1.00  0.00     0.161 HD
BRANCH  28  30
HETATM   30  C10 UNL     1      -3.514   3.359   0.515  1.00  0.00     0.083 A 
HETATM   31  C11 UNL     1      -4.818   4.097   0.502  1.00  0.00     0.027 A 
HETATM   32  C12 UNL     1      -4.382   3.412   1.766  1.00  0.00     0.027 A 
ENDBRANCH  28  30
ENDBRANCH   6  28
TORSDOF 10
