REMARK  17 active torsions:
REMARK  status: ('A' for Active; 'I' for Inactive)
REMARK    1  A    between atoms: C2_2  and  S1_3 
REMARK    2  A    between atoms: S1_3  and  C3_4 
REMARK    3  A    between atoms: C3_4  and  C4_5 
REMARK    4  A    between atoms: C4_5  and  C5_6 
REMARK    5  A    between atoms: C5_6  and  C6_7 
REMARK    6  A    between atoms: C6_7  and  C7_8 
REMARK    7  A    between atoms: C6_7  and  C9_10 
REMARK    8  A    between atoms: C14_15  and  N1_16 
REMARK    9  A    between atoms: N1_16  and  C15_19 
REMARK   10  A    between atoms: C15_19  and  O1_20 
REMARK   11  A    between atoms: C15_19  and  C16_22 
REMARK   12  A    between atoms: C16_22  and  O2_23 
REMARK   13  A    between atoms: O2_23  and  C17_24 
REMARK   14  A    between atoms: C17_24  and  C18_26 
REMARK   15  A    between atoms: C18_26  and  N2_27 
REMARK   16  A    between atoms: C18_26  and  C19_31 
REMARK   17  A    between atoms: C19_31  and  O4_32 
ROOT
HETATM    1  N1  UNL     1       1.658  -1.080  -0.592  1.00  0.00    -0.043 N 
ATOM      2  H11 UNL     1       1.862  -1.598  -1.447  1.00  0.00     0.280 HD
ATOM      3  H12 UNL     1       1.579  -1.867   0.052  1.00  0.00     0.280 HD
ENDROOT
BRANCH   1   4
HETATM    4  C14 UNL     1       0.423  -0.357  -0.696  1.00  0.00     0.189 C 
HETATM    5  C13 UNL     1      -0.488  -1.039  -1.650  1.00  0.00     0.034 C 
HETATM    6  C12 UNL     1      -1.657  -1.574  -0.839  1.00  0.00     0.012 C 
HETATM    7  C4  UNL     1      -1.693  -0.757   0.437  1.00  0.00    -0.030 C 
HETATM    8  C20 UNL     1      -0.318  -0.205   0.616  1.00  0.00     0.043 C 
BRANCH   7   9
HETATM    9  C3  UNL     1      -1.856  -1.745   1.619  1.00  0.00     0.083 C 
BRANCH   9  10
HETATM   10  S1  UNL     1      -3.342  -2.654   1.667  1.00  0.00    -0.169 SA
BRANCH  10  11
HETATM   11  C2  UNL     1      -3.537  -3.875   0.394  1.00  0.00     0.069 C 
HETATM   12  C1  UNL     1      -4.856  -4.625   0.714  1.00  0.00     0.016 C 
ENDBRANCH  10  11
ENDBRANCH   9  10
ENDBRANCH   7   9
BRANCH   7  13
HETATM   13  C5  UNL     1      -2.841   0.169   0.537  1.00  0.00     0.015 C 
BRANCH  13  14
HETATM   14  C6  UNL     1      -3.043   1.264  -0.401  1.00  0.00    -0.011 C 
BRANCH  14  15
HETATM   15  C7  UNL     1      -2.117   2.392  -0.523  1.00  0.00     0.000 C 
HETATM   16  C8  UNL     1      -1.956   3.235   0.725  1.00  0.00     0.005 C 
ENDBRANCH  14  15
BRANCH  14  17
HETATM   17  C9  UNL     1      -4.503   1.757  -0.350  1.00  0.00    -0.019 C 
HETATM   18  C10 UNL     1      -4.750   2.874  -1.311  1.00  0.00     0.010 C 
HETATM   19  C11 UNL     1      -4.949   2.120   1.028  1.00  0.00     0.010 C 
ENDBRANCH  14  17
ENDBRANCH  13  14
ENDBRANCH   7  13
ENDBRANCH   1   4
BRANCH   1  20
HETATM   20  C15 UNL     1       2.765  -0.191  -0.223  1.00  0.00     0.343 C 
BRANCH  20  21
HETATM   21  O1  UNL     1       2.987   0.745  -1.192  1.00  0.00    -0.368 OA
ATOM     22  H1  UNL     1       3.704   1.321  -0.953  1.00  0.00     0.212 HD
ENDBRANCH  20  21
BRANCH  20  23
HETATM   23  C16 UNL     1       3.956  -1.074  -0.003  1.00  0.00     0.239 C 
BRANCH  23  24
HETATM   24  O2  UNL     1       5.104  -0.460   0.397  1.00  0.00    -0.315 OA
BRANCH  24  25
HETATM   25  C17 UNL     1       5.910   0.409  -0.228  1.00  0.00     0.291 C 
HETATM   26  O3  UNL     1       5.680   0.786  -1.389  1.00  0.00    -0.263 OA
BRANCH  25  27
HETATM   27  C18 UNL     1       7.136   0.970   0.457  1.00  0.00     0.305 C 
BRANCH  27  28
HETATM   28  N2  UNL     1       7.184   0.442   1.793  1.00  0.00    -0.064 N 
ATOM     29  H23 UNL     1       6.326   0.617   2.316  1.00  0.00     0.275 HD
ATOM     30  H22 UNL     1       7.153  -0.577   1.815  1.00  0.00     0.275 HD
ATOM     31  H21 UNL     1       8.011   0.820   2.255  1.00  0.00     0.275 HD
ENDBRANCH  27  28
BRANCH  27  32
HETATM   32  C19 UNL     1       8.338   0.543  -0.342  1.00  0.00     0.207 C 
BRANCH  32  33
HETATM   33  O4  UNL     1       9.505   1.008   0.272  1.00  0.00    -0.398 OA
ATOM     34  H4  UNL     1      10.264   0.738  -0.232  1.00  0.00     0.209 HD
ENDBRANCH  32  33
ENDBRANCH  27  32
ENDBRANCH  25  27
ENDBRANCH  24  25
ENDBRANCH  23  24
ENDBRANCH  20  23
ENDBRANCH   1  20
TORSDOF 17
