REMARK  6 active torsions:
REMARK  status: ('A' for Active; 'I' for Inactive)
REMARK       I    between atoms: N1_2  and  C2_4 
REMARK    1  A    between atoms: C2_4  and  C3_6 
REMARK    2  A    between atoms: C6_11  and  C7_12 
REMARK    3  A    between atoms: C7_12  and  N3_13 
REMARK    4  A    between atoms: C7_12  and  C8_17 
REMARK    5  A    between atoms: C9_20  and  C10_21 
REMARK    6  A    between atoms: C12_32  and  N10_33 
ROOT
HETATM    1  C8  UNL     1      -1.628   0.802  -0.666  1.00  0.00     0.085 A 
HETATM    2  N4  UNL     1      -2.403  -0.260  -0.323  1.00  0.00    -0.349 N 
ATOM      3  H4  UNL     1      -1.964  -1.180  -0.342  1.00  0.00     0.166 HD
HETATM    4  C9  UNL     1      -3.675  -0.208   0.033  1.00  0.00     0.121 A 
HETATM    5  C11 UNL     1      -4.270   1.044   0.066  1.00  0.00     0.148 A 
HETATM    6  N8  UNL     1      -5.623   1.126   0.457  1.00  0.00    -0.080 NA
HETATM    7  N9  UNL     1      -3.558   2.128  -0.261  1.00  0.00    -0.328 N 
ATOM      8  H9  UNL     1      -4.001   3.046  -0.236  1.00  0.00     0.168 HD
HETATM    9  C12 UNL     1      -2.237   2.023  -0.631  1.00  0.00     0.125 A 
ENDROOT
BRANCH   1  10
HETATM   10  C7  UNL     1      -0.264   0.581  -1.287  1.00  0.00     0.242 C 
BRANCH  10  11
HETATM   11  C6  UNL     1       0.641  -0.266  -0.497  1.00  0.00     0.040 C 
HETATM   12  C5  UNL     1       0.170  -1.335   0.378  1.00  0.00     0.120 C 
HETATM   13  N2  UNL     1       1.270  -1.794   1.237  1.00  0.00    -0.420 N 
HETATM   14  C4  UNL     1       2.550  -1.770   0.640  1.00  0.00     0.127 C 
ATOM     15  H2  UNL     1       1.120  -2.108   2.196  1.00  0.00     0.153 HD
HETATM   16  C3  UNL     1       2.986  -0.473   0.023  1.00  0.00     0.095 C 
HETATM   17  C13 UNL     1       1.856   0.541  -0.018  1.00  0.00     0.024 C 
BRANCH  16  18
HETATM   18  C2  UNL     1       4.210   0.034   0.640  1.00  0.00     0.223 C 
HETATM   19  N1  UNL     1       5.095   0.872  -0.089  1.00  0.00    -0.365 N 
HETATM   20  C1  UNL     1       6.313   1.361   0.516  1.00  0.00     0.149 C 
ATOM     21  H1  UNL     1       4.869   1.131  -1.049  1.00  0.00     0.161 HD
HETATM   22  O1  UNL     1       4.527  -0.253   1.823  1.00  0.00    -0.273 OA
ENDBRANCH  16  18
ENDBRANCH  10  11
BRANCH  10  23
HETATM   23  N3  UNL     1      -0.763  -0.489  -2.362  1.00  0.00    -0.069 N 
ATOM     24  H33 UNL     1      -0.032  -0.971  -2.885  1.00  0.00     0.275 HD
ATOM     25  H32 UNL     1      -1.168  -1.346  -1.985  1.00  0.00     0.275 HD
ATOM     26  H31 UNL     1      -1.391   0.099  -2.910  1.00  0.00     0.275 HD
ENDBRANCH  10  23
ENDBRANCH   1  10
BRANCH   9  27
HETATM   27  N10 UNL     1      -1.578   3.046  -0.927  1.00  0.00    -0.384 N 
ATOM     28 2H10 UNL     1      -0.599   2.968  -1.201  1.00  0.00     0.157 HD
ATOM     29 1H10 UNL     1      -2.033   3.958  -0.901  1.00  0.00     0.157 HD
ENDBRANCH   9  27
BRANCH   4  30
HETATM   30  C10 UNL     1      -4.474  -1.424   0.245  1.00  0.00     0.171 A 
HETATM   31  N5  UNL     1      -5.740  -1.566   0.602  1.00  0.00    -0.258 N 
HETATM   32  N6  UNL     1      -5.991  -2.871   0.600  1.00  0.00     0.049 NA
ATOM     33  H5  UNL     1      -6.395  -0.820   0.834  1.00  0.00     0.186 HD
HETATM   34  O2  UNL     1      -4.953  -3.542   0.265  1.00  0.00    -0.141 OA
HETATM   35  N7  UNL     1      -4.004  -2.688   0.040  1.00  0.00    -0.224 N 
ATOM     36  H7  UNL     1      -3.054  -2.924  -0.246  1.00  0.00     0.198 HD
ENDBRANCH   4  30
TORSDOF 6
