REMARK  9 active torsions:
REMARK  status: ('A' for Active; 'I' for Inactive)
REMARK    1  A    between atoms: C2_3  and  N2_4 
REMARK    2  A    between atoms: C3_9  and  O1_10 
REMARK    3  A    between atoms: O1_10  and  C4_11 
REMARK    4  A    between atoms: C5_13  and  N4_14 
REMARK    5  A    between atoms: N4_14  and  N5_16 
REMARK    6  A    between atoms: C6_22  and  N7_23 
REMARK    7  A    between atoms: C6_22  and  C7_27 
REMARK    8  A    between atoms: C7_27  and  O4_28 
REMARK    9  A    between atoms: O4_28  and  N8_29 
ROOT
HETATM    1  C4  UNL     1       0.912   0.111   0.656  1.00  0.00     0.335 C 
HETATM    2  O2  UNL     1       1.127   1.529   0.947  1.00  0.00    -0.307 OA
HETATM    3  C5  UNL     1       1.728   1.989  -0.217  1.00  0.00     0.392 C 
HETATM    4  O3  UNL     1       2.216   0.936  -0.941  1.00  0.00    -0.299 OA
HETATM    5  C6  UNL     1       2.245  -0.116   0.004  1.00  0.00     0.301 C 
ENDROOT
BRANCH   1   6
HETATM    6  O1  UNL     1      -0.079   0.053  -0.277  1.00  0.00    -0.305 OA
BRANCH   6   7
HETATM    7  C3  UNL     1      -1.274  -0.523   0.081  1.00  0.00     0.253 C 
HETATM    8  N3  UNL     1      -1.832   0.214   1.203  1.00  0.00    -0.310 N 
HETATM    9  C2  UNL     1      -2.684   1.207   0.654  1.00  0.00     0.175 C 
ATOM     10  H3  UNL     1      -1.647   0.049   2.192  1.00  0.00     0.167 HD
HETATM   11  N1  UNL     1      -2.910   0.962  -0.719  1.00  0.00    -0.337 N 
HETATM   12  C1  UNL     1      -3.706   1.805  -1.580  1.00  0.00     0.154 C 
HETATM   13  C9  UNL     1      -2.214  -0.254  -1.078  1.00  0.00     0.235 C 
HETATM   14  S1  UNL     1      -3.406  -1.612  -0.949  1.00  0.00    -0.062 SA
HETATM   15  C8  UNL     1      -2.354  -2.672   0.090  1.00  0.00     0.139 C 
HETATM   16  N9  UNL     1      -1.169  -1.893   0.275  1.00  0.00    -0.319 N 
HETATM   17  N10 UNL     1      -2.628  -3.787   0.501  1.00  0.00    -0.380 N 
ATOM     18  H9  UNL     1      -0.284  -2.326   0.538  1.00  0.00     0.166 HD
ATOM     19 2H10 UNL     1      -2.038  -4.381   1.084  1.00  0.00     0.158 HD
ATOM     20 1H10 UNL     1      -3.473  -4.343   0.369  1.00  0.00     0.158 HD
BRANCH   9  21
HETATM   21  N2  UNL     1      -3.169   2.198   1.354  1.00  0.00    -0.371 N 
ATOM     22  H22 UNL     1      -3.781   2.912   0.959  1.00  0.00     0.159 HD
ATOM     23  H21 UNL     1      -3.006   2.375   2.345  1.00  0.00     0.159 HD
ENDBRANCH   9  21
ENDBRANCH   6   7
ENDBRANCH   1   6
BRANCH   5  24
HETATM   24  N7  UNL     1       3.332   0.198   0.916  1.00  0.00    -0.039 N 
ATOM     25  H73 UNL     1       3.251   1.145   1.286  1.00  0.00     0.278 HD
ATOM     26  H72 UNL     1       3.249  -0.318   1.792  1.00  0.00     0.278 HD
ATOM     27  H71 UNL     1       4.238   0.044   0.473  1.00  0.00     0.278 HD
ENDBRANCH   5  24
BRANCH   5  28
HETATM   28  C7  UNL     1       2.367  -1.451  -0.621  1.00  0.00     0.274 C 
BRANCH  28  29
HETATM   29  O4  UNL     1       3.525  -1.599  -1.369  1.00  0.00    -0.282 OA
BRANCH  29  30
HETATM   30  N8  UNL     1       3.554  -2.842  -1.901  1.00  0.00    -0.311 N 
ATOM     31  H82 UNL     1       2.831  -3.548  -1.764  1.00  0.00     0.184 HD
ATOM     32  H81 UNL     1       4.406  -2.951  -2.451  1.00  0.00     0.184 HD
ENDBRANCH  29  30
ENDBRANCH  28  29
ENDBRANCH   5  28
BRANCH   3  33
HETATM   33  N4  UNL     1       2.771   2.950   0.001  1.00  0.00    -0.271 N 
ATOM     34  H4  UNL     1       3.751   2.667  -0.031  1.00  0.00     0.187 HD
BRANCH  33  35
HETATM   35  N5  UNL     1       2.465   4.122   0.227  1.00  0.00    -0.250 N 
HETATM   36  N6  UNL     1       2.275   5.150   0.880  1.00  0.00    -0.331 N 
ATOM     37  H62 UNL     1       2.540   4.786   1.795  1.00  0.00     0.178 HD
ATOM     38  H61 UNL     1       2.022   6.120   1.067  1.00  0.00     0.178 HD
ATOM     39  H5  UNL     1       2.211   4.438  -0.709  1.00  0.00     0.207 HD
ENDBRANCH  33  35
ENDBRANCH   3  33
TORSDOF 9
