REMARK  6 active torsions:
REMARK  status: ('A' for Active; 'I' for Inactive)
REMARK    1  A    between atoms: N1_1  and  C1_4 
REMARK    2  A    between atoms: C2_7  and  N3_8 
REMARK    3  A    between atoms: C8_16  and  C9_17 
REMARK    4  A    between atoms: C9_17  and  N4_18 
REMARK    5  A    between atoms: C12_21  and  C13_22 
REMARK    6  A    between atoms: C13_22  and  C14_23 
ROOT
HETATM    1  C1  UNL     1       2.814  -0.785  -1.802  1.00  0.00     0.678 A 
HETATM    2  N2  UNL     1       4.037  -0.523  -1.254  1.00  0.00    -0.174 N 
ATOM      3  H2  UNL     1       4.882  -0.694  -1.799  1.00  0.00     0.186 HD
HETATM    4  C2  UNL     1       4.136  -0.044  -0.008  1.00  0.00     0.160 A 
HETATM    5  C7  UNL     1       2.991   0.176   0.700  1.00  0.00     0.189 A 
HETATM    6  F1  UNL     1       3.097   0.661   1.958  1.00  0.00    -0.200 F 
HETATM    7  C8  UNL     1       1.715  -0.085   0.164  1.00  0.00     0.106 A 
HETATM    8  N5  UNL     1       1.691  -0.561  -1.085  1.00  0.00    -0.188 N 
ATOM      9  H5  UNL     1       0.788  -0.763  -1.514  1.00  0.00     0.184 HD
ENDROOT
BRANCH   7  10
HETATM   10  C9  UNL     1       0.532   0.183   0.960  1.00  0.00     0.119 C 
BRANCH  10  11
HETATM   11  N4  UNL     1      -0.742  -0.124   0.440  1.00  0.00    -0.388 N 
HETATM   12  C10 UNL     1      -1.063  -1.481   0.227  1.00  0.00     0.122 C 
HETATM   13  C11 UNL     1      -2.353  -1.586  -0.567  1.00  0.00     0.024 C 
HETATM   14  C12 UNL     1      -3.372  -0.612   0.068  1.00  0.00    -0.007 C 
HETATM   15  C20 UNL     1      -2.882   0.750  -0.300  1.00  0.00     0.024 C 
HETATM   16  C21 UNL     1      -1.353   0.836  -0.374  1.00  0.00     0.122 C 
BRANCH  14  17
HETATM   17  C13 UNL     1      -4.710  -1.002  -0.472  1.00  0.00     0.046 C 
BRANCH  17  18
HETATM   18  C14 UNL     1      -5.879  -0.293   0.007  1.00  0.00    -0.016 A 
HETATM   19  C15 UNL     1      -6.598  -0.863   1.070  1.00  0.00     0.055 A 
HETATM   20  C16 UNL     1      -7.707  -0.275   1.625  1.00  0.00     0.155 A 
HETATM   21  F2  UNL     1      -8.384  -0.855   2.660  1.00  0.00    -0.203 F 
HETATM   22  C17 UNL     1      -8.156   0.946   1.120  1.00  0.00     0.157 A 
HETATM   23  F3  UNL     1      -9.253   1.505   1.687  1.00  0.00    -0.203 F 
HETATM   24  C18 UNL     1      -7.472   1.506   0.093  1.00  0.00     0.088 A 
HETATM   25  C19 UNL     1      -6.334   0.892  -0.469  1.00  0.00     0.125 A 
HETATM   26  F4  UNL     1      -5.803   1.577  -1.505  1.00  0.00    -0.205 F 
ENDBRANCH  17  18
ENDBRANCH  14  17
ENDBRANCH  10  11
ENDBRANCH   7  10
BRANCH   4  27
HETATM   27  N3  UNL     1       5.418   0.210   0.516  1.00  0.00    -0.360 N 
HETATM   28  C3  UNL     1       5.686   1.575   0.960  1.00  0.00     0.151 C 
HETATM   29  C4  UNL     1       7.135   1.949   0.625  1.00  0.00     0.187 C 
HETATM   30  O1  UNL     1       7.913   1.012   1.293  1.00  0.00    -0.388 OA
HETATM   31  C5  UNL     1       7.834  -0.185   0.586  1.00  0.00     0.187 C 
HETATM   32  C6  UNL     1       6.448  -0.796   0.624  1.00  0.00     0.151 C 
ENDBRANCH   4  27
BRANCH   1  33
HETATM   33  N1  UNL     1       2.716  -1.252  -2.998  1.00  0.00    -0.234 N 
ATOM     34  H12 UNL     1       3.564  -1.421  -3.539  1.00  0.00     0.174 HD
ATOM     35  H11 UNL     1       1.802  -1.448  -3.407  1.00  0.00     0.174 HD
ENDBRANCH   1  33
TORSDOF 6
