REMARK  7 active torsions:
REMARK  status: ('A' for Active; 'I' for Inactive)
REMARK    1  A    between atoms: C7_8  and  N1_9 
REMARK    2  A    between atoms: N1_9  and  C8_12 
REMARK    3  A    between atoms: C8_12  and  C9_13 
REMARK    4  A    between atoms: C8_12  and  C11_15 
REMARK    5  A    between atoms: C11_15  and  N2_16 
REMARK    6  A    between atoms: C11_15  and  C12_20 
REMARK    7  A    between atoms: C12_20  and  C13_21 
ROOT
HETATM    1  C1  UNL     1      -3.697   2.331   0.347  1.00  0.00     0.012 C 
HETATM    2  C2  UNL     1      -3.217   1.265   0.620  1.00  0.00    -0.108 C 
HETATM    3  C3  UNL     1      -2.634  -0.026   0.970  1.00  0.00     0.118 C 
HETATM    4  C4  UNL     1      -3.724  -1.051   1.264  1.00  0.00     0.186 C 
HETATM    5  O1  UNL     1      -4.320  -1.495   0.086  1.00  0.00    -0.390 OA
HETATM    6  C5  UNL     1      -3.473  -2.413  -0.494  1.00  0.00     0.169 C 
HETATM    7  C6  UNL     1      -2.051  -2.026  -0.296  1.00  0.00     0.060 C 
HETATM    8  C7  UNL     1      -1.813  -0.531  -0.198  1.00  0.00     0.206 C 
ENDROOT
BRANCH   8   9
HETATM    9  N1  UNL     1      -0.378  -0.402   0.030  1.00  0.00    -0.063 N 
ATOM     10  H12 UNL     1      -0.098  -0.952   0.842  1.00  0.00     0.278 HD
ATOM     11  H11 UNL     1       0.141  -0.889  -0.700  1.00  0.00     0.278 HD
BRANCH   9  12
HETATM   12  C8  UNL     1       0.081   0.921   0.155  1.00  0.00     0.216 C 
BRANCH  12  13
HETATM   13  C9  UNL     1      -0.061   1.761  -1.086  1.00  0.00     0.030 C 
HETATM   14  C10 UNL     1       0.427   3.154  -0.797  1.00  0.00     0.007 C 
ENDBRANCH  12  13
BRANCH  12  15
HETATM   15  C11 UNL     1       1.454   0.963   0.728  1.00  0.00     0.214 C 
BRANCH  15  16
HETATM   16  N2  UNL     1       1.378   0.303   2.020  1.00  0.00    -0.073 N 
ATOM     17  H23 UNL     1       0.670   0.701   2.637  1.00  0.00     0.274 HD
ATOM     18  H22 UNL     1       0.988  -0.638   1.971  1.00  0.00     0.274 HD
ATOM     19  H21 UNL     1       2.319   0.332   2.413  1.00  0.00     0.274 HD
ENDBRANCH  15  16
BRANCH  15  20
HETATM   20  C12 UNL     1       2.629   0.634  -0.066  1.00  0.00     0.039 C 
BRANCH  20  21
HETATM   21  C13 UNL     1       2.828  -0.689  -0.683  1.00  0.00    -0.021 C 
HETATM   22  C14 UNL     1       4.205  -0.643  -1.431  1.00  0.00     0.009 C 
HETATM   23  C15 UNL     1       3.042  -1.813   0.327  1.00  0.00     0.009 C 
ENDBRANCH  20  21
ENDBRANCH  15  20
ENDBRANCH  12  15
ENDBRANCH   9  12
ENDBRANCH   8   9
TORSDOF 7
