REMARK  8 active torsions:
REMARK  status: ('A' for Active; 'I' for Inactive)
REMARK    1  A    between atoms: C2_2  and  C3_3 
REMARK    2  A    between atoms: C3_3  and  C4_4 
REMARK    3  A    between atoms: C4_4  and  N1_5 
REMARK    4  A    between atoms: C6_10  and  N3_11 
REMARK    5  A    between atoms: N3_11  and  C7_13 
REMARK    6  A    between atoms: C7_13  and  C8_14 
REMARK    7  A    between atoms: C8_14  and  C9_15 
REMARK    8  A    between atoms: C9_15  and  N4_16 
ROOT
HETATM    1  N1  UNL     1      -2.004   0.735  -0.141  1.00  0.00    -0.355 N 
ATOM      2  H1  UNL     1      -1.895   1.722   0.093  1.00  0.00     0.166 HD
HETATM    3  C5  UNL     1      -0.897   0.186  -0.292  1.00  0.00     0.128 A 
HETATM    4  N2  UNL     1       0.211   0.984  -0.123  1.00  0.00    -0.176 N 
ATOM      5  H2  UNL     1       0.063   1.966   0.112  1.00  0.00     0.186 HD
HETATM    6  C6  UNL     1       1.459   0.554  -0.247  1.00  0.00     0.679 A 
HETATM    7  N5  UNL     1       1.686  -0.720  -0.554  1.00  0.00    -0.195 N 
ATOM      8  H5  UNL     1       2.645  -1.053  -0.651  1.00  0.00     0.184 HD
HETATM    9  C10 UNL     1       0.675  -1.563  -0.736  1.00  0.00     0.032 A 
HETATM   10  C11 UNL     1       0.901  -3.009  -1.083  1.00  0.00     0.069 C 
HETATM   11  C12 UNL     1      -0.619  -1.122  -0.608  1.00  0.00     0.005 A 
HETATM   12  C13 UNL     1      -1.743  -2.086  -0.818  1.00  0.00     0.054 C 
ENDROOT
BRANCH   6  13
HETATM   13  N3  UNL     1       2.425   1.388  -0.067  1.00  0.00    -0.226 N 
ATOM     14  H3  UNL     1       2.173   2.349   0.165  1.00  0.00     0.177 HD
BRANCH  13  15
HETATM   15  C7  UNL     1       3.808   1.087  -0.163  1.00  0.00     0.139 C 
BRANCH  15  16
HETATM   16  C8  UNL     1       4.387   0.431   1.064  1.00  0.00     0.047 C 
BRANCH  16  17
HETATM   17  C9  UNL     1       5.873   0.191   0.761  1.00  0.00     0.231 C 
BRANCH  17  18
HETATM   18  N4  UNL     1       6.534   1.456   0.490  1.00  0.00    -0.079 N 
ATOM     19  H43 UNL     1       6.071   1.978  -0.254  1.00  0.00     0.274 HD
ATOM     20  H42 UNL     1       6.401   2.127   1.247  1.00  0.00     0.274 HD
ATOM     21  H41 UNL     1       7.521   1.297   0.289  1.00  0.00     0.274 HD
ENDBRANCH  17  18
ENDBRANCH  16  17
ENDBRANCH  15  16
ENDBRANCH  13  15
ENDBRANCH   6  13
BRANCH   1  22
HETATM   22  C4  UNL     1      -3.358   0.377  -0.202  1.00  0.00     0.062 C 
BRANCH  22  23
HETATM   23  C3  UNL     1      -4.176   1.669  -0.209  1.00  0.00     0.044 C 
BRANCH  23  24
HETATM   24  C2  UNL     1      -5.656   1.369  -0.273  1.00  0.00     0.001 C 
HETATM   25  C1  UNL     1      -6.147   0.557   0.880  1.00  0.00     0.005 C 
ENDBRANCH  23  24
ENDBRANCH  22  23
ENDBRANCH   1  22
TORSDOF 8
