REMARK  10 active torsions:
REMARK  status: ('A' for Active; 'I' for Inactive)
REMARK    1  A    between atoms: C2_2  and  O1_3 
REMARK    2  A    between atoms: O1_3  and  C3_4 
REMARK    3  A    between atoms: C3_4  and  C4_6 
REMARK    4  A    between atoms: C4_6  and  C5_7 
REMARK    5  A    between atoms: C5_7  and  N1_8 
REMARK    6  A    between atoms: C5_7  and  C15_25 
REMARK    7  A    between atoms: N1_8  and  C6_9 
REMARK    8  A    between atoms: C7_12  and  C8_13 
REMARK    9  A    between atoms: C11_17  and  O3_18 
REMARK   10  A    between atoms: C15_25  and  C16_27 
ROOT
HETATM    1  C16 UNL     1       2.531   3.884   0.665  1.00  0.00     0.299 C 
HETATM    2  O5  UNL     1       3.522   3.607   1.389  1.00  0.00    -0.272 OA
HETATM    3  C17 UNL     1       2.266   5.291   0.413  1.00  0.00     0.147 C 
HETATM    4  N3  UNL     1       2.063   6.426   0.214  1.00  0.00    -0.188 NA
ENDROOT
BRANCH   1   5
HETATM    5  C15 UNL     1       1.670   2.887   0.090  1.00  0.00     0.245 C 
HETATM    6  O4  UNL     1       0.682   3.246  -0.591  1.00  0.00    -0.285 OA
BRANCH   5   7
HETATM    7  C5  UNL     1       1.873   1.398   0.253  1.00  0.00     0.253 C 
BRANCH   7   8
HETATM    8  C4  UNL     1       3.186   1.134  -0.499  1.00  0.00     0.159 C 
BRANCH   8   9
HETATM    9  C3  UNL     1       3.648  -0.252  -0.266  1.00  0.00     0.262 C 
HETATM   10  O2  UNL     1       3.643  -1.040  -1.273  1.00  0.00    -0.265 OA
BRANCH   9  11
HETATM   11  O1  UNL     1       4.075  -0.752   0.930  1.00  0.00    -0.322 OA
BRANCH  11  12
HETATM   12  C2  UNL     1       4.515  -2.107   1.079  1.00  0.00     0.174 C 
HETATM   13  C1  UNL     1       5.743  -2.258   0.190  1.00  0.00     0.034 C 
ENDBRANCH  11  12
ENDBRANCH   9  11
ENDBRANCH   8   9
ENDBRANCH   7   8
BRANCH   7  14
HETATM   14  N1  UNL     1       0.854   0.631  -0.036  1.00  0.00    -0.410 NA
BRANCH  14  15
HETATM   15  C6  UNL     1      -0.031  -0.170  -0.345  1.00  0.00     0.217 A 
HETATM   16  N2  UNL     1      -1.376   0.000  -0.218  1.00  0.00    -0.324 N 
HETATM   17  C7  UNL     1      -2.172  -0.941  -0.575  1.00  0.00     0.052 A 
ATOM     18  H2  UNL     1      -1.749   0.871   0.159  1.00  0.00     0.169 HD
HETATM   19  C14 UNL     1      -1.624  -2.100  -1.078  1.00  0.00     0.084 A 
HETATM   20  S1  UNL     1       0.043  -1.765  -1.011  1.00  0.00    -0.049 SA
BRANCH  17  21
HETATM   21  C8  UNL     1      -3.666  -0.848  -0.468  1.00  0.00    -0.005 A 
HETATM   22  C9  UNL     1      -4.451  -1.911  -0.827  1.00  0.00     0.040 A 
HETATM   23  C10 UNL     1      -5.834  -1.785  -0.713  1.00  0.00     0.069 A 
HETATM   24 CL1  UNL     1      -6.860  -3.131  -1.158  1.00  0.00    -0.081 Cl
HETATM   25  C11 UNL     1      -6.434  -0.641  -0.257  1.00  0.00     0.109 A 
HETATM   26  C12 UNL     1      -5.605   0.417   0.097  1.00  0.00     0.069 A 
HETATM   27 CL2  UNL     1      -6.368   1.880   0.681  1.00  0.00    -0.081 Cl
HETATM   28  C13 UNL     1      -4.237   0.308  -0.009  1.00  0.00     0.040 A 
BRANCH  25  29
HETATM   29  O3  UNL     1      -7.809  -0.511  -0.143  1.00  0.00    -0.357 OA
ATOM     30  H3  UNL     1      -8.225   0.282   0.173  1.00  0.00     0.217 HD
ENDBRANCH  25  29
ENDBRANCH  17  21
ENDBRANCH  14  15
ENDBRANCH   7  14
ENDBRANCH   5   7
ENDBRANCH   1   5
TORSDOF 10
