REMARK  2 active torsions:
REMARK  status: ('A' for Active; 'I' for Inactive)
REMARK    1  A    between atoms: C19_22  and  C20_24 
REMARK    2  A    between atoms: C22_27  and  C23_28 
ROOT
HETATM    1  C1  UNL     1      -2.309  -1.539  -2.110  1.00  0.00     0.011 C 
HETATM    2  C2  UNL     1      -2.145  -1.325  -0.668  1.00  0.00     0.001 C 
HETATM    3  C3  UNL     1      -3.493  -0.904  -0.162  1.00  0.00     0.015 C 
HETATM    4  C4  UNL     1      -2.667  -0.011   0.792  1.00  0.00    -0.030 C 
HETATM    5  C5  UNL     1      -2.810  -0.659   2.123  1.00  0.00     0.016 C 
HETATM    6  C6  UNL     1      -3.471   1.297   0.889  1.00  0.00     0.016 C 
HETATM    7  C7  UNL     1      -1.504  -0.084  -0.073  1.00  0.00     0.055 C 
HETATM    8  C8  UNL     1      -1.499   0.951  -1.175  1.00  0.00     0.153 C 
HETATM    9  O1  UNL     1      -2.626   1.385  -1.489  1.00  0.00    -0.296 OA
HETATM   10  C9  UNL     1      -0.489   1.594  -1.991  1.00  0.00     0.167 C 
HETATM   11  C10 UNL     1       0.203   0.631  -2.940  1.00  0.00     0.149 C 
HETATM   12  O2  UNL     1       0.038   0.233  -4.076  1.00  0.00    -0.296 OA
HETATM   13  C11 UNL     1       1.143   0.456  -1.772  1.00  0.00     0.105 C 
HETATM   14  C12 UNL     1       0.866  -0.611  -0.835  1.00  0.00     0.043 C 
HETATM   15  C13 UNL     1       2.090  -0.974  -0.109  1.00  0.00     0.029 C 
HETATM   16  C14 UNL     1       3.374  -0.485  -0.734  1.00  0.00     0.024 C 
HETATM   17  C15 UNL     1       2.524  -2.297   0.273  1.00  0.00     0.136 C 
HETATM   18  O3  UNL     1       2.287  -3.374  -0.172  1.00  0.00    -0.297 OA
HETATM   19  C16 UNL     1       3.420  -2.028   1.450  1.00  0.00     0.079 C 
HETATM   20  C17 UNL     1       3.162  -0.520   1.786  1.00  0.00     0.015 C 
HETATM   21  C18 UNL     1       1.844  -0.497   1.307  1.00  0.00     0.029 C 
HETATM   22  C19 UNL     1       0.744   0.452   1.172  1.00  0.00     0.086 C 
HETATM   23 CL1  UNL     1       0.143   0.666   2.878  1.00  0.00    -0.115 Cl
HETATM   24  C23 UNL     1       0.883   1.878  -1.539  1.00  0.00     0.137 C 
HETATM   25  F1  UNL     1       1.502   2.575  -2.629  1.00  0.00    -0.240 F 
HETATM   26  C24 UNL     1      -0.118  -0.322   0.300  1.00  0.00     0.082 C 
HETATM   27 CL3  UNL     1      -0.162  -2.059   0.905  1.00  0.00    -0.115 Cl
ENDROOT
BRANCH  22  28
HETATM   28  C20 UNL     1       1.256   1.783   0.946  1.00  0.00     0.068 A 
HETATM   29 CL2  UNL     1       2.519   2.163   2.202  1.00  0.00    -0.117 Cl
HETATM   30  C21 UNL     1       0.357   3.016   0.767  1.00  0.00     0.038 A 
HETATM   31  C22 UNL     1       1.235   2.515  -0.283  1.00  0.00     0.055 A 
ENDBRANCH  22  28
TORSDOF 2
