REMARK  6 active torsions:
REMARK  status: ('A' for Active; 'I' for Inactive)
REMARK       I    between atoms: C2_2  and  N1_4 
REMARK       I    between atoms: N1_4  and  C3_6 
REMARK    1  A    between atoms: C3_6  and  C4_8 
REMARK    2  A    between atoms: C6_10  and  O3_11 
REMARK    3  A    between atoms: C7_13  and  O4_14 
REMARK    4  A    between atoms: C8_16  and  O5_17 
REMARK    5  A    between atoms: C9_19  and  N2_20 
REMARK       I    between atoms: N2_20  and  C10_22 
REMARK    6  A    between atoms: C10_22  and  C11_24 
ROOT
HETATM    1  C4  UNL     1       0.408  -0.770   0.111  1.00  0.00     0.064 A 
HETATM    2  C5  UNL     1       0.736  -2.076  -0.253  1.00  0.00     0.059 A 
HETATM    3  C6  UNL     1      -0.149  -3.102  -0.105  1.00  0.00     0.102 A 
HETATM    4  C7  UNL     1      -1.409  -2.835   0.422  1.00  0.00     0.134 A 
HETATM    5  C8  UNL     1      -1.728  -1.549   0.779  1.00  0.00     0.130 A 
HETATM    6  C9  UNL     1      -0.838  -0.515   0.630  1.00  0.00     0.087 A 
ENDROOT
BRANCH   1   7
HETATM    7  C3  UNL     1       1.380   0.307  -0.037  1.00  0.00     0.260 C 
HETATM    8  N1  UNL     1       2.664   0.130  -0.570  1.00  0.00    -0.294 N 
HETATM    9  C2  UNL     1       3.641   1.133  -0.733  1.00  0.00     0.220 C 
ATOM     10  H1  UNL     1       2.915  -0.813  -0.868  1.00  0.00     0.172 HD
HETATM   11  C1  UNL     1       3.384   2.533  -0.337  1.00  0.00     0.117 C 
HETATM   12  O1  UNL     1       4.781   0.839  -1.235  1.00  0.00    -0.274 OA
HETATM   13  O2  UNL     1       1.067   1.472   0.330  1.00  0.00    -0.267 OA
ENDBRANCH   1   7
BRANCH   6  14
HETATM   14  N2  UNL     1      -1.231   0.781   0.993  1.00  0.00    -0.314 N 
HETATM   15  C10 UNL     1      -1.943   1.672   0.111  1.00  0.00     0.322 C 
HETATM   16  O6  UNL     1      -2.240   1.294  -1.049  1.00  0.00    -0.261 OA
ATOM     17  H2  UNL     1      -1.001   1.111   1.930  1.00  0.00     0.169 HD
BRANCH  15  18
HETATM   18  C11 UNL     1      -2.320   2.986   0.535  1.00  0.00     0.270 C 
HETATM   19  O7  UNL     1      -2.057   3.450   1.696  1.00  0.00    -0.640 OA
HETATM   20  O8  UNL     1      -3.005   3.853  -0.302  1.00  0.00    -0.640 OA
ENDBRANCH  15  18
ENDBRANCH   6  14
BRANCH   3  21
HETATM   21  O3  UNL     1       0.169  -4.412  -0.466  1.00  0.00    -0.358 OA
ATOM     22  H3  UNL     1      -0.448  -5.127  -0.363  1.00  0.00     0.217 HD
ENDBRANCH   3  21
BRANCH   5  23
HETATM   23  O5  UNL     1      -2.970  -1.268   1.302  1.00  0.00    -0.356 OA
ATOM     24  H5  UNL     1      -3.191  -0.378   1.549  1.00  0.00     0.218 HD
ENDBRANCH   5  23
BRANCH   4  25
HETATM   25  O4  UNL     1      -2.266  -3.896   0.554  1.00  0.00    -0.356 OA
ATOM     26  H4  UNL     1      -3.126  -3.714   0.914  1.00  0.00     0.218 HD
ENDBRANCH   4  25
TORSDOF 6
