REMARK  4 active torsions:
REMARK  status: ('A' for Active; 'I' for Inactive)
REMARK    1  A    between atoms: C1_2  and  C2_4 
REMARK    2  A    between atoms: C2_4  and  N2_5 
REMARK       I    between atoms: N2_5  and  C3_7 
REMARK    3  A    between atoms: C3_7  and  C4_9 
REMARK       I    between atoms: C4_9  and  N3_11 
REMARK    4  A    between atoms: C5_13  and  N4_14 
ROOT
HETATM    1  N2  UNL     1      -1.031   0.331  -1.121  1.00  0.00    -0.335 N 
ATOM      2  H2  UNL     1      -0.960   0.811  -2.018  1.00  0.00     0.164 HD
HETATM    3  C3  UNL     1       0.110  -0.329  -0.630  1.00  0.00     0.310 C 
HETATM    4  O2  UNL     1       0.027  -0.930   0.495  1.00  0.00    -0.262 OA
ENDROOT
BRANCH   3   5
HETATM    5  C4  UNL     1       1.376  -0.357  -1.342  1.00  0.00     0.314 C 
HETATM    6  O3  UNL     1       1.488   0.218  -2.440  1.00  0.00    -0.262 OA
HETATM    7  N3  UNL     1       2.473  -1.037  -0.787  1.00  0.00    -0.315 N 
HETATM    8  C5  UNL     1       3.638  -0.495  -0.884  1.00  0.00     0.185 C 
ATOM      9  H3  UNL     1       2.351  -1.935  -0.320  1.00  0.00     0.170 HD
BRANCH   8  10
HETATM   10  N4  UNL     1       4.756  -1.168  -0.329  1.00  0.00    -0.329 N 
HETATM   11  C6  UNL     1       5.595  -0.500   0.356  1.00  0.00     0.201 C 
HETATM   12  N5  UNL     1       5.416   0.882   0.558  1.00  0.00    -0.066 NA
HETATM   13  N6  UNL     1       6.719  -1.145   0.920  1.00  0.00    -0.066 NA
ATOM     14  H4  UNL     1       4.885  -2.169  -0.476  1.00  0.00     0.168 HD
ENDBRANCH   8  10
ENDBRANCH   3   5
BRANCH   1  15
HETATM   15  C2  UNL     1      -2.295   0.368  -0.430  1.00  0.00     0.112 C 
HETATM   16  C7  UNL     1      -2.186   0.867   0.969  1.00  0.00     0.040 C 
HETATM   17  C8  UNL     1      -2.855  -0.135   1.865  1.00  0.00     0.003 C 
HETATM   18  C9  UNL     1      -3.668  -1.004   0.942  1.00  0.00     0.003 C 
HETATM   19  C10 UNL     1      -2.877  -1.015  -0.330  1.00  0.00     0.040 C 
BRANCH  15  20
HETATM   20  C1  UNL     1      -3.289   1.183  -1.227  1.00  0.00     0.259 C 
HETATM   21  N1  UNL     1      -4.601   1.423  -0.807  1.00  0.00    -0.060 NA
HETATM   22  O1  UNL     1      -2.844   1.647  -2.328  1.00  0.00    -0.274 OA
ENDBRANCH  15  20
ENDBRANCH   1  15
TORSDOF 4
