REMARK  2 active torsions:
REMARK  status: ('A' for Active; 'I' for Inactive)
REMARK       I    between atoms: C1_2  and  N2_4 
REMARK       I    between atoms: N2_4  and  C2_6 
REMARK       I    between atoms: C2_6  and  N3_8 
REMARK    1  A    between atoms: C7_13  and  C8_14 
REMARK       I    between atoms: C8_14  and  N4_16 
REMARK    2  A    between atoms: N4_16  and  N5_18 
ROOT
HETATM    1  N1  UNL     1       2.027   2.923   2.858  1.00  0.00    -0.040 NA
HETATM    2  C1  UNL     1       0.817   2.218   2.792  1.00  0.00     0.336 C 
HETATM    3  O1  UNL     1      -0.103   2.477   3.594  1.00  0.00    -0.251 OA
HETATM    4  N2  UNL     1       0.639   1.209   1.811  1.00  0.00    -0.263 N 
ATOM      5  H2  UNL     1      -0.244   0.701   1.768  1.00  0.00     0.174 HD
HETATM    6  C2  UNL     1       1.657   0.900   0.901  1.00  0.00     0.330 C 
HETATM    7  O2  UNL     1       2.775   1.528   1.020  1.00  0.00    -0.246 OA
HETATM    8  N3  UNL     1       1.555  -0.033  -0.113  1.00  0.00    -0.298 N 
HETATM    9  C3  UNL     1       2.831  -0.352  -0.851  1.00  0.00     0.134 C 
HETATM   10  C4  UNL     1       2.757  -1.872  -1.030  1.00  0.00     0.021 C 
HETATM   11  C5  UNL     1       2.021  -2.475   0.127  1.00  0.00     0.008 C 
HETATM   12  C6  UNL     1       0.504  -2.176   0.037  1.00  0.00     0.063 C 
HETATM   13  C7  UNL     1       0.411  -0.776  -0.562  1.00  0.00     0.085 C 
ENDROOT
BRANCH  13  14
HETATM   14  C8  UNL     1      -0.864  -0.163  -0.605  1.00  0.00     0.282 C 
HETATM   15  O3  UNL     1      -0.956   1.112  -0.711  1.00  0.00    -0.265 OA
HETATM   16  N4  UNL     1      -2.116  -0.844  -0.536  1.00  0.00    -0.263 N 
ATOM     17  H4  UNL     1      -2.053  -1.859  -0.452  1.00  0.00     0.190 HD
BRANCH  16  18
HETATM   18  N5  UNL     1      -3.364  -0.350  -0.565  1.00  0.00    -0.273 N 
HETATM   19  C9  UNL     1      -4.002   0.525  -1.155  1.00  0.00     0.215 C 
HETATM   20  N6  UNL     1      -5.399   0.657  -0.797  1.00  0.00    -0.065 NA
HETATM   21  N7  UNL     1      -3.511   1.385  -2.130  1.00  0.00    -0.065 NA
ATOM     22  H5  UNL     1      -3.961  -0.845   0.097  1.00  0.00     0.189 HD
ENDBRANCH  16  18
ENDBRANCH  13  14
TORSDOF 2
