REMARK  5 active torsions:
REMARK  status: ('A' for Active; 'I' for Inactive)
REMARK    1  A    between atoms: N3_7  and  C4_8 
REMARK    2  A    between atoms: C4_8  and  C5_9 
REMARK    3  A    between atoms: C6_10  and  O1_11 
REMARK    4  A    between atoms: N4_14  and  O2_16 
REMARK    5  A    between atoms: N5_19  and  O3_20 
ROOT
HETATM    1  C5  UNL     1      -1.339  -0.407  -0.250  1.00  0.00     0.134 C 
HETATM    2  C6  UNL     1      -2.021   0.631   0.596  1.00  0.00     0.188 C 
HETATM    3  C7  UNL     1      -3.457   0.434   0.189  1.00  0.00     0.055 C 
HETATM    4  N4  UNL     1      -4.385   1.297   0.056  1.00  0.00    -0.274 N 
ATOM      5  H4  UNL     1      -5.317   0.997  -0.231  1.00  0.00     0.193 HD
HETATM    6  C8  UNL     1      -3.566  -1.040  -0.034  1.00  0.00     0.178 C 
HETATM    7  N5  UNL     1      -2.258  -1.479  -0.467  1.00  0.00    -0.186 NA
ENDROOT
BRANCH   1   8
HETATM    8  C4  UNL     1      -0.057  -0.909   0.362  1.00  0.00     0.129 C 
BRANCH   8   9
HETATM    9  N3  UNL     1       0.898   0.148   0.554  1.00  0.00    -0.236 NA
HETATM   10  C3  UNL     1       2.102  -0.380   1.139  1.00  0.00     0.125 C 
HETATM   11  C2  UNL     1       2.943  -1.166   0.189  1.00  0.00     0.155 C 
HETATM   12  N2  UNL     1       3.574  -0.434  -0.838  1.00  0.00    -0.327 N 
HETATM   13  N1  UNL     1       3.061   0.785  -1.155  1.00  0.00    -0.260 N 
ATOM     14  H2  UNL     1       4.388  -0.806  -1.327  1.00  0.00     0.180 HD
HETATM   15  C1  UNL     1       3.814   1.919  -0.733  1.00  0.00     0.187 C 
HETATM   16  S1  UNL     1       1.335   0.947  -0.950  1.00  0.00     0.056 SA
ENDBRANCH   8   9
ENDBRANCH   1   8
BRANCH   2  17
HETATM   17  O1  UNL     1      -1.903   0.362   1.960  1.00  0.00    -0.388 OA
ATOM     18  H1  UNL     1      -2.334   1.018   2.495  1.00  0.00     0.210 HD
ENDBRANCH   2  17
BRANCH   7  19
HETATM   19  O3  UNL     1      -2.303  -1.885  -1.765  1.00  0.00    -0.312 OA
ATOM     20  H3  UNL     1      -2.914  -2.598  -1.909  1.00  0.00     0.237 HD
ENDBRANCH   7  19
BRANCH   4  21
HETATM   21  O2  UNL     1      -4.144   2.619   0.294  1.00  0.00    -0.290 OA
ATOM     22  H2  UNL     1      -4.836   3.262   0.195  1.00  0.00     0.244 HD
ENDBRANCH   4  21
TORSDOF 5
