REMARK  3 active torsions:
REMARK  status: ('A' for Active; 'I' for Inactive)
REMARK       I    between atoms: C1_4  and  N2_5 
REMARK       I    between atoms: C1_4  and  N8_19 
REMARK    1  A    between atoms: N2_5  and  N3_7 
REMARK    2  A    between atoms: C2_9  and  C3_10 
REMARK    3  A    between atoms: C5_25  and  N11_26 
ROOT
HETATM    1  N1  UNL     1       0.483  -1.956  -0.505  1.00  0.00    -0.232 N 
ATOM      2  H11 UNL     1      -0.225  -2.454   0.034  1.00  0.00     0.174 HD
ATOM      3  H12 UNL     1       1.234  -2.498  -0.932  1.00  0.00     0.174 HD
HETATM    4  C1  UNL     1       0.458  -0.674  -0.662  1.00  0.00     0.713 C 
HETATM    5  N2  UNL     1       1.437   0.014  -1.407  1.00  0.00    -0.131 N 
ATOM      6  H2  UNL     1       1.962  -0.472  -2.134  1.00  0.00     0.205 HD
HETATM    7  N8  UNL     1      -0.599   0.089  -0.061  1.00  0.00    -0.069 N 
HETATM    8  N9  UNL     1      -0.506   1.299   0.458  1.00  0.00    -0.221 N 
ATOM      9  H9  UNL     1       0.347   1.857   0.499  1.00  0.00     0.209 HD
HETATM   10  N10 UNL     1      -1.700   1.683   0.922  1.00  0.00    -0.280 N 
ATOM     11  H10 UNL     1      -1.901   2.577   1.371  1.00  0.00     0.189 HD
HETATM   12  C4  UNL     1      -2.596   0.699   0.701  1.00  0.00     0.122 A 
HETATM   13  C5  UNL     1      -3.945   0.578   0.978  1.00  0.00     0.129 A 
HETATM   14  N12 UNL     1      -4.591  -0.570   0.622  1.00  0.00    -0.351 N 
ATOM     15  H12 UNL     1      -5.586  -0.667   0.822  1.00  0.00     0.166 HD
HETATM   16  C6  UNL     1      -3.940  -1.577   0.012  1.00  0.00     0.092 A 
HETATM   17  C7  UNL     1      -2.589  -1.444  -0.260  1.00  0.00     0.052 A 
HETATM   18  C8  UNL     1      -1.885  -0.306   0.077  1.00  0.00     0.109 A 
ENDROOT
BRANCH   5  19
HETATM   19  N3  UNL     1       1.683   1.350  -1.149  1.00  0.00    -0.294 N 
HETATM   20  C2  UNL     1       2.785   1.755  -0.623  1.00  0.00     0.159 C 
ATOM     21  H3  UNL     1       0.967   2.037  -1.384  1.00  0.00     0.186 HD
BRANCH  20  22
HETATM   22  C3  UNL     1       3.846   0.829  -0.264  1.00  0.00     0.154 A 
HETATM   23  N4  UNL     1       3.883  -0.510  -0.399  1.00  0.00    -0.268 N 
HETATM   24  N5  UNL     1       5.047  -0.913   0.064  1.00  0.00    -0.227 N 
ATOM     25  H4  UNL     1       3.148  -1.101  -0.787  1.00  0.00     0.190 HD
HETATM   26  N6  UNL     1       5.749   0.112   0.486  1.00  0.00    -0.227 N 
ATOM     27  H5  UNL     1       5.359  -1.884   0.091  1.00  0.00     0.210 HD
HETATM   28  N7  UNL     1       5.023   1.175   0.289  1.00  0.00    -0.268 N 
ATOM     29  H6  UNL     1       6.685   0.082   0.891  1.00  0.00     0.210 HD
ATOM     30  H7  UNL     1       5.305   2.128   0.520  1.00  0.00     0.190 HD
ENDBRANCH  20  22
ENDBRANCH   5  19
BRANCH  13  31
HETATM   31  N11 UNL     1      -4.580   1.515   1.553  1.00  0.00    -0.384 N 
ATOM     32 2H11 UNL     1      -4.097   2.373   1.819  1.00  0.00     0.157 HD
ATOM     33 1H11 UNL     1      -5.575   1.426   1.757  1.00  0.00     0.157 HD
ENDBRANCH  13  31
TORSDOF 3
