REMARK  5 active torsions:
REMARK  status: ('A' for Active; 'I' for Inactive)
REMARK    1  A    between atoms: N1_1  and  N2_4 
REMARK    2  A    between atoms: C5_9  and  C6_10 
REMARK    3  A    between atoms: C6_10  and  C7_11 
REMARK    4  A    between atoms: C7_11  and  C8_12 
REMARK    5  A    between atoms: C8_12  and  C9_13 
ROOT
HETATM    1  N2  UNL     1       2.036   0.856  -0.646  1.00  0.00    -0.278 N 
HETATM    2  C1  UNL     1       3.186   1.398  -0.173  1.00  0.00     0.115 A 
HETATM    3  C2  UNL     1       4.247   0.616   0.198  1.00  0.00     0.019 A 
HETATM    4  C3  UNL     1       4.106  -0.746   0.074  1.00  0.00     0.003 A 
HETATM    5  C4  UNL     1       2.927  -1.262  -0.408  1.00  0.00     0.027 A 
HETATM    6  C5  UNL     1       1.845  -0.446  -0.784  1.00  0.00     0.033 A 
ENDROOT
BRANCH   6   7
HETATM    7  C6  UNL     1       0.607  -1.096  -1.211  1.00  0.00     0.059 C 
BRANCH   7   8
HETATM    8  C7  UNL     1      -0.199  -1.805  -0.224  1.00  0.00     0.011 C 
BRANCH   8   9
HETATM    9  C8  UNL     1      -0.863  -1.265   0.943  1.00  0.00     0.039 C 
BRANCH   9  10
HETATM   10  C9  UNL     1      -1.952  -0.300   0.799  1.00  0.00    -0.058 A 
HETATM   11  C10 UNL     1      -1.797   1.043   0.974  1.00  0.00     0.007 A 
HETATM   12  C11 UNL     1      -2.836   1.943   0.824  1.00  0.00     0.001 A 
HETATM   13  C12 UNL     1      -4.101   1.508   0.484  1.00  0.00     0.000 A 
HETATM   14  C13 UNL     1      -4.299   0.161   0.299  1.00  0.00     0.001 A 
HETATM   15  C14 UNL     1      -3.252  -0.709   0.453  1.00  0.00     0.007 A 
ENDBRANCH   9  10
ENDBRANCH   8   9
ENDBRANCH   7   8
ENDBRANCH   6   7
BRANCH   1  16
HETATM   16  N1  UNL     1       1.055   1.751  -1.069  1.00  0.00    -0.339 N 
ATOM     17  H12 UNL     1       1.202   2.755  -0.963  1.00  0.00     0.177 HD
ATOM     18  H11 UNL     1       0.190   1.343  -1.425  1.00  0.00     0.177 HD
ENDBRANCH   1  16
TORSDOF 5
