REMARK  3 active torsions:
REMARK  status: ('A' for Active; 'I' for Inactive)
REMARK    1  A    between atoms: S1_2  and  N1_5 
REMARK       I    between atoms: N1_5  and  C2_7 
REMARK    2  A    between atoms: C2_7  and  C3_9 
REMARK    3  A    between atoms: C6_12  and  S2_13 
ROOT
HETATM    1  S2  UNL     1      -2.390   2.436  -0.188  1.00  0.00    -0.044 SA
HETATM    2  C7  UNL     1      -3.861   3.284   0.315  1.00  0.00     0.134 C 
HETATM    3  N2  UNL     1      -4.817   3.835   0.664  1.00  0.00    -0.184 NA
ENDROOT
BRANCH   1   4
HETATM    4  C6  UNL     1      -2.870   0.706  -0.580  1.00  0.00     0.087 C 
HETATM    5  C5  UNL     1      -1.675  -0.080  -1.004  1.00  0.00     0.068 C 
HETATM    6  C4  UNL     1      -0.409   0.519  -0.563  1.00  0.00    -0.003 C 
HETATM    7  C9  UNL     1      -1.860  -1.512  -0.718  1.00  0.00     0.252 C 
HETATM    8  C3  UNL     1       0.600  -0.269  -0.220  1.00  0.00     0.031 C 
HETATM    9  C10 UNL     1       0.411  -1.713  -0.279  1.00  0.00     0.213 C 
HETATM   10  O6  UNL     1      -0.879  -2.130  -0.004  1.00  0.00    -0.365 OA
HETATM   11  S3  UNL     1      -3.344  -1.603   0.302  1.00  0.00     0.173 S 
HETATM   12  C8  UNL     1      -3.460   0.138   0.661  1.00  0.00     0.160 C 
HETATM   13  O4  UNL     1      -4.524  -2.029  -0.505  1.00  0.00    -0.225 OA
HETATM   14  O5  UNL     1      -3.129  -2.413   1.527  1.00  0.00    -0.225 OA
BRANCH   8  15
HETATM   15  C2  UNL     1       1.867   0.286   0.219  1.00  0.00     0.262 C 
HETATM   16  N1  UNL     1       2.939  -0.547   0.566  1.00  0.00    -0.251 N 
ATOM     17  H1  UNL     1       2.815  -1.557   0.498  1.00  0.00     0.181 HD
HETATM   18  O3  UNL     1       2.023   1.536   0.297  1.00  0.00    -0.267 OA
BRANCH  16  19
HETATM   19  S1  UNL     1       4.466   0.066   1.105  1.00  0.00     0.229 S 
HETATM   20  C1  UNL     1       5.295   0.981  -0.166  1.00  0.00     0.186 C 
HETATM   21  O1  UNL     1       4.197   0.960   2.275  1.00  0.00    -0.206 OA
HETATM   22  O2  UNL     1       5.379  -1.040   1.547  1.00  0.00    -0.206 OA
ENDBRANCH  16  19
ENDBRANCH   8  15
ENDBRANCH   1   4
TORSDOF 3
