REMARK  6 active torsions:
REMARK  status: ('A' for Active; 'I' for Inactive)
REMARK    1  A    between atoms: C2_2  and  C4_4 
REMARK    2  A    between atoms: C5_6  and  C8_16 
REMARK    3  A    between atoms: N1_8  and  C7_11 
REMARK    4  A    between atoms: C9_17  and  O6_18 
REMARK    5  A    between atoms: O6_18  and  C10_19 
REMARK    6  A    between atoms: C10_19  and  C11_20 
ROOT
HETATM    1  C7  UNL     1       1.161  -0.582  -1.081  1.00  0.00     0.303 C 
HETATM    2  O3  UNL     1       0.944  -1.919  -0.660  1.00  0.00    -0.244 OA
HETATM    3  S2  UNL     1       0.681  -1.775   1.017  1.00  0.00     0.277 S 
HETATM    4  O4  UNL     1       1.697  -2.650   1.722  1.00  0.00    -0.198 OA
HETATM    5  O5  UNL     1      -0.648  -2.132   1.463  1.00  0.00    -0.198 OA
HETATM    6  C8  UNL     1       1.187  -0.105   1.222  1.00  0.00     0.211 C 
HETATM    7  C9  UNL     1       2.138  -0.052   0.022  1.00  0.00     0.198 C 
ENDROOT
BRANCH   7   8
HETATM    8  O6  UNL     1       2.583   1.186  -0.296  1.00  0.00    -0.369 OA
BRANCH   8   9
HETATM    9  C10 UNL     1       3.909   1.349  -0.567  1.00  0.00     0.281 C 
BRANCH   9  10
HETATM   10  C11 UNL     1       4.855   1.008   0.488  1.00  0.00     0.197 C 
HETATM   11  O7  UNL     1       4.525   0.583   1.613  1.00  0.00    -0.646 OA
HETATM   12  O8  UNL     1       6.222   1.155   0.259  1.00  0.00    -0.646 OA
ENDBRANCH   9  10
ENDBRANCH   8   9
ENDBRANCH   7   8
BRANCH   1  13
HETATM   13  N1  UNL     1       0.004   0.224  -0.919  1.00  0.00    -0.190 N 
HETATM   14  O1  UNL     1       0.203   1.428  -0.250  1.00  0.00    -0.255 OA
HETATM   15  C5  UNL     1       0.125   0.929   1.094  1.00  0.00     0.238 C 
HETATM   16  S1  UNL     1      -1.573   0.337   1.286  1.00  0.00    -0.118 SA
HETATM   17  C4  UNL     1      -2.382   0.505  -0.356  1.00  0.00     0.147 C 
HETATM   18  C6  UNL     1      -1.333  -0.036  -1.291  1.00  0.00     0.260 C 
HETATM   19  O2  UNL     1      -1.539  -0.669  -2.322  1.00  0.00    -0.270 OA
BRANCH  17  20
HETATM   20  C2  UNL     1      -3.696  -0.149  -0.447  1.00  0.00     0.000 C 
HETATM   21  C1  UNL     1      -4.591   0.507   0.610  1.00  0.00     0.011 C 
HETATM   22  C3  UNL     1      -3.731  -1.632  -0.365  1.00  0.00     0.011 C 
ENDBRANCH  17  20
ENDBRANCH   1  13
TORSDOF 6
