REMARK  14 active torsions:
REMARK  status: ('A' for Active; 'I' for Inactive)
REMARK       I    between atoms: C1_2  and  N2_4 
REMARK    1  A    between atoms: N2_4  and  N3_6 
REMARK       I    between atoms: N3_6  and  C2_8 
REMARK       I    between atoms: C2_8  and  N4_10 
REMARK    2  A    between atoms: N4_10  and  N5_12 
REMARK    3  A    between atoms: N5_12  and  C3_13 
REMARK    4  A    between atoms: C3_13  and  O3_14 
REMARK    5  A    between atoms: C3_13  and  O4_16 
REMARK    6  A    between atoms: O4_16  and  C4_17 
REMARK    7  A    between atoms: C4_17  and  C5_18 
REMARK    8  A    between atoms: C6_20  and  N6_21 
REMARK    9  A    between atoms: N10_30  and  O6_31 
REMARK   10  A    between atoms: C11_38  and  O8_39 
REMARK   11  A    between atoms: C11_38  and  S1_41 
REMARK   12  A    between atoms: S1_41  and  C12_42 
REMARK   13  A    between atoms: C12_42  and  C13_43 
REMARK   14  A    between atoms: C14_49  and  C15_50 
ROOT
HETATM    1  C5  UNL     1      -1.699   0.685  -0.656  1.00  0.00     0.204 C 
HETATM    2  O5  UNL     1      -1.407   0.998  -1.942  1.00  0.00    -0.337 OA
HETATM    3  C6  UNL     1      -2.295   1.666  -2.707  1.00  0.00     0.341 C 
HETATM    4  N11 UNL     1      -3.672   1.579  -2.272  1.00  0.00    -0.314 N 
ATOM      5  H11 UNL     1      -4.354   2.276  -2.571  1.00  0.00     0.167 HD
HETATM    6  C10 UNL     1      -4.057   0.520  -1.431  1.00  0.00     0.269 C 
HETATM    7  O7  UNL     1      -5.170  -0.075  -1.535  1.00  0.00    -0.269 OA
HETATM    8  C11 UNL     1      -3.052   0.118  -0.371  1.00  0.00     0.216 C 
ENDROOT
BRANCH   1   9
HETATM    9  C4  UNL     1      -0.683  -0.392  -0.244  1.00  0.00     0.209 C 
BRANCH   9  10
HETATM   10  O4  UNL     1       0.614   0.102  -0.343  1.00  0.00    -0.344 OA
BRANCH  10  11
HETATM   11  C3  UNL     1       1.475  -0.930   0.052  1.00  0.00     0.378 C 
BRANCH  11  12
HETATM   12  N5  UNL     1       2.275  -0.482   1.171  1.00  0.00    -0.077 NA
BRANCH  12  13
HETATM   13  N4  UNL     1       3.168  -1.425   1.626  1.00  0.00    -0.250 N 
HETATM   14  C2  UNL     1       4.513  -1.380   1.199  1.00  0.00     0.350 C 
HETATM   15  N3  UNL     1       5.425  -2.372   1.689  1.00  0.00    -0.247 N 
HETATM   16  O2  UNL     1       4.904  -0.502   0.416  1.00  0.00    -0.244 OA
ATOM     17  H3  UNL     1       5.090  -3.088   2.333  1.00  0.00     0.192 HD
ATOM     18  H4  UNL     1       2.859  -2.154   2.269  1.00  0.00     0.187 HD
BRANCH  15  19
HETATM   19  N2  UNL     1       6.763  -2.371   1.297  1.00  0.00    -0.250 N 
HETATM   20  C1  UNL     1       7.572  -3.543   1.433  1.00  0.00     0.347 C 
HETATM   21  N1  UNL     1       8.931  -3.541   1.035  1.00  0.00    -0.038 NA
HETATM   22  O1  UNL     1       7.047  -4.582   1.917  1.00  0.00    -0.249 OA
ATOM     23  H2  UNL     1       7.171  -1.521   0.907  1.00  0.00     0.191 HD
ENDBRANCH  15  19
ENDBRANCH  12  13
ENDBRANCH  11  12
BRANCH  11  24
HETATM   24  O3  UNL     1       2.359  -1.258  -0.991  1.00  0.00    -0.357 OA
ATOM     25  H3  UNL     1       1.834  -1.552  -1.726  1.00  0.00     0.214 HD
ENDBRANCH  11  24
ENDBRANCH  10  11
ENDBRANCH   9  10
ENDBRANCH   1   9
BRANCH   8  26
HETATM   26  O8  UNL     1      -3.061  -1.269  -0.341  1.00  0.00    -0.369 OA
ATOM     27  H8  UNL     1      -3.921  -1.629  -0.160  1.00  0.00     0.212 HD
ENDBRANCH   8  26
BRANCH   8  28
HETATM   28  S1  UNL     1      -3.702   0.759   1.178  1.00  0.00    -0.113 SA
BRANCH  28  29
HETATM   29  C12 UNL     1      -2.819   0.218   2.637  1.00  0.00     0.139 C 
BRANCH  29  30
HETATM   30  C13 UNL     1      -3.012  -1.216   2.973  1.00  0.00     0.073 A 
HETATM   31  N12 UNL     1      -3.781  -2.145   2.359  1.00  0.00    -0.243 N 
HETATM   32  O9  UNL     1      -3.662  -3.249   2.999  1.00  0.00    -0.157 OA
ATOM     33  H12 UNL     1      -4.356  -1.993   1.530  1.00  0.00     0.196 HD
HETATM   34  N13 UNL     1      -2.858  -3.121   4.010  1.00  0.00    -0.238 N 
HETATM   35  C14 UNL     1      -2.410  -1.840   4.044  1.00  0.00     0.123 A 
ATOM     36  H13 UNL     1      -2.605  -3.858   4.668  1.00  0.00     0.196 HD
BRANCH  35  37
HETATM   37  C15 UNL     1      -1.465  -1.273   5.043  1.00  0.00     0.407 C 
HETATM   38  F1  UNL     1      -1.993  -0.255   5.786  1.00  0.00    -0.207 F 
HETATM   39  F2  UNL     1      -0.284  -0.842   4.487  1.00  0.00    -0.207 F 
ENDBRANCH  35  37
ENDBRANCH  29  30
ENDBRANCH  28  29
ENDBRANCH   8  28
BRANCH   3  40
HETATM   40  N6  UNL     1      -1.951   3.029  -3.020  1.00  0.00    -0.278 N 
HETATM   41  C7  UNL     1      -1.121   3.901  -2.426  1.00  0.00     0.191 A 
HETATM   42  N7  UNL     1      -1.132   5.069  -3.093  1.00  0.00    -0.334 N 
HETATM   43  C8  UNL     1      -1.966   4.960  -4.119  1.00  0.00     0.171 A 
ATOM     44  H7  UNL     1      -0.590   5.899  -2.851  1.00  0.00     0.168 HD
HETATM   45  N8  UNL     1      -2.540   5.549  -5.197  1.00  0.00    -0.266 N 
HETATM   46  C9  UNL     1      -2.479   3.693  -4.080  1.00  0.00     0.205 A 
HETATM   47  N9  UNL     1      -3.356   4.700  -5.787  1.00  0.00    -0.213 N 
ATOM     48  H8  UNL     1      -2.366   6.506  -5.505  1.00  0.00     0.190 HD
HETATM   49  N10 UNL     1      -3.342   3.557  -5.129  1.00  0.00    -0.127 N 
ATOM     50  H9  UNL     1      -3.911   4.895  -6.620  1.00  0.00     0.211 HD
BRANCH  49  51
HETATM   51  O6  UNL     1      -4.070   2.421  -5.444  1.00  0.00    -0.265 OA
ATOM     52  H6  UNL     1      -4.060   1.598  -4.970  1.00  0.00     0.247 HD
ENDBRANCH  49  51
ENDBRANCH   3  40
TORSDOF 14
