REMARK  13 active torsions:
REMARK  status: ('A' for Active; 'I' for Inactive)
REMARK    1  A    between atoms: C2_2  and  N1_3 
REMARK    2  A    between atoms: N1_3  and  C3_4 
REMARK    3  A    between atoms: C3_4  and  C4_5 
REMARK    4  A    between atoms: C4_5  and  C5_6 
REMARK    5  A    between atoms: C5_6  and  C6_7 
REMARK    6  A    between atoms: C7_8  and  C8_9 
REMARK    7  A    between atoms: C10_14  and  C11_15 
REMARK    8  A    between atoms: C11_15  and  C12_16 
REMARK    9  A    between atoms: C12_16  and  C13_17 
REMARK   10  A    between atoms: C13_17  and  C14_18 
REMARK   11  A    between atoms: C14_18  and  N3_19 
REMARK   12  A    between atoms: C16_27  and  C17_28 
REMARK   13  A    between atoms: C20_33  and  O3_34 
ROOT
HETATM    1  C8  UNL     1       0.346  -0.139  -0.425  1.00  0.00     0.200 C 
HETATM    2  N2  UNL     1      -0.477  -0.167  -1.593  1.00  0.00    -0.343 N 
ATOM      3  H2  UNL     1      -0.047  -0.695  -2.352  1.00  0.00     0.163 HD
HETATM    4  C9  UNL     1      -1.702   0.340  -1.947  1.00  0.00     0.241 C 
HETATM    5  O1  UNL     1      -2.420  -0.289  -2.774  1.00  0.00    -0.271 OA
HETATM    6  C10 UNL     1      -2.415   1.614  -1.507  1.00  0.00     0.176 C 
HETATM    7  N4  UNL     1      -2.487   1.712  -0.090  1.00  0.00    -0.346 N 
ATOM      8  H4  UNL     1      -1.698   2.206   0.326  1.00  0.00     0.163 HD
HETATM    9  C15 UNL     1      -3.425   1.265   0.846  1.00  0.00     0.241 C 
HETATM   10  O2  UNL     1      -3.938   2.180   1.609  1.00  0.00    -0.271 OA
HETATM   11  C16 UNL     1      -3.946  -0.100   1.130  1.00  0.00     0.179 C 
HETATM   12  N5  UNL     1      -4.461  -0.801   0.006  1.00  0.00    -0.359 N 
ATOM     13  H5  UNL     1      -4.560  -0.183  -0.799  1.00  0.00     0.162 HD
HETATM   14  C20 UNL     1      -4.863  -2.082  -0.298  1.00  0.00     0.135 C 
HETATM   15  C21 UNL     1      -4.366  -3.433  -0.275  1.00  0.00     0.162 C 
HETATM   16  C22 UNL     1      -5.564  -4.392  -0.278  1.00  0.00     0.035 C 
HETATM   17  C23 UNL     1      -5.589  -4.771   1.171  1.00  0.00     0.022 C 
HETATM   18  C24 UNL     1      -4.155  -5.057   1.363  1.00  0.00     0.127 C 
HETATM   19  N6  UNL     1      -3.458  -3.929   0.690  1.00  0.00    -0.335 N 
HETATM   20  C25 UNL     1      -2.160  -3.549   1.029  1.00  0.00     0.266 C 
HETATM   21  O4  UNL     1      -2.015  -3.274   2.287  1.00  0.00    -0.266 OA
HETATM   22  C26 UNL     1      -0.904  -3.392   0.271  1.00  0.00     0.076 C 
HETATM   23  C27 UNL     1      -0.988  -3.440  -1.193  1.00  0.00     0.074 C 
HETATM   24  N7  UNL     1      -0.070  -2.375   0.859  1.00  0.00    -0.324 N 
ATOM     25  H7  UNL     1       0.617  -2.745   1.516  1.00  0.00     0.169 HD
HETATM   26  C28 UNL     1      -0.007  -0.983   0.716  1.00  0.00     0.248 C 
HETATM   27  O5  UNL     1      -0.312  -0.327   1.792  1.00  0.00    -0.271 OA
ENDROOT
BRANCH   1  28
HETATM   28  C7  UNL     1       1.828  -0.211  -0.720  1.00  0.00     0.003 C 
HETATM   29  C6  UNL     1       2.396  -0.791  -1.737  1.00  0.00    -0.028 C 
BRANCH  29  30
HETATM   30  C5  UNL     1       3.872  -0.786  -1.906  1.00  0.00     0.028 C 
BRANCH  30  31
HETATM   31  C4  UNL     1       4.598  -0.062  -0.785  1.00  0.00     0.032 C 
BRANCH  31  32
HETATM   32  C3  UNL     1       6.067  -0.144  -1.101  1.00  0.00     0.237 C 
BRANCH  32  33
HETATM   33  N1  UNL     1       6.924   0.463  -0.125  1.00  0.00    -0.067 N 
HETATM   34  C29 UNL     1       7.336  -0.608   0.779  1.00  0.00     0.237 C 
HETATM   35  C30 UNL     1       7.332  -0.028   2.166  1.00  0.00     0.029 C 
HETATM   36  C31 UNL     1       6.890   1.393   2.048  1.00  0.00     0.029 C 
HETATM   37  C32 UNL     1       6.269   1.439   0.658  1.00  0.00     0.237 C 
BRANCH  33  38
HETATM   38  C2  UNL     1       8.077   0.978  -0.851  1.00  0.00     0.233 C 
HETATM   39  C1  UNL     1       9.049   1.734  -0.017  1.00  0.00     0.035 C 
ENDBRANCH  33  38
ENDBRANCH  32  33
ENDBRANCH  31  32
ENDBRANCH  30  31
ENDBRANCH  29  30
ENDBRANCH   1  28
BRANCH   6  40
HETATM   40  C11 UNL     1      -1.704   2.749  -2.198  1.00  0.00     0.035 C 
BRANCH  40  41
HETATM   41  C12 UNL     1      -2.178   4.105  -2.032  1.00  0.00     0.004 C 
BRANCH  41  42
HETATM   42  C13 UNL     1      -2.166   4.680  -0.658  1.00  0.00     0.027 C 
BRANCH  42  43
HETATM   43  C14 UNL     1      -2.632   6.161  -0.763  1.00  0.00     0.229 C 
BRANCH  43  44
HETATM   44  N3  UNL     1      -1.738   6.905  -1.619  1.00  0.00    -0.079 N 
ATOM     45  H33 UNL     1      -0.768   6.831  -1.313  1.00  0.00     0.274 HD
ATOM     46  H32 UNL     1      -1.639   6.471  -2.537  1.00  0.00     0.274 HD
ATOM     47  H31 UNL     1      -2.043   7.876  -1.688  1.00  0.00     0.274 HD
ENDBRANCH  43  44
ENDBRANCH  42  43
ENDBRANCH  41  42
ENDBRANCH  40  41
ENDBRANCH   6  40
BRANCH  11  48
HETATM   48  C17 UNL     1      -5.005   0.028   2.258  1.00  0.00     0.009 C 
HETATM   49  C18 UNL     1      -6.140   0.905   1.858  1.00  0.00     0.012 C 
HETATM   50  C19 UNL     1      -5.347  -1.253   2.903  1.00  0.00     0.012 C 
ENDBRANCH  11  48
BRANCH  14  51
HETATM   51  O3  UNL     1      -6.095  -2.079  -0.762  1.00  0.00    -0.348 OA
ATOM     52  H3  UNL     1      -6.372  -2.963  -0.972  1.00  0.00     0.219 HD
ENDBRANCH  14  51
TORSDOF 13
