REMARK  5 active torsions:
REMARK  status: ('A' for Active; 'I' for Inactive)
REMARK    1  A    between atoms: C3_4  and  N2_5 
REMARK    2  A    between atoms: N3_9  and  C7_10 
REMARK    3  A    between atoms: C7_10  and  C8_11 
REMARK    4  A    between atoms: C8_11  and  C9_12 
REMARK    5  A    between atoms: C15_23  and  N5_24 
ROOT
HETATM    1  N1  UNL     1      -1.094   3.144   0.666  1.00  0.00    -0.191 NA
HETATM    2  C1  UNL     1      -1.852   2.310   0.410  1.00  0.00     0.105 C 
HETATM    3  C2  UNL     1      -2.816   1.286   0.110  1.00  0.00     0.117 A 
HETATM    4  C3  UNL     1      -2.467  -0.013  -0.186  1.00  0.00     0.127 A 
HETATM    5  N4  UNL     1      -3.429  -0.942  -0.456  1.00  0.00    -0.348 N 
ATOM      6  H4  UNL     1      -3.146  -1.897  -0.674  1.00  0.00     0.167 HD
HETATM    7  C13 UNL     1      -4.738  -0.638  -0.444  1.00  0.00     0.134 A 
HETATM    8  C14 UNL     1      -5.146   0.642  -0.155  1.00  0.00     0.159 A 
HETATM    9  F1  UNL     1      -6.471   1.008  -0.129  1.00  0.00    -0.202 F 
HETATM   10  C15 UNL     1      -4.168   1.606   0.123  1.00  0.00     0.091 A 
ENDROOT
BRANCH   4  11
HETATM   11  N2  UNL     1      -1.090  -0.378  -0.209  1.00  0.00    -0.361 N 
HETATM   12  C4  UNL     1      -0.705  -1.230   0.881  1.00  0.00     0.126 C 
HETATM   13  C5  UNL     1       0.279  -2.297   0.458  1.00  0.00     0.040 C 
HETATM   14  C6  UNL     1       1.483  -1.733  -0.230  1.00  0.00     0.128 C 
HETATM   15  N3  UNL     1       1.521  -0.333   0.052  1.00  0.00    -0.372 N 
HETATM   16  C11 UNL     1       1.079   0.532  -0.948  1.00  0.00     0.083 C 
HETATM   17  C12 UNL     1      -0.358   0.178  -1.321  1.00  0.00     0.169 C 
BRANCH  15  18
HETATM   18  C7  UNL     1       2.396   0.089   1.051  1.00  0.00     0.068 C 
BRANCH  18  19
HETATM   19  C8  UNL     1       3.873  -0.023   0.747  1.00  0.00     0.097 C 
BRANCH  19  20
HETATM   20  C9  UNL     1       4.305   0.778  -0.412  1.00  0.00     0.027 C 
HETATM   21 CL1  UNL     1       4.140   2.516  -0.388  1.00  0.00    -0.088 Cl
HETATM   22  C10 UNL     1       4.828   0.210  -1.485  1.00  0.00     0.104 C 
HETATM   23 CL2  UNL     1       5.333   1.214  -2.862  1.00  0.00    -0.096 Cl
ENDBRANCH  19  20
ENDBRANCH  18  19
ENDBRANCH  15  18
ENDBRANCH   4  11
BRANCH  10  24
HETATM   24  N5  UNL     1      -4.505   2.808   0.390  1.00  0.00    -0.395 N 
ATOM     25  H52 UNL     1      -3.793   3.510   0.592  1.00  0.00     0.156 HD
ATOM     26  H51 UNL     1      -5.498   3.043   0.400  1.00  0.00     0.156 HD
ENDBRANCH  10  24
TORSDOF 5
