REMARK  11 active torsions:
REMARK  status: ('A' for Active; 'I' for Inactive)
REMARK    1  A    between atoms: C2_2  and  C3_3 
REMARK    2  A    between atoms: C2_2  and  C22_25 
REMARK    3  A    between atoms: C3_3  and  O2_5 
REMARK    4  A    between atoms: O2_5  and  C4_6 
REMARK    5  A    between atoms: C13_15  and  C15_17 
REMARK    6  A    between atoms: C15_17  and  N1_18 
REMARK    7  A    between atoms: C22_25  and  C23_27 
REMARK    8  A    between atoms: C26_30  and  C27_31 
REMARK    9  A    between atoms: C27_31  and  O4_33 
REMARK   10  A    between atoms: C27_31  and  C29_35 
REMARK   11  A    between atoms: C29_35  and  O5_36 
ROOT
HETATM    1  O2  UNL     1       0.811  -0.129   0.889  1.00  0.00    -0.315 OA
ENDROOT
BRANCH   1   2
HETATM    2  C3  UNL     1       1.383  -1.373   0.595  1.00  0.00     0.270 C 
HETATM    3  O1  UNL     1       0.584  -2.186   0.069  1.00  0.00    -0.264 OA
BRANCH   2   4
HETATM    4  C2  UNL     1       2.767  -1.763   0.844  1.00  0.00     0.151 C 
HETATM    5  C1  UNL     1       2.898  -3.249   0.481  1.00  0.00     0.029 C 
BRANCH   4   6
HETATM    6  C22 UNL     1       3.749  -1.075  -0.055  1.00  0.00     0.144 C 
HETATM    7  O3  UNL     1       3.443  -0.225  -0.849  1.00  0.00    -0.297 OA
BRANCH   6   8
HETATM    8  C23 UNL     1       5.170  -1.534   0.111  1.00  0.00     0.060 C 
HETATM    9  C24 UNL     1       5.705  -1.267   1.484  1.00  0.00     0.013 C 
HETATM   10  C25 UNL     1       6.877  -0.336   1.338  1.00  0.00     0.009 C 
HETATM   11  C26 UNL     1       6.836   0.135  -0.062  1.00  0.00     0.026 C 
HETATM   12  C30 UNL     1       6.114  -0.887  -0.859  1.00  0.00    -0.000 C 
HETATM   13  C31 UNL     1       6.992  -1.983  -1.433  1.00  0.00     0.011 C 
BRANCH  11  14
HETATM   14  C27 UNL     1       8.189   0.486  -0.630  1.00  0.00     0.079 C 
HETATM   15  C28 UNL     1       8.096   0.959  -2.065  1.00  0.00     0.048 C 
BRANCH  14  16
HETATM   16  O4  UNL     1       9.060  -0.599  -0.527  1.00  0.00    -0.388 OA
ATOM     17  H4  UNL     1       9.912  -0.378  -0.885  1.00  0.00     0.210 HD
ENDBRANCH  14  16
BRANCH  14  18
HETATM   18  C29 UNL     1       8.762   1.638   0.158  1.00  0.00     0.201 C 
BRANCH  18  19
HETATM   19  O5  UNL     1       8.954   1.342   1.504  1.00  0.00    -0.398 OA
ATOM     20  H5  UNL     1       9.315   2.067   2.000  1.00  0.00     0.209 HD
ENDBRANCH  18  19
ENDBRANCH  14  18
ENDBRANCH  11  14
ENDBRANCH   6   8
ENDBRANCH   4   6
ENDBRANCH   2   4
ENDBRANCH   1   2
BRANCH   1  21
HETATM   21  C4  UNL     1      -0.537   0.169   0.610  1.00  0.00     0.136 C 
HETATM   22  C5  UNL     1      -0.864   1.474  -0.021  1.00  0.00     0.038 C 
HETATM   23  C6  UNL     1      -1.725   1.802   1.177  1.00  0.00    -0.001 C 
HETATM   24  C7  UNL     1      -1.241   0.602   1.916  1.00  0.00     0.020 C 
HETATM   25  C11 UNL     1      -3.186   1.898   0.960  1.00  0.00    -0.005 C 
HETATM   26  C8  UNL     1      -2.233  -0.404   2.332  1.00  0.00     0.008 C 
HETATM   27  C9  UNL     1      -3.612   0.050   2.598  1.00  0.00     0.006 C 
HETATM   28  C10 UNL     1      -4.000   1.416   2.136  1.00  0.00    -0.006 C 
HETATM   29  C20 UNL     1      -5.390   1.509   1.577  1.00  0.00    -0.004 C 
HETATM   30  C13 UNL     1      -5.265   1.290   0.084  1.00  0.00    -0.014 C 
HETATM   31  C21 UNL     1      -6.428   0.720   2.266  1.00  0.00     0.011 C 
HETATM   32  C12 UNL     1      -3.750   1.130  -0.170  1.00  0.00     0.016 C 
HETATM   33  C14 UNL     1      -5.661   2.522  -0.682  1.00  0.00     0.017 C 
BRANCH  30  34
HETATM   34  C15 UNL     1      -6.015   0.099  -0.360  1.00  0.00     0.281 C 
BRANCH  34  35
HETATM   35  N1  UNL     1      -5.951  -0.301  -1.714  1.00  0.00     0.089 N 
HETATM   36  C16 UNL     1      -6.499  -1.697  -1.830  1.00  0.00     0.272 C 
HETATM   37  C17 UNL     1      -7.962  -1.437  -1.471  1.00  0.00     0.032 C 
HETATM   38  C18 UNL     1      -8.256  -0.075  -2.045  1.00  0.00     0.032 C 
HETATM   39  C19 UNL     1      -6.890   0.332  -2.610  1.00  0.00     0.272 C 
ENDBRANCH  34  35
ENDBRANCH  30  34
ENDBRANCH   1  21
TORSDOF 11
