REMARK  9 active torsions:
REMARK  status: ('A' for Active; 'I' for Inactive)
REMARK    1  A    between atoms: O1_2  and  C2_3 
REMARK    2  A    between atoms: C5_6  and  C6_7 
REMARK    3  A    between atoms: C6_7  and  O2_8 
REMARK    4  A    between atoms: C7_10  and  C8_11 
REMARK    5  A    between atoms: C7_10  and  C19_26 
REMARK    6  A    between atoms: C9_12  and  C10_13 
REMARK    7  A    between atoms: C12_15  and  O3_16 
REMARK    8  A    between atoms: C14_18  and  O4_19 
REMARK    9  A    between atoms: C16_21  and  O5_22 
ROOT
HETATM    1  C6  UNL     1       1.888   0.685  -0.667  1.00  0.00     0.086 C 
HETATM    2  C7  UNL     1       0.683   1.264  -0.186  1.00  0.00     0.000 C 
ENDROOT
BRANCH   2   3
HETATM    3  C8  UNL     1      -0.333   0.302   0.370  1.00  0.00     0.015 C 
HETATM    4  C9  UNL     1      -0.411  -0.961   0.182  1.00  0.00     0.014 C 
BRANCH   4   5
HETATM    5  C10 UNL     1      -1.462  -1.808   0.794  1.00  0.00    -0.013 A 
HETATM    6  C11 UNL     1      -2.397  -1.296   1.678  1.00  0.00     0.052 A 
HETATM    7  C12 UNL     1      -3.394  -2.130   2.191  1.00  0.00     0.105 A 
HETATM    8  C14 UNL     1      -3.476  -3.442   1.850  1.00  0.00     0.136 A 
HETATM    9  C16 UNL     1      -2.538  -3.948   0.968  1.00  0.00     0.122 A 
HETATM   10  C18 UNL     1      -1.538  -3.136   0.442  1.00  0.00     0.057 A 
HETATM   11 BR1  UNL     1      -0.251  -3.879  -0.781  1.00  0.00    -0.047 Br
BRANCH   7  12
HETATM   12  O3  UNL     1      -4.320  -1.562   3.086  1.00  0.00    -0.353 OA
HETATM   13  C13 UNL     1      -4.297  -0.229   3.489  1.00  0.00     0.210 C 
ENDBRANCH   7  12
BRANCH   8  14
HETATM   14  O4  UNL     1      -4.484  -4.221   2.390  1.00  0.00    -0.351 OA
HETATM   15  C15 UNL     1      -4.413  -4.976   3.559  1.00  0.00     0.210 C 
ENDBRANCH   8  14
BRANCH   9  16
HETATM   16  O5  UNL     1      -2.591  -5.267   0.606  1.00  0.00    -0.352 OA
HETATM   17  C17 UNL     1      -3.327  -5.687  -0.501  1.00  0.00     0.210 C 
ENDBRANCH   9  16
ENDBRANCH   4   5
ENDBRANCH   2   3
BRANCH   2  18
HETATM   18  C19 UNL     1       0.391   2.513   0.158  1.00  0.00    -0.065 C 
HETATM   19  C20 UNL     1       1.100   3.802   0.230  1.00  0.00     0.036 C 
HETATM   20  C21 UNL     1       0.173   4.733  -0.546  1.00  0.00     0.025 C 
HETATM   21  C22 UNL     1      -1.205   4.206  -0.298  1.00  0.00     0.086 C 
HETATM   22 CL1  UNL     1      -2.220   5.415   0.543  1.00  0.00    -0.125 Cl
HETATM   23  C23 UNL     1      -1.025   2.972   0.545  1.00  0.00     0.055 C 
ENDBRANCH   2  18
BRANCH   1  24
HETATM   24  C5  UNL     1       3.004   1.167  -1.429  1.00  0.00     0.001 A 
HETATM   25  C4  UNL     1       4.217   0.446  -1.439  1.00  0.00     0.017 A 
HETATM   26  C3  UNL     1       5.272   0.803  -2.251  1.00  0.00     0.041 A 
HETATM   27  C2  UNL     1       5.189   1.881  -3.091  1.00  0.00     0.106 A 
HETATM   28  C25 UNL     1       4.019   2.584  -3.089  1.00  0.00     0.150 A 
HETATM   29  C24 UNL     1       2.942   2.232  -2.270  1.00  0.00     0.059 A 
HETATM   30  F1  UNL     1       3.884   3.671  -3.906  1.00  0.00    -0.203 F 
BRANCH  27  31
HETATM   31  O1  UNL     1       6.247   2.260  -3.920  1.00  0.00    -0.353 OA
HETATM   32  C1  UNL     1       7.469   1.512  -3.917  1.00  0.00     0.210 C 
ENDBRANCH  27  31
ENDBRANCH   1  24
BRANCH   1  33
HETATM   33  O2  UNL     1       2.062  -0.603  -0.369  1.00  0.00    -0.359 OA
ATOM     34  H2  UNL     1       1.323  -0.922   0.136  1.00  0.00     0.217 HD
ENDBRANCH   1  33
TORSDOF 9
