REMARK  5 active torsions:
REMARK  status: ('A' for Active; 'I' for Inactive)
REMARK    1  A    between atoms: O1_2  and  C2_3 
REMARK    2  A    between atoms: C2_3  and  C3_5 
REMARK    3  A    between atoms: C3_5  and  C4_6 
REMARK    4  A    between atoms: C4_6  and  C5_7 
REMARK    5  A    between atoms: C5_7  and  C6_9 
ROOT
HETATM    1  C6  UNL     1      -0.691   0.877   0.718  1.00  0.00     0.202 C 
HETATM    2  C7  UNL     1      -0.947  -0.021  -0.415  1.00  0.00     0.066 C 
HETATM    3  C8  UNL     1      -2.358  -0.134  -0.867  1.00  0.00     0.129 C 
HETATM    4  O3  UNL     1      -2.542  -1.483  -1.283  1.00  0.00    -0.385 OA
HETATM    5  C9  UNL     1      -2.788  -2.196  -0.137  1.00  0.00     0.168 C 
HETATM    6  C10 UNL     1      -3.596  -1.286   0.725  1.00  0.00     0.035 C 
HETATM    7  C11 UNL     1      -3.421   0.099   0.140  1.00  0.00     0.042 C 
HETATM    8  C12 UNL     1      -3.038   1.149   1.107  1.00  0.00     0.239 C 
HETATM    9  N1  UNL     1      -1.815   1.830   0.803  1.00  0.00    -0.069 N 
ATOM     10  H11 UNL     1      -1.897   2.393  -0.044  1.00  0.00     0.277 HD
ATOM     11  H12 UNL     1      -1.625   2.579   1.468  1.00  0.00     0.277 HD
ENDROOT
BRANCH   1  12
HETATM   12  C5  UNL     1       0.559   1.643   0.781  1.00  0.00     0.089 C 
HETATM   13  S1  UNL     1       0.579   2.936  -0.531  1.00  0.00    -0.090 SA
BRANCH  12  14
HETATM   14  C4  UNL     1       1.853   0.962   0.824  1.00  0.00     0.028 C 
BRANCH  14  15
HETATM   15  C3  UNL     1       2.362   0.245  -0.360  1.00  0.00     0.112 C 
BRANCH  15  16
HETATM   16  C2  UNL     1       3.713  -0.327   0.009  1.00  0.00     0.258 C 
HETATM   17  O2  UNL     1       4.202  -0.153   1.147  1.00  0.00    -0.265 OA
BRANCH  16  18
HETATM   18  O1  UNL     1       4.455  -1.066  -0.904  1.00  0.00    -0.326 OA
HETATM   19  C1  UNL     1       5.723  -1.609  -0.574  1.00  0.00     0.213 C 
ENDBRANCH  16  18
ENDBRANCH  15  16
ENDBRANCH  14  15
ENDBRANCH  12  14
ENDBRANCH   1  12
TORSDOF 5
