REMARK  2 active torsions:
REMARK  status: ('A' for Active; 'I' for Inactive)
REMARK    1  A    between atoms: C6_11  and  C7_12 
REMARK    2  A    between atoms: C7_12  and  C9_14 
ROOT
HETATM    1  C1  UNL     1      -0.438   2.165  -1.493  1.00  0.00     0.065 C 
HETATM    2  C2  UNL     1      -0.759   1.104  -0.511  1.00  0.00     0.010 C 
HETATM    3  N1  UNL     1      -1.979   0.969  -0.074  1.00  0.00    -0.389 N 
ATOM      4  H1  UNL     1      -2.739   1.574  -0.385  1.00  0.00     0.159 HD
HETATM    5  C3  UNL     1      -2.180  -0.091   0.876  1.00  0.00     0.102 C 
HETATM    6  C4  UNL     1      -3.632  -0.274   1.218  1.00  0.00     0.034 C 
HETATM    7  C5  UNL     1      -1.595  -1.383   0.392  1.00  0.00     0.257 C 
HETATM    8  N2  UNL     1      -0.330  -1.193  -0.243  1.00  0.00    -0.064 N 
ATOM      9  H21 UNL     1      -0.385  -1.364  -1.247  1.00  0.00     0.278 HD
ATOM     10  H22 UNL     1       0.329  -1.931   0.005  1.00  0.00     0.278 HD
HETATM   11  C6  UNL     1       0.214   0.137   0.049  1.00  0.00     0.237 C 
ENDROOT
BRANCH  11  12
HETATM   12  C7  UNL     1       1.603   0.298  -0.474  1.00  0.00     0.056 C 
HETATM   13  C8  UNL     1       1.748   0.133  -1.946  1.00  0.00     0.015 C 
BRANCH  12  14
HETATM   14  C9  UNL     1       2.497  -0.695   0.239  1.00  0.00     0.115 C 
HETATM   15  C10 UNL     1       2.498  -0.459   1.736  1.00  0.00     0.051 C 
HETATM   16 CL1  UNL     1       2.054  -2.374  -0.042  1.00  0.00    -0.102 Cl
HETATM   17 CL2  UNL     1       4.142  -0.459  -0.437  1.00  0.00    -0.102 Cl
ENDBRANCH  12  14
ENDBRANCH  11  12
TORSDOF 2
