REMARK  4 active torsions:
REMARK  status: ('A' for Active; 'I' for Inactive)
REMARK    1  A    between atoms: C2_2  and  C3_3 
REMARK    2  A    between atoms: C10_11  and  C11_12 
REMARK    3  A    between atoms: C14_15  and  O1_16 
REMARK    4  A    between atoms: C16_18  and  O2_19 
ROOT
HETATM    1  C3  UNL     1      -3.120  -0.649  -0.214  1.00  0.00     0.009 C 
HETATM    2  C4  UNL     1      -4.223   0.371  -0.009  1.00  0.00     0.087 C 
HETATM    3 CL1  UNL     1      -5.002   0.340   1.557  1.00  0.00    -0.125 Cl
HETATM    4  C5  UNL     1      -3.418   1.679  -0.184  1.00  0.00     0.027 C 
HETATM    5  C6  UNL     1      -2.134   1.378   0.590  1.00  0.00     0.012 A 
HETATM    6  C7  UNL     1      -1.971  -0.098   0.560  1.00  0.00     0.007 A 
HETATM    7  C8  UNL     1      -0.638   0.091  -0.187  1.00  0.00    -0.014 A 
HETATM    8  C9  UNL     1      -0.691  -0.671  -1.452  1.00  0.00     0.018 C 
HETATM    9  C10 UNL     1       0.501  -0.167   0.765  1.00  0.00     0.030 C 
HETATM   10  C18 UNL     1       0.427   1.071   1.719  1.00  0.00     0.012 C 
HETATM   11  C19 UNL     1       0.184   2.197   0.726  1.00  0.00     0.023 C 
HETATM   12  C20 UNL     1      -0.864   1.553  -0.178  1.00  0.00     0.031 A 
HETATM   13  S1  UNL     1      -1.046   2.399  -1.758  1.00  0.00    -0.085 SA
ENDROOT
BRANCH   9  14
HETATM   14  C11 UNL     1       1.855  -0.241   0.222  1.00  0.00    -0.029 A 
HETATM   15  C12 UNL     1       2.288   0.290  -0.953  1.00  0.00     0.012 A 
HETATM   16  C13 UNL     1       3.628   0.205  -1.375  1.00  0.00     0.040 A 
HETATM   17  C14 UNL     1       4.573  -0.425  -0.610  1.00  0.00     0.103 A 
HETATM   18  C16 UNL     1       4.141  -0.968   0.591  1.00  0.00     0.121 A 
HETATM   19  C17 UNL     1       2.843  -0.882   0.991  1.00  0.00     0.076 A 
HETATM   20 CL2  UNL     1       2.315  -1.584   2.514  1.00  0.00    -0.081 Cl
BRANCH  17  21
HETATM   21  O1  UNL     1       5.915  -0.534  -0.992  1.00  0.00    -0.353 OA
HETATM   22  C15 UNL     1       6.376   0.005  -2.214  1.00  0.00     0.210 C 
ENDBRANCH  17  21
BRANCH  18  23
HETATM   23  O2  UNL     1       5.092  -1.611   1.381  1.00  0.00    -0.356 OA
ATOM     24  H2  UNL     1       4.796  -1.983   2.204  1.00  0.00     0.218 HD
ENDBRANCH  18  23
ENDBRANCH   9  14
BRANCH   1  25
HETATM   25  C2  UNL     1      -3.544  -2.011   0.175  1.00  0.00     0.002 C 
HETATM   26  C1  UNL     1      -3.929  -2.272   1.581  1.00  0.00     0.005 C 
ENDBRANCH   1  25
TORSDOF 4
