REMARK  17 active torsions:
REMARK  status: ('A' for Active; 'I' for Inactive)
REMARK    1  A    between atoms: C2_2  and  C3_3 
REMARK    2  A    between atoms: C2_2  and  C9_11 
REMARK    3  A    between atoms: C3_3  and  O1_4 
REMARK    4  A    between atoms: O1_4  and  C4_5 
REMARK    5  A    between atoms: C4_5  and  C5_7 
REMARK    6  A    between atoms: C10_12  and  O3_13 
REMARK    7  A    between atoms: C11_15  and  O4_16 
REMARK    8  A    between atoms: C12_18  and  C13_19 
REMARK    9  A    between atoms: C13_19  and  C14_20 
REMARK   10  A    between atoms: C14_20  and  C15_21 
REMARK   11  A    between atoms: C15_21  and  C17_23 
REMARK   12  A    between atoms: C17_23  and  C18_24 
REMARK   13  A    between atoms: C18_24  and  C19_25 
REMARK   14  A    between atoms: C19_25  and  C20_26 
REMARK   15  A    between atoms: C31_41  and  C32_42 
REMARK   16  A    between atoms: C32_42  and  C33_43 
REMARK   17  A    between atoms: C33_43  and  O9_44 
ROOT
HETATM    1  C9  UNL     1       4.105  -0.021   0.972  1.00  0.00     0.052 C 
HETATM    2  C10 UNL     1       3.381   1.008   1.706  1.00  0.00     0.156 C 
HETATM    3  C11 UNL     1       1.904   0.888   1.231  1.00  0.00     0.155 C 
HETATM    4  C12 UNL     1       2.065   0.447  -0.151  1.00  0.00     0.044 C 
HETATM    5  C31 UNL     1       3.089  -0.682  -0.006  1.00  0.00     0.008 C 
ENDROOT
BRANCH   4   6
HETATM    6  C13 UNL     1       0.980   0.158  -1.040  1.00  0.00    -0.019 C 
BRANCH   6   7
HETATM    7  C14 UNL     1      -0.282   0.061  -1.094  1.00  0.00     0.003 C 
BRANCH   7   8
HETATM    8  C15 UNL     1      -1.376   0.211  -0.180  1.00  0.00    -0.062 C 
HETATM    9  C16 UNL     1      -2.337   1.067  -1.568  1.00  0.00     0.048 C 
BRANCH   8  10
HETATM   10  C17 UNL     1      -2.287   0.335   0.578  1.00  0.00     0.006 C 
BRANCH  10  11
HETATM   11  C18 UNL     1      -3.755   0.138   0.259  1.00  0.00    -0.001 C 
BRANCH  11  12
HETATM   12  C19 UNL     1      -4.715   0.296   0.984  1.00  0.00     0.013 C 
BRANCH  12  13
HETATM   13  C20 UNL     1      -6.191   0.194   1.008  1.00  0.00     0.101 C 
HETATM   14  O5  UNL     1      -6.453  -1.100   1.592  1.00  0.00    -0.299 OA
HETATM   15  C21 UNL     1      -7.707  -1.633   1.412  1.00  0.00     0.331 C 
HETATM   16  O6  UNL     1      -8.098  -2.729   1.922  1.00  0.00    -0.256 OA
HETATM   17  C22 UNL     1      -8.662  -0.906   0.584  1.00  0.00     0.236 C 
HETATM   18  O7  UNL     1      -9.889  -1.107   0.736  1.00  0.00    -0.286 OA
HETATM   19  C23 UNL     1      -8.208   0.071  -0.441  1.00  0.00     0.146 C 
HETATM   20  C24 UNL     1      -8.593   1.429   0.105  1.00  0.00     0.140 C 
HETATM   21  C28 UNL     1      -6.689   0.083  -0.407  1.00  0.00     0.006 C 
HETATM   22  O8  UNL     1      -9.183   2.163  -0.653  1.00  0.00    -0.297 OA
HETATM   23  C25 UNL     1      -8.200   1.679   1.480  1.00  0.00     0.086 C 
HETATM   24  C26 UNL     1      -6.815   1.238   1.837  1.00  0.00     0.028 C 
HETATM   25  C27 UNL     1      -6.916   0.662   3.256  1.00  0.00     0.014 C 
HETATM   26  C29 UNL     1      -6.169   1.214  -1.298  1.00  0.00     0.019 C 
HETATM   27  C30 UNL     1      -6.180  -1.216  -0.995  1.00  0.00     0.019 C 
ENDBRANCH  12  13
ENDBRANCH  11  12
ENDBRANCH  10  11
ENDBRANCH   8  10
ENDBRANCH   7   8
ENDBRANCH   6   7
ENDBRANCH   4   6
BRANCH   3  28
HETATM   28  O4  UNL     1       1.166   0.093   2.089  1.00  0.00    -0.392 OA
ATOM     29  H4  UNL     1       0.264   0.020   1.799  1.00  0.00     0.210 HD
ENDBRANCH   3  28
BRANCH   5  30
HETATM   30  C32 UNL     1       2.656  -1.964   0.540  1.00  0.00     0.032 C 
BRANCH  30  31
HETATM   31  C33 UNL     1       1.718  -2.826  -0.219  1.00  0.00     0.164 C 
BRANCH  31  32
HETATM   32  O9  UNL     1       2.219  -3.164  -1.486  1.00  0.00    -0.401 OA
ATOM     33  H9  UNL     1       1.618  -3.716  -1.972  1.00  0.00     0.209 HD
ENDBRANCH  31  32
ENDBRANCH  30  31
ENDBRANCH   5  30
BRANCH   2  34
HETATM   34  O3  UNL     1       3.729   2.323   1.576  1.00  0.00    -0.392 OA
ATOM     35  H3  UNL     1       3.257   2.994   2.055  1.00  0.00     0.210 HD
ENDBRANCH   2  34
BRANCH   1  36
HETATM   36  C2  UNL     1       5.344   0.244   0.255  1.00  0.00    -0.058 C 
HETATM   37  C1  UNL     1       5.980   1.309  -0.009  1.00  0.00     0.017 C 
BRANCH  36  38
HETATM   38  C3  UNL     1       5.996  -1.064  -0.259  1.00  0.00     0.213 C 
BRANCH  38  39
HETATM   39  O1  UNL     1       7.206  -0.796  -0.888  1.00  0.00    -0.314 OA
BRANCH  39  40
HETATM   40  C4  UNL     1       8.318  -0.446  -0.117  1.00  0.00     0.283 C 
HETATM   41  O2  UNL     1       8.157  -0.412   1.160  1.00  0.00    -0.260 OA
BRANCH  40  42
HETATM   42  C5  UNL     1       9.617  -0.119  -0.609  1.00  0.00     0.084 C 
HETATM   43  C6  UNL     1       9.940  -0.104  -1.897  1.00  0.00    -0.082 C 
HETATM   44  C7  UNL     1       8.947  -0.439  -2.927  1.00  0.00     0.043 C 
HETATM   45  C8  UNL     1      11.334   0.299  -2.256  1.00  0.00     0.043 C 
ENDBRANCH  40  42
ENDBRANCH  39  40
ENDBRANCH  38  39
ENDBRANCH  36  38
ENDBRANCH   1  36
TORSDOF 17
