REMARK  9 active torsions:
REMARK  status: ('A' for Active; 'I' for Inactive)
REMARK    1  A    between atoms: N1_1  and  C1_4 
REMARK    2  A    between atoms: C2_7  and  N3_8 
REMARK    3  A    between atoms: N4_11  and  C3_12 
REMARK    4  A    between atoms: C4_14  and  N5_15 
REMARK    5  A    between atoms: N6_19  and  C5_20 
REMARK    6  A    between atoms: C5_20  and  C6_21 
REMARK    7  A    between atoms: C6_21  and  C7_22 
REMARK    8  A    between atoms: C7_22  and  C8_23 
REMARK    9  A    between atoms: C8_23  and  N7_24 
ROOT
HETATM    1  C1  UNL     1       0.562  -1.871  -1.062  1.00  0.00     0.708 A 
HETATM    2  N2  UNL     1       1.612  -2.489  -0.446  1.00  0.00    -0.020 N 
ATOM      3  H2  UNL     1       1.881  -3.470  -0.522  1.00  0.00     0.203 HD
HETATM    4  C2  UNL     1       2.216  -1.538   0.279  1.00  0.00     0.710 A 
HETATM    5  N4  UNL     1       1.584  -0.362   0.136  1.00  0.00    -0.073 N 
HETATM    6  N6  UNL     1       0.579  -0.582  -0.684  1.00  0.00    -0.104 N 
ENDROOT
BRANCH   6   7
HETATM    7  C5  UNL     1      -0.376   0.398  -1.104  1.00  0.00     0.169 C 
BRANCH   7   8
HETATM    8  C6  UNL     1      -1.546   0.587  -0.201  1.00  0.00     0.024 C 
BRANCH   8   9
HETATM    9  C7  UNL     1      -2.391  -0.639   0.021  1.00  0.00     0.029 C 
BRANCH   9  10
HETATM   10  C8  UNL     1      -3.519  -0.197   0.968  1.00  0.00     0.229 C 
BRANCH  10  11
HETATM   11  N7  UNL     1      -4.244   0.864   0.289  1.00  0.00    -0.079 N 
ATOM     12  H73 UNL     1      -3.645   1.633  -0.010  1.00  0.00     0.274 HD
ATOM     13  H72 UNL     1      -4.578   0.595  -0.636  1.00  0.00     0.274 HD
ATOM     14  H71 UNL     1      -4.992   1.157   0.917  1.00  0.00     0.274 HD
ENDBRANCH  10  11
ENDBRANCH   9  10
ENDBRANCH   8   9
ENDBRANCH   7   8
ENDBRANCH   6   7
BRANCH   1  15
HETATM   15  N1  UNL     1      -0.221  -2.526  -1.849  1.00  0.00    -0.233 N 
ATOM     16  H12 UNL     1      -0.234  -3.505  -2.136  1.00  0.00     0.174 HD
ATOM     17  H11 UNL     1      -1.005  -2.064  -2.309  1.00  0.00     0.174 HD
ENDBRANCH   1  15
BRANCH   5  18
HETATM   18  C3  UNL     1       2.025   0.835   0.812  1.00  0.00     0.322 A 
HETATM   19  O1  UNL     1       1.430   2.051   0.614  1.00  0.00    -0.324 OA
HETATM   20  C4  UNL     1       2.649   1.870  -0.031  1.00  0.00     0.372 A 
BRANCH  20  21
HETATM   21  N5  UNL     1       3.764   2.665   0.427  1.00  0.00    -0.048 N 
ATOM     22  H53 UNL     1       3.491   3.104   1.306  1.00  0.00     0.277 HD
ATOM     23  H52 UNL     1       4.499   2.024   0.727  1.00  0.00     0.277 HD
ATOM     24  H51 UNL     1       4.196   3.381  -0.157  1.00  0.00     0.277 HD
ENDBRANCH  20  21
ENDBRANCH   5  18
BRANCH   4  25
HETATM   25  N3  UNL     1       3.271  -1.766   1.010  1.00  0.00    -0.233 N 
ATOM     26  H32 UNL     1       3.751  -2.659   1.119  1.00  0.00     0.174 HD
ATOM     27  H31 UNL     1       3.731  -1.042   1.562  1.00  0.00     0.174 HD
ENDBRANCH   4  25
TORSDOF 9
