REMARK  15 active torsions:
REMARK  status: ('A' for Active; 'I' for Inactive)
REMARK    1  A    between atoms: C2_2  and  N1_3 
REMARK    2  A    between atoms: C2_2  and  C3_7 
REMARK    3  A    between atoms: C3_7  and  N2_8 
REMARK    4  A    between atoms: C3_7  and  N14_48 
REMARK    5  A    between atoms: N2_8  and  N3_9 
REMARK       I    between atoms: N3_9  and  C4_11 
REMARK       I    between atoms: C4_11  and  N4_13 
REMARK    6  A    between atoms: N4_13  and  C5_15 
REMARK    7  A    between atoms: C5_15  and  C6_20 
REMARK    8  A    between atoms: N5_16  and  O2_18 
REMARK    9  A    between atoms: N6_22  and  C8_23 
REMARK   10  A    between atoms: C11_29  and  N8_30 
REMARK   11  A    between atoms: C13_32  and  C14_33 
REMARK   12  A    between atoms: C14_33  and  N9_34 
REMARK   13  A    between atoms: C15_41  and  O3_42 
REMARK   14  A    between atoms: C16_53  and  C17_54 
REMARK   15  A    between atoms: C18_59  and  O4_60 
ROOT
HETATM    1  C5  UNL     1       0.440   0.923   2.047  1.00  0.00     0.159 C 
HETATM    2  N5  UNL     1       0.069   2.069   2.609  1.00  0.00    -0.251 N 
ATOM      3  H5  UNL     1       0.732   2.834   2.737  1.00  0.00     0.196 HD
ENDROOT
BRANCH   1   4
HETATM    4  N4  UNL     1       1.765   0.819   1.646  1.00  0.00    -0.290 N 
HETATM    5  C4  UNL     1       2.357  -0.277   1.023  1.00  0.00     0.337 C 
HETATM    6  N3  UNL     1       3.758  -0.227   0.675  1.00  0.00    -0.253 N 
HETATM    7  O1  UNL     1       1.762  -1.366   0.715  1.00  0.00    -0.246 OA
ATOM      8  H3  UNL     1       4.289   0.617   0.891  1.00  0.00     0.187 HD
ATOM      9  H4  UNL     1       2.364   1.625   1.825  1.00  0.00     0.172 HD
BRANCH   6  10
HETATM   10  N2  UNL     1       4.404  -1.279   0.061  1.00  0.00    -0.107 NA
BRANCH  10  11
HETATM   11  C3  UNL     1       5.837  -1.040   0.051  1.00  0.00     0.254 C 
BRANCH  11  12
HETATM   12  C2  UNL     1       6.587  -2.187  -0.590  1.00  0.00     0.221 C 
HETATM   13  C1  UNL     1       8.062  -1.853  -0.554  1.00  0.00     0.043 C 
BRANCH  12  14
HETATM   14  N1  UNL     1       6.355  -3.441   0.056  1.00  0.00    -0.072 N 
ATOM     15  H13 UNL     1       6.926  -4.187  -0.341  1.00  0.00     0.274 HD
ATOM     16  H12 UNL     1       6.728  -3.457   1.005  1.00  0.00     0.274 HD
ATOM     17  H11 UNL     1       5.360  -3.666   0.032  1.00  0.00     0.274 HD
ENDBRANCH  12  14
ENDBRANCH  11  12
BRANCH  11  18
HETATM   18  N14 UNL     1       6.039   0.144  -0.755  1.00  0.00    -0.230 N 
HETATM   19  N15 UNL     1       5.762   0.302  -2.052  1.00  0.00    -0.236 N 
HETATM   20  N16 UNL     1       6.085   1.524  -2.431  1.00  0.00    -0.279 N 
ATOM     21  H15 UNL     1       5.361  -0.414  -2.658  1.00  0.00     0.208 HD
HETATM   22  C16 UNL     1       6.588   2.210  -1.383  1.00  0.00     0.142 A 
ATOM     23  H16 UNL     1       5.972   1.895  -3.374  1.00  0.00     0.189 HD
HETATM   24  C18 UNL     1       6.545   1.298  -0.329  1.00  0.00     0.192 A 
BRANCH  22  25
HETATM   25  C17 UNL     1       7.059   3.581  -1.376  1.00  0.00     0.142 C 
HETATM   26  N17 UNL     1       7.014   4.260  -2.459  1.00  0.00    -0.386 N 
ATOM     27 2H17 UNL     1       6.650   3.834  -3.311  1.00  0.00     0.157 HD
ATOM     28 1H17 UNL     1       7.345   5.225  -2.454  1.00  0.00     0.157 HD
HETATM   29  N18 UNL     1       7.560   4.168  -0.202  1.00  0.00    -0.081 NA
ENDBRANCH  22  25
BRANCH  24  30
HETATM   30  O4  UNL     1       6.992   1.655   0.943  1.00  0.00    -0.343 OA
ATOM     31  H4  UNL     1       7.353   2.479   1.247  1.00  0.00     0.219 HD
ENDBRANCH  24  30
ENDBRANCH  11  18
ENDBRANCH  10  11
ENDBRANCH   6  10
ENDBRANCH   1   4
BRANCH   1  32
HETATM   32  C6  UNL     1      -0.622  -0.062   1.933  1.00  0.00     0.112 A 
HETATM   33  C7  UNL     1      -1.914   0.119   1.458  1.00  0.00     0.147 A 
HETATM   34  N6  UNL     1      -2.578  -1.035   1.565  1.00  0.00    -0.277 N 
HETATM   35  N12 UNL     1      -1.736  -1.926   2.093  1.00  0.00    -0.240 N 
HETATM   36  N13 UNL     1      -0.592  -1.346   2.305  1.00  0.00    -0.281 N 
ATOM     37  H12 UNL     1      -1.954  -2.901   2.297  1.00  0.00     0.208 HD
ATOM     38  H13 UNL     1       0.224  -1.811   2.704  1.00  0.00     0.188 HD
BRANCH  34  39
HETATM   39  C8  UNL     1      -3.920  -1.386   1.225  1.00  0.00     0.171 C 
HETATM   40  C9  UNL     1      -4.081  -2.054  -0.118  1.00  0.00     0.211 C 
HETATM   41  C10 UNL     1      -2.970  -1.816  -1.073  1.00  0.00     0.042 C 
HETATM   42  N7  UNL     1      -5.382  -1.632  -0.638  1.00  0.00    -0.044 N 
HETATM   43  C11 UNL     1      -6.062  -1.033   0.472  1.00  0.00     0.335 C 
ATOM     44  H72 UNL     1      -5.320  -1.026  -1.456  1.00  0.00     0.280 HD
ATOM     45  H71 UNL     1      -5.908  -2.383  -1.084  1.00  0.00     0.280 HD
HETATM   46  C15 UNL     1      -4.885  -0.241   1.095  1.00  0.00     0.196 C 
BRANCH  43  47
HETATM   47  N8  UNL     1      -7.170  -0.202   0.150  1.00  0.00    -0.251 N 
HETATM   48  C12 UNL     1      -8.069  -0.365  -0.834  1.00  0.00     0.138 A 
HETATM   49  C13 UNL     1      -8.969   0.673  -0.776  1.00  0.00     0.066 A 
HETATM   50  N10 UNL     1      -8.583   1.444   0.254  1.00  0.00    -0.285 N 
HETATM   51  N11 UNL     1      -7.496   0.900   0.800  1.00  0.00    -0.018 NA
ATOM     52  H10 UNL     1      -9.043   2.300   0.565  1.00  0.00     0.184 HD
BRANCH  49  53
HETATM   53  C14 UNL     1     -10.146   0.945  -1.640  1.00  0.00     0.288 C 
BRANCH  53  54
HETATM   54  N9  UNL     1      -9.814   1.775  -2.761  1.00  0.00    -0.074 N 
ATOM     55  H93 UNL     1      -9.369   2.642  -2.459  1.00  0.00     0.274 HD
ATOM     56  H92 UNL     1      -9.045   1.377  -3.300  1.00  0.00     0.274 HD
ATOM     57  H91 UNL     1     -10.622   1.962  -3.354  1.00  0.00     0.274 HD
ENDBRANCH  53  54
ENDBRANCH  49  53
ENDBRANCH  43  47
BRANCH  46  58
HETATM   58  O3  UNL     1      -4.469   0.734   0.181  1.00  0.00    -0.389 OA
ATOM     59  H3  UNL     1      -5.079   1.458   0.099  1.00  0.00     0.210 HD
ENDBRANCH  46  58
ENDBRANCH  34  39
ENDBRANCH   1  32
BRANCH   2  60
HETATM   60  O2  UNL     1      -1.223   2.185   3.006  1.00  0.00    -0.288 OA
ATOM     61  H2  UNL     1      -1.488   3.004   3.408  1.00  0.00     0.244 HD
ENDBRANCH   2  60
TORSDOF 15
