REMARK  2 active torsions:
REMARK  status: ('A' for Active; 'I' for Inactive)
REMARK    1  A    between atoms: C7_8  and  S1_9 
REMARK    2  A    between atoms: S1_9  and  C8_10 
ROOT
HETATM    1  C8  UNL     1       2.061   0.083   0.589  1.00  0.00     0.130 A 
HETATM    2  N1  UNL     1       3.217   0.564   1.059  1.00  0.00    -0.286 N 
ATOM      3  H1  UNL     1       3.305   0.801   2.047  1.00  0.00     0.188 HD
HETATM    4  N2  UNL     1       4.194   0.725   0.287  1.00  0.00    -0.279 N 
ATOM      5  H2  UNL     1       5.075   1.091   0.648  1.00  0.00     0.189 HD
HETATM    6  C9  UNL     1       4.078   0.416  -1.010  1.00  0.00     0.159 A 
HETATM    7  N3  UNL     1       4.966   0.510  -1.965  1.00  0.00    -0.379 N 
ATOM      8  H31 UNL     1       4.878   0.274  -2.953  1.00  0.00     0.158 HD
ATOM      9  H32 UNL     1       5.932   0.836  -1.937  1.00  0.00     0.158 HD
HETATM   10  S2  UNL     1       2.460  -0.130  -1.057  1.00  0.00    -0.027 SA
ENDROOT
BRANCH   1  11
HETATM   11  S1  UNL     1       0.687  -0.213   1.628  1.00  0.00    -0.098 SA
BRANCH  11  12
HETATM   12  C7  UNL     1      -0.809  -0.766   0.956  1.00  0.00     0.065 C 
HETATM   13  C2  UNL     1      -1.600   0.319   0.308  1.00  0.00    -0.004 C 
HETATM   14  C1  UNL     1      -0.850   1.044  -0.736  1.00  0.00     0.019 C 
HETATM   15  C3  UNL     1      -2.085   1.240   1.424  1.00  0.00     0.019 C 
HETATM   16  C4  UNL     1      -2.750  -0.467  -0.288  1.00  0.00     0.179 C 
HETATM   17  F1  UNL     1      -3.356   0.258  -1.298  1.00  0.00    -0.249 F 
HETATM   18  C5  UNL     1      -2.053  -1.678  -0.850  1.00  0.00     0.039 C 
HETATM   19  C6  UNL     1      -0.694  -1.755  -0.192  1.00  0.00     0.019 C 
ENDBRANCH  11  12
ENDBRANCH   1  11
TORSDOF 2
