REMARK  2 active torsions:
REMARK  status: ('A' for Active; 'I' for Inactive)
REMARK    1  A    between atoms: N1_1  and  N2_4 
REMARK       I    between atoms: N2_4  and  C1_6 
REMARK    2  A    between atoms: C1_6  and  C2_8 
ROOT
HETATM    1  C2  UNL     1       0.165  -0.178   0.322  1.00  0.00     0.191 A 
HETATM    2  N3  UNL     1       1.097  -0.624   1.177  1.00  0.00    -0.341 N 
ATOM      3  H3  UNL     1       0.816  -0.837   2.134  1.00  0.00     0.167 HD
HETATM    4  C3  UNL     1       2.393  -0.805   0.829  1.00  0.00     0.165 A 
HETATM    5  C4  UNL     1       2.743  -0.508  -0.475  1.00  0.00     0.275 A 
HETATM    6  O2  UNL     1       3.959  -0.677  -0.803  1.00  0.00    -0.265 OA
HETATM    7  N4  UNL     1       1.824  -0.063  -1.336  1.00  0.00    -0.264 N 
ATOM      8  H4  UNL     1       2.085   0.155  -2.298  1.00  0.00     0.190 HD
HETATM    9  N5  UNL     1       0.576   0.093  -0.934  1.00  0.00    -0.278 N 
ATOM     10  H5  UNL     1      -0.111   0.435  -1.606  1.00  0.00     0.189 HD
ENDROOT
BRANCH   1  11
HETATM   11  C1  UNL     1      -1.228   0.013   0.709  1.00  0.00     0.304 C 
HETATM   12  N2  UNL     1      -2.182   0.481  -0.207  1.00  0.00    -0.270 N 
ATOM     13  H2  UNL     1      -1.909   0.696  -1.166  1.00  0.00     0.189 HD
HETATM   14  O1  UNL     1      -1.583  -0.246   1.880  1.00  0.00    -0.263 OA
BRANCH  12  15
HETATM   15  N1  UNL     1      -3.495   0.649   0.197  1.00  0.00    -0.342 N 
ATOM     16  H12 UNL     1      -3.751   0.429   1.159  1.00  0.00     0.176 HD
ATOM     17  H11 UNL     1      -4.189   0.989  -0.469  1.00  0.00     0.176 HD
ENDBRANCH  12  15
ENDBRANCH   1  11
TORSDOF 2
