REMARK  7 active torsions:
REMARK  status: ('A' for Active; 'I' for Inactive)
REMARK    1  A    between atoms: C3_3  and  C4_4 
REMARK    2  A    between atoms: C5_5  and  C6_6 
REMARK    3  A    between atoms: C6_6  and  O2_8 
REMARK    4  A    between atoms: O2_8  and  C7_9 
REMARK    5  A    between atoms: C7_9  and  C8_10 
REMARK    6  A    between atoms: C13_16  and  O4_17 
REMARK    7  A    between atoms: C17_24  and  C18_25 
ROOT
HETATM    1  C8  UNL     1      -0.491  -0.953  -0.105  1.00  0.00     0.016 C 
HETATM    2  C9  UNL     1      -1.437  -1.887  -0.921  1.00  0.00     0.012 C 
HETATM    3  C10 UNL     1      -2.514  -2.492  -0.102  1.00  0.00     0.043 C 
HETATM    4  C11 UNL     1      -3.803  -1.838  -0.482  1.00  0.00    -0.004 A 
HETATM    5  C12 UNL     1      -4.981  -2.505  -0.593  1.00  0.00     0.154 A 
HETATM    6  O3  UNL     1      -5.936  -1.649  -0.945  1.00  0.00    -0.298 OA
HETATM    7  C13 UNL     1      -5.457  -0.448  -1.073  1.00  0.00     0.210 A 
HETATM    8  C14 UNL     1      -4.097  -0.501  -0.790  1.00  0.00     0.095 A 
HETATM    9  N1  UNL     1      -3.301   0.666  -0.849  1.00  0.00    -0.381 N 
ATOM     10  H1  UNL     1      -3.782   1.422  -1.336  1.00  0.00     0.160 HD
HETATM   11  C15 UNL     1      -1.985   1.075  -0.403  1.00  0.00     0.082 C 
HETATM   12  C16 UNL     1      -2.146   2.455   0.226  1.00  0.00     0.032 C 
HETATM   13  C17 UNL     1      -1.305   0.114   0.497  1.00  0.00     0.013 C 
ENDROOT
BRANCH   1  14
HETATM   14  C7  UNL     1       0.652  -0.681  -0.985  1.00  0.00     0.184 C 
BRANCH  14  15
HETATM   15  O2  UNL     1       1.733   0.034  -0.753  1.00  0.00    -0.318 OA
BRANCH  15  16
HETATM   16  C6  UNL     1       2.148   1.280  -0.600  1.00  0.00     0.282 C 
HETATM   17  O1  UNL     1       1.312   2.213  -0.701  1.00  0.00    -0.260 OA
BRANCH  16  18
HETATM   18  C5  UNL     1       3.542   1.670  -0.314  1.00  0.00     0.082 C 
HETATM   19  C4  UNL     1       4.468   0.740  -0.195  1.00  0.00     0.006 C 
BRANCH  19  20
HETATM   20  C3  UNL     1       5.838   1.105   0.085  1.00  0.00    -0.004 C 
HETATM   21  C2  UNL     1       6.749   0.168   0.201  1.00  0.00    -0.031 C 
HETATM   22  C1  UNL     1       8.179   0.467   0.488  1.00  0.00     0.036 C 
ENDBRANCH  19  20
ENDBRANCH  16  18
ENDBRANCH  15  16
ENDBRANCH  14  15
ENDBRANCH   1  14
BRANCH  13  23
HETATM   23  C18 UNL     1      -0.770   0.683   1.791  1.00  0.00     0.002 C 
HETATM   24  C19 UNL     1      -0.670  -0.428   2.850  1.00  0.00     0.005 C 
ENDBRANCH  13  23
BRANCH   7  25
HETATM   25  O4  UNL     1      -6.166   0.681  -1.426  1.00  0.00    -0.339 OA
ATOM     26  H4  UNL     1      -5.816   1.559  -1.520  1.00  0.00     0.220 HD
ENDBRANCH   7  25
TORSDOF 7
