REMARK  7 active torsions:
REMARK  status: ('A' for Active; 'I' for Inactive)
REMARK    1  A    between atoms: C2_2  and  C3_3 
REMARK    2  A    between atoms: C3_3  and  N1_4 
REMARK    3  A    between atoms: C5_7  and  C6_8 
REMARK    4  A    between atoms: C6_8  and  C7_9 
REMARK    5  A    between atoms: C9_15  and  C10_16 
REMARK    6  A    between atoms: C10_16  and  C11_17 
REMARK    7  A    between atoms: C13_23  and  C14_24 
ROOT
HETATM    1  N1  UNL     1      -1.199   0.650  -0.650  1.00  0.00    -0.335 N 
HETATM    2  C4  UNL     1      -2.256  -0.116  -0.971  1.00  0.00     0.110 A 
HETATM    3  S1  UNL     1      -3.528   0.407  -2.109  1.00  0.00    -0.030 SA
HETATM    4  C5  UNL     1      -2.406  -1.406  -0.456  1.00  0.00     0.067 A 
HETATM    5  N2  UNL     1      -1.459  -1.857   0.369  1.00  0.00    -0.319 N 
ATOM      6  H2  UNL     1      -1.537  -2.794   0.763  1.00  0.00     0.169 HD
HETATM    7  C8  UNL     1      -0.387  -1.076   0.690  1.00  0.00     0.273 A 
HETATM    8  O1  UNL     1       0.437  -1.606   1.469  1.00  0.00    -0.266 OA
HETATM    9  C9  UNL     1      -0.231   0.199   0.187  1.00  0.00     0.106 A 
ENDROOT
BRANCH   9  10
HETATM   10  C10 UNL     1       0.774   0.965   0.467  1.00  0.00     0.067 C 
BRANCH  10  11
HETATM   11  C11 UNL     1       1.853   0.561   1.356  1.00  0.00     0.058 A 
HETATM   12  N3  UNL     1       1.894   0.589   2.692  1.00  0.00    -0.351 N 
HETATM   13  C12 UNL     1       3.085   0.171   3.092  1.00  0.00     0.181 A 
ATOM     14  H3  UNL     1       1.132   0.884   3.303  1.00  0.00     0.166 HD
HETATM   15  N4  UNL     1       3.803  -0.124   2.025  1.00  0.00    -0.354 N 
HETATM   16  C13 UNL     1       3.076   0.104   0.917  1.00  0.00     0.040 A 
ATOM     17  H4  UNL     1       4.762  -0.471   2.039  1.00  0.00     0.166 HD
BRANCH  16  18
HETATM   18  C14 UNL     1       3.580  -0.111  -0.443  1.00  0.00     0.030 C 
HETATM   19  C15 UNL     1       5.064  -0.465  -0.361  1.00  0.00     0.016 C 
HETATM   20  C16 UNL     1       2.931  -1.194  -1.224  1.00  0.00     0.016 C 
ENDBRANCH  16  18
ENDBRANCH  10  11
ENDBRANCH   9  10
BRANCH   1  21
HETATM   21  C3  UNL     1      -1.109   1.984  -1.170  1.00  0.00     0.130 C 
BRANCH  21  22
HETATM   22  C2  UNL     1      -1.606   3.068  -0.277  1.00  0.00     0.016 C 
HETATM   23  C1  UNL     1      -3.054   2.971   0.126  1.00  0.00     0.006 C 
ENDBRANCH  21  22
ENDBRANCH   1  21
BRANCH   4  24
HETATM   24  C6  UNL     1      -3.445  -2.158  -0.769  1.00  0.00     0.020 C 
BRANCH  24  25
HETATM   25  C7  UNL     1      -3.556  -3.523  -0.193  1.00  0.00     0.144 C 
HETATM   26 CL1  UNL     1      -2.398  -4.607  -1.033  1.00  0.00    -0.126 Cl
ENDBRANCH  24  25
ENDBRANCH   4  24
TORSDOF 7
