REMARK  13 active torsions:
REMARK  status: ('A' for Active; 'I' for Inactive)
REMARK    1  A    between atoms: C2_2  and  N1_5 
REMARK    2  A    between atoms: N1_5  and  C5_8 
REMARK    3  A    between atoms: C5_8  and  C6_9 
REMARK    4  A    between atoms: C6_9  and  C7_10 
REMARK    5  A    between atoms: C7_10  and  O1_11 
REMARK    6  A    between atoms: C7_10  and  C8_13 
REMARK    7  A    between atoms: C8_13  and  O2_14 
REMARK    8  A    between atoms: C8_13  and  C9_16 
REMARK    9  A    between atoms: C9_16  and  O3_17 
REMARK   10  A    between atoms: C9_16  and  C10_19 
REMARK   11  A    between atoms: C10_19  and  O4_20 
REMARK   12  A    between atoms: C10_19  and  C11_22 
REMARK   13  A    between atoms: C11_22  and  S1_23 
ROOT
HETATM    1  C8  UNL     1       0.549   1.203  -0.438  1.00  0.00     0.178 C 
ENDROOT
BRANCH   1   2
HETATM    2  C7  UNL     1       0.097   0.462   0.763  1.00  0.00     0.151 C 
BRANCH   2   3
HETATM    3  C6  UNL     1      -0.943  -0.581   0.494  1.00  0.00     0.062 C 
BRANCH   3   4
HETATM    4  C5  UNL     1      -2.307  -0.070   0.167  1.00  0.00     0.236 C 
BRANCH   4   5
HETATM    5  N1  UNL     1      -3.158  -1.240  -0.042  1.00  0.00    -0.067 N 
ATOM      6  H12 UNL     1      -3.127  -1.865   0.763  1.00  0.00     0.278 HD
ATOM      7  H11 UNL     1      -2.762  -1.862  -0.747  1.00  0.00     0.278 HD
BRANCH   5   8
HETATM    8  C2  UNL     1      -4.503  -0.884  -0.367  1.00  0.00     0.115 C 
HETATM    9  C1  UNL     1      -4.624  -0.110  -1.664  1.00  0.00     0.045 C 
HETATM   10  C3  UNL     1      -5.271  -2.190  -0.567  1.00  0.00     0.045 C 
HETATM   11  C4  UNL     1      -5.168  -0.067   0.723  1.00  0.00     0.045 C 
ENDBRANCH   5   8
ENDBRANCH   4   5
ENDBRANCH   3   4
ENDBRANCH   2   3
BRANCH   2  12
HETATM   12  O1  UNL     1      -0.257   1.272   1.841  1.00  0.00    -0.393 OA
ATOM     13  H1  UNL     1       0.403   1.934   2.012  1.00  0.00     0.210 HD
ENDBRANCH   2  12
ENDBRANCH   1   2
BRANCH   1  14
HETATM   14  O2  UNL     1      -0.505   2.062  -0.867  1.00  0.00    -0.390 OA
ATOM     15  H2  UNL     1      -0.215   2.537  -1.637  1.00  0.00     0.210 HD
ENDBRANCH   1  14
BRANCH   1  16
HETATM   16  C9  UNL     1       1.761   2.044  -0.305  1.00  0.00     0.178 C 
BRANCH  16  17
HETATM   17  O3  UNL     1       1.652   3.095   0.610  1.00  0.00    -0.390 OA
ATOM     18  H3  UNL     1       2.429   3.634   0.695  1.00  0.00     0.210 HD
ENDBRANCH  16  17
BRANCH  16  19
HETATM   19  C10 UNL     1       3.073   1.323  -0.178  1.00  0.00     0.159 C 
BRANCH  19  20
HETATM   20  O4  UNL     1       3.192   0.836   1.112  1.00  0.00    -0.392 OA
ATOM     21  H4  UNL     1       4.022   0.380   1.192  1.00  0.00     0.210 HD
ENDBRANCH  19  20
BRANCH  19  22
HETATM   22  C11 UNL     1       3.129   0.210  -1.177  1.00  0.00     0.115 C 
BRANCH  22  23
HETATM   23  S1  UNL     1       4.644  -0.707  -1.132  1.00  0.00    -0.129 SA
HETATM   24  C12 UNL     1       5.029  -1.503   0.387  1.00  0.00     0.097 C 
HETATM   25  C13 UNL     1       6.479  -1.236  -0.040  1.00  0.00     0.132 C 
HETATM   26  N2  UNL     1       5.998   0.088  -0.468  1.00  0.00    -0.189 NA
ENDBRANCH  22  23
ENDBRANCH  19  22
ENDBRANCH  16  19
ENDBRANCH   1  16
TORSDOF 13
