REMARK  1 active torsions:
REMARK  status: ('A' for Active; 'I' for Inactive)
REMARK       I    between atoms: N1_1  and  C1_4 
REMARK       I    between atoms: C1_4  and  N3_6 
REMARK    1  A    between atoms: N3_6  and  C2_8 
ROOT
HETATM    1  C2  UNL     1       0.100  -0.521  -0.507  1.00  0.00     0.192 C 
HETATM    2  N4  UNL     1      -0.724  -0.468  -1.591  1.00  0.00    -0.278 N 
ATOM      3  H4  UNL     1      -0.426  -1.001  -2.408  1.00  0.00     0.189 HD
HETATM    4  N5  UNL     1      -1.863   0.192  -1.709  1.00  0.00    -0.260 N 
ATOM      5  H5  UNL     1      -2.424  -0.041  -2.528  1.00  0.00     0.190 HD
HETATM    6  C3  UNL     1      -2.387   1.135  -0.892  1.00  0.00     0.328 C 
HETATM    7  O1  UNL     1      -3.298   1.826  -1.412  1.00  0.00    -0.261 OA
HETATM    8  C4  UNL     1      -2.038   1.417   0.431  1.00  0.00     0.318 C 
HETATM    9  O2  UNL     1      -2.646   2.345   0.981  1.00  0.00    -0.262 OA
HETATM   10  N6  UNL     1      -1.100   0.777   1.171  1.00  0.00    -0.283 N 
ATOM     11  H6  UNL     1      -1.016   1.084   2.140  1.00  0.00     0.172 HD
HETATM   12  C5  UNL     1      -0.248  -0.229   0.791  1.00  0.00     0.294 C 
HETATM   13  O3  UNL     1       0.242  -0.928   1.704  1.00  0.00    -0.264 OA
ENDROOT
BRANCH   1  14
HETATM   14  N3  UNL     1       1.305  -0.873  -0.699  1.00  0.00    -0.311 N 
HETATM   15  C1  UNL     1       2.289  -0.983   0.286  1.00  0.00     0.187 C 
HETATM   16  N1  UNL     1       2.759  -2.135   0.711  1.00  0.00    -0.373 N 
HETATM   17  N2  UNL     1       2.869   0.192   0.895  1.00  0.00    -0.064 NA
ATOM     18  H12 UNL     1       3.478  -2.215   1.430  1.00  0.00     0.158 HD
ATOM     19  H11 UNL     1       2.350  -2.964   0.281  1.00  0.00     0.158 HD
ATOM     20  H3  UNL     1       1.578  -1.095  -1.656  1.00  0.00     0.170 HD
ENDBRANCH   1  14
TORSDOF 1
