REMARK  2 active torsions:
REMARK  status: ('A' for Active; 'I' for Inactive)
REMARK    1  A    between atoms: O1_2  and  C2_3 
REMARK    2  A    between atoms: C2_3  and  O2_4 
ROOT
HETATM    1  C2  UNL     1      -1.387  -0.693  -0.164  1.00  0.00     0.212 C 
HETATM    2  C3  UNL     1      -0.132  -0.333  -0.079  1.00  0.00     0.175 A 
HETATM    3  N1  UNL     1       0.873  -1.360  -0.164  1.00  0.00    -0.277 N 
ATOM      4  H1  UNL     1       0.631  -2.343  -0.286  1.00  0.00     0.188 HD
HETATM    5  N2  UNL     1       2.196  -0.931  -0.069  1.00  0.00    -0.132 N 
ATOM      6  H2  UNL     1       2.935  -1.632  -0.124  1.00  0.00     0.205 HD
HETATM    7  C4  UNL     1       2.571   0.430   0.101  1.00  0.00     0.693 A 
HETATM    8  N3  UNL     1       3.796   0.825   0.189  1.00  0.00    -0.233 N 
ATOM      9  H31 UNL     1       4.065   1.801   0.311  1.00  0.00     0.174 HD
ATOM     10  H32 UNL     1       4.516   0.105   0.130  1.00  0.00     0.174 HD
HETATM   11  N4  UNL     1       1.564   1.437   0.183  1.00  0.00    -0.153 N 
ATOM     12  H4  UNL     1       1.825   2.415   0.305  1.00  0.00     0.187 HD
HETATM   13  C5  UNL     1       0.198   1.069   0.094  1.00  0.00     0.292 A 
HETATM   14  O3  UNL     1      -0.714   1.960   0.166  1.00  0.00    -0.265 OA
ENDROOT
BRANCH   1  15
HETATM   15  O1  UNL     1      -2.375   0.252  -0.088  1.00  0.00    -0.334 OA
HETATM   16  C1  UNL     1      -3.482   0.180   0.770  1.00  0.00     0.212 C 
ENDBRANCH   1  15
BRANCH   1  17
HETATM   17  O2  UNL     1      -1.733  -2.019  -0.329  1.00  0.00    -0.339 OA
ATOM     18  H2  UNL     1      -1.048  -2.675  -0.382  1.00  0.00     0.220 HD
ENDBRANCH   1  17
TORSDOF 2
