REMARK  14 active torsions:
REMARK  status: ('A' for Active; 'I' for Inactive)
REMARK    1  A    between atoms: C5_5  and  C6_6 
REMARK    2  A    between atoms: C6_6  and  C7_7 
REMARK    3  A    between atoms: C9_12  and  C10_13 
REMARK    4  A    between atoms: C10_13  and  C11_14 
REMARK    5  A    between atoms: C15_21  and  C16_22 
REMARK    6  A    between atoms: C16_22  and  C17_23 
REMARK    7  A    between atoms: C17_23  and  C18_24 
REMARK    8  A    between atoms: C18_24  and  N3_25 
REMARK    9  A    between atoms: C21_32  and  O3_33 
REMARK   10  A    between atoms: C22_35  and  C23_36 
REMARK   11  A    between atoms: C23_36  and  C24_37 
REMARK   12  A    between atoms: N8_45  and  C30_46 
REMARK   13  A    between atoms: C30_46  and  C31_47 
REMARK   14  A    between atoms: C34_51  and  O4_52 
ROOT
HETATM    1  C7  UNL     1      -2.189  -0.628  -0.953  1.00  0.00     0.195 C 
HETATM    2  N1  UNL     1      -2.147  -1.061  -2.338  1.00  0.00    -0.337 N 
ATOM      3  H1  UNL     1      -3.039  -1.307  -2.767  1.00  0.00     0.164 HD
HETATM    4  C8  UNL     1      -1.001  -1.177  -3.153  1.00  0.00     0.242 C 
HETATM    5  O1  UNL     1      -1.114  -1.003  -4.396  1.00  0.00    -0.271 OA
HETATM    6  C9  UNL     1       0.358  -1.490  -2.667  1.00  0.00     0.177 C 
HETATM    7  N2  UNL     1       1.209  -0.318  -2.712  1.00  0.00    -0.346 N 
ATOM      8  H2  UNL     1       0.784   0.485  -3.176  1.00  0.00     0.163 HD
HETATM    9  C14 UNL     1       2.473  -0.087  -2.250  1.00  0.00     0.241 C 
HETATM   10  O2  UNL     1       3.329   0.354  -3.112  1.00  0.00    -0.271 OA
HETATM   11  C15 UNL     1       3.114  -0.238  -0.906  1.00  0.00     0.177 C 
HETATM   12  N6  UNL     1       3.478   1.103  -0.405  1.00  0.00    -0.355 N 
HETATM   13  C20 UNL     1       4.754   1.189   0.315  1.00  0.00     0.152 C 
HETATM   14  C21 UNL     1       2.790   2.301  -0.560  1.00  0.00     0.137 C 
HETATM   15  C22 UNL     1       1.433   2.774  -0.450  1.00  0.00     0.152 C 
HETATM   16  N7  UNL     1       0.361   2.019  -0.057  1.00  0.00    -0.405 N 
ATOM     17  H7  UNL     1       0.452   1.290   0.651  1.00  0.00     0.154 HD
HETATM   18  C27 UNL     1      -0.913   2.305  -0.697  1.00  0.00     0.167 C 
HETATM   19  C28 UNL     1      -1.994   1.534  -0.056  1.00  0.00     0.004 C 
HETATM   20  C29 UNL     1      -2.685   2.454   0.961  1.00  0.00     0.065 C 
HETATM   21  N8  UNL     1      -2.823   0.689  -0.790  1.00  0.00    -0.343 N 
ENDROOT
BRANCH   1  22
HETATM   22  C6  UNL     1      -2.769  -1.744  -0.163  1.00  0.00     0.088 C 
BRANCH  22  23
HETATM   23  C5  UNL     1      -2.944  -1.602   1.256  1.00  0.00    -0.021 A 
HETATM   24  C4  UNL     1      -1.937  -1.991   2.106  1.00  0.00     0.010 A 
HETATM   25  C3  UNL     1      -2.018  -1.830   3.466  1.00  0.00     0.007 A 
HETATM   26  C2  UNL     1      -3.127  -1.265   4.035  1.00  0.00    -0.059 A 
HETATM   27  C1  UNL     1      -3.205  -1.096   5.510  1.00  0.00     0.048 C 
HETATM   28  C35 UNL     1      -4.144  -0.871   3.200  1.00  0.00     0.043 A 
HETATM   29  C34 UNL     1      -4.061  -1.038   1.804  1.00  0.00     0.072 A 
BRANCH  29  30
HETATM   30  O4  UNL     1      -5.169  -0.599   1.114  1.00  0.00    -0.360 OA
ATOM     31  H4  UNL     1      -5.946  -0.207   1.495  1.00  0.00     0.217 HD
ENDBRANCH  29  30
ENDBRANCH  22  23
ENDBRANCH   1  22
BRANCH  21  32
HETATM   32  C30 UNL     1      -3.548   0.971  -1.917  1.00  0.00     0.091 C 
BRANCH  32  33
HETATM   33  C31 UNL     1      -4.372   2.160  -2.172  1.00  0.00     0.062 C 
HETATM   34  C32 UNL     1      -5.042   2.037  -3.589  1.00  0.00     0.038 C 
HETATM   35  C33 UNL     1      -5.502   2.465  -1.266  1.00  0.00     0.038 C 
HETATM   36 CL1  UNL     1      -3.422   3.675  -2.424  1.00  0.00    -0.114 Cl
ENDBRANCH  32  33
ENDBRANCH  21  32
BRANCH   6  37
HETATM   37  C10 UNL     1       0.927  -2.641  -3.431  1.00  0.00     0.038 C 
BRANCH  37  38
HETATM   38  C11 UNL     1       0.245  -3.933  -3.366  1.00  0.00    -0.020 C 
HETATM   39  C12 UNL     1       0.099  -4.516  -1.984  1.00  0.00     0.009 C 
HETATM   40  C13 UNL     1      -0.987  -4.068  -4.189  1.00  0.00     0.009 C 
ENDBRANCH  37  38
ENDBRANCH   6  37
BRANCH  15  41
HETATM   41  C23 UNL     1       1.444   4.029   0.459  1.00  0.00     0.037 C 
BRANCH  41  42
HETATM   42  C24 UNL     1       1.981   3.655   1.824  1.00  0.00    -0.012 A 
HETATM   43  C25 UNL     1       2.068   4.719   2.866  1.00  0.00     0.005 A 
HETATM   44  C26 UNL     1       3.310   4.225   2.262  1.00  0.00     0.005 A 
ENDBRANCH  41  42
ENDBRANCH  15  41
BRANCH  11  45
HETATM   45  C16 UNL     1       2.325  -1.056   0.035  1.00  0.00     0.037 C 
BRANCH  45  46
HETATM   46  C17 UNL     1       2.907  -1.319   1.388  1.00  0.00     0.022 C 
BRANCH  46  47
HETATM   47  C18 UNL     1       4.144  -2.143   1.422  1.00  0.00     0.122 C 
BRANCH  47  48
HETATM   48  N3  UNL     1       4.597  -2.285   2.795  1.00  0.00    -0.367 N 
HETATM   49  C19 UNL     1       5.773  -1.928   3.180  1.00  0.00     0.196 C 
HETATM   50  N4  UNL     1       6.098  -2.118   4.553  1.00  0.00    -0.067 NA
HETATM   51  N5  UNL     1       6.749  -1.370   2.343  1.00  0.00    -0.067 NA
ATOM     52  H3  UNL     1       3.957  -2.684   3.482  1.00  0.00     0.161 HD
ENDBRANCH  47  48
ENDBRANCH  46  47
ENDBRANCH  45  46
ENDBRANCH  11  45
BRANCH  14  53
HETATM   53  O3  UNL     1       3.580   3.302  -0.903  1.00  0.00    -0.348 OA
ATOM     54  H3  UNL     1       3.110   4.121  -1.009  1.00  0.00     0.219 HD
ENDBRANCH  14  53
TORSDOF 14
