REMARK  3 active torsions:
REMARK  status: ('A' for Active; 'I' for Inactive)
REMARK    1  A    between atoms: N1_1  and  C1_4 
REMARK    2  A    between atoms: C2_8  and  S2_9 
REMARK    3  A    between atoms: S2_9  and  N3_10 
ROOT
HETATM    1  C1  UNL     1      -1.926  -0.851  -0.115  1.00  0.00     0.112 A 
HETATM    2  S1  UNL     1      -1.475  -1.933   1.119  1.00  0.00     0.006 SA
HETATM    3  N2  UNL     1       0.026  -1.278   1.500  1.00  0.00    -0.312 N 
ATOM      4  H2  UNL     1       0.685  -1.606   2.206  1.00  0.00     0.175 HD
HETATM    5  C2  UNL     1       0.169  -0.236   0.679  1.00  0.00     0.182 A 
HETATM    6  C3  UNL     1      -0.860   0.003  -0.184  1.00  0.00     0.121 A 
HETATM    7  N4  UNL     1      -0.835   1.112  -1.137  1.00  0.00    -0.096 NA
ENDROOT
BRANCH   5   8
HETATM    8  S2  UNL     1       1.660   0.758   0.758  1.00  0.00     0.274 S 
HETATM    9  O1  UNL     1       1.329   2.173   1.047  1.00  0.00    -0.199 OA
HETATM   10  O2  UNL     1       2.602   0.171   1.732  1.00  0.00    -0.199 OA
BRANCH   8  11
HETATM   11  N3  UNL     1       2.437   0.690  -0.809  1.00  0.00    -0.323 N 
ATOM     12  H32 UNL     1       2.090   0.171  -1.616  1.00  0.00     0.169 HD
ATOM     13  H31 UNL     1       3.285   1.255  -0.764  1.00  0.00     0.169 HD
ENDBRANCH   8  11
ENDBRANCH   5   8
BRANCH   1  14
HETATM   14  N1  UNL     1      -3.023  -0.810  -0.847  1.00  0.00    -0.391 N 
ATOM     15  H12 UNL     1      -3.818  -1.447  -0.796  1.00  0.00     0.157 HD
ATOM     16  H11 UNL     1      -3.293  -0.162  -1.587  1.00  0.00     0.157 HD
ENDBRANCH   1  14
TORSDOF 3
