REMARK  8 active torsions:
REMARK  status: ('A' for Active; 'I' for Inactive)
REMARK    1  A    between atoms: C2_2  and  N1_3 
REMARK    2  A    between atoms: N1_3  and  C3_5 
REMARK    3  A    between atoms: C6_10  and  O1_11 
REMARK    4  A    between atoms: N3_14  and  O2_16 
REMARK    5  A    between atoms: C9_18  and  N4_19 
REMARK    6  A    between atoms: N4_19  and  N5_21 
REMARK    7  A    between atoms: C10_23  and  C12_25 
REMARK    8  A    between atoms: C12_25  and  N6_27 
ROOT
HETATM    1  C3  UNL     1      -1.608  -0.863   0.533  1.00  0.00     0.680 C 
HETATM    2  N2  UNL     1      -2.588  -0.324  -0.218  1.00  0.00    -0.193 N 
ATOM      3  H2  UNL     1      -3.354  -0.965  -0.425  1.00  0.00     0.184 HD
HETATM    4  C4  UNL     1      -2.743   0.899  -0.744  1.00  0.00     0.058 C 
HETATM    5  C5  UNL     1      -4.037   1.256  -1.379  1.00  0.00     0.072 C 
HETATM    6  C6  UNL     1      -1.783   1.911  -0.760  1.00  0.00     0.123 C 
HETATM    7  C8  UNL     1      -0.423   1.748  -0.582  1.00  0.00     0.135 C 
HETATM    8  N3  UNL     1       0.340   2.638  -1.114  1.00  0.00    -0.263 N 
ATOM      9  H3  UNL     1       1.351   2.556  -1.008  1.00  0.00     0.194 HD
HETATM   10  C9  UNL     1       0.222   0.728   0.107  1.00  0.00     0.167 C 
HETATM   11  N7  UNL     1      -0.334  -0.416   0.584  1.00  0.00    -0.173 N 
ATOM     12  H7  UNL     1       0.318  -1.040   1.059  1.00  0.00     0.186 HD
ENDROOT
BRANCH  10  13
HETATM   13  N4  UNL     1       1.465   0.939   0.282  1.00  0.00    -0.283 N 
ATOM     14  H4  UNL     1       1.842   1.810  -0.092  1.00  0.00     0.188 HD
BRANCH  13  15
HETATM   15  N5  UNL     1       2.348   0.106   0.926  1.00  0.00    -0.306 N 
HETATM   16  C10 UNL     1       3.446  -0.307   0.385  1.00  0.00     0.029 C 
HETATM   17  C11 UNL     1       3.749   0.151  -0.993  1.00  0.00     0.067 C 
ATOM     18  H5  UNL     1       2.127  -0.200   1.874  1.00  0.00     0.186 HD
BRANCH  16  19
HETATM   19  C12 UNL     1       4.402  -1.196   1.056  1.00  0.00     0.225 C 
HETATM   20  C13 UNL     1       4.522  -2.460   0.213  1.00  0.00     0.046 C 
BRANCH  19  21
HETATM   21  N6  UNL     1       5.709  -0.603   1.142  1.00  0.00    -0.070 N 
ATOM     22  H63 UNL     1       6.049  -0.316   0.224  1.00  0.00     0.275 HD
ATOM     23  H62 UNL     1       5.674   0.312   1.591  1.00  0.00     0.275 HD
ATOM     24  H61 UNL     1       6.373  -1.221   1.608  1.00  0.00     0.275 HD
ENDBRANCH  19  21
ENDBRANCH  16  19
ENDBRANCH  13  15
ENDBRANCH  10  13
BRANCH   6  25
HETATM   25  O1  UNL     1      -2.212   3.193  -0.970  1.00  0.00    -0.352 OA
HETATM   26  C7  UNL     1      -2.596   4.075   0.075  1.00  0.00     0.210 C 
ENDBRANCH   6  25
BRANCH   8  27
HETATM   27  O2  UNL     1      -0.178   3.695  -1.821  1.00  0.00    -0.289 OA
ATOM     28  H2  UNL     1       0.385   4.352  -2.214  1.00  0.00     0.244 HD
ENDBRANCH   8  27
BRANCH   1  29
HETATM   29  N1  UNL     1      -1.852  -1.867   1.266  1.00  0.00    -0.226 N 
ATOM     30  H1  UNL     1      -1.069  -2.227   1.812  1.00  0.00     0.177 HD
BRANCH  29  31
HETATM   31  C2  UNL     1      -3.089  -2.552   1.418  1.00  0.00     0.133 C 
HETATM   32  C1  UNL     1      -3.184  -3.808   0.572  1.00  0.00     0.027 C 
ENDBRANCH  29  31
ENDBRANCH   1  29
TORSDOF 8
