REMARK  2 active torsions:
REMARK  status: ('A' for Active; 'I' for Inactive)
REMARK       I    between atoms: C2_2  and  N1_4 
REMARK    1  A    between atoms: N1_4  and  C3_6 
REMARK    2  A    between atoms: C4_9  and  N3_10 
ROOT
HETATM    1  C3  UNL     1      -0.376  -0.259  -0.854  1.00  0.00     0.192 C 
HETATM    2  N2  UNL     1      -0.053  -0.602   0.402  1.00  0.00    -0.171 N 
ATOM      3  H2  UNL     1      -0.639  -1.337   0.798  1.00  0.00     0.186 HD
HETATM    4  C4  UNL     1       0.908  -0.151   1.239  1.00  0.00     0.680 C 
HETATM    5  N4  UNL     1       1.927   0.704   0.942  1.00  0.00    -0.163 N 
ATOM      6  H4  UNL     1       2.559   0.912   1.715  1.00  0.00     0.187 HD
HETATM    7  C5  UNL     1       2.225   1.317  -0.224  1.00  0.00     0.209 C 
HETATM    8  N5  UNL     1       3.090   2.445  -0.196  1.00  0.00    -0.062 NA
HETATM    9  N6  UNL     1       1.746   0.922  -1.442  1.00  0.00    -0.294 N 
ATOM     10  H6  UNL     1       2.370   1.054  -2.238  1.00  0.00     0.172 HD
HETATM   11  C6  UNL     1       0.535   0.374  -1.711  1.00  0.00     0.292 C 
HETATM   12  O2  UNL     1       0.113   0.410  -2.889  1.00  0.00    -0.264 OA
ENDROOT
BRANCH   1  13
HETATM   13  N1  UNL     1      -1.659  -0.523  -1.377  1.00  0.00    -0.308 N 
HETATM   14  C2  UNL     1      -2.725  -1.147  -0.698  1.00  0.00     0.219 C 
HETATM   15  C1  UNL     1      -2.606  -1.610   0.691  1.00  0.00     0.117 C 
HETATM   16  O1  UNL     1      -3.851  -1.331  -1.287  1.00  0.00    -0.274 OA
ATOM     17  H1  UNL     1      -1.832  -0.234  -2.340  1.00  0.00     0.170 HD
ENDBRANCH   1  13
BRANCH   4  18
HETATM   18  N3  UNL     1       0.870  -0.571   2.472  1.00  0.00    -0.234 N 
ATOM     19  H32 UNL     1       0.107  -1.211   2.694  1.00  0.00     0.174 HD
ATOM     20  H31 UNL     1       1.595  -0.231   3.104  1.00  0.00     0.174 HD
ENDBRANCH   4  18
TORSDOF 2
