REMARK  6 active torsions:
REMARK  status: ('A' for Active; 'I' for Inactive)
REMARK    1  A    between atoms: N1_2  and  C2_3 
REMARK       I    between atoms: N1_2  and  C16_22 
REMARK    2  A    between atoms: C2_3  and  C3_4 
REMARK       I    between atoms: N2_7  and  C6_8 
REMARK       I    between atoms: C6_8  and  N3_10 
REMARK    3  A    between atoms: N3_10  and  C7_12 
REMARK    4  A    between atoms: C7_12  and  C8_13 
REMARK    5  A    between atoms: C8_13  and  N4_14 
REMARK       I    between atoms: C16_22  and  N5_24 
REMARK    6  A    between atoms: N5_24  and  C17_26 
ROOT
HETATM    1  C3  UNL     1      -2.744  -0.333   0.181  1.00  0.00     0.007 C 
HETATM    2  C4  UNL     1      -1.854  -1.525   0.392  1.00  0.00     0.026 C 
HETATM    3  C5  UNL     1      -0.546  -0.987   0.993  1.00  0.00     0.128 C 
HETATM    4  N2  UNL     1       0.121  -0.309  -0.072  1.00  0.00    -0.334 N 
HETATM    5  C6  UNL     1       1.535  -0.360  -0.162  1.00  0.00     0.318 C 
HETATM    6  O1  UNL     1       2.211  -1.011   0.708  1.00  0.00    -0.247 OA
HETATM    7  N3  UNL     1       2.261   0.286  -1.186  1.00  0.00    -0.341 N 
ATOM      8  H3  UNL     1       1.748   0.805  -1.898  1.00  0.00     0.164 HD
HETATM    9  C14 UNL     1      -0.656   0.410  -1.031  1.00  0.00     0.128 C 
HETATM   10  C15 UNL     1      -2.011   0.802  -0.446  1.00  0.00     0.026 C 
ENDROOT
BRANCH   1  11
HETATM   11  C2  UNL     1      -4.009  -0.686  -0.578  1.00  0.00     0.131 C 
BRANCH  11  12
HETATM   12  N1  UNL     1      -4.788  -1.676   0.129  1.00  0.00    -0.338 N 
HETATM   13  C1  UNL     1      -4.561  -3.084  -0.125  1.00  0.00     0.154 C 
HETATM   14  C16 UNL     1      -5.776  -1.268   1.071  1.00  0.00     0.323 C 
HETATM   15  O2  UNL     1      -6.480  -2.085   1.711  1.00  0.00    -0.247 OA
HETATM   16  N5  UNL     1      -6.009   0.114   1.330  1.00  0.00    -0.292 N 
ATOM     17  H5  UNL     1      -5.480   0.610   2.048  1.00  0.00     0.172 HD
BRANCH  16  18
HETATM   18  C17 UNL     1      -6.912   0.722   0.627  1.00  0.00     0.142 A 
HETATM   19  N6  UNL     1      -7.683   0.209  -0.344  1.00  0.00    -0.285 N 
HETATM   20  N7  UNL     1      -8.492   1.125  -0.840  1.00  0.00    -0.309 N 
ATOM     21  H6  UNL     1      -7.648  -0.761  -0.657  1.00  0.00     0.188 HD
HETATM   22  C18 UNL     1      -8.253   2.276  -0.182  1.00  0.00     0.130 A 
ATOM     23  H7  UNL     1      -9.174   0.987  -1.586  1.00  0.00     0.186 HD
HETATM   24  C19 UNL     1      -7.255   2.051   0.756  1.00  0.00     0.073 A 
HETATM   25 BR1  UNL     1      -6.518   3.344   1.972  1.00  0.00    -0.045 Br
ENDBRANCH  16  18
ENDBRANCH  11  12
ENDBRANCH   1  11
BRANCH   7  26
HETATM   26  C7  UNL     1       3.682   0.240  -1.262  1.00  0.00     0.152 C 
BRANCH  26  27
HETATM   27  C8  UNL     1       4.325   0.888  -0.089  1.00  0.00     0.256 C 
BRANCH  27  28
HETATM   28  N4  UNL     1       5.780   0.851  -0.163  1.00  0.00    -0.069 N 
HETATM   29  C9  UNL     1       6.292   1.736  -1.189  1.00  0.00     0.272 C 
HETATM   30  C10 UNL     1       6.137  -0.534  -0.444  1.00  0.00     0.237 C 
HETATM   31  C11 UNL     1       7.493  -0.734   0.200  1.00  0.00     0.029 C 
HETATM   32  C12 UNL     1       7.352   0.108   1.457  1.00  0.00     0.029 C 
HETATM   33  C13 UNL     1       6.300   1.149   1.145  1.00  0.00     0.237 C 
ENDBRANCH  27  28
ENDBRANCH  26  27
ENDBRANCH   7  26
TORSDOF 6
