REMARK  6 active torsions:
REMARK  status: ('A' for Active; 'I' for Inactive)
REMARK    1  A    between atoms: C2_2  and  C3_3 
REMARK    2  A    between atoms: C3_3  and  C4_4 
REMARK    3  A    between atoms: C3_3  and  C6_6 
REMARK    4  A    between atoms: N2_20  and  C18_21 
REMARK    5  A    between atoms: C18_21  and  C19_22 
REMARK    6  A    between atoms: C19_22  and  N3_23 
ROOT
HETATM    1  C6  UNL     1       2.568   0.310   0.522  1.00  0.00     0.091 C 
HETATM    2  C7  UNL     1       1.399   0.093  -0.359  1.00  0.00     0.067 C 
HETATM    3  C8  UNL     1       0.279  -0.522   0.483  1.00  0.00     0.124 C 
HETATM    4  C9  UNL     1      -0.005  -1.882  -0.040  1.00  0.00     0.082 C 
HETATM    5  C10 UNL     1      -1.400  -2.307   0.038  1.00  0.00    -0.023 A 
HETATM    6  C11 UNL     1      -2.428  -1.505   0.487  1.00  0.00     0.041 A 
HETATM    7  N1  UNL     1      -3.572  -2.178   0.437  1.00  0.00    -0.361 N 
ATOM      8  H1  UNL     1      -4.485  -1.817   0.712  1.00  0.00     0.165 HD
HETATM    9  C12 UNL     1      -3.330  -3.408  -0.034  1.00  0.00     0.012 A 
HETATM   10  C13 UNL     1      -4.369  -4.465  -0.236  1.00  0.00     0.068 C 
HETATM   11  C14 UNL     1      -1.977  -3.506  -0.289  1.00  0.00    -0.031 A 
HETATM   12  C15 UNL     1      -1.301  -4.705  -0.820  1.00  0.00     0.050 C 
HETATM   13  C16 UNL     1      -2.145  -0.141   0.920  1.00  0.00     0.159 C 
HETATM   14  C17 UNL     1      -2.987   0.808   0.050  1.00  0.00     0.159 C 
HETATM   15  N2  UNL     1      -2.333   2.071   0.328  1.00  0.00    -0.330 N 
HETATM   16  C20 UNL     1      -0.970   1.769   0.604  1.00  0.00     0.322 C 
HETATM   17  O1  UNL     1      -0.100   2.659   0.769  1.00  0.00    -0.247 OA
HETATM   18  N4  UNL     1      -0.828   0.342   0.646  1.00  0.00    -0.303 N 
HETATM   19  C21 UNL     1       0.931  -0.643   1.840  1.00  0.00     0.247 C 
HETATM   20  O2  UNL     1       0.387  -0.762   2.967  1.00  0.00    -0.271 OA
HETATM   21  N5  UNL     1       2.349  -0.598   1.645  1.00  0.00    -0.354 N 
ATOM     22  H5  UNL     1       3.060  -1.097   2.180  1.00  0.00     0.162 HD
ENDROOT
BRANCH   1  23
HETATM   23  C3  UNL     1       3.929   0.086  -0.016  1.00  0.00     0.008 C 
BRANCH  23  24
HETATM   24  C2  UNL     1       4.348   0.901  -1.191  1.00  0.00     0.002 C 
HETATM   25  C1  UNL     1       3.553   0.714  -2.451  1.00  0.00     0.005 C 
ENDBRANCH  23  24
BRANCH  23  26
HETATM   26  C4  UNL     1       4.892   0.401   1.165  1.00  0.00     0.002 C 
HETATM   27  C5  UNL     1       4.860   1.842   1.555  1.00  0.00     0.005 C 
ENDBRANCH  23  26
ENDBRANCH   1  23
BRANCH  15  28
HETATM   28  C18 UNL     1      -2.991   3.361   0.313  1.00  0.00     0.154 C 
BRANCH  28  29
HETATM   29  C19 UNL     1      -2.887   3.914  -1.083  1.00  0.00     0.249 C 
BRANCH  29  30
HETATM   30  N3  UNL     1      -3.520   5.214  -1.205  1.00  0.00    -0.078 N 
ATOM     31  H33 UNL     1      -4.490   5.183  -0.891  1.00  0.00     0.274 HD
ATOM     32  H32 UNL     1      -3.149   5.871  -0.519  1.00  0.00     0.274 HD
ATOM     33  H31 UNL     1      -3.450   5.589  -2.151  1.00  0.00     0.274 HD
ENDBRANCH  29  30
ENDBRANCH  28  29
ENDBRANCH  15  28
TORSDOF 6
