REMARK  4 active torsions:
REMARK  status: ('A' for Active; 'I' for Inactive)
REMARK    1  A    between atoms: C3_3  and  N1_4 
REMARK    2  A    between atoms: C5_9  and  N3_10 
REMARK    3  A    between atoms: C6_15  and  N5_16 
REMARK    4  A    between atoms: C7_18  and  C8_19 
ROOT
HETATM    1  C1  UNL     1       2.377  -1.984   2.466  1.00  0.00     0.014 C 
HETATM    2  C2  UNL     1       2.227  -1.809   1.282  1.00  0.00    -0.097 C 
HETATM    3  C3  UNL     1       2.032  -1.613  -0.177  1.00  0.00     0.245 C 
ENDROOT
BRANCH   3   4
HETATM    4  N1  UNL     1       2.092  -0.202  -0.454  1.00  0.00    -0.120 N 
HETATM    5  C4  UNL     1       3.352   0.275  -0.700  1.00  0.00     0.355 A 
HETATM    6  O1  UNL     1       4.365  -0.490  -0.681  1.00  0.00    -0.245 OA
HETATM    7  N2  UNL     1       3.517   1.576  -0.966  1.00  0.00    -0.140 N 
HETATM    8  C5  UNL     1       2.455   2.411  -0.992  1.00  0.00     0.694 A 
ATOM      9  H2  UNL     1       4.452   1.940  -1.151  1.00  0.00     0.189 HD
HETATM   10  N4  UNL     1       1.249   1.925  -0.751  1.00  0.00    -0.022 N 
HETATM   11  C6  UNL     1       1.023   0.602  -0.473  1.00  0.00     0.703 A 
ATOM     12  H4  UNL     1       0.453   2.562  -0.773  1.00  0.00     0.203 HD
BRANCH   8  13
HETATM   13  N3  UNL     1       2.651   3.685  -1.257  1.00  0.00    -0.234 N 
ATOM     14  H32 UNL     1       3.581   4.060  -1.443  1.00  0.00     0.174 HD
ATOM     15  H31 UNL     1       1.849   4.315  -1.277  1.00  0.00     0.174 HD
ENDBRANCH   8  13
BRANCH  11  16
HETATM   16  N5  UNL     1      -0.144   0.263  -0.280  1.00  0.00    -0.204 N 
HETATM   17  C7  UNL     1      -1.010  -0.754  -0.003  1.00  0.00     0.087 C 
ATOM     18  H5  UNL     1      -0.708   1.109  -0.363  1.00  0.00     0.183 HD
BRANCH  17  19
HETATM   19  C8  UNL     1      -2.462  -0.344   0.215  1.00  0.00    -0.019 C 
HETATM   20  C9  UNL     1      -3.060   0.332  -0.970  1.00  0.00     0.020 C 
HETATM   21  C10 UNL     1      -3.221  -1.635   0.455  1.00  0.00     0.020 C 
HETATM   22  C11 UNL     1      -2.619   0.510   1.439  1.00  0.00     0.020 C 
ENDBRANCH  17  19
ENDBRANCH  11  16
ENDBRANCH   3   4
TORSDOF 4
