REMARK  6 active torsions:
REMARK  status: ('A' for Active; 'I' for Inactive)
REMARK    1  A    between atoms: C2_2  and  N1_3 
REMARK    2  A    between atoms: N1_3  and  N2_4 
REMARK    3  A    between atoms: N2_4  and  N3_6 
REMARK    4  A    between atoms: N3_6  and  C3_8 
REMARK    5  A    between atoms: C7_21  and  N8_22 
REMARK    6  A    between atoms: N8_22  and  N9_24 
ROOT
HETATM    1  C3  UNL     1      -0.618  -0.651  -0.248  1.00  0.00     0.139 A 
HETATM    2  N4  UNL     1      -0.623  -1.557  -1.242  1.00  0.00    -0.337 N 
ATOM      3  H4  UNL     1       0.254  -2.036  -1.446  1.00  0.00     0.168 HD
HETATM    4  C4  UNL     1      -1.684  -1.877  -1.980  1.00  0.00     0.183 A 
HETATM    5  N5  UNL     1      -2.854  -1.263  -1.735  1.00  0.00    -0.338 N 
ATOM      6  H5  UNL     1      -3.680  -1.492  -2.287  1.00  0.00     0.168 HD
HETATM    7  C5  UNL     1      -2.925  -0.356  -0.768  1.00  0.00     0.128 A 
HETATM    8  N6  UNL     1      -4.116   0.262  -0.527  1.00  0.00    -0.293 N 
ATOM      9  H6  UNL     1      -4.933   0.021  -1.089  1.00  0.00     0.172 HD
HETATM   10  C6  UNL     1      -4.224   1.174   0.431  1.00  0.00     0.327 A 
HETATM   11  O1  UNL     1      -5.339   1.714   0.616  1.00  0.00    -0.247 OA
HETATM   12  N7  UNL     1      -3.148   1.499   1.181  1.00  0.00    -0.292 N 
ATOM     13  H7  UNL     1      -3.254   2.202   1.913  1.00  0.00     0.172 HD
HETATM   14  C7  UNL     1      -1.948   0.933   1.000  1.00  0.00     0.141 A 
HETATM   15  C8  UNL     1      -1.818  -0.017   0.008  1.00  0.00     0.099 A 
ENDROOT
BRANCH   1  16
HETATM   16  N3  UNL     1       0.411  -0.366   0.440  1.00  0.00    -0.273 N 
ATOM     17  H3  UNL     1       0.298   0.338   1.169  1.00  0.00     0.189 HD
BRANCH  16  18
HETATM   18  N2  UNL     1       1.663  -0.916   0.296  1.00  0.00    -0.245 N 
ATOM     19  H2  UNL     1       1.741  -1.917   0.114  1.00  0.00     0.203 HD
BRANCH  18  20
HETATM   20  N1  UNL     1       2.833  -0.157   0.389  1.00  0.00    -0.126 NA
BRANCH  20  21
HETATM   21  C2  UNL     1       3.937  -0.866  -0.249  1.00  0.00     0.132 C 
HETATM   22  C1  UNL     1       5.218  -0.083  -0.172  1.00  0.00     0.024 C 
ENDBRANCH  20  21
ENDBRANCH  18  20
ENDBRANCH  16  18
ENDBRANCH   1  16
BRANCH  14  23
HETATM   23  N8  UNL     1      -0.921   1.258   1.731  1.00  0.00    -0.291 N 
ATOM     24  H8  UNL     1      -0.021   0.807   1.566  1.00  0.00     0.188 HD
BRANCH  23  25
HETATM   25  N9  UNL     1      -1.039   2.209   2.729  1.00  0.00    -0.344 N 
ATOM     26  H92 UNL     1      -1.946   2.650   2.880  1.00  0.00     0.176 HD
ATOM     27  H91 UNL     1      -0.234   2.464   3.302  1.00  0.00     0.176 HD
ENDBRANCH  23  25
ENDBRANCH  14  23
TORSDOF 6
