REMARK  11 active torsions:
REMARK  status: ('A' for Active; 'I' for Inactive)
REMARK    1  A    between atoms: C2_2  and  C3_3 
REMARK    2  A    between atoms: C3_3  and  C4_4 
REMARK    3  A    between atoms: C4_4  and  C5_5 
REMARK    4  A    between atoms: C5_5  and  C6_6 
REMARK    5  A    between atoms: C6_6  and  O1_7 
REMARK    6  A    between atoms: O1_7  and  C7_8 
REMARK    7  A    between atoms: C8_10  and  C9_11 
REMARK    8  A    between atoms: C9_11  and  O3_12 
REMARK    9  A    between atoms: C10_14  and  O4_15 
REMARK   10  A    between atoms: C11_17  and  O5_18 
REMARK   11  A    between atoms: C12_20  and  O6_21 
ROOT
HETATM    1  C7  UNL     1       2.041  -0.793   0.255  1.00  0.00     0.291 C 
HETATM    2  O2  UNL     1       2.950  -1.093   1.292  1.00  0.00    -0.348 OA
HETATM    3  C8  UNL     1       3.988  -0.186   1.373  1.00  0.00     0.179 C 
HETATM    4  C10 UNL     1       4.476   0.253   0.010  1.00  0.00     0.180 C 
HETATM    5  C11 UNL     1       4.140  -0.812  -1.014  1.00  0.00     0.183 C 
HETATM    6  C12 UNL     1       2.661  -1.107  -1.071  1.00  0.00     0.204 C 
ENDROOT
BRANCH   1   7
HETATM    7  O1  UNL     1       0.897  -1.478   0.522  1.00  0.00    -0.359 OA
BRANCH   7   8
HETATM    8  C6  UNL     1      -0.236  -0.796   0.839  1.00  0.00     0.171 C 
BRANCH   8   9
HETATM    9  C5  UNL     1      -0.689   0.117  -0.247  1.00  0.00     0.029 C 
BRANCH   9  10
HETATM   10  C4  UNL     1      -1.918   0.901  -0.003  1.00  0.00     0.046 C 
BRANCH  10  11
HETATM   11  C3  UNL     1      -3.202   0.183   0.223  1.00  0.00     0.126 C 
HETATM   12  O7  UNL     1      -3.254  -0.621   1.341  1.00  0.00    -0.374 OA
HETATM   13  C13 UNL     1      -4.105  -1.686   1.030  1.00  0.00     0.175 C 
HETATM   14  C14 UNL     1      -3.759  -2.004  -0.435  1.00  0.00     0.108 C 
HETATM   15  C15 UNL     1      -3.738  -0.563  -0.962  1.00  0.00     0.276 C 
HETATM   16  F1  UNL     1      -5.099  -0.276  -1.193  1.00  0.00    -0.203 F 
HETATM   17  F2  UNL     1      -3.018  -0.431  -2.110  1.00  0.00    -0.203 F 
BRANCH  11  18
HETATM   18  C2  UNL     1      -4.264   1.303   0.466  1.00  0.00     0.040 C 
HETATM   19  C1  UNL     1      -4.369   2.218  -0.710  1.00  0.00     0.008 C 
ENDBRANCH  11  18
ENDBRANCH  10  11
ENDBRANCH   9  10
ENDBRANCH   8   9
ENDBRANCH   7   8
ENDBRANCH   1   7
BRANCH   6  20
HETATM   20  O6  UNL     1       2.129  -0.353  -2.082  1.00  0.00    -0.388 OA
ATOM     21  H6  UNL     1       2.522  -0.552  -2.923  1.00  0.00     0.210 HD
ENDBRANCH   6  20
BRANCH   3  22
HETATM   22  C9  UNL     1       3.538   1.023   2.135  1.00  0.00     0.198 C 
BRANCH  22  23
HETATM   23  O3  UNL     1       3.139   0.682   3.436  1.00  0.00    -0.398 OA
ATOM     24  H3  UNL     1       2.854   1.449   3.919  1.00  0.00     0.209 HD
ENDBRANCH  22  23
ENDBRANCH   3  22
BRANCH   5  25
HETATM   25  O5  UNL     1       4.643  -0.367  -2.240  1.00  0.00    -0.390 OA
ATOM     26  H5  UNL     1       4.432  -1.035  -2.882  1.00  0.00     0.210 HD
ENDBRANCH   5  25
BRANCH   4  27
HETATM   27  O4  UNL     1       5.858   0.378   0.061  1.00  0.00    -0.390 OA
ATOM     28  H4  UNL     1       6.164   0.654  -0.795  1.00  0.00     0.210 HD
ENDBRANCH   4  27
TORSDOF 11
