REMARK  4 active torsions:
REMARK  status: ('A' for Active; 'I' for Inactive)
REMARK    1  A    between atoms: N1_1  and  C1_5 
REMARK    2  A    between atoms: C1_5  and  C2_6 
REMARK    3  A    between atoms: C2_6  and  N2_7 
REMARK    4  A    between atoms: N2_7  and  N3_9 
ROOT
HETATM    1  N3  UNL     1      -0.230   0.920  -1.043  1.00  0.00    -0.289 N 
ATOM      2  H3  UNL     1      -0.404   1.217  -2.003  1.00  0.00     0.188 HD
HETATM    3  C3  UNL     1      -1.182   0.417  -0.309  1.00  0.00     0.139 A 
HETATM    4  C4  UNL     1      -0.977   0.010   0.986  1.00  0.00     0.157 A 
HETATM    5  N4  UNL     1      -1.997  -0.503   1.699  1.00  0.00    -0.306 N 
ATOM      6  H4  UNL     1      -1.830  -0.802   2.660  1.00  0.00     0.186 HD
HETATM    7  N5  UNL     1      -3.211  -0.630   1.188  1.00  0.00    -0.274 N 
ATOM      8  H5  UNL     1      -3.971  -1.020   1.746  1.00  0.00     0.189 HD
HETATM    9  C5  UNL     1      -3.425  -0.236  -0.077  1.00  0.00     0.208 A 
HETATM   10  N6  UNL     1      -4.725  -0.372  -0.623  1.00  0.00    -0.062 NA
HETATM   11  N7  UNL     1      -2.421   0.281  -0.813  1.00  0.00    -0.313 N 
ATOM     12  H7  UNL     1      -2.605   0.575  -1.772  1.00  0.00     0.170 HD
ENDROOT
BRANCH   1  13
HETATM   13  N2  UNL     1       1.038   1.038  -0.468  1.00  0.00    -0.333 N 
ATOM     14  H2  UNL     1       1.297   1.881   0.044  1.00  0.00     0.180 HD
BRANCH  13  15
HETATM   15  C2  UNL     1       1.972  -0.043  -0.607  1.00  0.00     0.166 C 
BRANCH  15  16
HETATM   16  C1  UNL     1       3.289   0.247   0.071  1.00  0.00     0.250 C 
BRANCH  16  17
HETATM   17  N1  UNL     1       4.175  -0.824  -0.083  1.00  0.00    -0.078 N 
ATOM     18  H13 UNL     1       3.768  -1.700   0.244  1.00  0.00     0.274 HD
ATOM     19  H12 UNL     1       4.302  -1.070  -1.065  1.00  0.00     0.274 HD
ATOM     20  H11 UNL     1       5.065  -0.628   0.375  1.00  0.00     0.274 HD
ENDBRANCH  16  17
ENDBRANCH  15  16
ENDBRANCH  13  15
ENDBRANCH   1  13
TORSDOF 4
