REMARK  18 active torsions:
REMARK  status: ('A' for Active; 'I' for Inactive)
REMARK    1  A    between atoms: C2_2  and  N1_3 
REMARK    2  A    between atoms: N1_3  and  C4_5 
REMARK    3  A    between atoms: N1_3  and  C6_7 
REMARK    4  A    between atoms: C6_7  and  C7_8 
REMARK    5  A    between atoms: C7_8  and  C8_9 
REMARK    6  A    between atoms: C8_9  and  N2_10 
REMARK    7  A    between atoms: N2_10  and  C9_11 
REMARK    8  A    between atoms: C9_11  and  C10_12 
REMARK    9  A    between atoms: C10_12  and  N3_13 
REMARK   10  A    between atoms: N3_13  and  C11_16 
REMARK   11  A    between atoms: C11_16  and  C12_17 
REMARK   12  A    between atoms: C12_17  and  C13_18 
REMARK   13  A    between atoms: C13_18  and  C14_19 
REMARK   14  A    between atoms: C14_19  and  N4_20 
REMARK   15  A    between atoms: N4_20  and  C15_23 
REMARK   16  A    between atoms: C15_23  and  C16_24 
REMARK   17  A    between atoms: C16_24  and  C17_25 
REMARK   18  A    between atoms: C17_25  and  N5_26 
ROOT
HETATM    1  N2  UNL     1      -2.561  -0.881   0.205  1.00  0.00    -0.004 N 
HETATM    2  C19 UNL     1      -2.759  -0.297  -1.082  1.00  0.00     0.372 C 
HETATM    3  N8  UNL     1      -2.569  -1.219  -2.211  1.00  0.00    -0.319 N 
ATOM      4  H8  UNL     1      -1.896  -1.054  -2.960  1.00  0.00     0.166 HD
HETATM    5  C20 UNL     1      -3.416  -2.367  -2.159  1.00  0.00     0.319 C 
HETATM    6  O1  UNL     1      -3.732  -3.053  -3.168  1.00  0.00    -0.247 OA
HETATM    7  N9  UNL     1      -3.868  -2.654  -0.830  1.00  0.00    -0.310 N 
ATOM      8  H9  UNL     1      -4.771  -3.088  -0.639  1.00  0.00     0.166 HD
HETATM    9  C21 UNL     1      -2.931  -2.275   0.238  1.00  0.00     0.204 C 
HETATM   10  C22 UNL     1      -3.577  -2.751   1.510  1.00  0.00     0.071 C 
HETATM   11  C23 UNL     1      -1.757  -3.247   0.038  1.00  0.00     0.071 C 
ENDROOT
BRANCH   1  12
HETATM   12  C8  UNL     1      -3.293  -0.140   1.206  1.00  0.00     0.209 C 
BRANCH  12  13
HETATM   13  C7  UNL     1      -3.588   1.256   1.116  1.00  0.00     0.050 C 
BRANCH  13  14
HETATM   14  C6  UNL     1      -4.469   2.062   0.311  1.00  0.00     0.203 C 
BRANCH  14  15
HETATM   15  N1  UNL     1      -5.887   2.029   0.418  1.00  0.00    -0.052 N 
HETATM   16  C3  UNL     1      -6.356   1.613   1.735  1.00  0.00     0.278 C 
BRANCH  15  17
HETATM   17  C2  UNL     1      -6.521   1.274  -0.597  1.00  0.00     0.238 C 
HETATM   18  C1  UNL     1      -7.233   2.083  -1.673  1.00  0.00     0.035 C 
ENDBRANCH  15  17
BRANCH  15  19
HETATM   19  C4  UNL     1      -6.348   3.448   0.352  1.00  0.00     0.238 C 
HETATM   20  C5  UNL     1      -7.571   3.734   1.124  1.00  0.00     0.035 C 
ENDBRANCH  15  19
ENDBRANCH  14  15
ENDBRANCH  13  14
ENDBRANCH  12  13
ENDBRANCH   1  12
BRANCH   1  21
HETATM   21  C9  UNL     1      -1.152  -0.787   0.620  1.00  0.00     0.275 C 
BRANCH  21  22
HETATM   22  C10 UNL     1      -0.180  -0.517  -0.456  1.00  0.00     0.260 C 
BRANCH  22  23
HETATM   23  N3  UNL     1       1.219  -0.541   0.073  1.00  0.00    -0.073 N 
ATOM     24  H32 UNL     1       1.449   0.243   0.683  1.00  0.00     0.277 HD
ATOM     25  H31 UNL     1       1.393  -1.273   0.762  1.00  0.00     0.277 HD
BRANCH  23  26
HETATM   26  C11 UNL     1       2.041  -0.632  -1.106  1.00  0.00     0.232 C 
BRANCH  26  27
HETATM   27  C12 UNL     1       3.496  -0.820  -0.932  1.00  0.00     0.029 C 
BRANCH  27  28
HETATM   28  C13 UNL     1       3.877  -2.032  -0.088  1.00  0.00     0.029 C 
BRANCH  28  29
HETATM   29  C14 UNL     1       5.357  -2.213  -0.178  1.00  0.00     0.232 C 
BRANCH  29  30
HETATM   30  N4  UNL     1       6.173  -1.101   0.189  1.00  0.00    -0.075 N 
ATOM     31  H42 UNL     1       5.891  -0.241  -0.282  1.00  0.00     0.277 HD
ATOM     32  H41 UNL     1       6.008  -0.800   1.149  1.00  0.00     0.277 HD
BRANCH  30  33
HETATM   33  C15 UNL     1       7.592  -1.436  -0.058  1.00  0.00     0.234 C 
BRANCH  33  34
HETATM   34  C16 UNL     1       8.491  -0.244   0.006  1.00  0.00     0.047 C 
BRANCH  34  35
HETATM   35  C17 UNL     1       8.543   0.479   1.308  1.00  0.00     0.123 C 
BRANCH  35  36
HETATM   36  N5  UNL     1       9.408   1.632   1.215  1.00  0.00    -0.367 N 
HETATM   37  C18 UNL     1      10.666   1.635   1.160  1.00  0.00     0.196 C 
HETATM   38  N6  UNL     1      11.427   0.435   1.188  1.00  0.00    -0.067 NA
HETATM   39  N7  UNL     1      11.317   2.910   1.045  1.00  0.00    -0.067 NA
ATOM     40  H5  UNL     1       8.950   2.543   1.191  1.00  0.00     0.161 HD
ENDBRANCH  35  36
ENDBRANCH  34  35
ENDBRANCH  33  34
ENDBRANCH  30  33
ENDBRANCH  29  30
ENDBRANCH  28  29
ENDBRANCH  27  28
ENDBRANCH  26  27
ENDBRANCH  23  26
ENDBRANCH  22  23
ENDBRANCH  21  22
ENDBRANCH   1  21
TORSDOF 18
