REMARK  10 active torsions:
REMARK  status: ('A' for Active; 'I' for Inactive)
REMARK    1  A    between atoms: N1_2  and  C2_5 
REMARK    2  A    between atoms: C2_5  and  C3_6 
REMARK    3  A    between atoms: C2_5  and  C19_33 
REMARK       I    between atoms: C3_6  and  N2_8 
REMARK    4  A    between atoms: N2_8  and  C4_10 
REMARK    5  A    between atoms: C4_10  and  C5_11 
REMARK    6  A    between atoms: C4_10  and  C16_30 
REMARK    7  A    between atoms: C5_11  and  C6_13 
REMARK    8  A    between atoms: C6_13  and  N3_14 
REMARK    9  A    between atoms: C7_15  and  C8_16 
REMARK   10  A    between atoms: C12_26  and  C13_27 
ROOT
HETATM    1  C5  UNL     1      -0.361   0.439  -0.239  1.00  0.00     0.177 C 
HETATM    2  O2  UNL     1      -0.301   0.960   0.862  1.00  0.00    -0.294 OA
ENDROOT
BRANCH   1   3
HETATM    3  C4  UNL     1       0.902  -0.005  -0.854  1.00  0.00     0.159 C 
BRANCH   3   4
HETATM    4  N2  UNL     1       1.952   0.275   0.140  1.00  0.00    -0.347 N 
HETATM    5  C3  UNL     1       2.695  -0.734   0.769  1.00  0.00     0.249 C 
HETATM    6  O1  UNL     1       2.405  -1.932   0.429  1.00  0.00    -0.271 OA
ATOM      7  H2  UNL     1       2.147   1.246   0.382  1.00  0.00     0.163 HD
BRANCH   5   8
HETATM    8  C2  UNL     1       3.749  -0.538   1.759  1.00  0.00     0.279 C 
BRANCH   8   9
HETATM    9  N1  UNL     1       4.232  -1.833   2.269  1.00  0.00    -0.066 N 
HETATM   10  C1  UNL     1       4.827  -2.659   1.279  1.00  0.00     0.267 C 
ATOM     11  H12 UNL     1       3.482  -2.332   2.747  1.00  0.00     0.277 HD
ATOM     12  H11 UNL     1       4.872  -1.693   3.051  1.00  0.00     0.277 HD
ENDBRANCH   8   9
BRANCH   8  13
HETATM   13  C19 UNL     1       4.963   0.219   1.270  1.00  0.00     0.017 C 
HETATM   14  C20 UNL     1       5.873   0.353   2.504  1.00  0.00     0.012 C 
HETATM   15  C21 UNL     1       4.702   1.566   0.711  1.00  0.00     0.012 C 
ENDBRANCH   8  13
ENDBRANCH   5   8
ENDBRANCH   3   4
BRANCH   3  16
HETATM   16  C16 UNL     1       1.276   0.615  -2.149  1.00  0.00     0.007 C 
HETATM   17  C17 UNL     1       0.322   0.405  -3.262  1.00  0.00     0.012 C 
HETATM   18  C18 UNL     1       2.614  -0.002  -2.585  1.00  0.00     0.012 C 
ENDBRANCH   3  16
ENDBRANCH   1   3
BRANCH   1  19
HETATM   19  C6  UNL     1      -1.650   0.270  -0.896  1.00  0.00     0.354 C 
BRANCH  19  20
HETATM   20  N3  UNL     1      -2.792   0.630  -0.040  1.00  0.00     0.111 N 
HETATM   21  C7  UNL     1      -4.008   0.456  -0.809  1.00  0.00     0.276 C 
HETATM   22  C10 UNL     1      -4.219  -1.015  -0.941  1.00  0.00     0.044 C 
HETATM   23  C11 UNL     1      -3.665  -1.531   0.382  1.00  0.00     0.038 C 
HETATM   24  C12 UNL     1      -2.952  -0.342   1.018  1.00  0.00     0.228 C 
BRANCH  21  25
HETATM   25  C8  UNL     1      -4.029   1.186  -2.084  1.00  0.00     0.077 A 
HETATM   26  C9  UNL     1      -4.398   0.654  -3.296  1.00  0.00     0.137 A 
HETATM   27  N4  UNL     1      -4.294   1.645  -4.212  1.00  0.00    -0.296 N 
HETATM   28  N5  UNL     1      -3.883   2.740  -3.612  1.00  0.00    -0.243 N 
ATOM     29  H4  UNL     1      -4.501   1.556  -5.207  1.00  0.00     0.187 HD
HETATM   30  N6  UNL     1      -3.721   2.465  -2.317  1.00  0.00    -0.287 N 
ATOM     31  H5  UNL     1      -3.717   3.642  -4.059  1.00  0.00     0.208 HD
ATOM     32  H6  UNL     1      -3.409   3.131  -1.611  1.00  0.00     0.188 HD
ENDBRANCH  21  25
BRANCH  24  33
HETATM   33  C13 UNL     1      -3.835   0.204   2.085  1.00  0.00     0.011 C 
HETATM   34  C14 UNL     1      -3.926  -0.890   3.159  1.00  0.00     0.011 C 
HETATM   35  C15 UNL     1      -3.376   1.503   2.694  1.00  0.00     0.011 C 
ENDBRANCH  24  33
ENDBRANCH  19  20
ENDBRANCH   1  19
TORSDOF 10
