REMARK  14 active torsions:
REMARK  status: ('A' for Active; 'I' for Inactive)
REMARK    1  A    between atoms: C2_2  and  C3_3 
REMARK       I    between atoms: C3_3  and  N1_5 
REMARK    2  A    between atoms: N1_5  and  O2_6 
REMARK    3  A    between atoms: N1_5  and  C4_8 
REMARK    4  A    between atoms: C9_13  and  O3_15 
REMARK    5  A    between atoms: O3_15  and  C11_16 
REMARK    6  A    between atoms: C12_18  and  C13_19 
REMARK    7  A    between atoms: C13_19  and  O5_20 
REMARK    8  A    between atoms: C14_22  and  O6_23 
REMARK    9  A    between atoms: C15_25  and  O7_26 
REMARK   10  A    between atoms: C16_28  and  O8_29 
REMARK   11  A    between atoms: C17_32  and  O10_33 
REMARK   12  A    between atoms: O10_33  and  C18_34 
REMARK   13  A    between atoms: C18_34  and  C19_35 
REMARK   14  A    between atoms: C19_35  and  C20_36 
ROOT
HETATM    1  C4  UNL     1      -1.789  -1.185   0.852  1.00  0.00     0.202 C 
HETATM    2  C5  UNL     1      -0.639  -2.108   0.991  1.00  0.00    -0.050 C 
HETATM    3  C6  UNL     1      -0.731  -3.221   1.697  1.00  0.00     0.017 C 
HETATM    4  C7  UNL     1       0.687  -1.843   0.346  1.00  0.00     0.074 C 
HETATM    5  C8  UNL     1       1.258  -3.149  -0.192  1.00  0.00     0.020 C 
HETATM    6  C9  UNL     1       0.674  -0.769  -0.687  1.00  0.00     0.173 C 
HETATM    7  C10 UNL     1       0.508  -1.357  -2.101  1.00  0.00     0.080 C 
HETATM    8  O9  UNL     1      -0.268   0.169  -0.415  1.00  0.00    -0.322 OA
HETATM    9  C17 UNL     1      -1.573  -0.228  -0.323  1.00  0.00     0.292 C 
ENDROOT
BRANCH   6  10
HETATM   10  O3  UNL     1       1.936  -0.186  -0.707  1.00  0.00    -0.322 OA
BRANCH  10  11
HETATM   11  C11 UNL     1       2.360   0.425   0.420  1.00  0.00     0.295 C 
HETATM   12  O4  UNL     1       3.538  -0.233   0.836  1.00  0.00    -0.348 OA
HETATM   13  C12 UNL     1       4.538   0.647   1.183  1.00  0.00     0.179 C 
HETATM   14  C14 UNL     1       5.072   1.412  -0.017  1.00  0.00     0.180 C 
HETATM   15  C15 UNL     1       3.899   1.851  -0.872  1.00  0.00     0.183 C 
HETATM   16  C16 UNL     1       2.691   1.878   0.050  1.00  0.00     0.204 C 
BRANCH  13  17
HETATM   17  C13 UNL     1       5.688  -0.168   1.733  1.00  0.00     0.198 C 
BRANCH  17  18
HETATM   18  O5  UNL     1       6.743   0.669   2.106  1.00  0.00    -0.398 OA
ATOM     19  H5  UNL     1       7.465   0.157   2.451  1.00  0.00     0.209 HD
ENDBRANCH  17  18
ENDBRANCH  13  17
BRANCH  14  20
HETATM   20  O6  UNL     1       5.766   2.508   0.491  1.00  0.00    -0.390 OA
ATOM     21  H6  UNL     1       6.100   2.986  -0.259  1.00  0.00     0.210 HD
ENDBRANCH  14  20
BRANCH  15  22
HETATM   22  O7  UNL     1       3.728   0.902  -1.861  1.00  0.00    -0.390 OA
ATOM     23  H7  UNL     1       2.993   1.177  -2.397  1.00  0.00     0.210 HD
ENDBRANCH  15  22
BRANCH  16  24
HETATM   24  O8  UNL     1       1.622   2.342  -0.720  1.00  0.00    -0.388 OA
ATOM     25  H8  UNL     1       1.827   3.241  -0.949  1.00  0.00     0.210 HD
ENDBRANCH  16  24
ENDBRANCH  10  11
ENDBRANCH   6  10
BRANCH   9  26
HETATM   26  O10 UNL     1      -2.314   0.944  -0.054  1.00  0.00    -0.359 OA
BRANCH  26  27
HETATM   27  C18 UNL     1      -3.322   1.130  -0.990  1.00  0.00     0.171 C 
BRANCH  27  28
HETATM   28  C19 UNL     1      -4.089   2.393  -0.664  1.00  0.00     0.026 C 
BRANCH  28  29
HETATM   29  C20 UNL     1      -3.213   3.611  -0.678  1.00  0.00    -0.002 C 
HETATM   30  C21 UNL     1      -4.087   4.803  -0.340  1.00  0.00     0.005 C 
ENDBRANCH  28  29
ENDBRANCH  27  28
ENDBRANCH  26  27
ENDBRANCH   9  26
BRANCH   1  31
HETATM   31  N1  UNL     1      -3.078  -1.844   0.809  1.00  0.00    -0.211 N 
HETATM   32  C3  UNL     1      -3.454  -2.780  -0.163  1.00  0.00     0.266 C 
HETATM   33  O1  UNL     1      -2.532  -3.036  -1.032  1.00  0.00    -0.266 OA
BRANCH  32  34
HETATM   34  C2  UNL     1      -4.689  -3.488  -0.342  1.00  0.00     0.066 C 
HETATM   35  C1  UNL     1      -5.779  -3.421   0.382  1.00  0.00     0.017 C 
ENDBRANCH  32  34
BRANCH  31  36
HETATM   36  O2  UNL     1      -3.992  -1.530   1.771  1.00  0.00    -0.284 OA
ATOM     37  H2  UNL     1      -3.737  -0.895   2.430  1.00  0.00     0.245 HD
ENDBRANCH  31  36
ENDBRANCH   1  31
TORSDOF 14
