REMARK  1 active torsions:
REMARK  status: ('A' for Active; 'I' for Inactive)
REMARK    1  A    between atoms: N5_8  and  O1_9 
ROOT
HETATM    1  C1  UNL     1      -1.368  -0.134  -0.020  1.00  0.00     0.202 C 
HETATM    2  N1  UNL     1       0.067  -0.284  -0.038  1.00  0.00    -0.178 N 
HETATM    3  N2  UNL     1       0.787  -1.395  -0.185  1.00  0.00     0.016 NA
HETATM    4  N3  UNL     1       2.067  -1.064  -0.139  1.00  0.00    -0.207 N 
ATOM      5  H3  UNL     1       2.851  -1.711  -0.223  1.00  0.00     0.207 HD
HETATM    6  N4  UNL     1       2.163   0.236   0.033  1.00  0.00    -0.186 N 
ATOM      7  H4  UNL     1       3.025   0.776   0.105  1.00  0.00     0.214 HD
HETATM    8  N5  UNL     1       0.914   0.718   0.096  1.00  0.00    -0.064 N 
ENDROOT
BRANCH   8   9
HETATM    9  O1  UNL     1       0.560   2.035   0.271  1.00  0.00    -0.251 OA
ATOM     10  H1  UNL     1       1.170   2.757   0.368  1.00  0.00     0.248 HD
ENDBRANCH   8   9
TORSDOF 1
