REMARK  5 active torsions:
REMARK  status: ('A' for Active; 'I' for Inactive)
REMARK    1  A    between atoms: N1_1  and  C1_4 
REMARK    2  A    between atoms: C3_12  and  N5_13 
REMARK    3  A    between atoms: N5_13  and  C4_15 
REMARK    4  A    between atoms: C4_15  and  C5_16 
REMARK    5  A    between atoms: C5_16  and  N6_17 
ROOT
HETATM    1  C1  UNL     1      -1.607   0.429  -0.664  1.00  0.00     0.145 A 
HETATM    2  N2  UNL     1      -2.749  -0.256  -0.510  1.00  0.00    -0.335 N 
ATOM      3  H2  UNL     1      -3.511  -0.158  -1.181  1.00  0.00     0.168 HD
HETATM    4  C2  UNL     1      -2.867  -1.075   0.549  1.00  0.00     0.199 A 
HETATM    5  N3  UNL     1      -1.883  -1.226   1.451  1.00  0.00    -0.294 N 
ATOM      6  H3  UNL     1      -2.017  -1.859   2.240  1.00  0.00     0.187 HD
HETATM    7  N4  UNL     1      -0.743  -0.566   1.331  1.00  0.00    -0.282 N 
ATOM      8  H4  UNL     1       0.008  -0.676   2.012  1.00  0.00     0.188 HD
HETATM    9  C3  UNL     1      -0.616   0.253   0.278  1.00  0.00     0.160 A 
ENDROOT
BRANCH   9  10
HETATM   10  N5  UNL     1       0.473   0.916   0.118  1.00  0.00    -0.371 N 
ATOM     11  H5  UNL     1       0.538   1.530  -0.694  1.00  0.00     0.161 HD
BRANCH  10  12
HETATM   12  C4  UNL     1       1.614   0.854   1.006  1.00  0.00     0.148 C 
BRANCH  12  13
HETATM   13  C5  UNL     1       2.437  -0.361   0.580  1.00  0.00     0.249 C 
BRANCH  13  14
HETATM   14  N6  UNL     1       2.826  -0.131  -0.791  1.00  0.00    -0.078 N 
ATOM     15  H63 UNL     1       2.037   0.059  -1.409  1.00  0.00     0.274 HD
ATOM     16  H62 UNL     1       3.312   0.755  -0.930  1.00  0.00     0.274 HD
ATOM     17  H61 UNL     1       3.375  -0.942  -1.075  1.00  0.00     0.274 HD
ENDBRANCH  13  14
ENDBRANCH  12  13
ENDBRANCH  10  12
ENDBRANCH   9  10
BRANCH   1  18
HETATM   18  N1  UNL     1      -1.490   1.212  -1.674  1.00  0.00    -0.382 N 
ATOM     19  H12 UNL     1      -2.223   1.342  -2.371  1.00  0.00     0.157 HD
ATOM     20  H11 UNL     1      -0.621   1.733  -1.791  1.00  0.00     0.157 HD
ENDBRANCH   1  18
TORSDOF 5
