REMARK  6 active torsions:
REMARK  status: ('A' for Active; 'I' for Inactive)
REMARK    1  A    between atoms: C2_2  and  C3_3 
REMARK    2  A    between atoms: C3_3  and  N1_4 
REMARK    3  A    between atoms: C6_11  and  N3_12 
REMARK       I    between atoms: N3_12  and  C7_14 
REMARK    4  A    between atoms: C7_14  and  C8_16 
REMARK    5  A    between atoms: C8_16  and  C9_17 
REMARK    6  A    between atoms: C9_17  and  C10_18 
ROOT
HETATM    1  N1  UNL     1       5.155   0.159   1.106  1.00  0.00    -0.371 N 
ATOM      2  H1  UNL     1       5.657   0.864   1.646  1.00  0.00     0.161 HD
HETATM    3  C4  UNL     1       4.199   0.487   0.335  1.00  0.00     0.142 C 
HETATM    4  N2  UNL     1       3.440  -0.417  -0.457  1.00  0.00    -0.306 N 
ATOM      5  H2  UNL     1       3.843  -1.330  -0.667  1.00  0.00     0.171 HD
HETATM    6  C5  UNL     1       2.151  -0.116  -0.971  1.00  0.00     0.247 C 
HETATM    7  O1  UNL     1       1.627  -0.977  -1.729  1.00  0.00    -0.271 OA
HETATM    8  C6  UNL     1       1.488   1.148  -0.615  1.00  0.00     0.186 C 
HETATM    9  C16 UNL     1       2.375   2.354  -0.915  1.00  0.00     0.117 C 
HETATM   10  S1  UNL     1       3.777   2.242   0.241  1.00  0.00    -0.092 SA
ENDROOT
BRANCH   8  11
HETATM   11  N3  UNL     1       0.294   1.323  -1.445  1.00  0.00    -0.347 N 
HETATM   12  C7  UNL     1      -1.003   1.469  -0.876  1.00  0.00     0.218 C 
HETATM   13  O2  UNL     1      -1.071   1.441   0.388  1.00  0.00    -0.274 OA
ATOM     14  H3  UNL     1       0.395   1.341  -2.460  1.00  0.00     0.163 HD
BRANCH  12  15
HETATM   15  C8  UNL     1      -2.180   1.642  -1.723  1.00  0.00     0.103 C 
BRANCH  15  16
HETATM   16  C9  UNL     1      -3.492   1.733  -1.027  1.00  0.00     0.014 C 
BRANCH  16  17
HETATM   17  C10 UNL     1      -3.889   0.547  -0.225  1.00  0.00    -0.014 C 
HETATM   18  C11 UNL     1      -3.974  -0.682  -1.142  1.00  0.00     0.004 C 
HETATM   19  C12 UNL     1      -4.204  -1.860  -0.188  1.00  0.00     0.000 C 
HETATM   20  C13 UNL     1      -5.548  -1.741   0.449  1.00  0.00     0.000 C 
HETATM   21  C14 UNL     1      -5.818  -0.407   1.065  1.00  0.00     0.000 C 
HETATM   22  C15 UNL     1      -5.298   0.753   0.290  1.00  0.00     0.004 C 
ENDBRANCH  16  17
ENDBRANCH  15  16
ENDBRANCH  12  15
ENDBRANCH   8  11
BRANCH   1  23
HETATM   23  C3  UNL     1       5.512  -1.240   1.197  1.00  0.00     0.121 C 
BRANCH  23  24
HETATM   24  C2  UNL     1       6.586  -1.469   2.259  1.00  0.00     0.015 C 
HETATM   25  C1  UNL     1       7.830  -0.703   1.945  1.00  0.00     0.006 C 
ENDBRANCH  23  24
ENDBRANCH   1  23
TORSDOF 6
