REMARK  11 active torsions:
REMARK  status: ('A' for Active; 'I' for Inactive)
REMARK       I    between atoms: C2_2  and  N1_4 
REMARK    1  A    between atoms: N1_4  and  C3_6 
REMARK    2  A    between atoms: N3_10  and  N4_12 
REMARK    3  A    between atoms: N4_12  and  C5_13 
REMARK    4  A    between atoms: C5_13  and  C7_16 
REMARK    5  A    between atoms: N6_18  and  C9_19 
REMARK    6  A    between atoms: C9_19  and  C10_20 
REMARK    7  A    between atoms: C10_20  and  O2_21 
REMARK    8  A    between atoms: C10_20  and  O3_23 
REMARK    9  A    between atoms: N11_37  and  N12_38 
REMARK   10  A    between atoms: N12_38  and  O4_40 
REMARK   11  A    between atoms: C14_42  and  O5_43 
ROOT
HETATM    1  C5  UNL     1       0.164  -0.086   0.682  1.00  0.00     0.240 C 
HETATM    2  C6  UNL     1       0.040   1.233   1.315  1.00  0.00     0.137 C 
HETATM    3  N5  UNL     1      -0.065   2.278   1.796  1.00  0.00    -0.188 NA
ENDROOT
BRANCH   1   4
HETATM    4  N4  UNL     1      -0.788  -0.776   0.563  1.00  0.00    -0.297 NA
BRANCH   4   5
HETATM    5  N3  UNL     1      -1.816  -1.534   0.430  1.00  0.00    -0.062 N 
HETATM    6  C4  UNL     1      -3.064  -1.170   0.371  1.00  0.00     0.734 A 
HETATM    7  N2  UNL     1      -3.510   0.128   0.440  1.00  0.00    -0.168 N 
HETATM    8  N11 UNL     1      -4.134  -1.973   0.259  1.00  0.00    -0.036 N 
HETATM    9  C3  UNL     1      -4.835   0.151   0.378  1.00  0.00     0.177 A 
ATOM     10  H2  UNL     1      -2.912   0.950   0.526  1.00  0.00     0.186 HD
HETATM   11  C14 UNL     1      -5.222  -1.189   0.262  1.00  0.00     0.227 A 
ATOM     12  H3  UNL     1      -1.634  -2.535   0.363  1.00  0.00     0.221 HD
BRANCH   9  13
HETATM   13  N1  UNL     1      -5.767   1.247   0.430  1.00  0.00    -0.309 N 
HETATM   14  C2  UNL     1      -5.326   2.553   0.551  1.00  0.00     0.219 C 
HETATM   15  C1  UNL     1      -6.201   3.724   0.648  1.00  0.00     0.117 C 
HETATM   16  O1  UNL     1      -4.054   2.813   0.594  1.00  0.00    -0.274 OA
ATOM     17  H1  UNL     1      -6.768   1.058   0.377  1.00  0.00     0.170 HD
ENDBRANCH   9  13
BRANCH  11  18
HETATM   18  O5  UNL     1      -6.536  -1.675   0.163  1.00  0.00    -0.342 OA
ATOM     19  H5  UNL     1      -6.799  -2.585   0.084  1.00  0.00     0.219 HD
ENDBRANCH  11  18
BRANCH   8  20
HETATM   20  N12 UNL     1      -4.134  -3.374   0.156  1.00  0.00    -0.183 N 
HETATM   21  C13 UNL     1      -4.275  -4.091  -1.076  1.00  0.00     0.209 C 
BRANCH  20  22
HETATM   22  O4  UNL     1      -3.987  -4.117   1.301  1.00  0.00    -0.272 OA
ATOM     23  H4  UNL     1      -3.987  -5.064   1.231  1.00  0.00     0.246 HD
ENDBRANCH  20  22
ENDBRANCH   8  20
ENDBRANCH   4   5
ENDBRANCH   1   4
BRANCH   1  24
HETATM   24  C7  UNL     1       1.513  -0.436   0.252  1.00  0.00     0.120 A 
HETATM   25  C8  UNL     1       2.636   0.393   0.361  1.00  0.00     0.151 A 
HETATM   26  N6  UNL     1       3.734  -0.255  -0.126  1.00  0.00    -0.222 N 
HETATM   27  N9  UNL     1       3.306  -1.434  -0.520  1.00  0.00    -0.236 N 
HETATM   28  N10 UNL     1       1.990  -1.565  -0.305  1.00  0.00    -0.281 N 
ATOM     29  H9  UNL     1       3.898  -2.154  -0.935  1.00  0.00     0.208 HD
ATOM     30  H10 UNL     1       1.436  -2.392  -0.529  1.00  0.00     0.188 HD
BRANCH  26  31
HETATM   31  C9  UNL     1       5.076   0.310  -0.167  1.00  0.00     0.431 C 
HETATM   32  N7  UNL     1       4.961   1.731  -0.406  1.00  0.00    -0.014 N 
HETATM   33  C11 UNL     1       6.261   2.153  -0.859  1.00  0.00     0.265 C 
ATOM     34  H72 UNL     1       4.205   1.979  -1.044  1.00  0.00     0.282 HD
ATOM     35  H71 UNL     1       4.618   2.255   0.399  1.00  0.00     0.282 HD
HETATM   36  C12 UNL     1       6.761   0.934  -1.598  1.00  0.00     0.265 C 
HETATM   37  N8  UNL     1       5.850  -0.160  -1.272  1.00  0.00    -0.014 N 
ATOM     38  H82 UNL     1       6.320  -1.048  -1.097  1.00  0.00     0.282 HD
ATOM     39  H81 UNL     1       5.288  -0.477  -2.062  1.00  0.00     0.282 HD
BRANCH  31  40
HETATM   40  C10 UNL     1       5.760   0.109   1.163  1.00  0.00     0.344 C 
BRANCH  40  41
HETATM   41  O2  UNL     1       4.981   0.731   2.137  1.00  0.00    -0.366 OA
ATOM     42  H2  UNL     1       5.412   0.604   2.974  1.00  0.00     0.212 HD
ENDBRANCH  40  41
BRANCH  40  43
HETATM   43  O3  UNL     1       5.922  -1.241   1.438  1.00  0.00    -0.366 OA
ATOM     44  H3  UNL     1       6.353  -1.368   2.275  1.00  0.00     0.212 HD
ENDBRANCH  40  43
ENDBRANCH  31  40
ENDBRANCH  26  31
ENDBRANCH   1  24
TORSDOF 11
