REMARK  11 active torsions:
REMARK  status: ('A' for Active; 'I' for Inactive)
REMARK    1  A    between atoms: O1_2  and  N1_3 
REMARK    2  A    between atoms: N1_3  and  C2_4 
REMARK    3  A    between atoms: C2_4  and  O2_5 
REMARK    4  A    between atoms: C2_4  and  C3_7 
REMARK    5  A    between atoms: C4_8  and  N2_9 
REMARK    6  A    between atoms: N2_9  and  C5_11 
REMARK    7  A    between atoms: C5_11  and  N3_12 
REMARK    8  A    between atoms: C5_11  and  O3_16 
REMARK    9  A    between atoms: N5_22  and  N6_23 
REMARK   10  A    between atoms: C8_26  and  N7_27 
REMARK   11  A    between atoms: N10_36  and  O5_37 
ROOT
HETATM    1  C3  UNL     1       1.206  -0.300  -0.384  1.00  0.00     0.063 A 
HETATM    2  C4  UNL     1       2.440  -0.938  -0.614  1.00  0.00     0.075 A 
HETATM    3  C6  UNL     1       2.479  -1.786  -1.697  1.00  0.00     0.143 A 
HETATM    4  N4  UNL     1       3.685  -2.458  -2.056  1.00  0.00    -0.094 NA
HETATM    5  C7  UNL     1       1.356  -1.994  -2.505  1.00  0.00     0.294 A 
HETATM    6  O4  UNL     1       1.478  -2.777  -3.462  1.00  0.00    -0.264 OA
HETATM    7  N5  UNL     1       0.211  -1.369  -2.244  1.00  0.00    -0.208 N 
HETATM    8  C8  UNL     1       0.124  -0.529  -1.199  1.00  0.00     0.146 A 
ENDROOT
BRANCH   8   9
HETATM    9  N7  UNL     1      -1.111   0.130  -0.951  1.00  0.00    -0.312 N 
HETATM   10  C9  UNL     1      -1.508   1.326  -1.633  1.00  0.00     0.152 C 
HETATM   11  C10 UNL     1      -2.435   2.160  -0.840  1.00  0.00     0.143 C 
HETATM   12  N8  UNL     1      -3.556   1.377  -0.368  1.00  0.00    -0.379 N 
HETATM   13  C11 UNL     1      -4.940   1.744  -0.508  1.00  0.00     0.150 C 
HETATM   14  C12 UNL     1      -3.187   0.146   0.293  1.00  0.00     0.102 A 
HETATM   15  C13 UNL     1      -1.989  -0.456   0.001  1.00  0.00     0.155 A 
HETATM   16  C14 UNL     1      -3.811  -0.643   1.232  1.00  0.00     0.085 A 
HETATM   17  N9  UNL     1      -1.950  -1.563   0.769  1.00  0.00    -0.257 N 
HETATM   18  N10 UNL     1      -3.029  -1.699   1.516  1.00  0.00    -0.164 N 
ATOM     19  H9  UNL     1      -1.172  -2.223   0.772  1.00  0.00     0.191 HD
HETATM   20  C15 UNL     1      -5.148  -0.353   1.826  1.00  0.00     0.075 C 
BRANCH  18  21
HETATM   21  O5  UNL     1      -3.347  -2.688   2.415  1.00  0.00    -0.268 OA
ATOM     22  H5  UNL     1      -4.124  -2.786   2.953  1.00  0.00     0.247 HD
ENDBRANCH  18  21
ENDBRANCH   8   9
BRANCH   1  23
HETATM   23  C2  UNL     1       1.040   0.689   0.666  1.00  0.00     0.278 C 
BRANCH  23  24
HETATM   24  N1  UNL     1       2.033   1.739   0.659  1.00  0.00    -0.064 NA
BRANCH  24  25
HETATM   25  O1  UNL     1       1.843   2.656   1.603  1.00  0.00    -0.289 OA
HETATM   26  C1  UNL     1       2.492   3.848   1.371  1.00  0.00     0.231 C 
ENDBRANCH  24  25
ENDBRANCH  23  24
BRANCH  23  27
HETATM   27  O2  UNL     1       1.077   0.024   1.924  1.00  0.00    -0.373 OA
ATOM     28  H2  UNL     1       0.424  -0.666   1.929  1.00  0.00     0.212 HD
ENDBRANCH  23  27
ENDBRANCH   1  23
BRANCH   7  29
HETATM   29  N6  UNL     1      -0.918  -1.568  -3.040  1.00  0.00    -0.334 N 
ATOM     30  H62 UNL     1      -0.852  -2.206  -3.833  1.00  0.00     0.177 HD
ATOM     31  H61 UNL     1      -1.796  -1.089  -2.840  1.00  0.00     0.177 HD
ENDBRANCH   7  29
BRANCH   2  32
HETATM   32  N2  UNL     1       3.497  -0.718   0.281  1.00  0.00    -0.340 N 
ATOM     33  H2  UNL     1       3.292  -0.058   1.031  1.00  0.00     0.164 HD
BRANCH  32  34
HETATM   34  C5  UNL     1       4.822  -1.273   0.311  1.00  0.00     0.424 C 
BRANCH  34  35
HETATM   35  N3  UNL     1       4.841  -2.654   0.770  1.00  0.00    -0.035 N 
ATOM     36  H33 UNL     1       4.385  -2.744   1.678  1.00  0.00     0.279 HD
ATOM     37  H32 UNL     1       4.214  -3.234   0.213  1.00  0.00     0.279 HD
ATOM     38  H31 UNL     1       5.782  -3.048   0.791  1.00  0.00     0.279 HD
ENDBRANCH  34  35
BRANCH  34  39
HETATM   39  O3  UNL     1       5.623  -0.570   1.255  1.00  0.00    -0.355 OA
ATOM     40  H3  UNL     1       6.499  -0.937   1.275  1.00  0.00     0.213 HD
ENDBRANCH  34  39
ENDBRANCH  32  34
ENDBRANCH   2  32
TORSDOF 11
