REMARK  3 active torsions:
REMARK  status: ('A' for Active; 'I' for Inactive)
REMARK    1  A    between atoms: N1_1  and  C1_5 
REMARK    2  A    between atoms: C1_5  and  C2_6 
REMARK    3  A    between atoms: C2_6  and  O1_7 
ROOT
HETATM    1  C2  UNL     1      -2.088   0.153   0.073  1.00  0.00     0.081 C 
HETATM    2  C3  UNL     1      -1.770  -0.920   1.064  1.00  0.00     0.039 C 
HETATM    3  C4  UNL     1      -1.072  -2.105   0.497  1.00  0.00     0.003 C 
HETATM    4  C5  UNL     1       0.378  -2.214   0.901  1.00  0.00     0.000 C 
HETATM    5  C6  UNL     1       1.291  -2.297  -0.299  1.00  0.00     0.000 C 
HETATM    6  C7  UNL     1       2.676  -1.871   0.107  1.00  0.00     0.000 C 
HETATM    7  C8  UNL     1       3.212  -0.777  -0.815  1.00  0.00     0.000 C 
HETATM    8  C9  UNL     1       3.075   0.589  -0.202  1.00  0.00     0.000 C 
HETATM    9  C10 UNL     1       2.195   1.511  -1.030  1.00  0.00     0.000 C 
HETATM   10  C11 UNL     1       1.663   2.593  -0.123  1.00  0.00     0.000 C 
HETATM   11  C12 UNL     1       0.151   2.660  -0.215  1.00  0.00     0.000 C 
HETATM   12  C13 UNL     1      -0.419   1.832   0.927  1.00  0.00     0.003 C 
HETATM   13  C14 UNL     1      -1.849   1.500   0.768  1.00  0.00     0.039 C 
ENDROOT
BRANCH   1  14
HETATM   14  C1  UNL     1      -3.567   0.193  -0.295  1.00  0.00     0.267 C 
BRANCH  14  15
HETATM   15  N1  UNL     1      -4.014  -0.947  -1.000  1.00  0.00    -0.076 N 
ATOM     16  H13 UNL     1      -3.442  -1.102  -1.830  1.00  0.00     0.274 HD
ATOM     17  H12 UNL     1      -3.797  -1.798  -0.480  1.00  0.00     0.274 HD
ATOM     18  H11 UNL     1      -5.003  -0.920  -1.246  1.00  0.00     0.274 HD
ENDBRANCH  14  15
ENDBRANCH   1  14
BRANCH   1  19
HETATM   19  O1  UNL     1      -1.371   0.062  -1.098  1.00  0.00    -0.388 OA
ATOM     20  H1  UNL     1      -0.449   0.037  -0.869  1.00  0.00     0.210 HD
ENDBRANCH   1  19
TORSDOF 3
