REMARK  2 active torsions:
REMARK  status: ('A' for Active; 'I' for Inactive)
REMARK    1  A    between atoms: C6_6  and  N1_7 
REMARK    2  A    between atoms: N1_7  and  N2_9 
ROOT
HETATM    1  N1  UNL     1       0.066   1.283  -0.919  1.00  0.00    -0.306 N 
ATOM      2  H1  UNL     1       0.606   2.137  -1.057  1.00  0.00     0.182 HD
ENDROOT
BRANCH   1   3
HETATM    3  C6  UNL     1      -1.239   1.344  -0.308  1.00  0.00     0.299 C 
HETATM    4  C5  UNL     1      -2.241   0.803  -1.286  1.00  0.00     0.060 C 
HETATM    5  C4  UNL     1      -3.521   0.362  -0.688  1.00  0.00     0.039 C 
HETATM    6  C3  UNL     1      -3.539   0.281   0.777  1.00  0.00    -0.059 C 
HETATM    7  C2  UNL     1      -4.536  -0.340   1.367  1.00  0.00    -0.027 C 
HETATM    8  C14 UNL     1      -2.465   0.878   1.615  1.00  0.00     0.268 C 
HETATM    9  C1  UNL     1      -5.625  -0.948   0.572  1.00  0.00     0.036 C 
HETATM   10  N3  UNL     1      -1.207   0.600   0.933  1.00  0.00    -0.050 N 
ATOM     11  H32 UNL     1      -1.030  -0.396   0.802  1.00  0.00     0.280 HD
ATOM     12  H31 UNL     1      -0.386   0.801   1.503  1.00  0.00     0.280 HD
ENDBRANCH   1   3
BRANCH   1  13
HETATM   13  N2  UNL     1       0.583   0.062  -1.317  1.00  0.00    -0.311 N 
HETATM   14  C7  UNL     1       1.695  -0.344  -0.851  1.00  0.00     0.004 C 
HETATM   15  C8  UNL     1       2.313  -1.650  -1.235  1.00  0.00     0.054 C 
HETATM   16  C13 UNL     1       2.442   0.486   0.118  1.00  0.00     0.058 C 
HETATM   17  C9  UNL     1       2.999  -2.166   0.035  1.00  0.00     0.006 C 
HETATM   18  C10 UNL     1       4.200  -1.263   0.260  1.00  0.00     0.005 C 
HETATM   19  C11 UNL     1       3.920   0.168  -0.069  1.00  0.00    -0.013 C 
HETATM   20  C12 UNL     1       4.699   1.144   0.771  1.00  0.00     0.010 C 
ATOM     21  H2  UNL     1       0.071  -0.514  -1.986  1.00  0.00     0.186 HD
ENDBRANCH   1  13
TORSDOF 2
