REMARK  12 active torsions:
REMARK  status: ('A' for Active; 'I' for Inactive)
REMARK    1  A    between atoms: C2_2  and  N2_6 
REMARK       I    between atoms: C3_8  and  N4_10 
REMARK    2  A    between atoms: N4_10  and  C4_12 
REMARK    3  A    between atoms: C4_12  and  C5_13 
REMARK    4  A    between atoms: C5_13  and  N5_14 
REMARK    5  A    between atoms: N5_14  and  C6_16 
REMARK    6  A    between atoms: C6_16  and  S1_21 
REMARK    7  A    between atoms: N6_17  and  O1_19 
REMARK    8  A    between atoms: S1_21  and  S2_22 
REMARK    9  A    between atoms: S2_22  and  C7_23 
REMARK       I    between atoms: C7_23  and  N7_25 
REMARK   10  A    between atoms: N7_25  and  C8_27 
REMARK   11  A    between atoms: C12_31  and  C13_32 
REMARK   12  A    between atoms: C13_32  and  C14_33 
ROOT
HETATM    1  C6  UNL     1       2.122  -0.922   2.213  1.00  0.00     0.171 C 
HETATM    2  N6  UNL     1       1.365  -1.942   2.280  1.00  0.00    -0.247 N 
ATOM      3  H6  UNL     1       1.761  -2.851   2.040  1.00  0.00     0.196 HD
ENDROOT
BRANCH   1   4
HETATM    4  N5  UNL     1       3.488  -1.136   1.800  1.00  0.00    -0.367 N 
ATOM      5  H5  UNL     1       4.186  -1.473   2.463  1.00  0.00     0.161 HD
BRANCH   4   6
HETATM    6  C5  UNL     1       3.849  -0.860   0.416  1.00  0.00     0.141 C 
BRANCH   6   7
HETATM    7  C4  UNL     1       5.330  -1.125   0.228  1.00  0.00     0.142 C 
BRANCH   7   8
HETATM    8  N4  UNL     1       5.708  -0.849  -1.158  1.00  0.00    -0.363 N 
HETATM    9  C3  UNL     1       7.069  -1.031  -1.485  1.00  0.00     0.189 C 
HETATM   10  N2  UNL     1       7.961  -0.353  -0.883  1.00  0.00    -0.321 N 
HETATM   11  N3  UNL     1       7.428  -1.965  -2.479  1.00  0.00    -0.064 NA
ATOM     12  H2  UNL     1       7.628   0.302  -0.176  1.00  0.00     0.169 HD
ATOM     13  H4  UNL     1       5.025  -0.542  -1.851  1.00  0.00     0.162 HD
BRANCH  10  14
HETATM   14  C2  UNL     1       9.347  -0.401  -1.078  1.00  0.00     0.072 C 
HETATM   15  C1  UNL     1       9.980   0.750  -1.799  1.00  0.00     0.088 C 
HETATM   16  N1  UNL     1      10.098  -1.350  -0.685  1.00  0.00    -0.389 N 
ATOM     17  H12 UNL     1      11.107  -1.385  -0.827  1.00  0.00     0.157 HD
ATOM     18  H11 UNL     1       9.667  -2.133  -0.194  1.00  0.00     0.157 HD
ENDBRANCH  10  14
ENDBRANCH   7   8
ENDBRANCH   6   7
ENDBRANCH   4   6
ENDBRANCH   1   4
BRANCH   1  19
HETATM   19  S1  UNL     1       1.519   0.691   2.612  1.00  0.00    -0.010 SA
BRANCH  19  20
HETATM   20  S2  UNL     1      -0.523   0.544   3.161  1.00  0.00     0.012 SA
BRANCH  20  21
HETATM   21  C7  UNL     1      -1.494   0.744   1.676  1.00  0.00     0.291 C 
HETATM   22  O2  UNL     1      -0.976   0.905   0.538  1.00  0.00    -0.260 OA
HETATM   23  N7  UNL     1      -2.912   0.720   1.774  1.00  0.00    -0.347 N 
ATOM     24  H7  UNL     1      -3.352   0.591   2.685  1.00  0.00     0.163 HD
BRANCH  23  25
HETATM   25  C8  UNL     1      -3.739   0.877   0.594  1.00  0.00     0.085 C 
HETATM   26  C9  UNL     1      -4.468   2.196   0.744  1.00  0.00     0.025 C 
HETATM   27  C10 UNL     1      -5.033   2.736  -0.505  1.00  0.00     0.002 C 
HETATM   28  C11 UNL     1      -5.142   1.831  -1.665  1.00  0.00     0.005 C 
HETATM   29  C12 UNL     1      -5.991   0.592  -1.434  1.00  0.00    -0.005 C 
HETATM   30  C15 UNL     1      -5.152  -0.531  -0.885  1.00  0.00     0.007 C 
HETATM   31  C16 UNL     1      -4.654  -0.302   0.497  1.00  0.00     0.025 C 
BRANCH  29  32
HETATM   32  C13 UNL     1      -7.227   0.903  -0.676  1.00  0.00     0.117 C 
BRANCH  32  33
HETATM   33  C14 UNL     1      -8.145  -0.217  -0.405  1.00  0.00     0.172 C 
HETATM   34  O3  UNL     1      -9.155  -0.045   0.378  1.00  0.00    -0.648 OA
HETATM   35  O4  UNL     1      -8.057  -1.495  -0.913  1.00  0.00    -0.648 OA
ENDBRANCH  32  33
ENDBRANCH  29  32
ENDBRANCH  23  25
ENDBRANCH  20  21
ENDBRANCH  19  20
ENDBRANCH   1  19
BRANCH   2  36
HETATM   36  O1  UNL     1       0.057  -1.891   2.653  1.00  0.00    -0.288 OA
ATOM     37  H1  UNL     1      -0.508  -2.653   2.703  1.00  0.00     0.244 HD
ENDBRANCH   2  36
TORSDOF 12
