REMARK  8 active torsions:
REMARK  status: ('A' for Active; 'I' for Inactive)
REMARK    1  A    between atoms: C2_2  and  C3_3 
REMARK    2  A    between atoms: C3_3  and  C4_4 
REMARK    3  A    between atoms: C3_3  and  O4_25 
REMARK    4  A    between atoms: C4_4  and  C5_5 
REMARK    5  A    between atoms: C5_5  and  C6_7 
REMARK    6  A    between atoms: C6_7  and  C7_8 
REMARK    7  A    between atoms: C7_8  and  C8_9 
REMARK    8  A    between atoms: O4_25  and  O5_26 
ROOT
HETATM    1  C8  UNL     1      -0.300   0.678  -0.831  1.00  0.00    -0.031 A 
HETATM    2  C9  UNL     1      -1.172   0.149  -1.883  1.00  0.00     0.019 C 
HETATM    3  C10 UNL     1      -2.509  -0.461  -1.425  1.00  0.00     0.044 C 
HETATM    4  C11 UNL     1      -2.202  -1.446  -0.411  1.00  0.00     0.279 C 
HETATM    5  N1  UNL     1      -3.170  -1.993   0.431  1.00  0.00     0.091 N 
HETATM    6  C12 UNL     1      -4.538  -1.783   0.135  1.00  0.00     0.279 C 
HETATM    7  C13 UNL     1      -4.689  -0.328   0.617  1.00  0.00     0.047 C 
HETATM    8  C14 UNL     1      -4.728   0.481  -0.607  1.00  0.00     0.041 C 
HETATM    9  C15 UNL     1      -3.402   0.671  -1.233  1.00  0.00     0.131 C 
HETATM   10  O2  UNL     1      -2.837   1.790  -0.628  1.00  0.00    -0.355 OA
HETATM   11  C16 UNL     1      -2.232   1.577   0.563  1.00  0.00     0.265 C 
HETATM   12  O3  UNL     1      -2.573   0.641   1.379  1.00  0.00    -0.353 OA
HETATM   13  C17 UNL     1      -3.614  -0.073   1.585  1.00  0.00     0.158 C 
HETATM   14  C18 UNL     1      -3.112  -1.520   1.825  1.00  0.00     0.304 C 
HETATM   15  C19 UNL     1      -0.729   1.466   0.249  1.00  0.00     0.050 A 
HETATM   16  C20 UNL     1      -0.223   2.242  -0.874  1.00  0.00     0.020 A 
ENDROOT
BRANCH   1  17
HETATM   17  C7  UNL     1       1.072   0.037  -0.769  1.00  0.00     0.017 C 
BRANCH  17  18
HETATM   18  C6  UNL     1       1.957   0.565   0.292  1.00  0.00     0.079 C 
BRANCH  18  19
HETATM   19  C5  UNL     1       3.298  -0.117   0.281  1.00  0.00     0.129 C 
HETATM   20  O1  UNL     1       3.529  -0.991  -0.548  1.00  0.00    -0.298 OA
BRANCH  19  21
HETATM   21  C4  UNL     1       4.347   0.261   1.267  1.00  0.00     0.117 C 
BRANCH  21  22
HETATM   22  C3  UNL     1       5.572  -0.560   1.041  1.00  0.00     0.189 C 
BRANCH  22  23
HETATM   23  C2  UNL     1       6.139  -0.369  -0.322  1.00  0.00    -0.002 C 
HETATM   24  C1  UNL     1       6.934   0.668  -0.548  1.00  0.00     0.009 C 
ENDBRANCH  22  23
BRANCH  22  25
HETATM   25  O4  UNL     1       6.542  -0.332   1.989  1.00  0.00    -0.234 OA
BRANCH  25  26
HETATM   26  O5  UNL     1       6.836  -1.412   2.685  1.00  0.00    -0.250 OA
ATOM     27  H5  UNL     1       7.506  -1.255   3.340  1.00  0.00     0.253 HD
ENDBRANCH  25  26
ENDBRANCH  22  25
ENDBRANCH  21  22
ENDBRANCH  19  21
ENDBRANCH  18  19
ENDBRANCH  17  18
ENDBRANCH   1  17
TORSDOF 8
