REMARK  6 active torsions:
REMARK  status: ('A' for Active; 'I' for Inactive)
REMARK    1  A    between atoms: N1_2  and  C2_3 
REMARK    2  A    between atoms: N1_2  and  S1_20 
REMARK    3  A    between atoms: C5_9  and  C6_10 
REMARK    4  A    between atoms: C6_10  and  C7_11 
REMARK    5  A    between atoms: S1_20  and  N7_23 
REMARK    6  A    between atoms: N7_23  and  C8_25 
ROOT
HETATM    1  C2  UNL     1       0.962  -1.138  -0.698  1.00  0.00     0.128 C 
HETATM    2  C3  UNL     1       1.735  -2.232  -1.444  1.00  0.00     0.149 C 
HETATM    3  N2  UNL     1       2.895  -2.426  -0.599  1.00  0.00    -0.359 N 
ATOM      4  H2  UNL     1       3.854  -2.575  -0.914  1.00  0.00     0.162 HD
HETATM    5  C4  UNL     1       2.454  -2.371   0.740  1.00  0.00     0.224 C 
HETATM    6  O1  UNL     1       2.898  -2.905   1.783  1.00  0.00    -0.273 OA
HETATM    7  C5  UNL     1       1.254  -1.488   0.729  1.00  0.00     0.110 C 
ENDROOT
BRANCH   1   8
HETATM    8  N1  UNL     1      -0.436  -1.170  -1.013  1.00  0.00    -0.291 N 
HETATM    9  C1  UNL     1      -0.927  -2.366  -1.572  1.00  0.00     0.165 C 
BRANCH   8  10
HETATM   10  S1  UNL     1      -1.073   0.184  -1.807  1.00  0.00     0.317 S 
HETATM   11  O2  UNL     1      -0.173   1.389  -1.816  1.00  0.00    -0.183 OA
HETATM   12  O3  UNL     1      -1.438  -0.199  -3.229  1.00  0.00    -0.183 OA
BRANCH  10  13
HETATM   13  N7  UNL     1      -2.560   0.746  -1.077  1.00  0.00    -0.298 N 
ATOM     14  H7  UNL     1      -3.497   0.440  -1.339  1.00  0.00     0.174 HD
BRANCH  13  15
HETATM   15  C8  UNL     1      -2.254   1.713  -0.043  1.00  0.00     0.094 C 
HETATM   16  C9  UNL     1      -2.963   1.325   1.250  1.00  0.00     0.026 C 
HETATM   17  C10 UNL     1      -4.108   2.218   0.809  1.00  0.00     0.004 C 
HETATM   18  C11 UNL     1      -3.104   2.960  -0.062  1.00  0.00     0.026 C 
ENDBRANCH  13  15
ENDBRANCH  10  13
ENDBRANCH   8  10
ENDBRANCH   1   8
BRANCH   7  19
HETATM   19  C6  UNL     1       1.451  -0.314   1.647  1.00  0.00     0.095 C 
BRANCH  19  20
HETATM   20  C7  UNL     1       2.583   0.567   1.260  1.00  0.00     0.113 A 
HETATM   21  N3  UNL     1       2.524   1.635   0.447  1.00  0.00    -0.272 N 
HETATM   22  N4  UNL     1       3.726   2.146   0.354  1.00  0.00    -0.227 N 
ATOM     23  H3  UNL     1       1.687   1.987  -0.018  1.00  0.00     0.190 HD
HETATM   24  N5  UNL     1       4.576   1.445   1.084  1.00  0.00    -0.227 N 
ATOM     25  H4  UNL     1       3.971   2.966  -0.201  1.00  0.00     0.210 HD
HETATM   26  N6  UNL     1       3.870   0.478   1.637  1.00  0.00    -0.272 N 
ATOM     27  H5  UNL     1       5.575   1.617   1.197  1.00  0.00     0.210 HD
ATOM     28  H6  UNL     1       4.247  -0.235   2.261  1.00  0.00     0.190 HD
ENDBRANCH  19  20
ENDBRANCH   7  19
TORSDOF 6
