REMARK  5 active torsions:
REMARK  status: ('A' for Active; 'I' for Inactive)
REMARK    1  A    between atoms: C2_2  and  C3_3 
REMARK    2  A    between atoms: C3_3  and  C4_4 
REMARK    3  A    between atoms: C5_7  and  C6_8 
REMARK    4  A    between atoms: C6_8  and  C7_9 
REMARK    5  A    between atoms: C7_9  and  C8_10 
ROOT
HETATM    1  C4  UNL     1      -1.539  -0.572   0.661  1.00  0.00     0.050 A 
HETATM    2  N1  UNL     1      -0.327  -0.880   0.126  1.00  0.00    -0.336 N 
ATOM      3  H1  UNL     1      -0.181  -1.549  -0.630  1.00  0.00     0.168 HD
HETATM    4  C5  UNL     1       0.650  -0.185   0.726  1.00  0.00     0.163 A 
HETATM    5  N2  UNL     1       0.066   0.575   1.654  1.00  0.00    -0.324 N 
ATOM      6  H2  UNL     1       0.551   1.219   2.279  1.00  0.00     0.169 HD
HETATM    7  C10 UNL     1      -1.284   0.357   1.637  1.00  0.00     0.128 A 
HETATM    8 CL2  UNL     1      -2.383   1.166   2.746  1.00  0.00    -0.062 Cl
ENDROOT
BRANCH   4   9
HETATM    9  C6  UNL     1       2.068  -0.232   0.448  1.00  0.00    -0.029 C 
BRANCH   9  10
HETATM   10  C7  UNL     1       3.261  -0.284   0.229  1.00  0.00    -0.078 C 
BRANCH  10  11
HETATM   11  C8  UNL     1       4.697  -0.372  -0.029  1.00  0.00     0.157 C 
HETATM   12  C9  UNL     1       5.351   0.823   0.628  1.00  0.00     0.040 C 
HETATM   13 CL1  UNL     1       5.067  -0.428  -1.756  1.00  0.00    -0.112 Cl
ENDBRANCH  10  11
ENDBRANCH   9  10
ENDBRANCH   4   9
BRANCH   1  14
HETATM   14  C3  UNL     1      -2.842  -1.107   0.254  1.00  0.00     0.060 C 
BRANCH  14  15
HETATM   15  C2  UNL     1      -3.635  -0.274  -0.678  1.00  0.00     0.002 C 
HETATM   16  C1  UNL     1      -4.023   1.088  -0.226  1.00  0.00     0.005 C 
ENDBRANCH  14  15
ENDBRANCH   1  14
TORSDOF 5
