REMARK  12 active torsions:
REMARK  status: ('A' for Active; 'I' for Inactive)
REMARK    1  A    between atoms: O1_2  and  C2_3 
REMARK    2  A    between atoms: C7_8  and  O2_9 
REMARK    3  A    between atoms: N1_12  and  C10_13 
REMARK    4  A    between atoms: C10_13  and  C11_14 
REMARK    5  A    between atoms: C11_14  and  C12_15 
REMARK    6  A    between atoms: C12_15  and  C13_16 
REMARK    7  A    between atoms: C13_16  and  O3_17 
REMARK    8  A    between atoms: O3_17  and  C14_18 
REMARK    9  A    between atoms: C17_21  and  N2_22 
REMARK   10  A    between atoms: C20_26  and  N3_27 
REMARK   11  A    between atoms: C27_41  and  C28_42 
REMARK   12  A    between atoms: C28_42  and  N7_43 
ROOT
HETATM    1  C14 UNL     1      -0.851   2.165  -0.868  1.00  0.00     0.076 A 
HETATM    2  C15 UNL     1      -1.280   1.584   0.328  1.00  0.00     0.039 A 
HETATM    3  C16 UNL     1      -2.582   1.428   0.677  1.00  0.00     0.032 A 
HETATM    4  C17 UNL     1      -3.556   1.870  -0.201  1.00  0.00     0.034 A 
HETATM    5  C26 UNL     1      -3.199   2.447  -1.387  1.00  0.00     0.041 A 
HETATM    6  C27 UNL     1      -1.873   2.595  -1.722  1.00  0.00     0.003 A 
ENDROOT
BRANCH   1   7
HETATM    7  O3  UNL     1       0.394   2.288  -1.148  1.00  0.00    -0.351 OA
BRANCH   7   8
HETATM    8  C13 UNL     1       1.671   2.365  -1.335  1.00  0.00     0.175 C 
BRANCH   8   9
HETATM    9  C12 UNL     1       2.522   1.100  -1.379  1.00  0.00     0.028 C 
BRANCH   9  10
HETATM   10  C11 UNL     1       2.402   0.341  -0.102  1.00  0.00     0.022 C 
BRANCH  10  11
HETATM   11  C10 UNL     1       3.252  -0.914  -0.083  1.00  0.00     0.126 C 
BRANCH  11  12
HETATM   12  N1  UNL     1       4.662  -0.617  -0.231  1.00  0.00    -0.348 N 
HETATM   13  C9  UNL     1       5.396  -0.382   0.993  1.00  0.00     0.165 C 
HETATM   14  C5  UNL     1       6.817  -0.698   0.781  1.00  0.00    -0.031 A 
HETATM   15  C4  UNL     1       7.388  -0.421  -0.440  1.00  0.00    -0.039 A 
HETATM   16  C6  UNL     1       7.570  -1.266   1.819  1.00  0.00     0.049 A 
HETATM   17  C3  UNL     1       8.729  -0.712  -0.638  1.00  0.00     0.047 A 
HETATM   18  C30 UNL     1       6.581   0.183  -1.560  1.00  0.00     0.142 C 
HETATM   19  C2  UNL     1       9.484  -1.271   0.377  1.00  0.00     0.102 A 
HETATM   20  C7  UNL     1       8.902  -1.549   1.608  1.00  0.00     0.102 A 
HETATM   21  C29 UNL     1       5.273  -0.561  -1.511  1.00  0.00     0.224 C 
HETATM   22  O4  UNL     1       4.772  -1.082  -2.516  1.00  0.00    -0.273 OA
BRANCH  19  23
HETATM   23  O1  UNL     1      10.826  -1.571   0.205  1.00  0.00    -0.353 OA
HETATM   24  C1  UNL     1      11.424  -1.289  -1.043  1.00  0.00     0.210 C 
ENDBRANCH  19  23
BRANCH  20  25
HETATM   25  O2  UNL     1       9.680  -2.107   2.599  1.00  0.00    -0.353 OA
HETATM   26  C8  UNL     1       9.152  -2.416   3.868  1.00  0.00     0.210 C 
ENDBRANCH  20  25
ENDBRANCH  11  12
ENDBRANCH  10  11
ENDBRANCH   9  10
ENDBRANCH   8   9
ENDBRANCH   7   8
ENDBRANCH   1   7
BRANCH   6  27
HETATM   27  C28 UNL     1      -1.446   3.215  -2.998  1.00  0.00     0.271 C 
BRANCH  27  28
HETATM   28  N7  UNL     1      -2.646   3.589  -3.729  1.00  0.00    -0.075 N 
ATOM     29  H73 UNL     1      -3.289   2.808  -3.863  1.00  0.00     0.274 HD
ATOM     30  H72 UNL     1      -3.271   4.186  -3.187  1.00  0.00     0.274 HD
ATOM     31  H71 UNL     1      -2.352   4.016  -4.608  1.00  0.00     0.274 HD
ENDBRANCH  27  28
ENDBRANCH   6  27
BRANCH   4  32
HETATM   32  N2  UNL     1      -4.908   1.693   0.186  1.00  0.00    -0.342 N 
HETATM   33  C18 UNL     1      -5.582   0.623  -0.012  1.00  0.00     0.110 A 
HETATM   34  C19 UNL     1      -6.902   0.541   0.402  1.00  0.00     0.097 A 
HETATM   35  N6  UNL     1      -5.014  -0.425  -0.613  1.00  0.00    -0.338 N 
HETATM   36  C20 UNL     1      -7.658  -0.600   0.213  1.00  0.00     0.107 A 
HETATM   37  N5  UNL     1      -7.035  -1.622  -0.397  1.00  0.00    -0.339 N 
HETATM   38  C25 UNL     1      -5.733  -1.556  -0.811  1.00  0.00     0.183 A 
ATOM     39  H5  UNL     1      -7.555  -2.484  -0.558  1.00  0.00     0.168 HD
ATOM     40  H6  UNL     1      -4.043  -0.374  -0.922  1.00  0.00     0.168 HD
ATOM     41  H2  UNL     1      -5.375   2.470   0.653  1.00  0.00     0.167 HD
BRANCH  36  42
HETATM   42  N3  UNL     1      -9.017  -0.676   0.661  1.00  0.00    -0.364 N 
HETATM   43  C21 UNL     1      -9.651   0.356   1.452  1.00  0.00     0.152 C 
HETATM   44  C22 UNL     1     -10.610  -0.162   2.462  1.00  0.00     0.252 C 
HETATM   45  N4  UNL     1     -11.212  -1.426   2.217  1.00  0.00    -0.072 N 
HETATM   46  C23 UNL     1     -10.294  -2.404   1.664  1.00  0.00     0.252 C 
ATOM     47  H42 UNL     1     -11.657  -1.785   3.062  1.00  0.00     0.277 HD
ATOM     48  H41 UNL     1     -12.035  -1.326   1.623  1.00  0.00     0.277 HD
HETATM   49  C24 UNL     1      -9.864  -1.802   0.317  1.00  0.00     0.152 C 
ENDBRANCH  36  42
ENDBRANCH   4  32
TORSDOF 12
