REMARK  12 active torsions:
REMARK  status: ('A' for Active; 'I' for Inactive)
REMARK    1  A    between atoms: C2_2  and  N1_3 
REMARK    2  A    between atoms: C3_4  and  C4_5 
REMARK    3  A    between atoms: C4_5  and  C5_6 
REMARK    4  A    between atoms: C5_6  and  S1_7 
REMARK    5  A    between atoms: S1_7  and  C6_8 
REMARK    6  A    between atoms: C6_8  and  C7_9 
REMARK    7  A    between atoms: C7_9  and  C8_10 
REMARK       I    between atoms: N4_16  and  C10_18 
REMARK    8  A    between atoms: C10_18  and  C11_20 
REMARK    9  A    between atoms: C11_20  and  C14_23 
REMARK   10  A    between atoms: C14_23  and  N5_24 
REMARK       I    between atoms: N8_34  and  C16_36 
REMARK   11  A    between atoms: C16_36  and  C17_38 
REMARK   12  A    between atoms: C17_38  and  C18_39 
ROOT
HETATM    1  N1  UNL     1       2.621  -0.937   0.514  1.00  0.00    -0.170 N 
HETATM    2  C3  UNL     1       1.397  -1.524   0.489  1.00  0.00     0.115 A 
HETATM    3  N6  UNL     1       1.584  -2.846   0.399  1.00  0.00    -0.274 N 
ATOM      4  H6  UNL     1       0.838  -3.541   0.362  1.00  0.00     0.189 HD
HETATM    5  N7  UNL     1       2.852  -3.114   0.366  1.00  0.00    -0.130 N 
ATOM      6  H7  UNL     1       3.275  -4.040   0.300  1.00  0.00     0.205 HD
HETATM    7  C15 UNL     1       3.522  -1.905   0.438  1.00  0.00     0.703 A 
HETATM    8  N8  UNL     1       4.783  -1.888   0.407  1.00  0.00    -0.158 N 
ATOM      9  H8  UNL     1       5.193  -2.820   0.346  1.00  0.00     0.187 HD
HETATM   10  C16 UNL     1       5.725  -0.886   0.438  1.00  0.00     0.240 C 
HETATM   11  O2  UNL     1       6.146  -0.309   1.490  1.00  0.00    -0.272 OA
ENDROOT
BRANCH   2  12
HETATM   12  C4  UNL     1       0.091  -0.848   0.534  1.00  0.00     0.089 C 
BRANCH  12  13
HETATM   13  C5  UNL     1      -0.374  -0.598  -0.895  1.00  0.00     0.081 C 
BRANCH  13  14
HETATM   14  S1  UNL     1      -0.524  -2.145  -1.724  1.00  0.00    -0.168 SA
BRANCH  14  15
HETATM   15  C6  UNL     1      -1.731  -3.310  -1.209  1.00  0.00     0.080 C 
BRANCH  15  16
HETATM   16  C7  UNL     1      -3.129  -3.016  -1.490  1.00  0.00     0.076 C 
BRANCH  16  17
HETATM   17  C8  UNL     1      -3.841  -1.918  -0.807  1.00  0.00     0.070 A 
HETATM   18  N2  UNL     1      -3.574  -1.135   0.213  1.00  0.00    -0.296 N 
HETATM   19  N3  UNL     1      -4.375  -0.245   0.612  1.00  0.00    -0.279 N 
ATOM     20  H2  UNL     1      -2.686  -1.250   0.701  1.00  0.00     0.187 HD
HETATM   21  C9  UNL     1      -5.537  -0.097  -0.030  1.00  0.00     0.167 A 
ATOM     22  H3  UNL     1      -4.140   0.349   1.408  1.00  0.00     0.189 HD
HETATM   23  N4  UNL     1      -6.489   0.766   0.234  1.00  0.00    -0.305 N 
HETATM   24  S2  UNL     1      -5.426  -1.296  -1.235  1.00  0.00    -0.038 SA
HETATM   25  C10 UNL     1      -7.636   0.719  -0.605  1.00  0.00     0.233 C 
ATOM     26  H4  UNL     1      -6.411   1.435   1.000  1.00  0.00     0.171 HD
HETATM   27  O1  UNL     1      -7.492   0.320  -1.800  1.00  0.00    -0.272 OA
BRANCH  25  28
HETATM   28  C11 UNL     1      -8.961   1.126  -0.089  1.00  0.00     0.057 C 
HETATM   29  C12 UNL     1      -9.381   0.285   1.106  1.00  0.00     0.027 C 
HETATM   30  C13 UNL     1      -9.982   0.901  -1.181  1.00  0.00     0.027 C 
BRANCH  28  31
HETATM   31  C14 UNL     1      -8.958   2.573   0.364  1.00  0.00     0.247 C 
BRANCH  31  32
HETATM   32  N5  UNL     1      -7.981   2.745   1.419  1.00  0.00    -0.078 N 
ATOM     33  H53 UNL     1      -8.131   2.098   2.193  1.00  0.00     0.274 HD
ATOM     34  H52 UNL     1      -7.053   2.426   1.141  1.00  0.00     0.274 HD
ATOM     35  H51 UNL     1      -7.979   3.718   1.724  1.00  0.00     0.274 HD
ENDBRANCH  31  32
ENDBRANCH  28  31
ENDBRANCH  25  28
ENDBRANCH  16  17
ENDBRANCH  15  16
ENDBRANCH  14  15
ENDBRANCH  13  14
ENDBRANCH  12  13
ENDBRANCH   2  12
BRANCH   1  36
HETATM   36  C2  UNL     1       2.811   0.479   0.615  1.00  0.00     0.144 C 
HETATM   37  C1  UNL     1       2.866   0.971   2.055  1.00  0.00     0.027 C 
ENDBRANCH   1  36
BRANCH  10  38
HETATM   38  C17 UNL     1       6.310  -0.430  -0.862  1.00  0.00     0.144 C 
BRANCH  38  39
HETATM   39  C18 UNL     1       7.303   0.644  -0.665  1.00  0.00    -0.022 A 
HETATM   40  C19 UNL     1       6.981   1.946  -0.949  1.00  0.00     0.010 A 
HETATM   41  C20 UNL     1       7.859   2.998  -0.788  1.00  0.00     0.002 A 
HETATM   42  C21 UNL     1       9.120   2.731  -0.318  1.00  0.00     0.014 A 
HETATM   43  C22 UNL     1       9.460   1.428  -0.028  1.00  0.00    -0.008 A 
HETATM   44  C23 UNL     1      10.634   0.837   0.454  1.00  0.00     0.030 A 
HETATM   45  C25 UNL     1       8.578   0.377  -0.192  1.00  0.00     0.049 A 
HETATM   46  C24 UNL     1      10.390  -0.514   0.549  1.00  0.00     0.089 A 
HETATM   47  N9  UNL     1       9.140  -0.795   0.157  1.00  0.00    -0.365 N 
ATOM     48  H9  UNL     1       8.701  -1.715   0.129  1.00  0.00     0.165 HD
ENDBRANCH  38  39
ENDBRANCH  10  38
TORSDOF 12
