REMARK  15 active torsions:
REMARK  status: ('A' for Active; 'I' for Inactive)
REMARK    1  A    between atoms: C2_2  and  C3_3 
REMARK    2  A    between atoms: C8_8  and  C9_9 
REMARK    3  A    between atoms: C10_10  and  C11_11 
REMARK    4  A    between atoms: C15_17  and  C16_18 
REMARK    5  A    between atoms: C16_18  and  O3_19 
REMARK    6  A    between atoms: C16_18  and  C17_21 
REMARK    7  A    between atoms: C17_21  and  O4_22 
REMARK    8  A    between atoms: O4_22  and  C18_23 
REMARK    9  A    between atoms: C23_29  and  C24_30 
REMARK   10  A    between atoms: C25_31  and  C26_32 
REMARK   11  A    between atoms: C26_32  and  O6_33 
REMARK   12  A    between atoms: C26_32  and  C27_35 
REMARK   13  A    between atoms: C27_35  and  O7_36 
REMARK   14  A    between atoms: C28_38  and  C29_39 
REMARK   15  A    between atoms: C29_39  and  C30_41 
ROOT
HETATM    1  C3  UNL     1      -3.088  -2.058   0.385  1.00  0.00    -0.015 C 
HETATM    2  C4  UNL     1      -2.552  -2.344   1.735  1.00  0.00     0.020 C 
HETATM    3  C5  UNL     1      -2.070  -2.371  -0.650  1.00  0.00     0.019 C 
HETATM    4  C6  UNL     1      -0.650  -1.967  -0.315  1.00  0.00    -0.010 C 
HETATM    5  C7  UNL     1       0.277  -3.005  -0.904  1.00  0.00     0.010 C 
HETATM    6  C8  UNL     1      -0.285  -0.631  -0.897  1.00  0.00     0.015 C 
HETATM    7  C20 UNL     1      -0.504   0.520   0.000  1.00  0.00    -0.010 C 
HETATM    8  C21 UNL     1       0.278   0.332   1.310  1.00  0.00     0.010 C 
HETATM    9  C22 UNL     1      -1.922   0.850   0.380  1.00  0.00     0.014 C 
HETATM   10  C23 UNL     1      -3.020   0.328  -0.419  1.00  0.00     0.021 C 
HETATM   11  C28 UNL     1      -3.866  -0.788   0.190  1.00  0.00     0.082 C 
ENDROOT
BRANCH   6  12
HETATM   12  C9  UNL     1       1.104  -0.647  -1.350  1.00  0.00    -0.023 C 
HETATM   13  C10 UNL     1       2.107   0.155  -1.115  1.00  0.00     0.002 C 
BRANCH  13  14
HETATM   14  C11 UNL     1       3.468  -0.048  -1.688  1.00  0.00     0.161 C 
HETATM   15  O1  UNL     1       3.652  -1.369  -2.153  1.00  0.00    -0.311 OA
HETATM   16  C12 UNL     1       5.010  -1.503  -2.390  1.00  0.00     0.263 C 
HETATM   17  O2  UNL     1       5.631  -2.171  -3.267  1.00  0.00    -0.265 OA
HETATM   18  C13 UNL     1       5.690  -0.653  -1.347  1.00  0.00     0.091 C 
HETATM   19  C14 UNL     1       6.530  -1.549  -0.529  1.00  0.00     0.021 C 
HETATM   20  C15 UNL     1       4.594   0.094  -0.720  1.00  0.00     0.063 C 
BRANCH  20  21
HETATM   21  C16 UNL     1       4.237  -0.193   0.689  1.00  0.00     0.150 C 
BRANCH  21  22
HETATM   22  O3  UNL     1       3.760  -1.460   0.951  1.00  0.00    -0.393 OA
ATOM     23  H3  UNL     1       3.531  -1.644   1.854  1.00  0.00     0.210 HD
ENDBRANCH  21  22
BRANCH  21  24
HETATM   24  C17 UNL     1       5.286   0.250   1.695  1.00  0.00     0.210 C 
BRANCH  24  25
HETATM   25  O4  UNL     1       5.733   1.546   1.360  1.00  0.00    -0.319 OA
BRANCH  25  26
HETATM   26  C18 UNL     1       6.701   2.180   2.131  1.00  0.00     0.254 C 
HETATM   27  C19 UNL     1       7.185   3.537   1.801  1.00  0.00     0.126 C 
HETATM   28  O5  UNL     1       7.141   1.542   3.119  1.00  0.00    -0.266 OA
ENDBRANCH  25  26
ENDBRANCH  24  25
ENDBRANCH  21  24
ENDBRANCH  20  21
ENDBRANCH  13  14
ENDBRANCH   6  12
BRANCH   1  29
HETATM   29  C2  UNL     1      -4.163  -3.148   0.228  1.00  0.00    -0.027 C 
HETATM   30  C1  UNL     1      -4.364  -3.718  -0.932  1.00  0.00     0.007 C 
ENDBRANCH   1  29
BRANCH  10  31
HETATM   31  C24 UNL     1      -3.987   1.353  -0.911  1.00  0.00    -0.023 C 
HETATM   32  C25 UNL     1      -4.070   2.606  -0.534  1.00  0.00     0.003 C 
BRANCH  32  33
HETATM   33  C26 UNL     1      -5.106   3.511  -1.133  1.00  0.00     0.164 C 
BRANCH  33  34
HETATM   34  O6  UNL     1      -5.880   2.781  -2.034  1.00  0.00    -0.390 OA
ATOM     35  H6  UNL     1      -6.536   3.354  -2.413  1.00  0.00     0.210 HD
ENDBRANCH  33  34
BRANCH  33  36
HETATM   36  C27 UNL     1      -6.003   4.090  -0.052  1.00  0.00     0.199 C 
BRANCH  36  37
HETATM   37  O7  UNL     1      -5.163   4.809   0.816  1.00  0.00    -0.398 OA
ATOM     38  H7  UNL     1      -5.724   5.171   1.492  1.00  0.00     0.209 HD
ENDBRANCH  36  37
ENDBRANCH  33  36
ENDBRANCH  32  33
ENDBRANCH  10  31
BRANCH  11  39
HETATM   39  C29 UNL     1      -4.602  -0.373   1.400  1.00  0.00     0.192 C 
HETATM   40  O8  UNL     1      -4.104  -0.529   2.574  1.00  0.00    -0.289 OA
BRANCH  39  41
HETATM   41  C30 UNL     1      -5.922   0.244   1.402  1.00  0.00     0.309 C 
HETATM   42  O9  UNL     1      -6.631   0.407   0.374  1.00  0.00    -0.298 OA
ENDBRANCH  39  41
ENDBRANCH  11  39
TORSDOF 15
