REMARK  14 active torsions:
REMARK  status: ('A' for Active; 'I' for Inactive)
REMARK    1  A    between atoms: C2_2  and  C4_4 
REMARK    2  A    between atoms: N2_14  and  C11_15 
REMARK    3  A    between atoms: C11_15  and  C12_16 
REMARK    4  A    between atoms: C12_16  and  O1_17 
REMARK    5  A    between atoms: O1_17  and  C13_18 
REMARK    6  A    between atoms: C13_18  and  C14_19 
REMARK    7  A    between atoms: C14_19  and  C15_20 
REMARK    8  A    between atoms: C15_20  and  C16_21 
REMARK    9  A    between atoms: C16_21  and  C17_22 
REMARK   10  A    between atoms: C17_22  and  N3_23 
REMARK       I    between atoms: N3_23  and  C18_25 
REMARK       I    between atoms: C18_25  and  N5_33 
REMARK   11  A    between atoms: N4_26  and  C19_28 
REMARK   12  A    between atoms: C19_28  and  C20_29 
REMARK   13  A    between atoms: C20_29  and  C21_30 
REMARK   14  A    between atoms: C21_30  and  C22_31 
ROOT
HETATM    1  C14 UNL     1      -1.163   0.163   1.110  1.00  0.00     0.026 C 
ENDROOT
BRANCH   1   2
HETATM    2  C13 UNL     1      -1.506  -0.934   0.140  1.00  0.00     0.167 C 
BRANCH   2   3
HETATM    3  O1  UNL     1      -2.560  -1.702   0.454  1.00  0.00    -0.390 OA
BRANCH   3   4
HETATM    4  C12 UNL     1      -3.798  -1.185   0.595  1.00  0.00     0.187 C 
BRANCH   4   5
HETATM    5  C11 UNL     1      -4.372  -0.483  -0.614  1.00  0.00     0.156 C 
BRANCH   5   6
HETATM    6  N2  UNL     1      -5.721  -0.062  -0.302  1.00  0.00    -0.332 N 
HETATM    7  C4  UNL     1      -6.863  -0.788  -0.504  1.00  0.00     0.088 A 
HETATM    8  N1  UNL     1      -7.884  -0.025  -0.073  1.00  0.00    -0.344 N 
HETATM    9  C5  UNL     1      -7.450   1.148   0.394  1.00  0.00     0.060 A 
ATOM     10  H1  UNL     1      -8.864  -0.307  -0.100  1.00  0.00     0.167 HD
HETATM   11  C6  UNL     1      -8.111   2.231   0.934  1.00  0.00     0.033 A 
HETATM   12  C10 UNL     1      -6.056   1.113   0.241  1.00  0.00     0.064 A 
HETATM   13  C7  UNL     1      -7.377   3.327   1.343  1.00  0.00     0.021 A 
HETATM   14  C8  UNL     1      -5.993   3.305   1.198  1.00  0.00     0.013 A 
HETATM   15 BR1  UNL     1      -5.018   4.844   1.782  1.00  0.00    -0.051 Br
HETATM   16  C9  UNL     1      -5.330   2.224   0.658  1.00  0.00     0.051 A 
BRANCH   7  17
HETATM   17  C2  UNL     1      -6.866  -2.134  -1.085  1.00  0.00     0.045 C 
HETATM   18  C1  UNL     1      -7.784  -2.257  -2.278  1.00  0.00     0.017 C 
HETATM   19  C3  UNL     1      -7.245  -3.219  -0.092  1.00  0.00     0.017 C 
ENDBRANCH   7  17
ENDBRANCH   5   6
ENDBRANCH   4   5
ENDBRANCH   3   4
ENDBRANCH   2   3
ENDBRANCH   1   2
BRANCH   1  20
HETATM   20  C15 UNL     1       0.075   0.923   0.639  1.00  0.00     0.004 C 
BRANCH  20  21
HETATM   21  C16 UNL     1       1.256  -0.001   0.529  1.00  0.00     0.020 C 
BRANCH  21  22
HETATM   22  C17 UNL     1       2.440   0.877   0.027  1.00  0.00     0.138 C 
BRANCH  22  23
HETATM   23  N3  UNL     1       3.601   0.074  -0.117  1.00  0.00    -0.226 N 
HETATM   24  C18 UNL     1       4.895   0.536  -0.320  1.00  0.00     0.682 C 
HETATM   25  N4  UNL     1       5.907  -0.319  -0.185  1.00  0.00    -0.205 N 
HETATM   26  N5  UNL     1       5.283   1.844  -0.618  1.00  0.00    -0.151 N 
ATOM     27  H4  UNL     1       6.845   0.051  -0.339  1.00  0.00     0.183 HD
HETATM   28  C23 UNL     1       6.704   2.284  -0.681  1.00  0.00     0.151 C 
HETATM   29  C26 UNL     1       4.548   3.027  -0.897  1.00  0.00     0.238 C 
HETATM   30  C24 UNL     1       6.638   3.678  -0.128  1.00  0.00     0.030 C 
HETATM   31  C25 UNL     1       5.188   4.079  -0.024  1.00  0.00     0.105 C 
HETATM   32  O2  UNL     1       3.589   3.147  -1.694  1.00  0.00    -0.273 OA
ATOM     33  H3  UNL     1       3.473  -0.937  -0.067  1.00  0.00     0.177 HD
BRANCH  25  34
HETATM   34  C19 UNL     1       5.810  -1.680   0.149  1.00  0.00     0.079 C 
BRANCH  34  35
HETATM   35  C20 UNL     1       6.771  -2.075   1.267  1.00  0.00     0.046 C 
BRANCH  35  36
HETATM   36  C21 UNL     1       8.207  -1.844   0.925  1.00  0.00     0.016 C 
BRANCH  36  37
HETATM   37  C22 UNL     1       8.641  -2.630  -0.280  1.00  0.00     0.086 C 
HETATM   38  S1  UNL     1       8.398  -4.393   0.086  1.00  0.00    -0.098 SA
ENDBRANCH  36  37
ENDBRANCH  35  36
ENDBRANCH  34  35
ENDBRANCH  25  34
ENDBRANCH  22  23
ENDBRANCH  21  22
ENDBRANCH  20  21
ENDBRANCH   1  20
TORSDOF 14
