REMARK  5 active torsions:
REMARK  status: ('A' for Active; 'I' for Inactive)
REMARK    1  A    between atoms: C3_4  and  C4_5 
REMARK    2  A    between atoms: C6_7  and  C7_8 
REMARK    3  A    between atoms: C8_9  and  C9_10 
REMARK    4  A    between atoms: C9_10  and  C10_11 
REMARK    5  A    between atoms: C10_11  and  C11_12 
ROOT
HETATM    1  C11 UNL     1      -2.228   0.008  -0.450  1.00  0.00     0.114 A 
HETATM    2  N1  UNL     1      -2.829  -1.135  -0.078  1.00  0.00    -0.340 N 
ATOM      3  H1  UNL     1      -2.273  -1.851   0.390  1.00  0.00     0.167 HD
HETATM    4  C12 UNL     1      -4.126  -1.370  -0.297  1.00  0.00     0.069 A 
HETATM    5  C13 UNL     1      -4.745  -2.535   0.099  1.00  0.00     0.061 A 
HETATM    6 CL1  UNL     1      -3.797  -3.756   0.892  1.00  0.00    -0.082 Cl
HETATM    7  C14 UNL     1      -6.099  -2.724  -0.138  1.00  0.00     0.026 A 
HETATM    8  C15 UNL     1      -6.830  -1.724  -0.781  1.00  0.00     0.003 A 
HETATM    9  C16 UNL     1      -6.222  -0.551  -1.184  1.00  0.00     0.017 A 
HETATM   10  C17 UNL     1      -4.872  -0.392  -0.933  1.00  0.00     0.030 A 
HETATM   11  C18 UNL     1      -4.259   0.759  -1.307  1.00  0.00     0.114 A 
HETATM   12  S1  UNL     1      -5.087   1.957  -2.067  1.00  0.00    -0.059 SA
HETATM   13  N2  UNL     1      -2.935   0.953  -1.063  1.00  0.00    -0.332 N 
ATOM     14  H2  UNL     1      -2.485   1.822  -1.350  1.00  0.00     0.168 HD
ENDROOT
BRANCH   1  15
HETATM   15  C10 UNL     1      -0.771   0.170  -0.215  1.00  0.00     0.104 C 
BRANCH  15  16
HETATM   16  C9  UNL     1      -0.054   1.127  -0.277  1.00  0.00    -0.124 C 
BRANCH  16  17
HETATM   17  C8  UNL     1       0.790   2.253  -0.350  1.00  0.00     0.055 C 
HETATM   18  C7  UNL     1       2.097   2.065  -0.067  1.00  0.00     0.009 C 
BRANCH  18  19
HETATM   19  C6  UNL     1       2.567   0.760   0.289  1.00  0.00     0.007 C 
HETATM   20  C4  UNL     1       3.869   0.527   0.574  1.00  0.00    -0.059 C 
HETATM   21  C5  UNL     1       4.757   1.688   0.484  1.00  0.00     0.048 C 
BRANCH  20  22
HETATM   22  C3  UNL     1       4.224  -0.804   0.915  1.00  0.00     0.044 C 
HETATM   23  C2  UNL     1       5.351  -1.343   1.233  1.00  0.00     0.090 C 
HETATM   24  C1  UNL     1       6.671  -0.737   1.347  1.00  0.00     0.082 C 
HETATM   25  F1  UNL     1       5.322  -2.725   1.514  1.00  0.00    -0.211 F 
ENDBRANCH  20  22
ENDBRANCH  18  19
ENDBRANCH  16  17
ENDBRANCH  15  16
ENDBRANCH   1  15
TORSDOF 5
