REMARK  7 active torsions:
REMARK  status: ('A' for Active; 'I' for Inactive)
REMARK    1  A    between atoms: N1_2  and  C2_5 
REMARK    2  A    between atoms: C2_5  and  C3_6 
REMARK    3  A    between atoms: C3_6  and  N2_7 
REMARK    4  A    between atoms: N2_7  and  C4_10 
REMARK    5  A    between atoms: C4_10  and  C5_11 
REMARK    6  A    between atoms: C7_13  and  N3_14 
REMARK    7  A    between atoms: C8_18  and  N4_19 
ROOT
HETATM    1  C5  UNL     1       1.027   0.133   0.294  1.00  0.00     0.015 C 
HETATM    2  C6  UNL     1       1.869  -0.695  -0.648  1.00  0.00     0.041 C 
HETATM    3  C7  UNL     1       3.026   0.227  -0.972  1.00  0.00     0.214 C 
HETATM    4  C8  UNL     1       3.243   0.905   0.358  1.00  0.00     0.214 C 
HETATM    5  C9  UNL     1       1.801   1.378   0.618  1.00  0.00     0.041 C 
ENDROOT
BRANCH   1   6
HETATM    6  C4  UNL     1      -0.312   0.413  -0.368  1.00  0.00     0.237 C 
BRANCH   6   7
HETATM    7  N2  UNL     1      -0.924  -0.855  -0.644  1.00  0.00    -0.073 N 
ATOM      8  H22 UNL     1      -0.813  -1.482   0.153  1.00  0.00     0.277 HD
ATOM      9  H21 UNL     1      -0.385  -1.363  -1.345  1.00  0.00     0.277 HD
BRANCH   7  10
HETATM   10  C3  UNL     1      -2.303  -0.783  -1.033  1.00  0.00     0.259 C 
BRANCH  10  11
HETATM   11  C2  UNL     1      -3.089  -0.359   0.199  1.00  0.00     0.259 C 
BRANCH  11  12
HETATM   12  N1  UNL     1      -4.503  -0.293  -0.106  1.00  0.00    -0.077 N 
HETATM   13  C1  UNL     1      -5.152   0.080   1.170  1.00  0.00     0.267 C 
ATOM     14  H12 UNL     1      -4.876  -1.145  -0.526  1.00  0.00     0.276 HD
ATOM     15  H11 UNL     1      -4.730   0.329  -0.882  1.00  0.00     0.276 HD
ENDBRANCH  11  12
ENDBRANCH  10  11
ENDBRANCH   7  10
ENDBRANCH   6   7
ENDBRANCH   1   6
BRANCH   3  16
HETATM   16  N3  UNL     1       4.179  -0.429  -1.481  1.00  0.00    -0.073 N 
ATOM     17  H33 UNL     1       4.480  -1.165  -0.842  1.00  0.00     0.274 HD
ATOM     18  H32 UNL     1       3.936  -0.993  -2.295  1.00  0.00     0.274 HD
ATOM     19  H31 UNL     1       4.958   0.192  -1.699  1.00  0.00     0.274 HD
ENDBRANCH   3  16
BRANCH   4  20
HETATM   20  N4  UNL     1       3.545  -0.027   1.411  1.00  0.00    -0.073 N 
ATOM     21  H43 UNL     1       2.826  -0.748   1.480  1.00  0.00     0.274 HD
ATOM     22  H42 UNL     1       4.342  -0.613   1.164  1.00  0.00     0.274 HD
ATOM     23  H41 UNL     1       3.692   0.431   2.310  1.00  0.00     0.274 HD
ENDBRANCH   4  20
TORSDOF 7
