REMARK  9 active torsions:
REMARK  status: ('A' for Active; 'I' for Inactive)
REMARK    1  A    between atoms: C2_2  and  C3_3 
REMARK    2  A    between atoms: C3_3  and  C4_4 
REMARK    3  A    between atoms: C4_4  and  C5_5 
REMARK    4  A    between atoms: C5_5  and  N1_6 
REMARK    5  A    between atoms: C6_7  and  C7_8 
REMARK    6  A    between atoms: N2_11  and  C10_12 
REMARK    7  A    between atoms: C11_15  and  O1_16 
REMARK    8  A    between atoms: C16_25  and  N5_26 
REMARK    9  A    between atoms: C17_31  and  N7_32 
ROOT
HETATM    1  N1  UNL     1       1.393   0.866  -0.681  1.00  0.00    -0.320 N 
HETATM    2  C6  UNL     1       0.198   1.166  -0.092  1.00  0.00     0.090 A 
HETATM    3  N4  UNL     1       0.377   2.346   0.505  1.00  0.00    -0.339 N 
ATOM      4  H4  UNL     1      -0.343   2.837   1.035  1.00  0.00     0.167 HD
HETATM    5  C15 UNL     1       1.620   2.803   0.321  1.00  0.00     0.123 A 
HETATM    6  C16 UNL     1       2.303   3.942   0.713  1.00  0.00     0.145 A 
HETATM    7  N6  UNL     1       3.586   4.119   0.353  1.00  0.00    -0.175 N 
ATOM      8  H6  UNL     1       4.089   4.958   0.641  1.00  0.00     0.186 HD
HETATM    9  C17 UNL     1       4.206   3.177  -0.394  1.00  0.00     0.679 A 
HETATM   10  N8  UNL     1       3.551   2.082  -0.769  1.00  0.00    -0.174 N 
ATOM     11  H8  UNL     1       4.042   1.387  -1.331  1.00  0.00     0.186 HD
HETATM   12  C18 UNL     1       2.269   1.854  -0.438  1.00  0.00     0.155 A 
ENDROOT
BRANCH   2  13
HETATM   13  C7  UNL     1      -1.042   0.345  -0.113  1.00  0.00     0.057 C 
HETATM   14  C8  UNL     1      -1.488  -0.014   1.291  1.00  0.00     0.032 C 
HETATM   15  C9  UNL     1      -2.552  -1.106   1.124  1.00  0.00     0.125 C 
HETATM   16  N2  UNL     1      -3.637  -0.508   0.394  1.00  0.00    -0.361 N 
HETATM   17  C13 UNL     1      -3.519   0.758  -0.231  1.00  0.00     0.125 C 
HETATM   18  C14 UNL     1      -2.171   1.095  -0.763  1.00  0.00     0.032 C 
BRANCH  16  19
HETATM   19  C10 UNL     1      -4.869  -1.229   0.307  1.00  0.00     0.148 A 
HETATM   20  N3  UNL     1      -6.000  -0.898  -0.299  1.00  0.00    -0.317 N 
HETATM   21  C11 UNL     1      -7.016  -1.696  -0.264  1.00  0.00     0.148 A 
ATOM     22  H3  UNL     1      -6.069  -0.010  -0.795  1.00  0.00     0.170 HD
HETATM   23  C12 UNL     1      -6.877  -2.880   0.417  1.00  0.00     0.109 A 
HETATM   24  S1  UNL     1      -5.266  -2.769   0.971  1.00  0.00    -0.062 SA
BRANCH  21  25
HETATM   25  O1  UNL     1      -8.252  -1.383  -0.900  1.00  0.00    -0.346 OA
ATOM     26  H1  UNL     1      -8.999  -1.970  -0.874  1.00  0.00     0.219 HD
ENDBRANCH  21  25
ENDBRANCH  16  19
ENDBRANCH   2  13
BRANCH   1  27
HETATM   27  C5  UNL     1       1.664  -0.323  -1.457  1.00  0.00     0.132 C 
BRANCH  27  28
HETATM   28  C4  UNL     1       2.123  -1.495  -0.657  1.00  0.00     0.020 C 
BRANCH  28  29
HETATM   29  C3  UNL     1       3.389  -1.280   0.121  1.00  0.00     0.001 C 
BRANCH  29  30
HETATM   30  C2  UNL     1       3.721  -2.577   0.875  1.00  0.00    -0.004 C 
HETATM   31  C1  UNL     1       3.912  -3.714  -0.102  1.00  0.00     0.005 C 
ENDBRANCH  29  30
ENDBRANCH  28  29
ENDBRANCH  27  28
ENDBRANCH   1  27
BRANCH   6  32
HETATM   32  N5  UNL     1       1.690   4.830   1.426  1.00  0.00    -0.383 N 
ATOM     33  H52 UNL     1       0.716   4.696   1.699  1.00  0.00     0.157 HD
ATOM     34  H51 UNL     1       2.193   5.669   1.715  1.00  0.00     0.157 HD
ENDBRANCH   6  32
BRANCH   9  35
HETATM   35  N7  UNL     1       5.433   3.324  -0.750  1.00  0.00    -0.234 N 
ATOM     36  H72 UNL     1       5.935   4.164  -0.462  1.00  0.00     0.174 HD
ATOM     37  H71 UNL     1       5.901   2.614  -1.313  1.00  0.00     0.174 HD
ENDBRANCH   9  35
TORSDOF 9
