REMARK  9 active torsions:
REMARK  status: ('A' for Active; 'I' for Inactive)
REMARK    1  A    between atoms: N1_1  and  C1_4 
REMARK    2  A    between atoms: C4_7  and  C5_8 
REMARK    3  A    between atoms: C5_8  and  O1_9 
REMARK    4  A    between atoms: C5_8  and  C6_11 
REMARK    5  A    between atoms: C6_11  and  O2_12 
REMARK    6  A    between atoms: C6_11  and  N2_14 
REMARK    7  A    between atoms: N2_14  and  C7_16 
REMARK    8  A    between atoms: C11_20  and  C12_21 
REMARK    9  A    between atoms: C13_26  and  C14_27 
ROOT
HETATM    1  C7  UNL     1      -0.916   1.413   0.302  1.00  0.00     0.103 A 
HETATM    2  C8  UNL     1      -0.705   2.240   1.383  1.00  0.00     0.048 A 
HETATM    3  C9  UNL     1       0.561   2.350   1.942  1.00  0.00     0.006 A 
HETATM    4  C10 UNL     1       1.594   1.614   1.389  1.00  0.00     0.034 A 
HETATM    5  C11 UNL     1       1.376   0.788   0.307  1.00  0.00     0.087 A 
HETATM    6  N5  UNL     1       0.138   0.708  -0.206  1.00  0.00    -0.339 N 
ATOM      7  H5  UNL     1      -0.022   0.097  -1.007  1.00  0.00     0.167 HD
ENDROOT
BRANCH   1   8
HETATM    8  N2  UNL     1      -2.207   1.304  -0.261  1.00  0.00    -0.348 N 
ATOM      9  H2  UNL     1      -2.358   0.696  -1.066  1.00  0.00     0.163 HD
BRANCH   8  10
HETATM   10  C6  UNL     1      -3.316   2.047   0.294  1.00  0.00     0.252 C 
BRANCH  10  11
HETATM   11  C5  UNL     1      -4.584   1.793  -0.494  1.00  0.00     0.201 C 
BRANCH  11  12
HETATM   12  C4  UNL     1      -4.975   0.363  -0.478  1.00  0.00    -0.010 A 
HETATM   13  C3  UNL     1      -5.554  -0.236   0.620  1.00  0.00     0.015 A 
HETATM   14  C2  UNL     1      -5.904  -1.569   0.599  1.00  0.00     0.048 A 
HETATM   15  C1  UNL     1      -5.683  -2.336  -0.524  1.00  0.00     0.098 A 
HETATM   16  N6  UNL     1      -5.118  -1.745  -1.591  1.00  0.00    -0.352 N 
HETATM   17  C20 UNL     1      -4.769  -0.448  -1.593  1.00  0.00     0.099 A 
ATOM     18  H6  UNL     1      -4.948  -2.301  -2.429  1.00  0.00     0.166 HD
BRANCH  15  19
HETATM   19  N1  UNL     1      -6.016  -3.601  -0.541  1.00  0.00    -0.385 N 
ATOM     20  H12 UNL     1      -6.445  -4.049   0.269  1.00  0.00     0.157 HD
ATOM     21  H11 UNL     1      -5.852  -4.169  -1.372  1.00  0.00     0.157 HD
ENDBRANCH  15  19
ENDBRANCH  11  12
BRANCH  11  22
HETATM   22  O1  UNL     1      -5.628   2.523   0.068  1.00  0.00    -0.386 OA
ATOM     23  H1  UNL     1      -5.377   3.439   0.058  1.00  0.00     0.210 HD
ENDBRANCH  11  22
ENDBRANCH  10  11
BRANCH  10  24
HETATM   24  O2  UNL     1      -3.574   1.579   1.602  1.00  0.00    -0.374 OA
ATOM     25  H2  UNL     1      -2.779   1.738   2.096  1.00  0.00     0.212 HD
ENDBRANCH  10  24
ENDBRANCH   8  10
ENDBRANCH   1   8
BRANCH   5  26
HETATM   26  C12 UNL     1       2.481   0.023  -0.258  1.00  0.00     0.191 A 
HETATM   27  N3  UNL     1       2.432  -0.819  -1.303  1.00  0.00    -0.276 N 
HETATM   28  N4  UNL     1       3.645  -1.322  -1.511  1.00  0.00    -0.277 N 
ATOM     29  H3  UNL     1       1.599  -1.037  -1.849  1.00  0.00     0.189 HD
HETATM   30  C13 UNL     1       4.444  -0.778  -0.577  1.00  0.00     0.174 A 
ATOM     31  H4  UNL     1       3.915  -1.988  -2.235  1.00  0.00     0.189 HD
HETATM   32  O3  UNL     1       3.716   0.013   0.145  1.00  0.00    -0.271 OA
BRANCH  30  33
HETATM   33  C14 UNL     1       5.886  -1.067  -0.447  1.00  0.00     0.017 A 
HETATM   34  C15 UNL     1       6.518  -1.935  -1.296  1.00  0.00     0.019 A 
HETATM   35  C16 UNL     1       7.868  -2.235  -1.210  1.00  0.00     0.043 A 
HETATM   36  C17 UNL     1       8.592  -1.616  -0.210  1.00  0.00     0.116 A 
HETATM   37  F1  UNL     1       9.920  -1.872  -0.077  1.00  0.00    -0.206 F 
HETATM   38  C18 UNL     1       7.999  -0.739   0.662  1.00  0.00     0.043 A 
HETATM   39  C19 UNL     1       6.636  -0.464   0.541  1.00  0.00     0.019 A 
ENDBRANCH  30  33
ENDBRANCH   5  26
TORSDOF 9
