REMARK  10 active torsions:
REMARK  status: ('A' for Active; 'I' for Inactive)
REMARK    1  A    between atoms: C4_4  and  N1_5 
REMARK    2  A    between atoms: N1_5  and  C5_7 
REMARK    3  A    between atoms: C5_7  and  C6_8 
REMARK    4  A    between atoms: C6_8  and  C7_9 
REMARK    5  A    between atoms: C7_9  and  O1_10 
REMARK    6  A    between atoms: N2_13  and  C9_14 
REMARK    7  A    between atoms: C9_14  and  C10_15 
REMARK    8  A    between atoms: C10_15  and  C11_16 
REMARK    9  A    between atoms: C11_16  and  S1_17 
REMARK   10  A    between atoms: S1_17  and  C12_18 
ROOT
HETATM    1  C1  UNL     1       0.809   0.975  -2.254  1.00  0.00     0.032 C 
HETATM    2  C2  UNL     1       0.025   0.636  -1.020  1.00  0.00     0.077 C 
HETATM    3  C3  UNL     1      -1.466   0.406  -1.320  1.00  0.00     0.051 C 
HETATM    4  C4  UNL     1      -1.905  -0.417  -0.158  1.00  0.00     0.096 C 
HETATM    5  C8  UNL     1      -0.640  -1.222   0.182  1.00  0.00     0.142 C 
HETATM    6  N2  UNL     1       0.400  -0.637  -0.550  1.00  0.00    -0.406 N 
ENDROOT
BRANCH   6   7
HETATM    7  C9  UNL     1       1.752  -0.909  -0.239  1.00  0.00     0.118 C 
BRANCH   7   8
HETATM    8  C10 UNL     1       1.845  -2.287   0.318  1.00  0.00     0.030 C 
BRANCH   8   9
HETATM    9  C11 UNL     1       3.178  -2.818   0.603  1.00  0.00     0.083 C 
BRANCH   9  10
HETATM   10  S1  UNL     1       4.228  -1.920   1.697  1.00  0.00    -0.103 SA
BRANCH  10  11
HETATM   11  C12 UNL     1       5.026  -0.490   0.996  1.00  0.00     0.129 A 
HETATM   12  N3  UNL     1       6.194  -0.517   0.325  1.00  0.00    -0.287 N 
HETATM   13  N4  UNL     1       6.704   0.563  -0.102  1.00  0.00    -0.283 N 
ATOM     14  H3  UNL     1       6.668  -1.405   0.161  1.00  0.00     0.188 HD
HETATM   15  C13 UNL     1       6.074   1.715   0.120  1.00  0.00     0.159 A 
ATOM     16  H4  UNL     1       7.588   0.549  -0.610  1.00  0.00     0.188 HD
HETATM   17  S2  UNL     1       6.543   3.233  -0.338  1.00  0.00    -0.051 SA
HETATM   18  S3  UNL     1       4.699   1.177   0.978  1.00  0.00    -0.033 SA
ENDBRANCH  10  11
ENDBRANCH   9  10
ENDBRANCH   8   9
ENDBRANCH   7   8
ENDBRANCH   6   7
BRANCH   4  19
HETATM   19  N1  UNL     1      -2.247   0.339   0.991  1.00  0.00    -0.415 N 
ATOM     20  H1  UNL     1      -1.707   0.256   1.852  1.00  0.00     0.153 HD
BRANCH  19  21
HETATM   21  C5  UNL     1      -3.358   1.213   0.912  1.00  0.00     0.116 C 
BRANCH  21  22
HETATM   22  C6  UNL     1      -4.687   0.489   0.796  1.00  0.00     0.045 C 
BRANCH  22  23
HETATM   23  C7  UNL     1      -5.769   1.564   0.737  1.00  0.00     0.165 C 
BRANCH  23  24
HETATM   24  O1  UNL     1      -7.015   0.939   0.630  1.00  0.00    -0.401 OA
ATOM     25  H1  UNL     1      -7.688   1.608   0.593  1.00  0.00     0.209 HD
ENDBRANCH  23  24
ENDBRANCH  22  23
ENDBRANCH  21  22
ENDBRANCH  19  21
ENDBRANCH   4  19
TORSDOF 10
