REMARK  9 active torsions:
REMARK  status: ('A' for Active; 'I' for Inactive)
REMARK    1  A    between atoms: N1_1  and  C1_4 
REMARK    2  A    between atoms: C2_7  and  N3_8 
REMARK    3  A    between atoms: N3_8  and  C3_10 
REMARK    4  A    between atoms: C3_10  and  C4_11 
REMARK    5  A    between atoms: C4_11  and  C5_12 
REMARK    6  A    between atoms: C5_12  and  C6_13 
REMARK    7  A    between atoms: C6_13  and  C7_14 
REMARK    8  A    between atoms: C7_14  and  O1_15 
REMARK    9  A    between atoms: C8_19  and  N5_20 
REMARK       I    between atoms: N5_20  and  C9_22 
REMARK       I    between atoms: C9_22  and  N6_23 
REMARK       I    between atoms: C9_22  and  N7_27 
ROOT
HETATM    1  C1  UNL     1      -2.939  -3.151  -0.290  1.00  0.00     0.705 A 
HETATM    2  N2  UNL     1      -1.577  -3.074  -0.275  1.00  0.00    -0.022 N 
ATOM      3  H2  UNL     1      -1.019  -3.926  -0.333  1.00  0.00     0.203 HD
HETATM    4  C2  UNL     1      -0.970  -1.880  -0.184  1.00  0.00     0.707 A 
HETATM    5  N4  UNL     1      -1.713  -0.762  -0.107  1.00  0.00    -0.021 N 
ATOM      6  H4  UNL     1      -1.244   0.141  -0.038  1.00  0.00     0.203 HD
HETATM    7  C8  UNL     1      -3.063  -0.801  -0.119  1.00  0.00     0.710 A 
HETATM    8  N8  UNL     1      -3.635  -2.012  -0.212  1.00  0.00    -0.022 N 
ATOM      9  H8  UNL     1      -4.654  -2.066  -0.224  1.00  0.00     0.203 HD
ENDROOT
BRANCH   7  10
HETATM   10  N5  UNL     1      -3.763   0.250  -0.048  1.00  0.00    -0.172 N 
HETATM   11  C9  UNL     1      -3.282   1.589   0.054  1.00  0.00     0.494 C 
HETATM   12  N6  UNL     1      -4.407   2.483  -0.259  1.00  0.00    -0.032 N 
HETATM   13  N7  UNL     1      -2.827   1.943   1.368  1.00  0.00    -0.032 N 
ATOM     14  H63 UNL     1      -4.837   2.281  -1.162  1.00  0.00     0.278 HD
ATOM     15  H62 UNL     1      -5.228   2.309   0.321  1.00  0.00     0.278 HD
ATOM     16  H61 UNL     1      -4.063   3.440  -0.186  1.00  0.00     0.278 HD
ATOM     17  H73 UNL     1      -3.557   1.770   2.059  1.00  0.00     0.278 HD
ATOM     18  H72 UNL     1      -2.122   1.282   1.694  1.00  0.00     0.278 HD
ATOM     19  H71 UNL     1      -2.483   2.900   1.441  1.00  0.00     0.278 HD
ATOM     20  H5  UNL     1      -4.775   0.128  -0.065  1.00  0.00     0.181 HD
ENDBRANCH   7  10
BRANCH   4  21
HETATM   21  N3  UNL     1       0.314  -1.849  -0.172  1.00  0.00    -0.225 N 
ATOM     22  H3  UNL     1       0.858  -2.710  -0.230  1.00  0.00     0.177 HD
BRANCH  21  23
HETATM   23  C3  UNL     1       0.969  -0.568  -0.074  1.00  0.00     0.138 C 
BRANCH  23  24
HETATM   24  C4  UNL     1       2.463  -0.725   0.202  1.00  0.00     0.020 C 
BRANCH  24  25
HETATM   25  C5  UNL     1       3.016   0.698   0.279  1.00  0.00     0.004 C 
BRANCH  25  26
HETATM   26  C6  UNL     1       4.512   0.668   0.554  1.00  0.00     0.026 C 
BRANCH  26  27
HETATM   27  C7  UNL     1       5.003   2.096   0.619  1.00  0.00     0.164 C 
BRANCH  27  28
HETATM   28  O1  UNL     1       4.730   2.696  -0.614  1.00  0.00    -0.401 OA
ATOM     29  H1  UNL     1       5.039   3.594  -0.573  1.00  0.00     0.209 HD
ENDBRANCH  27  28
ENDBRANCH  26  27
ENDBRANCH  25  26
ENDBRANCH  24  25
ENDBRANCH  23  24
ENDBRANCH  21  23
ENDBRANCH   4  21
BRANCH   1  30
HETATM   30  N1  UNL     1      -3.500  -4.306  -0.378  1.00  0.00    -0.234 N 
ATOM     31  H12 UNL     1      -2.969  -5.175  -0.438  1.00  0.00     0.174 HD
ATOM     32  H11 UNL     1      -4.518  -4.364  -0.389  1.00  0.00     0.174 HD
ENDBRANCH   1  30
TORSDOF 9
