REMARK  11 active torsions:
REMARK  status: ('A' for Active; 'I' for Inactive)
REMARK    1  A    between atoms: C2_2  and  C4_12 
REMARK    2  A    between atoms: N1_3  and  N2_5 
REMARK       I    between atoms: N2_5  and  C3_7 
REMARK       I    between atoms: C4_12  and  N5_14 
REMARK    3  A    between atoms: N5_14  and  N6_16 
REMARK    4  A    between atoms: C5_21  and  C6_22 
REMARK    5  A    between atoms: C6_22  and  N9_23 
REMARK    6  A    between atoms: C6_22  and  O2_27 
REMARK    7  A    between atoms: C7_29  and  C8_30 
REMARK    8  A    between atoms: C8_30  and  C9_31 
REMARK    9  A    between atoms: C11_33  and  C12_34 
REMARK   10  A    between atoms: C13_38  and  C14_39 
REMARK   11  A    between atoms: C14_39  and  O4_40 
ROOT
HETATM    1  C14 UNL     1      -0.410   2.272  -0.988  1.00  0.00     0.167 C 
HETATM    2  N11 UNL     1      -0.517   3.333  -1.687  1.00  0.00    -0.273 N 
ATOM      3  H11 UNL     1       0.350   3.589  -2.160  1.00  0.00     0.180 HD
HETATM    4  C15 UNL     1      -1.526   4.190  -1.937  1.00  0.00     0.183 C 
HETATM    5  N12 UNL     1      -2.373   4.941  -2.170  1.00  0.00    -0.172 NA
ENDROOT
BRANCH   1   6
HETATM    6  C13 UNL     1      -1.554   1.764  -0.245  1.00  0.00     0.064 A 
HETATM    7  C9  UNL     1      -1.762   0.662   0.528  1.00  0.00    -0.029 A 
HETATM    8  C10 UNL     1      -2.996   0.600   1.139  1.00  0.00     0.033 A 
HETATM    9  C11 UNL     1      -3.886   1.597   0.935  1.00  0.00     0.071 A 
HETATM   10  S1  UNL     1      -3.056   2.640  -0.092  1.00  0.00    -0.080 SA
BRANCH   7  11
HETATM   11  C8  UNL     1      -0.801  -0.499   0.790  1.00  0.00     0.103 C 
BRANCH  11  12
HETATM   12  C7  UNL     1      -0.611  -1.450  -0.273  1.00  0.00     0.086 A 
HETATM   13  N6  UNL     1       0.594  -1.754  -0.827  1.00  0.00    -0.181 N 
HETATM   14  N7  UNL     1       0.440  -2.667  -1.747  1.00  0.00    -0.221 N 
HETATM   15  N8  UNL     1      -0.812  -2.989  -1.826  1.00  0.00    -0.282 N 
ATOM     16  H7  UNL     1       1.188  -3.065  -2.315  1.00  0.00     0.210 HD
HETATM   17  C5  UNL     1      -1.523  -2.249  -0.908  1.00  0.00     0.109 A 
ATOM     18  H8  UNL     1      -1.207  -3.679  -2.465  1.00  0.00     0.188 HD
BRANCH  13  19
HETATM   19  N5  UNL     1       1.895  -1.293  -0.470  1.00  0.00    -0.242 N 
HETATM   20  C4  UNL     1       3.027  -1.808  -1.141  1.00  0.00     0.285 C 
HETATM   21  O1  UNL     1       2.874  -2.684  -2.071  1.00  0.00    -0.265 OA
ATOM     22  H5  UNL     1       2.008  -0.595   0.266  1.00  0.00     0.192 HD
BRANCH  20  23
HETATM   23  C2  UNL     1       4.382  -1.428  -0.868  1.00  0.00     0.091 C 
HETATM   24  C1  UNL     1       5.507  -2.062  -1.685  1.00  0.00     0.076 C 
HETATM   25  N1  UNL     1       4.754  -0.612  -0.015  1.00  0.00    -0.297 N 
ATOM     26  H1  UNL     1       5.771  -0.533  -0.039  1.00  0.00     0.187 HD
BRANCH  25  27
HETATM   27  N2  UNL     1       4.264   0.202   0.929  1.00  0.00    -0.274 N 
HETATM   28  C3  UNL     1       4.417   1.615   0.829  1.00  0.00     0.200 C 
HETATM   29  N3  UNL     1       4.245   2.173  -0.300  1.00  0.00    -0.372 N 
HETATM   30  N4  UNL     1       4.758   2.396   1.964  1.00  0.00    -0.062 NA
ATOM     31  H32 UNL     1       4.000   1.612  -1.116  1.00  0.00     0.158 HD
ATOM     32  H31 UNL     1       4.355   3.185  -0.372  1.00  0.00     0.158 HD
ATOM     33  H2  UNL     1       3.774  -0.195   1.731  1.00  0.00     0.189 HD
ENDBRANCH  25  27
ENDBRANCH  20  23
ENDBRANCH  13  19
BRANCH  17  34
HETATM   34  C6  UNL     1      -2.966  -2.516  -0.685  1.00  0.00     0.370 C 
BRANCH  34  35
HETATM   35  N9  UNL     1      -3.309  -2.914   0.644  1.00  0.00    -0.047 N 
ATOM     36  H93 UNL     1      -2.754  -3.723   0.923  1.00  0.00     0.277 HD
ATOM     37  H92 UNL     1      -2.971  -2.225   1.316  1.00  0.00     0.277 HD
ATOM     38  H91 UNL     1      -4.301  -3.097   0.797  1.00  0.00     0.277 HD
ENDBRANCH  34  35
BRANCH  34  39
HETATM   39  O2  UNL     1      -3.402  -3.526  -1.541  1.00  0.00    -0.365 OA
ATOM     40  H2  UNL     1      -4.326  -3.697  -1.398  1.00  0.00     0.212 HD
ENDBRANCH  34  39
ENDBRANCH  17  34
ENDBRANCH  11  12
ENDBRANCH   7  11
BRANCH   9  41
HETATM   41  C12 UNL     1      -5.253   1.741   1.478  1.00  0.00     0.271 C 
HETATM   42  N10 UNL     1      -5.986   2.879   1.120  1.00  0.00    -0.057 NA
HETATM   43  O3  UNL     1      -5.702   0.869   2.221  1.00  0.00    -0.270 OA
ENDBRANCH   9  41
ENDBRANCH   1   6
BRANCH   1  44
HETATM   44  O4  UNL     1       0.809   1.674  -0.981  1.00  0.00    -0.345 OA
ATOM     45  H4  UNL     1       1.556   2.006  -1.466  1.00  0.00     0.219 HD
ENDBRANCH   1  44
TORSDOF 11
