REMARK  16 active torsions:
REMARK  status: ('A' for Active; 'I' for Inactive)
REMARK    1  A    between atoms: N1_1  and  C1_5 
REMARK    2  A    between atoms: C1_5  and  C2_6 
REMARK    3  A    between atoms: C2_6  and  N2_7 
REMARK    4  A    between atoms: N2_7  and  C3_8 
REMARK    5  A    between atoms: N2_7  and  N3_27 
REMARK    6  A    between atoms: C3_8  and  C4_9 
REMARK    7  A    between atoms: C4_9  and  O1_10 
REMARK    8  A    between atoms: C5_12  and  O2_13 
REMARK    9  A    between atoms: C6_15  and  O3_16 
REMARK   10  A    between atoms: C7_18  and  O4_19 
REMARK   11  A    between atoms: C8_21  and  O5_22 
REMARK   12  A    between atoms: C9_24  and  O6_25 
REMARK       I    between atoms: N3_27  and  C10_29 
REMARK   13  A    between atoms: C10_29  and  C11_31 
REMARK   14  A    between atoms: C15_37  and  C16_38 
REMARK   15  A    between atoms: C16_38  and  O9_39 
REMARK   16  A    between atoms: C16_38  and  O10_41 
ROOT
HETATM    1  N2  UNL     1      -0.925   0.922   0.547  1.00  0.00    -0.224 NA
ENDROOT
BRANCH   1   2
HETATM    2  C2  UNL     1      -0.887   2.364   0.639  1.00  0.00     0.141 C 
BRANCH   2   3
HETATM    3  C1  UNL     1      -0.075   2.800   1.859  1.00  0.00     0.245 C 
BRANCH   3   4
HETATM    4  N1  UNL     1      -0.067   4.249   1.908  1.00  0.00    -0.078 N 
ATOM      5  H13 UNL     1       0.270   4.669   1.042  1.00  0.00     0.274 HD
ATOM      6  H12 UNL     1      -1.006   4.647   1.899  1.00  0.00     0.274 HD
ATOM      7  H11 UNL     1       0.475   4.540   2.722  1.00  0.00     0.274 HD
ENDBRANCH   3   4
ENDBRANCH   2   3
ENDBRANCH   1   2
BRANCH   1   8
HETATM    8  C3  UNL     1      -1.594   0.365  -0.559  1.00  0.00     0.157 C 
BRANCH   8   9
HETATM    9  C4  UNL     1      -3.053   0.480  -0.696  1.00  0.00     0.128 C 
HETATM   10  C5  UNL     1      -3.436  -0.118  -2.043  1.00  0.00     0.187 C 
HETATM   11  C6  UNL     1      -4.693  -0.918  -2.018  1.00  0.00     0.181 C 
HETATM   12  C7  UNL     1      -4.657  -2.036  -1.002  1.00  0.00     0.180 C 
HETATM   13  C8  UNL     1      -4.097  -1.591   0.308  1.00  0.00     0.181 C 
HETATM   14  C9  UNL     1      -3.856  -0.125   0.410  1.00  0.00     0.187 C 
BRANCH   9  15
HETATM   15  O1  UNL     1      -3.418   1.823  -0.771  1.00  0.00    -0.383 OA
ATOM     16  H1  UNL     1      -4.361   1.897  -0.860  1.00  0.00     0.210 HD
ENDBRANCH   9  15
BRANCH  10  17
HETATM   17  O2  UNL     1      -3.580   0.875  -3.020  1.00  0.00    -0.390 OA
ATOM     18  H2  UNL     1      -3.819   0.502  -3.860  1.00  0.00     0.210 HD
ENDBRANCH  10  17
BRANCH  11  19
HETATM   19  O3  UNL     1      -4.819  -1.526  -3.275  1.00  0.00    -0.390 OA
ATOM     20  H3  UNL     1      -5.620  -2.036  -3.259  1.00  0.00     0.210 HD
ENDBRANCH  11  19
BRANCH  12  21
HETATM   21  O4  UNL     1      -5.942  -2.501  -0.821  1.00  0.00    -0.390 OA
ATOM     22  H4  UNL     1      -5.919  -3.204  -0.182  1.00  0.00     0.210 HD
ENDBRANCH  12  21
BRANCH  13  23
HETATM   23  O5  UNL     1      -4.974  -1.933   1.364  1.00  0.00    -0.390 OA
ATOM     24  H5  UNL     1      -4.618  -1.650   2.198  1.00  0.00     0.210 HD
ENDBRANCH  13  23
BRANCH  14  25
HETATM   25  O6  UNL     1      -5.090   0.566   0.481  1.00  0.00    -0.390 OA
ATOM     26  H6  UNL     1      -5.600   0.181   1.184  1.00  0.00     0.210 HD
ENDBRANCH  14  25
ENDBRANCH   8   9
ENDBRANCH   1   8
BRANCH   1  27
HETATM   27  N3  UNL     1       0.441   0.551   0.376  1.00  0.00    -0.285 N 
HETATM   28  C10 UNL     1       1.173  -0.174   1.307  1.00  0.00     0.270 C 
HETATM   29  O7  UNL     1       0.595  -0.527   2.368  1.00  0.00    -0.266 OA
ATOM     30  H3  UNL     1       0.910   0.836  -0.484  1.00  0.00     0.184 HD
BRANCH  28  31
HETATM   31  C11 UNL     1       2.562  -0.546   1.125  1.00  0.00     0.096 A 
HETATM   32  C12 UNL     1       3.292  -1.230   1.978  1.00  0.00     0.116 A 
HETATM   33  N4  UNL     1       2.858  -1.742   3.252  1.00  0.00    -0.097 NA
HETATM   34  C13 UNL     1       4.632  -1.387   1.416  1.00  0.00     0.210 A 
HETATM   35  O8  UNL     1       5.584  -1.995   1.983  1.00  0.00    -0.285 OA
HETATM   36  C14 UNL     1       4.681  -0.737   0.121  1.00  0.00     0.062 A 
HETATM   37  C15 UNL     1       5.617  -0.543  -0.855  1.00  0.00     0.019 A 
HETATM   38  C19 UNL     1       3.390  -0.219  -0.044  1.00  0.00     0.112 A 
HETATM   39  C17 UNL     1       5.260   0.173  -2.003  1.00  0.00     0.095 A 
HETATM   40  C18 UNL     1       3.981   0.658  -2.114  1.00  0.00     0.288 A 
HETATM   41  O11 UNL     1       3.659   1.310  -3.161  1.00  0.00    -0.260 OA
HETATM   42  O12 UNL     1       3.144   0.439  -1.153  1.00  0.00    -0.273 OA
BRANCH  37  43
HETATM   43  C16 UNL     1       6.967  -1.108  -0.712  1.00  0.00     0.289 C 
BRANCH  43  44
HETATM   44  O9  UNL     1       6.967  -2.436  -0.337  1.00  0.00    -0.367 OA
ATOM     45  H9  UNL     1       7.839  -2.801  -0.245  1.00  0.00     0.213 HD
ENDBRANCH  43  44
BRANCH  43  46
HETATM   46  O10 UNL     1       7.696  -1.009  -1.893  1.00  0.00    -0.367 OA
ATOM     47  H10 UNL     1       8.568  -1.374  -1.801  1.00  0.00     0.213 HD
ENDBRANCH  43  46
ENDBRANCH  37  43
ENDBRANCH  28  31
ENDBRANCH   1  27
TORSDOF 16
