REMARK  15 active torsions:
REMARK  status: ('A' for Active; 'I' for Inactive)
REMARK    1  A    between atoms: C2_2  and  N1_3 
REMARK    2  A    between atoms: N1_3  and  C3_4 
REMARK       I    between atoms: N1_3  and  C9_15 
REMARK    3  A    between atoms: C3_4  and  C4_5 
REMARK    4  A    between atoms: C4_5  and  N2_6 
REMARK    5  A    between atoms: N2_6  and  C5_7 
REMARK    6  A    between atoms: N2_6  and  C7_11 
REMARK    7  A    between atoms: C5_7  and  C6_8 
REMARK    8  A    between atoms: C6_8  and  O1_9 
REMARK    9  A    between atoms: C7_11  and  C8_12 
REMARK   10  A    between atoms: C8_12  and  O2_13 
REMARK   11  A    between atoms: C9_15  and  C10_17 
REMARK   12  A    between atoms: C12_21  and  N4_22 
REMARK   13  A    between atoms: N4_22  and  C13_24 
REMARK   14  A    between atoms: C13_24  and  C14_25 
REMARK   15  A    between atoms: C14_25  and  O4_26 
ROOT
HETATM    1  C10 UNL     1       1.772   0.700   1.192  1.00  0.00     0.092 A 
HETATM    2  C11 UNL     1       2.496   1.858   1.346  1.00  0.00     0.127 A 
HETATM    3  N3  UNL     1       3.826   1.821   1.300  1.00  0.00    -0.201 N 
ATOM      4  H3  UNL     1       4.348   2.689   1.417  1.00  0.00     0.183 HD
HETATM    5  C12 UNL     1       4.513   0.658   1.101  1.00  0.00     0.679 A 
HETATM    6  N5  UNL     1       3.836  -0.482   0.948  1.00  0.00    -0.176 N 
ATOM      7  H5  UNL     1       4.333  -1.360   0.798  1.00  0.00     0.186 HD
HETATM    8  C15 UNL     1       2.464  -0.461   0.994  1.00  0.00     0.132 A 
HETATM    9  N6  UNL     1       1.825  -1.567   0.863  1.00  0.00    -0.384 N 
ATOM     10  H61 UNL     1       2.342  -2.434   0.715  1.00  0.00     0.157 HD
ATOM     11  H62 UNL     1       0.806  -1.551   0.897  1.00  0.00     0.157 HD
ENDROOT
BRANCH   1  12
HETATM   12  C9  UNL     1       0.319   0.746   1.220  1.00  0.00     0.259 C 
HETATM   13  N1  UNL     1      -0.384   1.060   0.038  1.00  0.00    -0.347 N 
HETATM   14  O3  UNL     1      -0.314   0.506   2.305  1.00  0.00    -0.267 OA
BRANCH  13  15
HETATM   15  C2  UNL     1       0.197   1.359  -1.233  1.00  0.00     0.121 C 
HETATM   16  C1  UNL     1       0.390   0.183  -2.125  1.00  0.00     0.026 C 
ENDBRANCH  13  15
BRANCH  13  17
HETATM   17  C3  UNL     1      -1.849   1.089   0.120  1.00  0.00     0.145 C 
BRANCH  17  18
HETATM   18  C4  UNL     1      -2.367  -0.289  -0.198  1.00  0.00     0.141 C 
BRANCH  18  19
HETATM   19  N2  UNL     1      -3.785  -0.316  -0.106  1.00  0.00    -0.388 N 
BRANCH  19  20
HETATM   20  C5  UNL     1      -4.411   0.432  -1.119  1.00  0.00     0.084 C 
BRANCH  20  21
HETATM   21  C6  UNL     1      -5.926   0.391  -1.118  1.00  0.00     0.208 C 
BRANCH  21  22
HETATM   22  O1  UNL     1      -6.397   1.192  -2.187  1.00  0.00    -0.396 OA
ATOM     23  H1  UNL     1      -7.347   1.166  -2.186  1.00  0.00     0.209 HD
ENDBRANCH  21  22
ENDBRANCH  20  21
ENDBRANCH  19  20
BRANCH  19  24
HETATM   24  C7  UNL     1      -4.375  -1.529   0.322  1.00  0.00     0.148 C 
BRANCH  24  25
HETATM   25  C8  UNL     1      -4.028  -1.758   1.784  1.00  0.00     0.183 C 
BRANCH  25  26
HETATM   26  O2  UNL     1      -4.590  -2.947   2.253  1.00  0.00    -0.399 OA
ATOM     27  H2  UNL     1      -4.373  -3.090   3.167  1.00  0.00     0.209 HD
ENDBRANCH  25  26
ENDBRANCH  24  25
ENDBRANCH  19  24
ENDBRANCH  18  19
ENDBRANCH  17  18
ENDBRANCH  13  17
ENDBRANCH   1  12
BRANCH   5  28
HETATM   28  N4  UNL     1       5.786   0.656   1.061  1.00  0.00    -0.224 N 
ATOM     29  H4  UNL     1       6.275   1.543   1.180  1.00  0.00     0.177 HD
BRANCH  28  30
HETATM   30  C13 UNL     1       6.558  -0.516   0.859  1.00  0.00     0.164 C 
BRANCH  30  31
HETATM   31  C14 UNL     1       6.711  -0.857  -0.615  1.00  0.00     0.184 C 
BRANCH  31  32
HETATM   32  O4  UNL     1       7.346   0.180  -1.308  1.00  0.00    -0.399 OA
ATOM     33  H4  UNL     1       7.442  -0.033  -2.229  1.00  0.00     0.209 HD
ENDBRANCH  31  32
ENDBRANCH  30  31
ENDBRANCH  28  30
ENDBRANCH   5  28
TORSDOF 15
