REMARK  11 active torsions:
REMARK  status: ('A' for Active; 'I' for Inactive)
REMARK    1  A    between atoms: S1_2  and  C2_4 
REMARK    2  A    between atoms: C2_4  and  C3_5 
REMARK    3  A    between atoms: C3_5  and  C4_6 
REMARK    4  A    between atoms: C4_6  and  O2_7 
REMARK    5  A    between atoms: O2_7  and  C5_8 
REMARK    6  A    between atoms: C6_10  and  C7_11 
REMARK    7  A    between atoms: C7_11  and  O4_12 
REMARK    8  A    between atoms: C8_14  and  N1_15 
REMARK    9  A    between atoms: N1_15  and  C9_17 
REMARK   10  A    between atoms: C9_17  and  C10_18 
REMARK   11  A    between atoms: C10_18  and  N2_19 
REMARK       I    between atoms: N2_19  and  C11_21 
ROOT
HETATM    1  C5  UNL     1       0.142   0.344  -1.557  1.00  0.00     0.285 C 
HETATM    2  O3  UNL     1      -0.756   0.069  -2.635  1.00  0.00    -0.349 OA
HETATM    3  C6  UNL     1      -1.789   0.437  -1.795  1.00  0.00     0.175 C 
HETATM    4  C8  UNL     1      -1.002  -0.079  -0.627  1.00  0.00     0.167 C 
ENDROOT
BRANCH   4   5
HETATM    5  N1  UNL     1      -1.080  -1.474  -0.418  1.00  0.00    -0.389 N 
ATOM      6  H1  UNL     1      -0.689  -2.102  -1.120  1.00  0.00     0.159 HD
BRANCH   5   7
HETATM    7  C9  UNL     1      -1.676  -2.019   0.720  1.00  0.00     0.075 C 
BRANCH   7   8
HETATM    8  C10 UNL     1      -3.145  -1.927   0.902  1.00  0.00     0.166 C 
BRANCH   8   9
HETATM    9  N2  UNL     1      -3.726  -0.638   1.002  1.00  0.00    -0.360 N 
HETATM   10  C11 UNL     1      -5.145  -0.528   1.096  1.00  0.00     0.182 C 
HETATM   11  N3  UNL     1      -5.879  -1.542   1.420  1.00  0.00    -0.374 N 
HETATM   12  N4  UNL     1      -5.778   0.719   0.828  1.00  0.00    -0.064 NA
ATOM     13  H32 UNL     1      -5.426  -2.435   1.612  1.00  0.00     0.158 HD
ATOM     14  H31 UNL     1      -6.894  -1.463   1.487  1.00  0.00     0.158 HD
ATOM     15  H2  UNL     1      -3.139   0.197   1.007  1.00  0.00     0.162 HD
ENDBRANCH   8   9
ENDBRANCH   7   8
ENDBRANCH   5   7
ENDBRANCH   4   5
BRANCH   1  16
HETATM   16  O2  UNL     1       1.224  -0.441  -1.550  1.00  0.00    -0.358 OA
BRANCH  16  17
HETATM   17  C4  UNL     1       2.471  -0.026  -1.430  1.00  0.00     0.185 C 
BRANCH  17  18
HETATM   18  C3  UNL     1       3.016   0.648  -0.238  1.00  0.00     0.035 C 
HETATM   19  C12 UNL     1       2.627   0.114   1.107  1.00  0.00     0.182 C 
HETATM   20  O5  UNL     1       1.736   1.206   1.307  1.00  0.00    -0.389 OA
HETATM   21  C13 UNL     1       2.397   1.908   0.298  1.00  0.00     0.182 C 
BRANCH  18  22
HETATM   22  C2  UNL     1       4.513   0.938  -0.432  1.00  0.00     0.124 C 
BRANCH  22  23
HETATM   23  S1  UNL     1       5.411  -0.565  -0.694  1.00  0.00     0.011 S 
HETATM   24  C1  UNL     1       5.216  -1.647   0.709  1.00  0.00     0.127 C 
HETATM   25  O1  UNL     1       7.060  -0.153  -0.731  1.00  0.00    -0.258 OA
ENDBRANCH  22  23
ENDBRANCH  18  22
ENDBRANCH  17  18
ENDBRANCH  16  17
ENDBRANCH   1  16
BRANCH   3  26
HETATM   26  C7  UNL     1      -2.059   1.907  -1.806  1.00  0.00     0.198 C 
BRANCH  26  27
HETATM   27  O4  UNL     1      -3.140   2.261  -0.967  1.00  0.00    -0.398 OA
ATOM     28  H4  UNL     1      -3.312   3.195  -0.974  1.00  0.00     0.209 HD
ENDBRANCH  26  27
ENDBRANCH   3  26
TORSDOF 11
