REMARK  15 active torsions:
REMARK  status: ('A' for Active; 'I' for Inactive)
REMARK    1  A    between atoms: C5_7  and  C6_8 
REMARK    2  A    between atoms: C6_8  and  O3_9 
REMARK    3  A    between atoms: C7_11  and  O4_12 
REMARK    4  A    between atoms: C8_14  and  O5_15 
REMARK    5  A    between atoms: N1_17  and  C9_18 
REMARK    6  A    between atoms: C9_18  and  C10_19 
REMARK    7  A    between atoms: C10_19  and  N2_20 
REMARK    8  A    between atoms: N2_20  and  C11_23 
REMARK    9  A    between atoms: C11_23  and  C12_24 
REMARK   10  A    between atoms: C12_24  and  N3_25 
REMARK   11  A    between atoms: N3_25  and  C13_28 
REMARK   12  A    between atoms: C13_28  and  C14_29 
REMARK   13  A    between atoms: C14_29  and  C15_30 
REMARK   14  A    between atoms: C15_30  and  C16_31 
REMARK   15  A    between atoms: C16_31  and  O6_32 
ROOT
HETATM    1  O1  UNL     1      -1.369   2.198  -2.335  1.00  0.00    -0.268 OA
HETATM    2  C1  UNL     1      -2.428   1.806  -1.741  1.00  0.00     0.253 C 
HETATM    3  C2  UNL     1      -3.689   1.963  -2.573  1.00  0.00     0.141 C 
HETATM    4  C3  UNL     1      -4.736   1.524  -1.746  1.00  0.00    -0.043 C 
HETATM    5  C4  UNL     1      -5.478   1.154  -1.018  1.00  0.00     0.059 C 
HETATM    6  O2  UNL     1      -6.259   0.692  -0.049  1.00  0.00    -0.293 OA
HETATM    7  C5  UNL     1      -5.578   0.387   1.220  1.00  0.00     0.196 C 
HETATM    8  C7  UNL     1      -4.141   0.046   0.843  1.00  0.00     0.199 C 
HETATM    9  C8  UNL     1      -3.333   1.268   0.620  1.00  0.00     0.254 C 
HETATM   10  N1  UNL     1      -2.355   1.286  -0.430  1.00  0.00    -0.318 N 
ENDROOT
BRANCH  10  11
HETATM   11  C9  UNL     1      -1.022   0.723  -0.096  1.00  0.00     0.156 C 
BRANCH  11  12
HETATM   12  C10 UNL     1      -0.911  -0.727  -0.388  1.00  0.00     0.252 C 
BRANCH  12  13
HETATM   13  N2  UNL     1       0.470  -1.192  -0.171  1.00  0.00    -0.072 N 
ATOM     14  H22 UNL     1       0.803  -0.960   0.765  1.00  0.00     0.277 HD
ATOM     15  H21 UNL     1       0.519  -2.209  -0.105  1.00  0.00     0.277 HD
BRANCH  13  16
HETATM   16  C11 UNL     1       1.336  -0.691  -1.172  1.00  0.00     0.259 C 
BRANCH  16  17
HETATM   17  C12 UNL     1       2.759  -1.073  -0.929  1.00  0.00     0.259 C 
BRANCH  17  18
HETATM   18  N3  UNL     1       3.262  -0.546   0.338  1.00  0.00    -0.074 N 
ATOM     19  H32 UNL     1       2.989   0.419   0.526  1.00  0.00     0.277 HD
ATOM     20  H31 UNL     1       2.820  -0.951   1.163  1.00  0.00     0.277 HD
BRANCH  18  21
HETATM   21  C13 UNL     1       4.731  -0.760   0.268  1.00  0.00     0.232 C 
BRANCH  21  22
HETATM   22  C14 UNL     1       5.376  -0.168   1.482  1.00  0.00     0.029 C 
BRANCH  22  23
HETATM   23  C15 UNL     1       6.871  -0.335   1.403  1.00  0.00     0.028 C 
BRANCH  23  24
HETATM   24  C16 UNL     1       7.410   0.351   0.185  1.00  0.00     0.164 C 
BRANCH  24  25
HETATM   25  O6  UNL     1       8.820   0.255   0.128  1.00  0.00    -0.401 OA
ATOM     26  H6  UNL     1       9.162   0.690  -0.644  1.00  0.00     0.209 HD
ENDBRANCH  24  25
ENDBRANCH  23  24
ENDBRANCH  22  23
ENDBRANCH  21  22
ENDBRANCH  18  21
ENDBRANCH  17  18
ENDBRANCH  16  17
ENDBRANCH  13  16
ENDBRANCH  12  13
ENDBRANCH  11  12
ENDBRANCH  10  11
BRANCH   9  27
HETATM   27  O5  UNL     1      -2.614   1.442   1.883  1.00  0.00    -0.374 OA
ATOM     28  H5  UNL     1      -2.096   2.225   1.740  1.00  0.00     0.212 HD
ENDBRANCH   9  27
BRANCH   8  29
HETATM   29  O4  UNL     1      -4.164  -0.859  -0.199  1.00  0.00    -0.388 OA
ATOM     30  H4  UNL     1      -3.268  -1.072  -0.434  1.00  0.00     0.210 HD
ENDBRANCH   8  29
BRANCH   7  31
HETATM   31  C6  UNL     1      -6.237  -0.861   1.738  1.00  0.00     0.200 C 
BRANCH  31  32
HETATM   32  O3  UNL     1      -6.088  -1.897   0.825  1.00  0.00    -0.398 OA
ATOM     33  H3  UNL     1      -6.504  -2.686   1.152  1.00  0.00     0.209 HD
ENDBRANCH  31  32
ENDBRANCH   7  31
TORSDOF 15
