REMARK  13 active torsions:
REMARK  status: ('A' for Active; 'I' for Inactive)
REMARK       I    between atoms: C1_4  and  N3_6 
REMARK    1  A    between atoms: N3_6  and  C2_8 
REMARK    2  A    between atoms: C2_8  and  C3_9 
REMARK    3  A    between atoms: C3_9  and  C4_10 
REMARK    4  A    between atoms: C4_10  and  C5_11 
REMARK       I    between atoms: C5_11  and  N4_13 
REMARK    5  A    between atoms: C7_18  and  N6_19 
REMARK    6  A    between atoms: N6_19  and  O2_21 
REMARK    7  A    between atoms: O2_21  and  C8_22 
REMARK    8  A    between atoms: C8_22  and  C9_23 
REMARK    9  A    between atoms: C9_23  and  O3_24 
REMARK   10  A    between atoms: O3_24  and  C10_25 
REMARK   11  A    between atoms: C10_25  and  C11_26 
REMARK   12  A    between atoms: C20_37  and  N8_38 
REMARK   13  A    between atoms: N8_38  and  C21_40 
ROOT
HETATM    1  C5  UNL     1      -5.048  -0.770  -0.338  1.00  0.00     0.235 C 
HETATM    2  O1  UNL     1      -5.874  -0.303   0.457  1.00  0.00    -0.273 OA
HETATM    3  N4  UNL     1      -3.697  -0.368  -0.288  1.00  0.00    -0.159 N 
ATOM      4  H4  UNL     1      -2.983  -1.096  -0.274  1.00  0.00     0.187 HD
HETATM    5  C6  UNL     1      -3.338   0.763  -0.261  1.00  0.00     0.714 A 
HETATM    6  N5  UNL     1      -1.809   0.273  -0.251  1.00  0.00    -0.019 N 
ATOM      7  H5  UNL     1      -1.617  -0.729  -0.266  1.00  0.00     0.203 HD
HETATM    8  C7  UNL     1      -0.845   1.067  -0.226  1.00  0.00     0.731 A 
HETATM    9  N7  UNL     1      -0.900   2.445  -0.203  1.00  0.00    -0.020 N 
ATOM     10  H7  UNL     1      -0.073   3.043  -0.194  1.00  0.00     0.203 HD
HETATM   11  C20 UNL     1      -2.188   2.928  -0.193  1.00  0.00     0.707 A 
HETATM   12  N9  UNL     1      -3.092   1.989  -0.228  1.00  0.00    -0.021 N 
ATOM     13  H9  UNL     1      -3.996   2.462  -0.229  1.00  0.00     0.203 HD
ENDROOT
BRANCH   8  14
HETATM   14  N6  UNL     1       0.305   0.597   0.249  1.00  0.00    -0.095 N 
ATOM     15  H6  UNL     1       1.022   1.321   0.207  1.00  0.00     0.213 HD
BRANCH  14  16
HETATM   16  O2  UNL     1       0.769  -0.421   0.716  1.00  0.00    -0.264 OA
BRANCH  16  17
HETATM   17  C8  UNL     1       1.568  -1.474   0.113  1.00  0.00     0.228 C 
BRANCH  17  18
HETATM   18  C9  UNL     1       2.884  -0.797   0.152  1.00  0.00     0.196 C 
BRANCH  18  19
HETATM   19  O3  UNL     1       4.021  -1.305  -0.231  1.00  0.00    -0.388 OA
BRANCH  19  20
HETATM   20  C10 UNL     1       4.962  -0.157   0.056  1.00  0.00     0.177 C 
BRANCH  20  21
HETATM   21  C11 UNL     1       6.268  -0.796  -0.091  1.00  0.00    -0.015 C 
HETATM   22  C12 UNL     1       6.519  -1.356  -1.469  1.00  0.00     0.017 C 
HETATM   23  C13 UNL     1       8.052  -1.302  -1.456  1.00  0.00    -0.013 C 
HETATM   24  C14 UNL     1       8.495  -2.314  -0.426  1.00  0.00     0.009 C 
HETATM   25  C18 UNL     1       8.260   0.141  -0.964  1.00  0.00     0.010 C 
HETATM   26  C15 UNL     1       7.897  -2.078   0.927  1.00  0.00    -0.013 C 
HETATM   27  C16 UNL     1       8.212  -0.632   1.346  1.00  0.00     0.010 C 
HETATM   28  C19 UNL     1       6.386  -2.013   0.864  1.00  0.00     0.017 C 
HETATM   29  C17 UNL     1       7.417   0.094   0.286  1.00  0.00    -0.003 C 
ENDBRANCH  20  21
ENDBRANCH  19  20
ENDBRANCH  18  19
ENDBRANCH  17  18
ENDBRANCH  16  17
ENDBRANCH  14  16
ENDBRANCH   8  14
BRANCH  11  30
HETATM   30  N8  UNL     1      -2.381   4.170  -0.179  1.00  0.00    -0.220 N 
ATOM     31  H8  UNL     1      -1.557   4.771  -0.173  1.00  0.00     0.178 HD
BRANCH  30  32
HETATM   32  C21 UNL     1      -3.663   4.812  -0.171  1.00  0.00     0.099 C 
HETATM   33  C22 UNL     1      -3.573   5.991  -1.132  1.00  0.00     0.026 C 
HETATM   34  C23 UNL     1      -3.151   7.106  -0.236  1.00  0.00     0.002 C 
HETATM   35  C24 UNL     1      -3.968   6.887   1.026  1.00  0.00     0.002 C 
HETATM   36  C25 UNL     1      -3.818   5.414   1.246  1.00  0.00     0.026 C 
ENDBRANCH  30  32
ENDBRANCH  11  30
BRANCH   1  37
HETATM   37  C4  UNL     1      -5.512  -1.701  -1.374  1.00  0.00     0.105 C 
BRANCH  37  38
HETATM   38  C3  UNL     1      -5.689  -3.072  -0.717  1.00  0.00     0.029 C 
BRANCH  38  39
HETATM   39  C2  UNL     1      -6.655  -3.041   0.444  1.00  0.00     0.122 C 
BRANCH  39  40
HETATM   40  N3  UNL     1      -6.648  -4.424   0.948  1.00  0.00    -0.365 N 
HETATM   41  C1  UNL     1      -7.153  -5.523   0.173  1.00  0.00     0.181 C 
HETATM   42  N1  UNL     1      -6.537  -5.887  -0.853  1.00  0.00    -0.374 N 
HETATM   43  N2  UNL     1      -8.286  -6.187   0.696  1.00  0.00    -0.064 NA
ATOM     44  H12 UNL     1      -6.896  -6.667  -1.403  1.00  0.00     0.158 HD
ATOM     45  H11 UNL     1      -5.719  -5.408  -1.230  1.00  0.00     0.158 HD
ATOM     46  H3  UNL     1      -6.272  -4.608   1.878  1.00  0.00     0.162 HD
ENDBRANCH  39  40
ENDBRANCH  38  39
ENDBRANCH  37  38
ENDBRANCH   1  37
TORSDOF 13
