REMARK  7 active torsions:
REMARK  status: ('A' for Active; 'I' for Inactive)
REMARK    1  A    between atoms: C2_5  and  O2_6 
REMARK    2  A    between atoms: C3_8  and  C4_9 
REMARK    3  A    between atoms: N2_10  and  N3_12 
REMARK    4  A    between atoms: C6_17  and  C7_18 
REMARK    5  A    between atoms: C8_27  and  N9_28 
REMARK    6  A    between atoms: N9_28  and  O3_29 
REMARK    7  A    between atoms: N9_28  and  O4_31 
ROOT
HETATM    1  N3  UNL     1       1.200   0.652  -0.567  1.00  0.00    -0.280 N 
ATOM      2  H3  UNL     1       1.792   0.329  -1.332  1.00  0.00     0.189 HD
HETATM    3  C5  UNL     1      -0.083   0.375  -0.600  1.00  0.00     0.165 A 
HETATM    4  N4  UNL     1      -1.024   0.693   0.277  1.00  0.00    -0.330 N 
ATOM      5  H4  UNL     1      -0.792   1.225   1.116  1.00  0.00     0.168 HD
HETATM    6  C6  UNL     1      -2.262   0.312   0.048  1.00  0.00     0.115 A 
HETATM    7  C8  UNL     1      -2.493  -0.399  -1.101  1.00  0.00     0.140 A 
HETATM    8  S1  UNL     1      -0.939  -0.485  -1.791  1.00  0.00    -0.034 SA
ENDROOT
BRANCH   1   9
HETATM    9  N2  UNL     1       1.774   1.360   0.459  1.00  0.00    -0.307 N 
HETATM   10  C4  UNL     1       3.010   1.186   0.814  1.00  0.00     0.149 C 
ATOM     11  H2  UNL     1       1.210   2.047   0.960  1.00  0.00     0.186 HD
BRANCH  10  12
HETATM   12  C3  UNL     1       3.843   0.216   0.120  1.00  0.00     0.148 A 
HETATM   13  C2  UNL     1       5.159  -0.056   0.403  1.00  0.00     0.180 A 
HETATM   14  N1  UNL     1       5.594  -1.020  -0.459  1.00  0.00    -0.280 N 
HETATM   15  C1  UNL     1       4.529  -1.302  -1.236  1.00  0.00     0.372 A 
ATOM     16  H1  UNL     1       6.524  -1.437  -0.505  1.00  0.00     0.173 HD
HETATM   17  O1  UNL     1       4.533  -2.142  -2.152  1.00  0.00    -0.238 OA
HETATM   18  O5  UNL     1       3.504  -0.550  -0.866  1.00  0.00    -0.255 OA
BRANCH  13  19
HETATM   19  O2  UNL     1       5.974   0.506   1.375  1.00  0.00    -0.344 OA
ATOM     20  H2  UNL     1       5.671   1.177   1.975  1.00  0.00     0.219 HD
ENDBRANCH  13  19
ENDBRANCH  10  12
ENDBRANCH   1   9
BRANCH   6  21
HETATM   21  C7  UNL     1      -3.394   0.617   0.971  1.00  0.00     0.167 A 
HETATM   22  N5  UNL     1      -3.320   1.294   2.117  1.00  0.00    -0.267 N 
HETATM   23  N6  UNL     1      -4.529   1.351   2.638  1.00  0.00    -0.227 N 
ATOM     24  H5  UNL     1      -2.475   1.698   2.520  1.00  0.00     0.190 HD
HETATM   25  N7  UNL     1      -5.346   0.723   1.835  1.00  0.00    -0.227 N 
ATOM     26  H6  UNL     1      -4.783   1.806   3.515  1.00  0.00     0.210 HD
HETATM   27  N8  UNL     1      -4.671   0.270   0.816  1.00  0.00    -0.267 N 
ATOM     28  H7  UNL     1      -6.349   0.606   1.982  1.00  0.00     0.210 HD
ATOM     29  H8  UNL     1      -5.055  -0.260   0.033  1.00  0.00     0.190 HD
ENDBRANCH   6  21
BRANCH   7  30
HETATM   30  N9  UNL     1      -3.712  -0.951  -1.632  1.00  0.00    -0.027 NA
BRANCH  30  31
HETATM   31  O3  UNL     1      -3.421  -1.348  -2.915  1.00  0.00    -0.284 OA
ATOM     32  H3  UNL     1      -4.225  -1.712  -3.265  1.00  0.00     0.240 HD
ENDBRANCH  30  31
BRANCH  30  33
HETATM   33  O4  UNL     1      -4.054  -2.066  -0.966  1.00  0.00    -0.284 OA
ATOM     34  H4  UNL     1      -4.858  -2.430  -1.316  1.00  0.00     0.240 HD
ENDBRANCH  30  33
ENDBRANCH   7  30
TORSDOF 7
