REMARK  4 active torsions:
REMARK  status: ('A' for Active; 'I' for Inactive)
REMARK    1  A    between atoms: C5_7  and  N2_8 
REMARK    2  A    between atoms: N2_8  and  C6_10 
REMARK    3  A    between atoms: C6_10  and  C7_11 
REMARK    4  A    between atoms: C10_14  and  C11_15 
ROOT
HETATM    1  C11 UNL     1       5.625  -0.594   0.271  1.00  0.00     0.162 C 
HETATM    2  C12 UNL     1       6.232   0.712   0.001  1.00  0.00     0.063 C 
HETATM    3  N3  UNL     1       6.718   1.742  -0.226  1.00  0.00    -0.197 NA
ENDROOT
BRANCH   1   4
HETATM    4  C10 UNL     1       4.151  -0.421   0.204  1.00  0.00    -0.045 A 
HETATM    5  C9  UNL     1       3.416  -0.568  -0.929  1.00  0.00     0.009 A 
HETATM    6  C8  UNL     1       2.036  -0.396  -0.943  1.00  0.00     0.009 A 
HETATM    7  C7  UNL     1       1.352  -0.065   0.203  1.00  0.00    -0.041 A 
HETATM    8  C14 UNL     1       2.130   0.081   1.355  1.00  0.00     0.009 A 
HETATM    9  C13 UNL     1       3.495  -0.089   1.370  1.00  0.00     0.009 A 
BRANCH   7  10
HETATM   10  C6  UNL     1      -0.114   0.132   0.279  1.00  0.00     0.159 C 
BRANCH  10  11
HETATM   11  N2  UNL     1      -0.850  -0.555  -0.742  1.00  0.00    -0.372 N 
ATOM     12  H2  UNL     1      -0.362  -1.130  -1.428  1.00  0.00     0.161 HD
BRANCH  11  13
HETATM   13  C5  UNL     1      -2.283  -0.427  -0.792  1.00  0.00     0.101 A 
HETATM   14  N1  UNL     1      -3.010  -1.054  -1.732  1.00  0.00    -0.353 N 
HETATM   15  C4  UNL     1      -4.349  -0.956  -1.806  1.00  0.00     0.090 A 
ATOM     16  H1  UNL     1      -2.525  -1.630  -2.420  1.00  0.00     0.166 HD
HETATM   17  C3  UNL     1      -5.022  -0.181  -0.884  1.00  0.00     0.024 A 
HETATM   18  C2  UNL     1      -4.338   0.482   0.098  1.00  0.00    -0.057 A 
HETATM   19  C1  UNL     1      -4.995   1.328   1.118  1.00  0.00     0.048 C 
HETATM   20  C15 UNL     1      -2.960   0.345   0.127  1.00  0.00     0.054 A 
ENDBRANCH  11  13
ENDBRANCH  10  11
ENDBRANCH   7  10
ENDBRANCH   1   4
TORSDOF 4
