REMARK  5 active torsions:
REMARK  status: ('A' for Active; 'I' for Inactive)
REMARK    1  A    between atoms: O1_1  and  C1_3 
REMARK    2  A    between atoms: C1_3  and  C2_4 
REMARK    3  A    between atoms: C6_10  and  C7_11 
REMARK    4  A    between atoms: C7_11  and  S1_12 
REMARK    5  A    between atoms: S1_12  and  C8_13 
ROOT
HETATM    1  C2  UNL     1      -2.736   0.530  -0.113  1.00  0.00     0.040 A 
HETATM    2  N1  UNL     1      -4.034   0.259  -0.114  1.00  0.00    -0.367 N 
ATOM      3  H1  UNL     1      -4.693   0.989  -0.386  1.00  0.00     0.165 HD
HETATM    4  C3  UNL     1      -4.521  -0.989   0.244  1.00  0.00     0.088 A 
HETATM    5  C4  UNL     1      -3.631  -2.012   0.628  1.00  0.00     0.018 A 
HETATM    6  C5  UNL     1      -2.294  -1.696   0.610  1.00  0.00     0.011 A 
HETATM    7  C6  UNL     1      -1.822  -0.477   0.249  1.00  0.00    -0.024 A 
ENDROOT
BRANCH   7   8
HETATM    8  C7  UNL     1      -0.398  -0.190  -0.096  1.00  0.00     0.120 C 
BRANCH   8   9
HETATM    9  S1  UNL     1       0.817  -1.342   0.434  1.00  0.00    -0.125 SA
BRANCH   9  10
HETATM   10  C8  UNL     1       2.446  -0.514   0.128  1.00  0.00     0.000 A 
HETATM   11  C9  UNL     1       3.152  -0.165   1.217  1.00  0.00     0.018 A 
HETATM   12  C10 UNL     1       4.431   0.397   1.061  1.00  0.00     0.001 A 
HETATM   13  C11 UNL     1       4.924   0.538  -0.229  1.00  0.00     0.000 A 
HETATM   14  C12 UNL     1       4.167   0.160  -1.335  1.00  0.00     0.001 A 
HETATM   15  C13 UNL     1       2.905  -0.361  -1.135  1.00  0.00     0.018 A 
ENDBRANCH   9  10
ENDBRANCH   8   9
ENDBRANCH   7   8
BRANCH   1  16
HETATM   16  C1  UNL     1      -2.130   1.873  -0.337  1.00  0.00     0.221 C 
BRANCH  16  17
HETATM   17  O1  UNL     1      -2.572   2.493  -1.455  1.00  0.00    -0.395 OA
ATOM     18  H1  UNL     1      -2.186   3.349  -1.598  1.00  0.00     0.209 HD
ENDBRANCH  16  17
ENDBRANCH   1  16
TORSDOF 5
