REMARK  4 active torsions:
REMARK  status: ('A' for Active; 'I' for Inactive)
REMARK    1  A    between atoms: N1_1  and  N2_4 
REMARK    2  A    between atoms: N2_4  and  N3_5 
REMARK    3  A    between atoms: N3_5  and  C1_7 
REMARK    4  A    between atoms: N5_12  and  C4_13 
ROOT
HETATM    1  C1  UNL     1       0.278  -0.041   0.439  1.00  0.00     0.695 C 
HETATM    2  N4  UNL     1       0.142  -1.257   0.912  1.00  0.00    -0.223 N 
ATOM      3  H4  UNL     1       0.865  -1.764   1.422  1.00  0.00     0.177 HD
HETATM    4  C2  UNL     1      -1.159  -1.776   0.615  1.00  0.00     0.159 C 
HETATM    5  C3  UNL     1      -1.646  -0.877  -0.503  1.00  0.00     0.170 C 
HETATM    6  N5  UNL     1      -0.928   0.351  -0.215  1.00  0.00    -0.157 N 
ENDROOT
BRANCH   1   7
HETATM    7  N3  UNL     1       1.417   0.798   0.533  1.00  0.00    -0.116 N 
ATOM      8  H3  UNL     1       1.351   1.689   1.026  1.00  0.00     0.203 HD
BRANCH   7   9
HETATM    9  N2  UNL     1       2.624   0.414  -0.043  1.00  0.00    -0.015 NA
BRANCH   9  10
HETATM   10  N1  UNL     1       2.756   0.878  -1.361  1.00  0.00    -0.328 N 
ATOM     11  H12 UNL     1       2.039   1.433  -1.829  1.00  0.00     0.174 HD
ATOM     12  H11 UNL     1       3.641   0.597  -1.783  1.00  0.00     0.174 HD
ENDBRANCH   9  10
ENDBRANCH   7   9
ENDBRANCH   1   7
BRANCH   6  13
HETATM   13  C4  UNL     1      -1.296   1.684  -0.499  1.00  0.00     0.370 C 
HETATM   14  O1  UNL     1      -0.565   2.656  -0.186  1.00  0.00    -0.283 OA
ENDBRANCH   6  13
TORSDOF 4
