REMARK  8 active torsions:
REMARK  status: ('A' for Active; 'I' for Inactive)
REMARK    1  A    between atoms: C2_2  and  C3_3 
REMARK    2  A    between atoms: C3_3  and  N1_4 
REMARK    3  A    between atoms: N1_4  and  C4_5 
REMARK    4  A    between atoms: N1_4  and  C6_7 
REMARK    5  A    between atoms: C6_7  and  C7_8 
REMARK    6  A    between atoms: C7_8  and  C8_9 
REMARK    7  A    between atoms: C8_9  and  N2_10 
REMARK    8  A    between atoms: N3_13  and  N4_14 
ROOT
HETATM    1  N2  UNL     1      -0.483   1.002  -0.217  1.00  0.00    -0.331 N 
HETATM    2  C9  UNL     1      -1.144   1.973  -1.030  1.00  0.00     0.149 C 
HETATM    3  C10 UNL     1      -2.526   2.070  -0.449  1.00  0.00     0.174 C 
HETATM    4  N3  UNL     1      -2.754   0.713   0.063  1.00  0.00    -0.239 N 
HETATM    5  C15 UNL     1      -1.477   0.291   0.500  1.00  0.00     0.339 C 
HETATM    6  O2  UNL     1      -1.318  -0.585   1.395  1.00  0.00    -0.245 OA
ENDROOT
BRANCH   1   7
HETATM    7  C8  UNL     1       0.973   0.785  -0.144  1.00  0.00     0.133 C 
BRANCH   7   8
HETATM    8  C7  UNL     1       1.421  -0.195  -1.156  1.00  0.00     0.065 C 
BRANCH   8   9
HETATM    9  C6  UNL     1       2.863  -0.476  -1.340  1.00  0.00     0.065 C 
BRANCH   9  10
HETATM   10  N1  UNL     1       3.625  -0.934  -0.277  1.00  0.00    -0.370 N 
BRANCH  10  11
HETATM   11  C3  UNL     1       4.050  -0.127   0.784  1.00  0.00     0.089 C 
BRANCH  11  12
HETATM   12  C2  UNL     1       5.297   0.628   0.520  1.00  0.00     0.007 C 
HETATM   13  C1  UNL     1       5.462   1.884   0.551  1.00  0.00     0.012 C 
ENDBRANCH  11  12
ENDBRANCH  10  11
BRANCH  10  14
HETATM   14  C4  UNL     1       4.463  -2.053  -0.593  1.00  0.00     0.123 C 
HETATM   15  C5  UNL     1       4.415  -3.074   0.487  1.00  0.00     0.027 C 
ENDBRANCH  10  14
ENDBRANCH   9  10
ENDBRANCH   8   9
ENDBRANCH   7   8
ENDBRANCH   1   7
BRANCH   4  16
HETATM   16  N4  UNL     1      -3.961   0.123   0.060  1.00  0.00    -0.297 N 
HETATM   17  C11 UNL     1      -5.119   0.885  -0.182  1.00  0.00     0.109 C 
HETATM   18  C12 UNL     1      -6.218   0.712   0.851  1.00  0.00     0.213 C 
HETATM   19  O1  UNL     1      -6.458  -0.608   1.166  1.00  0.00    -0.384 OA
HETATM   20  C13 UNL     1      -5.270  -1.102   1.738  1.00  0.00     0.189 C 
HETATM   21  C14 UNL     1      -4.208  -1.124   0.622  1.00  0.00     0.174 C 
ENDBRANCH   4  16
TORSDOF 8
