REMARK  14 active torsions:
REMARK  status: ('A' for Active; 'I' for Inactive)
REMARK    1  A    between atoms: C2_2  and  C3_3 
REMARK    2  A    between atoms: C3_3  and  C4_4 
REMARK    3  A    between atoms: C3_3  and  N2_14 
REMARK    4  A    between atoms: C4_4  and  N1_5 
REMARK    5  A    between atoms: C4_4  and  C7_10 
REMARK       I    between atoms: N1_5  and  C5_7 
REMARK    6  A    between atoms: C7_10  and  O2_12 
REMARK    7  A    between atoms: C11_17  and  C13_19 
REMARK    8  A    between atoms: C13_19  and  C14_20 
REMARK       I    between atoms: C14_20  and  N3_22 
REMARK    9  A    between atoms: N3_22  and  C15_24 
REMARK   10  A    between atoms: C15_24  and  O4_25 
REMARK   11  A    between atoms: C15_24  and  C28_40 
REMARK   12  A    between atoms: O4_25  and  C16_26 
REMARK   13  A    between atoms: C16_26  and  C17_27 
REMARK   14  A    between atoms: C17_27  and  N4_28 
ROOT
HETATM    1  C14 UNL     1      -0.780   0.730  -1.184  1.00  0.00     0.220 C 
HETATM    2  O3  UNL     1      -0.641  -0.341  -1.796  1.00  0.00    -0.274 OA
HETATM    3  N3  UNL     1       0.251   1.701  -1.233  1.00  0.00    -0.334 N 
ATOM      4  H3  UNL     1       0.127   2.579  -0.728  1.00  0.00     0.165 HD
ENDROOT
BRANCH   1   5
HETATM    5  C13 UNL     1      -2.004   1.008  -0.420  1.00  0.00     0.113 C 
BRANCH   5   6
HETATM    6  C11 UNL     1      -3.173   0.145  -0.722  1.00  0.00    -0.018 C 
HETATM    7  C10 UNL     1      -2.931  -1.297  -0.451  1.00  0.00     0.031 C 
HETATM    8  C9  UNL     1      -4.417  -1.806  -0.315  1.00  0.00     0.123 C 
HETATM    9  N2  UNL     1      -4.965  -0.821   0.471  1.00  0.00    -0.385 N 
HETATM   10  C31 UNL     1      -4.353   0.440   0.189  1.00  0.00     0.132 C 
HETATM   11  C12 UNL     1      -3.599   0.284  -2.188  1.00  0.00     0.017 C 
BRANCH   9  12
HETATM   12  C3  UNL     1      -6.188  -0.831   1.118  1.00  0.00     0.009 C 
BRANCH  12  13
HETATM   13  C2  UNL     1      -6.472  -1.864   2.162  1.00  0.00     0.050 C 
HETATM   14  C1  UNL     1      -5.177  -2.260   2.892  1.00  0.00     0.011 C 
ENDBRANCH  12  13
BRANCH  12  15
HETATM   15  C4  UNL     1      -7.334  -0.333   0.328  1.00  0.00     0.158 C 
BRANCH  15  16
HETATM   16  N1  UNL     1      -8.324   0.365   1.155  1.00  0.00    -0.349 N 
HETATM   17  C5  UNL     1      -8.631   1.715   1.060  1.00  0.00     0.214 C 
HETATM   18  C6  UNL     1      -9.640   2.397   1.896  1.00  0.00     0.117 C 
HETATM   19  O1  UNL     1      -8.017   2.431   0.205  1.00  0.00    -0.274 OA
ATOM     20  H1  UNL     1      -8.825  -0.184   1.853  1.00  0.00     0.163 HD
ENDBRANCH  15  16
BRANCH  15  21
HETATM   21  C7  UNL     1      -8.130  -1.318  -0.470  1.00  0.00     0.142 C 
HETATM   22  C8  UNL     1      -9.202  -2.042   0.272  1.00  0.00     0.042 C 
BRANCH  21  23
HETATM   23  O2  UNL     1      -7.438  -2.146  -1.306  1.00  0.00    -0.394 OA
ATOM     24  H2  UNL     1      -7.943  -2.771  -1.812  1.00  0.00     0.210 HD
ENDBRANCH  21  23
ENDBRANCH  15  21
ENDBRANCH  12  15
ENDBRANCH   9  12
ENDBRANCH   5   6
ENDBRANCH   1   5
BRANCH   3  25
HETATM   25  C15 UNL     1       1.493   1.483  -1.988  1.00  0.00     0.226 C 
BRANCH  25  26
HETATM   26  O4  UNL     1       2.394   2.414  -1.663  1.00  0.00    -0.365 OA
BRANCH  26  27
HETATM   27  C16 UNL     1       3.664   2.135  -1.330  1.00  0.00     0.200 C 
BRANCH  27  28
HETATM   28  C17 UNL     1       3.936   1.332  -0.110  1.00  0.00     0.298 C 
BRANCH  28  29
HETATM   29  N4  UNL     1       5.388   1.172   0.005  1.00  0.00     0.091 N 
HETATM   30  C18 UNL     1       6.026   2.436   0.285  1.00  0.00     0.272 C 
HETATM   31  C19 UNL     1       7.436   2.192   0.758  1.00  0.00     0.031 C 
HETATM   32  C20 UNL     1       7.925   0.874   0.200  1.00  0.00     0.013 C 
HETATM   33  C21 UNL     1       7.137  -0.224   0.897  1.00  0.00    -0.011 C 
HETATM   34  C22 UNL     1       7.162  -1.460   0.031  1.00  0.00     0.041 C 
HETATM   35  C26 UNL     1       7.789  -0.547   2.202  1.00  0.00     0.041 C 
HETATM   36  C27 UNL     1       5.687   0.203   1.057  1.00  0.00     0.282 C 
HETATM   37  C23 UNL     1       7.374  -2.720   0.849  1.00  0.00     0.272 C 
HETATM   38  N5  UNL     1       8.687  -2.704   1.451  1.00  0.00     0.084 N 
HETATM   39  C24 UNL     1       8.792  -3.704   2.498  1.00  0.00     0.309 C 
HETATM   40  C25 UNL     1       9.032  -1.415   2.009  1.00  0.00     0.272 C 
ENDBRANCH  28  29
ENDBRANCH  27  28
ENDBRANCH  26  27
ENDBRANCH  25  26
BRANCH  25  41
HETATM   41  C28 UNL     1       1.066   1.672  -3.494  1.00  0.00     0.026 C 
HETATM   42  C29 UNL     1       0.546   3.063  -3.635  1.00  0.00     0.014 C 
HETATM   43  C30 UNL     1       2.226   1.352  -4.389  1.00  0.00     0.014 C 
ENDBRANCH  25  41
ENDBRANCH   3  25
TORSDOF 14
