REMARK  11 active torsions:
REMARK  status: ('A' for Active; 'I' for Inactive)
REMARK    1  A    between atoms: C2_2  and  C4_4 
REMARK    2  A    between atoms: C2_2  and  N2_17 
REMARK    3  A    between atoms: C4_4  and  C5_5 
REMARK    4  A    between atoms: C5_5  and  C6_6 
REMARK    5  A    between atoms: C6_6  and  C7_7 
REMARK    6  A    between atoms: C7_7  and  C8_9 
REMARK    7  A    between atoms: N2_17  and  C11_19 
REMARK    8  A    between atoms: C13_22  and  C14_23 
REMARK    9  A    between atoms: C14_23  and  C15_25 
REMARK   10  A    between atoms: C15_25  and  S2_26 
REMARK   11  A    between atoms: S2_26  and  C16_27 
ROOT
HETATM    1  C1  UNL     1      -1.167   1.678   0.637  1.00  0.00     0.038 C 
HETATM    2  C2  UNL     1      -1.173   0.456  -0.255  1.00  0.00     0.024 C 
HETATM    3  C3  UNL     1      -1.586   0.812  -1.675  1.00  0.00     0.038 C 
ENDROOT
BRANCH   2   4
HETATM    4  C4  UNL     1      -2.312  -0.438   0.257  1.00  0.00     0.030 C 
BRANCH   4   5
HETATM    5  C5  UNL     1      -3.619   0.313   0.155  1.00  0.00     0.010 C 
BRANCH   5   6
HETATM    6  C6  UNL     1      -4.780  -0.519   0.649  1.00  0.00     0.081 C 
BRANCH   6   7
HETATM    7  C7  UNL     1      -6.019   0.281   0.509  1.00  0.00     0.160 C 
HETATM    8  O1  UNL     1      -5.969   1.400   0.050  1.00  0.00    -0.295 OA
BRANCH   7   9
HETATM    9  C8  UNL     1      -7.360  -0.246   0.919  1.00  0.00     0.255 C 
HETATM   10  C9  UNL     1      -7.732  -1.494   0.137  1.00  0.00     0.277 C 
HETATM   11  N1  UNL     1      -9.170  -1.569   0.006  1.00  0.00    -0.048 N 
HETATM   12  C10 UNL     1      -9.623  -0.403  -0.767  1.00  0.00     0.441 C 
ATOM     13  H12 UNL     1      -9.483  -2.453  -0.396  1.00  0.00     0.279 HD
ATOM     14  H11 UNL     1      -9.643  -1.652   0.906  1.00  0.00     0.279 HD
HETATM   15  O2  UNL     1      -8.723   0.624  -0.568  1.00  0.00    -0.213 OA
HETATM   16  O3  UNL     1      -8.356   0.698   0.679  1.00  0.00    -0.225 OA
ENDBRANCH   7   9
ENDBRANCH   6   7
ENDBRANCH   5   6
ENDBRANCH   4   5
ENDBRANCH   2   4
BRANCH   2  17
HETATM   17  N2  UNL     1       0.052  -0.258  -0.197  1.00  0.00    -0.367 N 
ATOM     18  H2  UNL     1       0.037  -1.220   0.141  1.00  0.00     0.162 HD
BRANCH  17  19
HETATM   19  C11 UNL     1       1.318   0.311  -0.593  1.00  0.00     0.109 A 
HETATM   20  C12 UNL     1       1.407   1.601  -1.056  1.00  0.00     0.100 A 
HETATM   21  S1  UNL     1       3.088   1.734  -1.371  1.00  0.00    -0.077 SA
HETATM   22  C13 UNL     1       3.555   0.160  -0.898  1.00  0.00     0.122 A 
HETATM   23  N3  UNL     1       2.414  -0.376  -0.530  1.00  0.00    -0.334 N 
ATOM     24  H3  UNL     1       2.391  -1.338  -0.193  1.00  0.00     0.168 HD
BRANCH  22  25
HETATM   25  C14 UNL     1       4.898  -0.411  -0.916  1.00  0.00     0.192 C 
HETATM   26  O4  UNL     1       5.072  -1.573  -0.542  1.00  0.00    -0.289 OA
BRANCH  25  27
HETATM   27  C15 UNL     1       5.999   0.434  -1.384  1.00  0.00     0.160 C 
BRANCH  27  28
HETATM   28  S2  UNL     1       7.627  -0.246  -1.283  1.00  0.00    -0.152 SA
BRANCH  28  29
HETATM   29  C16 UNL     1       8.251  -0.381   0.374  1.00  0.00    -0.003 C 
HETATM   30  C17 UNL     1       9.692  -0.927   0.274  1.00  0.00     0.026 C 
HETATM   31  C18 UNL     1       7.537  -1.313   1.293  1.00  0.00     0.026 C 
HETATM   32  C19 UNL     1       8.405   1.008   0.967  1.00  0.00     0.026 C 
ENDBRANCH  28  29
ENDBRANCH  27  28
ENDBRANCH  25  27
ENDBRANCH  22  25
ENDBRANCH  17  19
ENDBRANCH   2  17
TORSDOF 11
