REMARK  6 active torsions:
REMARK  status: ('A' for Active; 'I' for Inactive)
REMARK    1  A    between atoms: N1_1  and  C1_4 
REMARK    2  A    between atoms: N4_14  and  C6_16 
REMARK    3  A    between atoms: C6_16  and  C7_17 
REMARK    4  A    between atoms: C7_17  and  S1_18 
REMARK    5  A    between atoms: S1_18  and  C8_19 
REMARK    6  A    between atoms: C9_24  and  N7_25 
ROOT
HETATM    1  C1  UNL     1      -3.814   1.703   0.859  1.00  0.00     0.680 A 
HETATM    2  N2  UNL     1      -4.176   0.643   0.116  1.00  0.00    -0.176 N 
ATOM      3  H2  UNL     1      -5.151   0.531  -0.163  1.00  0.00     0.186 HD
HETATM    4  C2  UNL     1      -3.253  -0.283  -0.268  1.00  0.00     0.142 A 
HETATM    5  C3  UNL     1      -1.945  -0.108   0.121  1.00  0.00     0.108 A 
HETATM    6  C4  UNL     1      -1.608   1.000   0.888  1.00  0.00     0.276 A 
HETATM    7  O1  UNL     1      -0.396   1.100   1.210  1.00  0.00    -0.267 OA
HETATM    8  N3  UNL     1      -2.542   1.881   1.242  1.00  0.00    -0.155 N 
ATOM      9  H3  UNL     1      -2.289   2.693   1.806  1.00  0.00     0.187 HD
HETATM   10  C5  UNL     1      -0.930  -1.077  -0.270  1.00  0.00     0.108 A 
HETATM   11  N4  UNL     1       0.259  -0.914   0.086  1.00  0.00    -0.364 N 
ATOM     12  H4  UNL     1       0.399  -0.072   0.644  1.00  0.00     0.165 HD
HETATM   13  C10 UNL     1      -1.350  -2.208  -1.069  1.00  0.00     0.267 A 
HETATM   14  O3  UNL     1      -0.587  -3.109  -1.472  1.00  0.00    -0.280 OA
HETATM   15  C11 UNL     1      -2.770  -2.366  -1.471  1.00  0.00     0.299 A 
HETATM   16  O4  UNL     1      -3.155  -3.341  -2.165  1.00  0.00    -0.264 OA
HETATM   17  N8  UNL     1      -3.704  -1.384  -1.055  1.00  0.00    -0.305 N 
ATOM     18  H8  UNL     1      -4.687  -1.464  -1.315  1.00  0.00     0.170 HD
ENDROOT
BRANCH  11  19
HETATM   19  C6  UNL     1       1.442  -1.643  -0.119  1.00  0.00     0.072 C 
BRANCH  19  20
HETATM   20  C7  UNL     1       2.192  -1.319  -1.374  1.00  0.00     0.125 C 
BRANCH  20  21
HETATM   21  S1  UNL     1       2.658   0.429  -1.341  1.00  0.00    -0.102 SA
BRANCH  21  22
HETATM   22  C8  UNL     1       3.850   0.702  -0.069  1.00  0.00     0.136 A 
HETATM   23  N5  UNL     1       4.394  -0.177   0.784  1.00  0.00    -0.268 N 
HETATM   24  N6  UNL     1       5.249   0.453   1.579  1.00  0.00     0.029 NA
ATOM     25  H5  UNL     1       4.184  -1.175   0.817  1.00  0.00     0.185 HD
HETATM   26  O2  UNL     1       5.255   1.719   1.242  1.00  0.00    -0.203 OA
HETATM   27  C9  UNL     1       4.430   1.918   0.257  1.00  0.00     0.196 A 
BRANCH  27  28
HETATM   28  N7  UNL     1       4.201   3.038  -0.305  1.00  0.00    -0.376 N 
ATOM     29  H72 UNL     1       3.554   3.194  -1.078  1.00  0.00     0.158 HD
ATOM     30  H71 UNL     1       4.628   3.933  -0.065  1.00  0.00     0.158 HD
ENDBRANCH  27  28
ENDBRANCH  21  22
ENDBRANCH  20  21
ENDBRANCH  19  20
ENDBRANCH  11  19
BRANCH   1  31
HETATM   31  N1  UNL     1      -4.716   2.551   1.198  1.00  0.00    -0.234 N 
ATOM     32  H12 UNL     1      -5.684   2.416   0.907  1.00  0.00     0.174 HD
ATOM     33  H11 UNL     1      -4.441   3.355   1.762  1.00  0.00     0.174 HD
ENDBRANCH   1  31
TORSDOF 6
