REMARK  6 active torsions:
REMARK  status: ('A' for Active; 'I' for Inactive)
REMARK    1  A    between atoms: C2_2  and  S1_3 
REMARK    2  A    between atoms: S1_3  and  C3_4 
REMARK    3  A    between atoms: C3_4  and  C4_5 
REMARK       I    between atoms: C4_5  and  N1_7 
REMARK    4  A    between atoms: N1_7  and  C5_9 
REMARK    5  A    between atoms: N4_15  and  C7_17 
REMARK    6  A    between atoms: C15_25  and  O2_26 
ROOT
HETATM    1  C5  UNL     1       2.687   0.162  -1.830  1.00  0.00     0.169 A 
HETATM    2  N2  UNL     1       2.094  -0.608  -0.920  1.00  0.00    -0.277 N 
ATOM      3  H2  UNL     1       2.632  -1.290  -0.386  1.00  0.00     0.189 HD
HETATM    4  N3  UNL     1       0.826  -0.475  -0.727  1.00  0.00    -0.278 N 
ATOM      5  H3  UNL     1       0.350  -1.054  -0.036  1.00  0.00     0.189 HD
HETATM    6  C6  UNL     1       0.146   0.416  -1.429  1.00  0.00     0.163 A 
HETATM    7  N4  UNL     1      -1.081   0.782  -1.474  1.00  0.00    -0.360 N 
ATOM      8  H4  UNL     1      -1.261   1.521  -2.153  1.00  0.00     0.162 HD
HETATM    9  S2  UNL     1       1.389   1.095  -2.415  1.00  0.00    -0.015 SA
ENDROOT
BRANCH   7  10
HETATM   10  C7  UNL     1      -2.220   0.373  -0.781  1.00  0.00     0.039 C 
HETATM   11  C8  UNL     1      -3.450   1.131  -1.267  1.00  0.00     0.036 C 
HETATM   12  C9  UNL     1      -4.730   0.630  -0.719  1.00  0.00    -0.009 C 
HETATM   13  C10 UNL     1      -5.174   1.617   0.372  1.00  0.00     0.005 C 
HETATM   14  C16 UNL     1      -4.768  -0.736  -0.180  1.00  0.00     0.042 C 
HETATM   15  C11 UNL     1      -4.312   1.454   1.597  1.00  0.00     0.001 C 
HETATM   16  C12 UNL     1      -2.860   1.607   1.332  1.00  0.00     0.007 C 
HETATM   17  C13 UNL     1      -2.171   0.427   0.721  1.00  0.00     0.016 C 
HETATM   18  C14 UNL     1      -2.659  -0.897   1.188  1.00  0.00     0.045 C 
HETATM   19  C15 UNL     1      -3.460  -1.408   0.045  1.00  0.00     0.061 C 
HETATM   20  C17 UNL     1      -2.537  -1.073  -1.137  1.00  0.00     0.069 C 
BRANCH  19  21
HETATM   21  O2  UNL     1      -3.654  -2.776   0.047  1.00  0.00    -0.390 OA
ATOM     22  H2  UNL     1      -4.166  -3.103  -0.684  1.00  0.00     0.210 HD
ENDBRANCH  19  21
ENDBRANCH   7  10
BRANCH   1  23
HETATM   23  N1  UNL     1       3.957   0.178  -2.170  1.00  0.00    -0.305 N 
HETATM   24  C4  UNL     1       4.857  -0.699  -1.538  1.00  0.00     0.232 C 
HETATM   25  O1  UNL     1       4.736  -1.957  -1.581  1.00  0.00    -0.272 OA
ATOM     26  H1  UNL     1       4.288   0.823  -2.888  1.00  0.00     0.171 HD
BRANCH  24  27
HETATM   27  C3  UNL     1       5.994  -0.101  -0.791  1.00  0.00     0.177 C 
BRANCH  27  28
HETATM   28  S1  UNL     1       7.010  -1.410  -0.066  1.00  0.00    -0.160 SA
BRANCH  28  29
HETATM   29  C2  UNL     1       8.402  -0.752   0.850  1.00  0.00     0.070 C 
HETATM   30  C1  UNL     1       8.002   0.020   2.081  1.00  0.00     0.016 C 
ENDBRANCH  28  29
ENDBRANCH  27  28
ENDBRANCH  24  27
ENDBRANCH   1  23
TORSDOF 6
