REMARK  8 active torsions:
REMARK  status: ('A' for Active; 'I' for Inactive)
REMARK    1  A    between atoms: N1_1  and  C1_5 
REMARK    2  A    between atoms: C3_7  and  N2_8 
REMARK    3  A    between atoms: N2_8  and  C4_10 
REMARK    4  A    between atoms: C5_15  and  C6_16 
REMARK    5  A    between atoms: C6_16  and  N5_17 
REMARK    6  A    between atoms: C6_16  and  C7_21 
REMARK    7  A    between atoms: N6_24  and  C8_25 
REMARK    8  A    between atoms: C9_28  and  O3_29 
ROOT
HETATM    1  C4  UNL     1       0.288   0.418   0.442  1.00  0.00     0.700 A 
HETATM    2  N3  UNL     1       0.268   1.753   0.535  1.00  0.00    -0.131 N 
ATOM      3  H3  UNL     1       1.068   2.363   0.705  1.00  0.00     0.205 HD
HETATM    4  N4  UNL     1      -0.984   2.128   0.365  1.00  0.00    -0.272 N 
ATOM      5  H4  UNL     1      -1.325   3.089   0.381  1.00  0.00     0.189 HD
HETATM    6  C5  UNL     1      -1.748   1.016   0.164  1.00  0.00     0.160 A 
HETATM    7  N6  UNL     1      -0.952  -0.064   0.212  1.00  0.00    -0.124 N 
ENDROOT
BRANCH   1   8
HETATM    8  N2  UNL     1       1.343  -0.312   0.556  1.00  0.00    -0.211 N 
ATOM      9  H2  UNL     1       1.236  -1.322   0.467  1.00  0.00     0.178 HD
BRANCH   8  10
HETATM   10  C3  UNL     1       2.653   0.202   0.799  1.00  0.00     0.195 C 
HETATM   11  C2  UNL     1       3.441   0.428  -0.499  1.00  0.00     0.089 C 
HETATM   12  C1  UNL     1       4.857   0.449   0.021  1.00  0.00     0.286 C 
HETATM   13  N9  UNL     1       4.849  -0.689   0.947  1.00  0.00    -0.332 N 
HETATM   14  C10 UNL     1       3.539  -0.755   1.494  1.00  0.00     0.242 C 
ATOM     15  H9  UNL     1       5.630  -1.311   1.157  1.00  0.00     0.164 HD
HETATM   16  O5  UNL     1       3.189  -1.509   2.423  1.00  0.00    -0.271 OA
BRANCH  12  17
HETATM   17  N1  UNL     1       5.837   0.270  -1.028  1.00  0.00    -0.058 N 
ATOM     18  H13 UNL     1       5.654  -0.581  -1.559  1.00  0.00     0.276 HD
ATOM     19  H12 UNL     1       5.709   0.958  -1.770  1.00  0.00     0.276 HD
ATOM     20  H11 UNL     1       6.794   0.284  -0.676  1.00  0.00     0.276 HD
ENDBRANCH  12  17
ENDBRANCH   8  10
ENDBRANCH   1   8
BRANCH   7  21
HETATM   21  C8  UNL     1      -1.335  -1.441   0.054  1.00  0.00     0.365 C 
HETATM   22  N7  UNL     1      -1.431  -1.882  -1.300  1.00  0.00    -0.090 NA
HETATM   23  N8  UNL     1      -2.528  -2.751  -1.312  1.00  0.00    -0.085 NA
HETATM   24  C9  UNL     1      -2.813  -3.017   0.108  1.00  0.00     0.377 C 
HETATM   25  O4  UNL     1      -2.492  -1.797   0.701  1.00  0.00    -0.304 OA
BRANCH  24  26
HETATM   26  O3  UNL     1      -4.178  -3.287   0.184  1.00  0.00    -0.357 OA
ATOM     27  H3  UNL     1      -4.362  -3.459   1.100  1.00  0.00     0.214 HD
ENDBRANCH  24  26
ENDBRANCH   7  21
BRANCH   6  28
HETATM   28  C6  UNL     1      -3.192   1.110  -0.055  1.00  0.00     0.352 C 
BRANCH  28  29
HETATM   29  N5  UNL     1      -3.707   2.040   0.960  1.00  0.00    -0.058 N 
ATOM     30  H53 UNL     1      -3.459   1.775   1.913  1.00  0.00     0.275 HD
ATOM     31  H52 UNL     1      -3.237   2.945   0.954  1.00  0.00     0.275 HD
ATOM     32  H51 UNL     1      -4.713   2.106   0.807  1.00  0.00     0.275 HD
ENDBRANCH  28  29
BRANCH  28  33
HETATM   33  C7  UNL     1      -3.448   1.763  -1.380  1.00  0.00     0.212 C 
HETATM   34  O1  UNL     1      -3.103   1.173  -2.432  1.00  0.00    -0.646 OA
HETATM   35  O2  UNL     1      -4.047   2.990  -1.501  1.00  0.00    -0.646 OA
ENDBRANCH  28  33
ENDBRANCH   6  28
TORSDOF 8
