REMARK  4 active torsions:
REMARK  status: ('A' for Active; 'I' for Inactive)
REMARK    1  A    between atoms: C2_2  and  C3_3 
REMARK    2  A    between atoms: C5_7  and  C6_8 
REMARK    3  A    between atoms: C11_13  and  C12_14 
REMARK    4  A    between atoms: C16_19  and  O1_20 
ROOT
HETATM    1  C12 UNL     1      -2.559  -1.780   1.031  1.00  0.00     0.071 C 
HETATM    2  C13 UNL     1      -2.935  -2.698  -0.112  1.00  0.00     0.036 C 
HETATM    3  C14 UNL     1      -3.715  -0.838   1.264  1.00  0.00     0.036 C 
HETATM    4  C15 UNL     1      -2.214  -2.534   2.233  1.00  0.00     0.073 C 
HETATM    5  N2  UNL     1      -1.927  -3.128   3.192  1.00  0.00    -0.196 NA
ENDROOT
BRANCH   1   6
HETATM    6  C11 UNL     1      -1.339  -1.039   0.617  1.00  0.00    -0.000 A 
HETATM    7  C10 UNL     1      -1.346   0.355   0.538  1.00  0.00     0.022 A 
HETATM    8  C5  UNL     1      -0.237   1.077   0.159  1.00  0.00    -0.021 A 
HETATM    9  C4  UNL     1       0.903   0.369  -0.147  1.00  0.00     0.070 A 
HETATM   10  N1  UNL     1       2.104   0.771  -0.533  1.00  0.00    -0.344 N 
HETATM   11  C17 UNL     1       0.899  -1.003  -0.067  1.00  0.00     0.095 A 
HETATM   12  C3  UNL     1       2.894  -0.308  -0.709  1.00  0.00     0.081 A 
ATOM     13  H1  UNL     1       2.386   1.741  -0.675  1.00  0.00     0.167 HD
HETATM   14  N3  UNL     1       2.141  -1.385  -0.420  1.00  0.00    -0.342 N 
ATOM     15  H3  UNL     1       2.464  -2.351  -0.462  1.00  0.00     0.167 HD
HETATM   16  C16 UNL     1      -0.206  -1.742   0.312  1.00  0.00     0.102 A 
BRANCH   8  17
HETATM   17  C6  UNL     1      -0.338   2.534   0.100  1.00  0.00    -0.022 C 
HETATM   18  C7  UNL     1      -0.060   2.988  -1.320  1.00  0.00     0.019 C 
HETATM   19  C8  UNL     1      -1.708   2.992   0.456  1.00  0.00     0.019 C 
HETATM   20  C9  UNL     1       0.658   3.241   0.987  1.00  0.00     0.019 C 
ENDBRANCH   8  17
BRANCH  12  21
HETATM   21  C2  UNL     1       4.327  -0.317  -1.141  1.00  0.00     0.072 C 
HETATM   22  C1  UNL     1       4.809  -1.738  -1.205  1.00  0.00     0.013 C 
ENDBRANCH  12  21
BRANCH  16  23
HETATM   23  O1  UNL     1      -0.157  -3.142   0.378  1.00  0.00    -0.358 OA
ATOM     24  H1  UNL     1       0.630  -3.630   0.166  1.00  0.00     0.217 HD
ENDBRANCH  16  23
ENDBRANCH   1   6
TORSDOF 4
