REMARK  14 active torsions:
REMARK  status: ('A' for Active; 'I' for Inactive)
REMARK    1  A    between atoms: C2_2  and  C3_3 
REMARK    2  A    between atoms: C3_3  and  C4_4 
REMARK    3  A    between atoms: C4_4  and  N1_5 
REMARK       I    between atoms: N1_5  and  C5_6 
REMARK    4  A    between atoms: N1_5  and  C20_28 
REMARK    5  A    between atoms: C5_6  and  C6_8 
REMARK    6  A    between atoms: C9_11  and  C10_12 
REMARK    7  A    between atoms: C10_12  and  O2_13 
REMARK    8  A    between atoms: C10_12  and  N2_15 
REMARK    9  A    between atoms: N2_15  and  C12_17 
REMARK   10  A    between atoms: N5_31  and  C22_32 
REMARK   11  A    between atoms: C22_32  and  C23_33 
REMARK   12  A    between atoms: C23_33  and  C24_34 
REMARK   13  A    between atoms: N6_38  and  C27_39 
REMARK   14  A    between atoms: C27_39  and  C28_40 
ROOT
HETATM    1  N1  UNL     1      -1.977  -0.607   0.145  1.00  0.00    -0.306 N 
HETATM    2  C5  UNL     1      -1.229   0.340  -0.615  1.00  0.00     0.264 C 
HETATM    3  O1  UNL     1      -1.858   1.254  -1.197  1.00  0.00    -0.267 OA
ENDROOT
BRANCH   2   4
HETATM    4  C6  UNL     1       0.219   0.338  -0.767  1.00  0.00     0.100 A 
HETATM    5  C7  UNL     1       0.866  -0.230  -1.837  1.00  0.00     0.025 A 
HETATM    6  C8  UNL     1       2.224  -0.222  -1.973  1.00  0.00     0.035 A 
HETATM    7  C9  UNL     1       3.053   0.385  -0.996  1.00  0.00     0.086 A 
HETATM    8  N3  UNL     1       2.402   0.936   0.040  1.00  0.00    -0.319 N 
HETATM    9  C19 UNL     1       1.040   0.925   0.170  1.00  0.00     0.261 A 
ATOM     10  H3  UNL     1       2.952   1.388   0.770  1.00  0.00     0.169 HD
HETATM   11  O3  UNL     1       0.582   1.491   1.205  1.00  0.00    -0.267 OA
BRANCH   7  12
HETATM   12  C10 UNL     1       4.464   0.288  -1.180  1.00  0.00     0.165 C 
BRANCH  12  13
HETATM   13  O2  UNL     1       4.830  -0.237  -2.324  1.00  0.00    -0.344 OA
ATOM     14  H2  UNL     1       5.770  -0.302  -2.447  1.00  0.00     0.219 HD
ENDBRANCH  12  13
BRANCH  12  15
HETATM   15  N2  UNL     1       5.577   0.633  -0.388  1.00  0.00    -0.359 N 
HETATM   16  C11 UNL     1       5.479   1.234   0.926  1.00  0.00     0.152 C 
BRANCH  15  17
HETATM   17  C12 UNL     1       6.917   0.395  -0.943  1.00  0.00     0.090 C 
HETATM   18  C13 UNL     1       7.873   1.494  -0.737  1.00  0.00     0.030 C 
HETATM   19  C14 UNL     1       9.183   0.800  -0.343  1.00  0.00    -0.012 C 
HETATM   20  C15 UNL     1       9.559  -0.111  -1.458  1.00  0.00     0.005 C 
HETATM   21  C18 UNL     1       8.583  -0.192   0.668  1.00  0.00     0.011 C 
HETATM   22  C16 UNL     1       8.599  -1.296  -1.325  1.00  0.00     0.007 C 
HETATM   23  C17 UNL     1       7.582  -0.801  -0.266  1.00  0.00     0.009 C 
ENDBRANCH  15  17
ENDBRANCH  12  15
ENDBRANCH   7  12
ENDBRANCH   2   4
BRANCH   1  24
HETATM   24  C4  UNL     1      -1.268  -1.618   0.830  1.00  0.00     0.133 C 
BRANCH  24  25
HETATM   25  C3  UNL     1      -0.989  -2.920   0.173  1.00  0.00     0.020 C 
BRANCH  25  26
HETATM   26  C2  UNL     1      -0.185  -3.740   1.195  1.00  0.00    -0.003 C 
HETATM   27  C1  UNL     1       0.163  -5.092   0.643  1.00  0.00     0.005 C 
ENDBRANCH  25  26
ENDBRANCH  24  25
ENDBRANCH   1  24
BRANCH   1  28
HETATM   28  C20 UNL     1      -3.381  -0.409   0.193  1.00  0.00     0.148 A 
HETATM   29  C21 UNL     1      -3.835   0.653   0.996  1.00  0.00     0.155 A 
HETATM   30  N4  UNL     1      -2.923   1.483   1.691  1.00  0.00    -0.080 NA
HETATM   31  N5  UNL     1      -5.143   0.933   1.139  1.00  0.00    -0.285 N 
HETATM   32  C26 UNL     1      -6.066   0.195   0.508  1.00  0.00     0.333 A 
HETATM   33  O4  UNL     1      -7.293   0.501   0.677  1.00  0.00    -0.246 OA
HETATM   34  N6  UNL     1      -5.685  -0.822  -0.266  1.00  0.00    -0.264 N 
HETATM   35  C30 UNL     1      -4.359  -1.122  -0.423  1.00  0.00     0.282 A 
HETATM   36  O5  UNL     1      -4.019  -2.086  -1.162  1.00  0.00    -0.265 OA
BRANCH  31  37
HETATM   37  C22 UNL     1      -5.574   2.058   1.976  1.00  0.00     0.135 C 
BRANCH  37  38
HETATM   38  C23 UNL     1      -5.674   3.277   1.079  1.00  0.00     0.020 C 
BRANCH  38  39
HETATM   39  C24 UNL     1      -6.099   4.519   1.823  1.00  0.00    -0.003 C 
HETATM   40  C25 UNL     1      -5.098   4.862   2.919  1.00  0.00     0.005 C 
ENDBRANCH  38  39
ENDBRANCH  37  38
ENDBRANCH  31  37
BRANCH  34  41
HETATM   41  C27 UNL     1      -6.660  -1.616  -0.939  1.00  0.00     0.137 C 
BRANCH  41  42
HETATM   42  C28 UNL     1      -7.026  -1.145  -2.320  1.00  0.00     0.016 C 
HETATM   43  C29 UNL     1      -8.090  -2.117  -2.846  1.00  0.00     0.006 C 
ENDBRANCH  41  42
ENDBRANCH  34  41
ENDBRANCH   1  28
TORSDOF 14
