REMARK  13 active torsions:
REMARK  status: ('A' for Active; 'I' for Inactive)
REMARK    1  A    between atoms: C2_2  and  O1_4 
REMARK    2  A    between atoms: C2_2  and  C4_6 
REMARK    3  A    between atoms: C4_6  and  N1_7 
REMARK    4  A    between atoms: C4_6  and  C17_43 
REMARK    5  A    between atoms: N1_7  and  C5_9 
REMARK    6  A    between atoms: C5_9  and  O2_10 
REMARK    7  A    between atoms: C5_9  and  C6_12 
REMARK    8  A    between atoms: N2_14  and  C8_15 
REMARK    9  A    between atoms: C8_15  and  C9_16 
REMARK   10  A    between atoms: N3_18  and  C11_19 
REMARK   11  A    between atoms: C13_24  and  N6_25 
REMARK   12  A    between atoms: C14_30  and  N8_31 
REMARK   13  A    between atoms: C15_39  and  C16_40 
ROOT
HETATM    1  C6  UNL     1      -0.731   1.237   0.178  1.00  0.00     0.067 A 
HETATM    2  C7  UNL     1       0.358   1.232   1.077  1.00  0.00     0.129 A 
HETATM    3  N2  UNL     1       1.133   2.272   0.746  1.00  0.00    -0.296 N 
HETATM    4  N11 UNL     1       0.611   2.905  -0.275  1.00  0.00    -0.291 N 
ATOM      5  H11 UNL     1       1.014   3.733  -0.715  1.00  0.00     0.187 HD
HETATM    6  C15 UNL     1      -0.562   2.293  -0.672  1.00  0.00     0.141 A 
ENDROOT
BRANCH   3   7
HETATM    7  C8  UNL     1       2.377   2.664   1.390  1.00  0.00     0.207 C 
BRANCH   7   8
HETATM    8  C9  UNL     1       3.545   2.002   0.752  1.00  0.00     0.060 A 
HETATM    9  C10 UNL     1       4.095   0.775   1.054  1.00  0.00     0.142 A 
HETATM   10  N3  UNL     1       5.146   0.529   0.243  1.00  0.00    -0.242 N 
HETATM   11  N9  UNL     1       5.236   1.598  -0.547  1.00  0.00    -0.015 NA
HETATM   12  N10 UNL     1       4.294   2.479  -0.257  1.00  0.00    -0.285 N 
ATOM     13  H10 UNL     1       4.158   3.376  -0.724  1.00  0.00     0.184 HD
BRANCH  10  14
HETATM   14  C11 UNL     1       5.996  -0.620   0.209  1.00  0.00     0.139 A 
HETATM   15  C12 UNL     1       7.378  -0.459   0.041  1.00  0.00     0.164 A 
HETATM   16  N4  UNL     1       7.982   0.810  -0.098  1.00  0.00    -0.080 NA
HETATM   17  N5  UNL     1       8.139  -1.555   0.012  1.00  0.00    -0.177 N 
HETATM   18  C13 UNL     1       7.614  -2.791   0.140  1.00  0.00     0.678 A 
ATOM     19  H5  UNL     1       9.147  -1.455  -0.110  1.00  0.00     0.185 HD
HETATM   20  N7  UNL     1       6.290  -2.965   0.302  1.00  0.00    -0.175 N 
HETATM   21  C14 UNL     1       5.491  -1.894   0.336  1.00  0.00     0.146 A 
ATOM     22  H7  UNL     1       5.901  -3.903   0.398  1.00  0.00     0.186 HD
BRANCH  18  23
HETATM   23  N6  UNL     1       8.412  -3.819   0.101  1.00  0.00    -0.234 N 
ATOM     24  H62 UNL     1       9.416  -3.687  -0.022  1.00  0.00     0.174 HD
ATOM     25  H61 UNL     1       8.015  -4.754   0.198  1.00  0.00     0.174 HD
ENDBRANCH  18  23
BRANCH  21  26
HETATM   26  N8  UNL     1       4.228  -2.061   0.491  1.00  0.00    -0.383 N 
ATOM     27  H82 UNL     1       3.618  -1.244   0.517  1.00  0.00     0.157 HD
ATOM     28  H81 UNL     1       3.854  -3.005   0.585  1.00  0.00     0.157 HD
ENDBRANCH  21  26
ENDBRANCH  10  14
ENDBRANCH   7   8
ENDBRANCH   3   7
BRANCH   1  29
HETATM   29  C5  UNL     1      -1.814   0.313   0.269  1.00  0.00     0.150 C 
BRANCH  29  30
HETATM   30  N1  UNL     1      -3.173   0.458   0.037  1.00  0.00    -0.357 N 
ATOM     31  H1  UNL     1      -3.525   1.372  -0.246  1.00  0.00     0.162 HD
BRANCH  30  32
HETATM   32  C4  UNL     1      -4.144  -0.668   0.184  1.00  0.00     0.167 C 
BRANCH  32  33
HETATM   33  C2  UNL     1      -4.581  -1.132  -1.157  1.00  0.00     0.076 C 
HETATM   34  C1  UNL     1      -5.349  -2.442  -1.008  1.00  0.00     0.048 C 
HETATM   35  C3  UNL     1      -5.373  -0.183  -1.973  1.00  0.00     0.048 C 
BRANCH  33  36
HETATM   36  O1  UNL     1      -3.369  -1.489  -1.832  1.00  0.00    -0.388 OA
ATOM     37  H1  UNL     1      -2.891  -0.673  -1.925  1.00  0.00     0.210 HD
ENDBRANCH  33  36
ENDBRANCH  32  33
BRANCH  32  38
HETATM   38  C17 UNL     1      -5.199  -0.241   1.111  1.00  0.00     0.040 A 
HETATM   39  C18 UNL     1      -6.535  -0.332   0.889  1.00  0.00     0.044 A 
HETATM   40  C19 UNL     1      -7.484   0.110   1.840  1.00  0.00     0.095 A 
HETATM   41  N12 UNL     1      -7.059   0.637   3.000  1.00  0.00    -0.319 N 
HETATM   42  C20 UNL     1      -5.750   0.726   3.217  1.00  0.00     0.324 A 
ATOM     43  H12 UNL     1      -7.726   0.962   3.700  1.00  0.00     0.170 HD
HETATM   44  O5  UNL     1      -5.401   1.232   4.332  1.00  0.00    -0.247 OA
HETATM   45  N13 UNL     1      -4.848   0.308   2.320  1.00  0.00    -0.310 N 
ATOM     46  H13 UNL     1      -3.857   0.401   2.544  1.00  0.00     0.170 HD
ENDBRANCH  32  38
ENDBRANCH  30  32
ENDBRANCH  29  30
BRANCH  29  47
HETATM   47  O2  UNL     1      -1.469  -0.893   0.648  1.00  0.00    -0.346 OA
ATOM     48  H2  UNL     1      -0.538  -0.992   0.807  1.00  0.00     0.219 HD
ENDBRANCH  29  47
ENDBRANCH   1  29
BRANCH   6  49
HETATM   49  C16 UNL     1      -1.259   2.775  -1.826  1.00  0.00     0.229 C 
HETATM   50  O3  UNL     1      -2.230   2.179  -2.317  1.00  0.00    -0.643 OA
HETATM   51  O4  UNL     1      -0.870   3.945  -2.449  1.00  0.00    -0.643 OA
ENDBRANCH   6  49
TORSDOF 13
