REMARK  3 active torsions:
REMARK  status: ('A' for Active; 'I' for Inactive)
REMARK    1  A    between atoms: N1_1  and  C1_4 
REMARK    2  A    between atoms: C2_7  and  C3_8 
REMARK    3  A    between atoms: N3_9  and  N4_11 
REMARK       I    between atoms: N4_11  and  C4_13 
REMARK       I    between atoms: C4_13  and  N5_14 
REMARK       I    between atoms: C4_13  and  N6_18 
ROOT
HETATM    1  C3  UNL     1      -0.526  -0.487   0.829  1.00  0.00     0.165 C 
HETATM    2  N3  UNL     1       0.430  -0.615  -0.012  1.00  0.00    -0.309 N 
ATOM      3  H3  UNL     1       0.225  -0.521  -1.007  1.00  0.00     0.185 HD
ENDROOT
BRANCH   2   4
HETATM    4  N4  UNL     1       1.733  -0.876   0.380  1.00  0.00    -0.284 N 
HETATM    5  C4  UNL     1       2.719   0.175   0.222  1.00  0.00     0.494 C 
HETATM    6  N5  UNL     1       3.996  -0.325   0.695  1.00  0.00    -0.032 N 
HETATM    7  N6  UNL     1       2.866   0.494  -1.205  1.00  0.00    -0.032 N 
ATOM      8  H53 UNL     1       3.950  -0.680   1.650  1.00  0.00     0.279 HD
ATOM      9  H52 UNL     1       4.271  -1.194   0.238  1.00  0.00     0.279 HD
ATOM     10  H51 UNL     1       4.690   0.414   0.584  1.00  0.00     0.279 HD
ATOM     11  H63 UNL     1       3.087  -0.330  -1.764  1.00  0.00     0.279 HD
ATOM     12  H62 UNL     1       1.975   0.731  -1.642  1.00  0.00     0.279 HD
ATOM     13  H61 UNL     1       3.560   1.233  -1.316  1.00  0.00     0.279 HD
ATOM     14  H4  UNL     1       1.991  -1.783   0.769  1.00  0.00     0.184 HD
ENDBRANCH   2   4
BRANCH   1  15
HETATM   15  C2  UNL     1      -1.897  -0.210   0.372  1.00  0.00     0.202 A 
HETATM   16  N2  UNL     1      -3.001  -0.050   1.117  1.00  0.00    -0.166 N 
HETATM   17  C1  UNL     1      -4.060   0.189   0.320  1.00  0.00     0.698 A 
ATOM     18  H2  UNL     1      -3.034  -0.102   2.135  1.00  0.00     0.186 HD
HETATM   19  N7  UNL     1      -3.566   0.169  -0.931  1.00  0.00    -0.089 N 
HETATM   20  O1  UNL     1      -2.270  -0.072  -0.876  1.00  0.00    -0.203 OA
ATOM     21  H7  UNL     1      -4.106   0.316  -1.784  1.00  0.00     0.213 HD
BRANCH  17  22
HETATM   22  N1  UNL     1      -5.298   0.399   0.632  1.00  0.00    -0.233 N 
ATOM     23  H12 UNL     1      -5.673   0.414   1.581  1.00  0.00     0.174 HD
ATOM     24  H11 UNL     1      -6.100   0.580   0.028  1.00  0.00     0.174 HD
ENDBRANCH  17  22
ENDBRANCH   1  15
TORSDOF 3
