REMARK  5 active torsions:
REMARK  status: ('A' for Active; 'I' for Inactive)
REMARK    1  A    between atoms: N1_2  and  C2_3 
REMARK       I    between atoms: N1_2  and  C10_15 
REMARK    2  A    between atoms: C2_3  and  C3_4 
REMARK       I    between atoms: C3_4  and  N2_6 
REMARK    3  A    between atoms: N2_6  and  C4_8 
REMARK    4  A    between atoms: C10_15  and  C11_17 
REMARK    5  A    between atoms: C11_17  and  N3_18 
ROOT
HETATM    1  N3  UNL     1      -1.416  -0.896   0.665  1.00  0.00    -0.304 N 
HETATM    2  C12 UNL     1      -1.801  -0.616  -0.670  1.00  0.00     0.279 A 
HETATM    3  O3  UNL     1      -1.247  -1.050  -1.698  1.00  0.00    -0.268 OA
HETATM    4  C13 UNL     1      -2.962   0.270  -0.625  1.00  0.00     0.221 A 
HETATM    5  N4  UNL     1      -2.802   1.483  -1.368  1.00  0.00    -0.349 N 
ATOM      6  H4  UNL     1      -1.926   1.972  -1.551  1.00  0.00     0.163 HD
HETATM    7  C14 UNL     1      -4.098   1.877  -1.803  1.00  0.00     0.073 A 
HETATM    8  C15 UNL     1      -4.593   3.086  -2.239  1.00  0.00     0.119 A 
HETATM    9  N5  UNL     1      -5.883   3.149  -2.587  1.00  0.00    -0.373 N 
ATOM     10  H5  UNL     1      -6.248   4.045  -2.909  1.00  0.00     0.164 HD
HETATM   11  C16 UNL     1      -6.727   2.108  -2.539  1.00  0.00     0.090 A 
HETATM   12  C17 UNL     1      -6.240   0.896  -2.104  1.00  0.00     0.049 A 
HETATM   13  C18 UNL     1      -4.911   0.765  -1.728  1.00  0.00     0.062 A 
HETATM   14  N6  UNL     1      -4.140  -0.330  -1.251  1.00  0.00    -0.345 N 
HETATM   15  C19 UNL     1      -4.467  -1.727  -1.369  1.00  0.00     0.153 C 
HETATM   16  C20 UNL     1      -3.236   0.496   0.806  1.00  0.00     0.027 A 
HETATM   17  C21 UNL     1      -4.210   1.248   1.429  1.00  0.00     0.014 A 
HETATM   18  C22 UNL     1      -4.289   1.324   2.811  1.00  0.00     0.001 A 
HETATM   19  C23 UNL     1      -3.347   0.612   3.519  1.00  0.00     0.002 A 
HETATM   20  C24 UNL     1      -2.378  -0.136   2.899  1.00  0.00     0.030 A 
HETATM   21  C25 UNL     1      -2.303  -0.208   1.527  1.00  0.00     0.049 A 
ENDROOT
BRANCH   1  22
HETATM   22  C11 UNL     1      -0.291  -1.751   1.075  1.00  0.00     0.235 C 
BRANCH  22  23
HETATM   23  C10 UNL     1       0.934  -0.926   1.200  1.00  0.00     0.238 C 
HETATM   24  N1  UNL     1       2.171  -1.501   1.584  1.00  0.00    -0.346 N 
HETATM   25  C1  UNL     1       2.322  -2.912   1.877  1.00  0.00     0.153 C 
HETATM   26  O2  UNL     1       0.872   0.301   0.961  1.00  0.00    -0.272 OA
BRANCH  24  27
HETATM   27  C2  UNL     1       3.356  -0.676   1.699  1.00  0.00     0.228 C 
BRANCH  27  28
HETATM   28  C3  UNL     1       4.106  -0.615   0.392  1.00  0.00     0.240 C 
HETATM   29  O1  UNL     1       3.662  -1.237  -0.591  1.00  0.00    -0.271 OA
HETATM   30  N2  UNL     1       5.277   0.140   0.329  1.00  0.00    -0.326 N 
ATOM     31  H2  UNL     1       5.561   0.608   1.189  1.00  0.00     0.169 HD
BRANCH  30  32
HETATM   32  C4  UNL     1       6.104   0.326  -0.781  1.00  0.00     0.035 A 
HETATM   33  C5  UNL     1       5.733   0.050  -2.057  1.00  0.00     0.032 A 
HETATM   34  C6  UNL     1       6.626   0.245  -3.112  1.00  0.00     0.044 A 
HETATM   35  C7  UNL     1       7.895   0.719  -2.876  1.00  0.00     0.116 A 
HETATM   36  F1  UNL     1       8.791   0.922  -3.869  1.00  0.00    -0.206 F 
HETATM   37  C8  UNL     1       8.252   0.993  -1.579  1.00  0.00     0.044 A 
HETATM   38  C9  UNL     1       7.387   0.804  -0.554  1.00  0.00     0.032 A 
ENDBRANCH  30  32
ENDBRANCH  27  28
ENDBRANCH  24  27
ENDBRANCH  22  23
ENDBRANCH   1  22
TORSDOF 5
