REMARK  6 active torsions:
REMARK  status: ('A' for Active; 'I' for Inactive)
REMARK    1  A    between atoms: C2_2  and  N1_3 
REMARK       I    between atoms: N1_3  and  C3_5 
REMARK    2  A    between atoms: C3_5  and  C4_7 
REMARK    3  A    between atoms: C9_13  and  C10_14 
REMARK    4  A    between atoms: C10_14  and  C11_15 
REMARK    5  A    between atoms: C11_15  and  O3_17 
REMARK    6  A    between atoms: O3_17  and  C12_18 
ROOT
HETATM    1  C4  UNL     1      -0.859  -0.829   0.946  1.00  0.00     0.123 C 
HETATM    2  C5  UNL     1      -0.377  -1.155   2.336  1.00  0.00     0.035 C 
HETATM    3  C6  UNL     1       1.065  -1.524   2.399  1.00  0.00     0.006 C 
HETATM    4  C7  UNL     1       1.273  -2.885   1.595  1.00  0.00     0.130 C 
HETATM    5  N2  UNL     1       0.717  -2.392   0.358  1.00  0.00    -0.350 N 
HETATM    6  C8  UNL     1       1.697  -1.726  -0.473  1.00  0.00     0.135 C 
HETATM    7  C9  UNL     1       1.547  -0.318   0.227  1.00  0.00    -0.013 C 
HETATM    8  C15 UNL     1       1.937  -0.531   1.665  1.00  0.00     0.018 C 
HETATM    9  C16 UNL     1       0.081   0.082   0.206  1.00  0.00     0.041 C 
HETATM   10  C17 UNL     1      -0.643  -2.222   0.181  1.00  0.00     0.238 C 
HETATM   11  O4  UNL     1      -1.627  -2.756  -0.329  1.00  0.00    -0.272 OA
ENDROOT
BRANCH   1  12
HETATM   12  C3  UNL     1      -2.235  -0.425   0.831  1.00  0.00     0.236 C 
HETATM   13  N1  UNL     1      -2.908  -0.079  -0.367  1.00  0.00    -0.350 N 
ATOM     14  H1  UNL     1      -2.387  -0.113  -1.243  1.00  0.00     0.163 HD
HETATM   15  O1  UNL     1      -2.932  -0.368   1.899  1.00  0.00    -0.272 OA
BRANCH  13  16
HETATM   16  C2  UNL     1      -4.292   0.318  -0.408  1.00  0.00     0.043 C 
HETATM   17  C1  UNL     1      -5.155  -0.801   0.132  1.00  0.00     0.039 C 
HETATM   18  C18 UNL     1      -4.663   0.694  -1.800  1.00  0.00     0.046 C 
HETATM   19  C19 UNL     1      -6.036   1.320  -1.760  1.00  0.00     0.143 C 
HETATM   20  S1  UNL     1      -5.916   2.281  -0.245  1.00  0.00     0.146 S 
HETATM   21  O5  UNL     1      -7.095   1.997   0.629  1.00  0.00    -0.228 OA
HETATM   22  O6  UNL     1      -5.742   3.735  -0.544  1.00  0.00    -0.228 OA
HETATM   23  C20 UNL     1      -4.411   1.580   0.437  1.00  0.00     0.170 C 
ENDBRANCH  13  16
ENDBRANCH   1  12
BRANCH   7  24
HETATM   24  C10 UNL     1       2.312   0.700  -0.485  1.00  0.00     0.122 C 
BRANCH  24  25
HETATM   25  C11 UNL     1       3.747   0.569  -0.619  1.00  0.00     0.261 C 
HETATM   26  O2  UNL     1       4.398  -0.357  -0.123  1.00  0.00    -0.265 OA
BRANCH  25  27
HETATM   27  O3  UNL     1       4.430   1.536  -1.346  1.00  0.00    -0.295 OA
BRANCH  27  28
HETATM   28  C12 UNL     1       5.829   1.491  -1.530  1.00  0.00     0.139 C 
HETATM   29  C13 UNL     1       6.204   0.209  -2.247  1.00  0.00     0.064 C 
HETATM   30  C14 UNL     1       6.563   1.594  -0.201  1.00  0.00     0.064 C 
HETATM   31 CL1  UNL     1       6.291   2.905  -2.491  1.00  0.00    -0.088 Cl
ENDBRANCH  27  28
ENDBRANCH  25  27
ENDBRANCH  24  25
ENDBRANCH   7  24
TORSDOF 6
