REMARK  3 active torsions:
REMARK  status: ('A' for Active; 'I' for Inactive)
REMARK    1  A    between atoms: C5_10  and  N3_11 
REMARK    2  A    between atoms: N3_11  and  S1_13 
REMARK    3  A    between atoms: S1_13  and  C6_16 
ROOT
HETATM    1  N3  UNL     1      -0.291  -1.376  -0.896  1.00  0.00    -0.274 N 
ATOM      2  H3  UNL     1      -0.626  -1.747  -1.785  1.00  0.00     0.179 HD
ENDROOT
BRANCH   1   3
HETATM    3  C5  UNL     1      -1.190  -0.594  -0.162  1.00  0.00     0.086 A 
HETATM    4  C1  UNL     1      -2.329  -0.000  -0.664  1.00  0.00     0.126 A 
HETATM    5  N1  UNL     1      -2.603  -0.152  -1.903  1.00  0.00    -0.384 N 
HETATM    6  N2  UNL     1      -3.155   0.736   0.123  1.00  0.00    -0.351 N 
ATOM      7  H12 UNL     1      -3.445   0.287  -2.274  1.00  0.00     0.157 HD
ATOM      8  H11 UNL     1      -1.982  -0.705  -2.494  1.00  0.00     0.157 HD
HETATM    9  C2  UNL     1      -2.901   0.918   1.420  1.00  0.00     0.090 A 
ATOM     10  H2  UNL     1      -3.988   1.159  -0.286  1.00  0.00     0.166 HD
HETATM   11  C3  UNL     1      -1.799   0.368   1.997  1.00  0.00     0.019 A 
HETATM   12  C4  UNL     1      -0.943  -0.392   1.194  1.00  0.00     0.035 A 
ENDBRANCH   1   3
BRANCH   1  13
HETATM   13  S1  UNL     1       1.303  -1.771  -0.457  1.00  0.00     0.296 S 
HETATM   14  O1  UNL     1       1.424  -2.529   0.831  1.00  0.00    -0.197 OA
HETATM   15  O2  UNL     1       1.986  -2.625  -1.502  1.00  0.00    -0.197 OA
BRANCH  13  16
HETATM   16  C6  UNL     1       2.266  -0.317  -0.316  1.00  0.00     0.239 A 
HETATM   17  N4  UNL     1       2.965   0.262  -1.317  1.00  0.00    -0.325 N 
HETATM   18  C7  UNL     1       3.588   1.347  -0.880  1.00  0.00     0.199 A 
ATOM     19  H4  UNL     1       3.007  -0.087  -2.275  1.00  0.00     0.169 HD
HETATM   20  N5  UNL     1       3.285   1.472   0.434  1.00  0.00    -0.294 N 
HETATM   21  N6  UNL     1       2.491   0.464   0.755  1.00  0.00    -0.274 N 
ATOM     22  H5  UNL     1       3.609   2.208   1.061  1.00  0.00     0.187 HD
ATOM     23  H6  UNL     1       2.104   0.302   1.685  1.00  0.00     0.189 HD
ENDBRANCH  13  16
ENDBRANCH   1  13
TORSDOF 3
