REMARK  4 active torsions:
REMARK  status: ('A' for Active; 'I' for Inactive)
REMARK    1  A    between atoms: O1_2  and  C2_3 
REMARK    2  A    between atoms: C6_7  and  N1_8 
REMARK    3  A    between atoms: C8_15  and  N4_16 
REMARK    4  A    between atoms: C9_19  and  N5_20 
ROOT
HETATM    1  C2  UNL     1      -1.938   0.061   0.071  1.00  0.00     0.103 A 
HETATM    2  C3  UNL     1      -2.313  -1.206  -0.278  1.00  0.00     0.039 A 
HETATM    3  C4  UNL     1      -1.320  -2.115  -0.561  1.00  0.00     0.005 A 
HETATM    4  C5  UNL     1       0.023  -1.801  -0.508  1.00  0.00     0.035 A 
HETATM    5  C6  UNL     1       0.407  -0.520  -0.156  1.00  0.00     0.110 A 
HETATM    6  C9  UNL     1      -0.594   0.394   0.130  1.00  0.00     0.165 A 
ENDROOT
BRANCH   5   7
HETATM    7  N1  UNL     1       1.758  -0.083  -0.073  1.00  0.00    -0.080 N 
HETATM    8  N2  UNL     1       2.346   0.804  -0.895  1.00  0.00    -0.229 N 
HETATM    9  C7  UNL     1       3.619   0.958  -0.495  1.00  0.00     0.354 A 
ATOM     10  H2  UNL     1       1.903   1.277  -1.683  1.00  0.00     0.193 HD
HETATM   11  O2  UNL     1       4.483   1.725  -1.040  1.00  0.00    -0.245 OA
HETATM   12  N3  UNL     1       3.848   0.173   0.580  1.00  0.00    -0.139 N 
HETATM   13  C8  UNL     1       2.679  -0.465   0.826  1.00  0.00     0.702 A 
ATOM     14  H3  UNL     1       4.721   0.080   1.099  1.00  0.00     0.189 HD
BRANCH  13  15
HETATM   15  N4  UNL     1       2.495  -1.305   1.779  1.00  0.00    -0.233 N 
ATOM     16  H42 UNL     1       1.615  -1.786   1.964  1.00  0.00     0.174 HD
ATOM     17  H41 UNL     1       3.195  -1.595   2.462  1.00  0.00     0.174 HD
ENDBRANCH  13  15
ENDBRANCH   5   7
BRANCH   6  18
HETATM   18  N5  UNL     1      -0.206   1.702   0.492  1.00  0.00    -0.110 N 
HETATM   19  O3  UNL     1      -0.348   2.625  -0.311  1.00  0.00    -0.532 OA
HETATM   20  O4  UNL     1       0.322   1.913   1.731  1.00  0.00    -0.532 OA
ENDBRANCH   6  18
BRANCH   1  21
HETATM   21  O1  UNL     1      -2.851   1.060   0.378  1.00  0.00    -0.353 OA
HETATM   22  C1  UNL     1      -4.247   0.868   0.359  1.00  0.00     0.210 C 
ENDBRANCH   1  21
TORSDOF 4
