REMARK  3 active torsions:
REMARK  status: ('A' for Active; 'I' for Inactive)
REMARK    1  A    between atoms: C2_3  and  O1_4 
REMARK    2  A    between atoms: C4_10  and  C6_13 
REMARK       I    between atoms: C6_13  and  N4_15 
REMARK    3  A    between atoms: N4_15  and  N5_17 
ROOT
HETATM    1  N1  UNL     1      -2.744   2.543   0.973  1.00  0.00    -0.192 NA
HETATM    2  C1  UNL     1      -2.385   1.604   0.394  1.00  0.00     0.131 C 
HETATM    3  C2  UNL     1      -1.907   0.422  -0.337  1.00  0.00     0.342 C 
HETATM    4  C3  UNL     1      -1.979  -0.781   0.588  1.00  0.00     0.322 C 
HETATM    5  N2  UNL     1      -0.705  -0.643   1.304  1.00  0.00    -0.013 N 
ATOM      6  H21 UNL     1      -0.455  -1.432   1.900  1.00  0.00     0.282 HD
ATOM      7  H22 UNL     1      -0.702   0.047   2.055  1.00  0.00     0.282 HD
HETATM    8  C4  UNL     1       0.202  -0.379   0.233  1.00  0.00     0.458 C 
HETATM    9  C5  UNL     1       0.404  -1.604  -0.530  1.00  0.00     0.140 C 
HETATM   10  N3  UNL     1       0.570  -2.557  -1.132  1.00  0.00    -0.192 NA
HETATM   11  N6  UNL     1      -0.497   0.607  -0.581  1.00  0.00     0.029 N 
ATOM     12  H61 UNL     1      -0.182   1.563  -0.415  1.00  0.00     0.287 HD
ATOM     13  H62 UNL     1      -0.250   0.561  -1.570  1.00  0.00     0.287 HD
ENDROOT
BRANCH   3  14
HETATM   14  O1  UNL     1      -2.594   0.222  -1.521  1.00  0.00    -0.352 OA
ATOM     15  H1  UNL     1      -2.285  -0.542  -1.994  1.00  0.00     0.213 HD
ENDBRANCH   3  14
BRANCH   8  16
HETATM   16  C6  UNL     1       1.500   0.141   0.637  1.00  0.00     0.316 C 
HETATM   17  O2  UNL     1       1.765   0.328   1.840  1.00  0.00    -0.266 OA
HETATM   18  N4  UNL     1       2.475   0.439  -0.336  1.00  0.00    -0.272 N 
ATOM     19  H4  UNL     1       2.237   0.278  -1.315  1.00  0.00     0.189 HD
BRANCH  18  20
HETATM   20  N5  UNL     1       3.741   0.938  -0.049  1.00  0.00    -0.342 N 
ATOM     21  H52 UNL     1       3.962   1.093   0.935  1.00  0.00     0.176 HD
ATOM     22  H51 UNL     1       4.447   1.154  -0.753  1.00  0.00     0.176 HD
ENDBRANCH  18  20
ENDBRANCH   8  16
TORSDOF 3
