REMARK  6 active torsions:
REMARK  status: ('A' for Active; 'I' for Inactive)
REMARK    1  A    between atoms: O1_2  and  N1_3 
REMARK    2  A    between atoms: N1_3  and  C2_5 
REMARK    3  A    between atoms: C3_8  and  N3_9 
REMARK    4  A    between atoms: N3_9  and  N4_11 
REMARK    5  A    between atoms: C4_16  and  N6_17 
REMARK    6  A    between atoms: C9_25  and  N8_26 
ROOT
HETATM    1  C2  UNL     1       2.320  -0.131  -0.796  1.00  0.00     0.185 C 
HETATM    2  N2  UNL     1       2.033  -1.462  -0.605  1.00  0.00    -0.169 N 
ATOM      3  H2  UNL     1       2.815  -2.109  -0.707  1.00  0.00     0.186 HD
HETATM    4  C3  UNL     1       0.833  -2.018  -0.297  1.00  0.00     0.712 C 
HETATM    5  N5  UNL     1      -0.403  -1.442  -0.303  1.00  0.00    -0.021 N 
ATOM      6  H5  UNL     1      -1.217  -2.057  -0.313  1.00  0.00     0.203 HD
HETATM    7  C4  UNL     1      -0.616  -0.118  -0.296  1.00  0.00     0.696 C 
HETATM    8  N7  UNL     1       0.177   0.944  -0.629  1.00  0.00    -0.173 N 
ATOM      9  H7  UNL     1      -0.179   1.881  -0.439  1.00  0.00     0.186 HD
HETATM   10  C9  UNL     1       1.425   0.835  -1.204  1.00  0.00     0.161 C 
ENDROOT
BRANCH   7  11
HETATM   11  N6  UNL     1      -1.932   0.266   0.149  1.00  0.00    -0.213 N 
HETATM   12  C5  UNL     1      -2.887  -0.717   0.550  1.00  0.00     0.167 C 
HETATM   13  C6  UNL     1      -4.116  -0.204   1.208  1.00  0.00     0.188 C 
HETATM   14  O2  UNL     1      -4.115   1.121   1.556  1.00  0.00    -0.388 OA
HETATM   15  C7  UNL     1      -3.711   1.949   0.511  1.00  0.00     0.188 C 
HETATM   16  C8  UNL     1      -2.291   1.666   0.188  1.00  0.00     0.167 C 
ENDBRANCH   7  11
BRANCH   4  17
HETATM   17  N3  UNL     1       0.822  -3.249   0.052  1.00  0.00    -0.138 N 
ATOM     18  H3  UNL     1      -0.081  -3.663   0.283  1.00  0.00     0.205 HD
BRANCH  17  19
HETATM   19  N4  UNL     1       1.934  -4.060   0.140  1.00  0.00    -0.331 N 
ATOM     20  H42 UNL     1       2.828  -3.629  -0.095  1.00  0.00     0.177 HD
ATOM     21  H41 UNL     1       1.925  -5.041   0.418  1.00  0.00     0.177 HD
ENDBRANCH  17  19
ENDBRANCH   4  17
BRANCH  10  22
HETATM   22  N8  UNL     1       1.718   1.645  -2.145  1.00  0.00    -0.382 N 
ATOM     23  H82 UNL     1       2.641   1.564  -2.570  1.00  0.00     0.157 HD
ATOM     24  H81 UNL     1       1.056   2.360  -2.447  1.00  0.00     0.157 HD
ENDBRANCH  10  22
BRANCH   1  25
HETATM   25  N1  UNL     1       3.500   0.252  -0.585  1.00  0.00    -0.247 N 
ATOM     26  H1  UNL     1       4.169  -0.458  -0.286  1.00  0.00     0.196 HD
BRANCH  25  27
HETATM   27  O1  UNL     1       3.967   1.514  -0.716  1.00  0.00    -0.284 OA
HETATM   28  C1  UNL     1       4.601   2.199   0.337  1.00  0.00     0.237 C 
ENDBRANCH  25  27
ENDBRANCH   1  25
TORSDOF 6
