REMARK  11 active torsions:
REMARK  status: ('A' for Active; 'I' for Inactive)
REMARK    1  A    between atoms: O1_2  and  C2_3 
REMARK    2  A    between atoms: C2_3  and  C3_5 
REMARK    3  A    between atoms: C4_6  and  C5_7 
REMARK    4  A    between atoms: C5_7  and  C6_8 
REMARK    5  A    between atoms: C6_8  and  N1_9 
REMARK    6  A    between atoms: N2_12  and  O3_13 
REMARK    7  A    between atoms: N3_18  and  C11_20 
REMARK    8  A    between atoms: C11_20  and  C12_21 
REMARK    9  A    between atoms: N4_26  and  O4_27 
REMARK   10  A    between atoms: C19_31  and  O5_32 
REMARK   11  A    between atoms: C20_34  and  O6_35 
ROOT
HETATM    1  C5  UNL     1      -0.315  -0.198  -0.786  1.00  0.00     0.059 C 
HETATM    2  N3  UNL     1      -0.264  -0.197   0.387  1.00  0.00    -0.362 N 
ATOM      3  H3  UNL     1      -0.570   0.746   0.625  1.00  0.00     0.165 HD
ENDROOT
BRANCH   1   4
HETATM    4  C4  UNL     1      -0.722   0.902  -1.716  1.00  0.00     0.011 A 
HETATM    5  C3  UNL     1      -1.230   2.100  -1.389  1.00  0.00     0.087 A 
HETATM    6  C20 UNL     1      -1.389   3.133  -2.363  1.00  0.00     0.116 A 
HETATM    7  C19 UNL     1      -1.031   2.905  -3.635  1.00  0.00     0.099 A 
HETATM    8  C18 UNL     1      -0.514   1.700  -4.027  1.00  0.00     0.040 A 
HETATM    9  C17 UNL     1      -0.370   0.736  -3.079  1.00  0.00     0.018 A 
BRANCH   5  10
HETATM   10  C2  UNL     1      -1.755   2.397  -0.070  1.00  0.00     0.296 C 
HETATM   11  O2  UNL     1      -1.806   1.784   0.980  1.00  0.00    -0.259 OA
BRANCH  10  12
HETATM   12  O1  UNL     1      -2.371   3.692   0.113  1.00  0.00    -0.322 OA
HETATM   13  C1  UNL     1      -2.911   4.059   1.366  1.00  0.00     0.213 C 
ENDBRANCH  10  12
ENDBRANCH   5  10
BRANCH   6  14
HETATM   14  O6  UNL     1      -1.916   4.352  -1.943  1.00  0.00    -0.357 OA
ATOM     15  H6  UNL     1      -2.022   5.039  -2.591  1.00  0.00     0.217 HD
ENDBRANCH   6  14
BRANCH   7  16
HETATM   16  O5  UNL     1      -1.183   3.901  -4.587  1.00  0.00    -0.358 OA
ATOM     17  H5  UNL     1      -1.542   4.737  -4.315  1.00  0.00     0.217 HD
ENDBRANCH   7  16
ENDBRANCH   1   4
BRANCH   1  18
HETATM   18  C6  UNL     1       0.001  -1.484  -1.537  1.00  0.00     0.127 C 
BRANCH  18  19
HETATM   19  N1  UNL     1       0.147  -2.666  -0.827  1.00  0.00    -0.322 N 
HETATM   20  C7  UNL     1       1.326  -3.149  -0.400  1.00  0.00     0.117 A 
HETATM   21  C8  UNL     1       1.432  -4.362   0.242  1.00  0.00     0.140 A 
HETATM   22  N2  UNL     1       0.315  -5.077   0.442  1.00  0.00    -0.243 N 
HETATM   23  C9  UNL     1      -0.877  -4.620   0.026  1.00  0.00     0.160 A 
HETATM   24  C10 UNL     1      -0.967  -3.426  -0.604  1.00  0.00     0.103 A 
HETATM   25 BR1  UNL     1      -2.680  -2.773  -1.203  1.00  0.00    -0.029 Br
BRANCH  22  26
HETATM   26  O3  UNL     1       0.307  -6.305   1.077  1.00  0.00    -0.284 OA
ATOM     27  H3  UNL     1      -0.484  -6.811   1.219  1.00  0.00     0.245 HD
ENDBRANCH  22  26
ENDBRANCH  18  19
ENDBRANCH   1  18
BRANCH   2  28
HETATM   28  C11 UNL     1      -0.022  -0.757   1.619  1.00  0.00     0.120 C 
BRANCH  28  29
HETATM   29  C12 UNL     1       1.295  -0.428   2.273  1.00  0.00     0.077 A 
HETATM   30  C13 UNL     1       1.591  -1.171   3.415  1.00  0.00     0.033 A 
HETATM   31  C14 UNL     1       2.766  -0.939   4.087  1.00  0.00     0.004 A 
HETATM   32  C15 UNL     1       3.617   0.026   3.607  1.00  0.00     0.020 A 
HETATM   33  C16 UNL     1       3.322   0.755   2.485  1.00  0.00     0.123 A 
HETATM   34  N4  UNL     1       2.148   0.490   1.853  1.00  0.00    -0.235 N 
BRANCH  34  35
HETATM   35  O4  UNL     1       1.886   1.244   0.742  1.00  0.00    -0.283 OA
ATOM     36  H4  UNL     1       2.499   1.904   0.440  1.00  0.00     0.245 HD
ENDBRANCH  34  35
ENDBRANCH  28  29
ENDBRANCH   2  28
TORSDOF 11
