REMARK  8 active torsions:
REMARK  status: ('A' for Active; 'I' for Inactive)
REMARK    1  A    between atoms: C6_7  and  C7_8 
REMARK    2  A    between atoms: C7_8  and  C8_9 
REMARK    3  A    between atoms: C8_9  and  C9_10 
REMARK    4  A    between atoms: C8_9  and  C21_25 
REMARK    5  A    between atoms: C9_10  and  C10_11 
REMARK       I    between atoms: C10_11  and  N2_13 
REMARK    6  A    between atoms: N2_13  and  C11_15 
REMARK    7  A    between atoms: C21_25  and  O2_26 
REMARK    8  A    between atoms: N3_28  and  O3_30 
ROOT
HETATM    1  C8  UNL     1      -1.280   1.392   0.030  1.00  0.00     0.071 C 
ENDROOT
BRANCH   1   2
HETATM    2  C7  UNL     1      -2.664   1.259   0.606  1.00  0.00     0.019 C 
BRANCH   2   3
HETATM    3  C6  UNL     1      -3.208  -0.114   0.308  1.00  0.00     0.012 C 
HETATM    4  C5  UNL     1      -3.243  -0.290  -1.180  1.00  0.00     0.008 C 
HETATM    5  C4  UNL     1      -4.047  -1.564  -1.476  1.00  0.00     0.028 C 
HETATM    6  C3  UNL     1      -5.455  -1.259  -1.022  1.00  0.00     0.236 C 
HETATM    7  N1  UNL     1      -5.475  -1.136   0.418  1.00  0.00    -0.074 N 
HETATM    8  C1  UNL     1      -6.829  -0.763   0.798  1.00  0.00     0.272 C 
HETATM    9  C2  UNL     1      -5.221  -2.448   1.026  1.00  0.00     0.272 C 
HETATM   10  C22 UNL     1      -4.580  -0.172   0.938  1.00  0.00     0.241 C 
ENDBRANCH   2   3
ENDBRANCH   1   2
BRANCH   1  11
HETATM   11  C9  UNL     1      -0.382   0.361   0.643  1.00  0.00     0.115 C 
BRANCH  11  12
HETATM   12  C10 UNL     1       0.978   0.492   0.029  1.00  0.00     0.218 C 
HETATM   13  O1  UNL     1       1.150   1.256  -0.930  1.00  0.00    -0.274 OA
HETATM   14  N2  UNL     1       2.005  -0.280   0.593  1.00  0.00    -0.352 N 
ATOM     15  H2  UNL     1       1.790  -0.886   1.384  1.00  0.00     0.163 HD
BRANCH  14  16
HETATM   16  C11 UNL     1       3.347  -0.243   0.092  1.00  0.00     0.034 C 
HETATM   17  C12 UNL     1       4.176  -1.174   0.966  1.00  0.00     0.035 C 
HETATM   18  C13 UNL     1       5.624  -1.160   0.535  1.00  0.00    -0.012 C 
HETATM   19  C14 UNL     1       5.633  -1.673  -0.890  1.00  0.00     0.009 C 
HETATM   20  C18 UNL     1       6.164   0.225   0.665  1.00  0.00     0.009 C 
HETATM   21  C15 UNL     1       4.886  -0.719  -1.781  1.00  0.00    -0.012 C 
HETATM   22  C16 UNL     1       5.505   0.653  -1.645  1.00  0.00     0.009 C 
HETATM   23  C20 UNL     1       3.435  -0.631  -1.356  1.00  0.00     0.035 C 
HETATM   24  C17 UNL     1       5.369   1.153  -0.244  1.00  0.00    -0.012 C 
HETATM   25  C19 UNL     1       3.944   1.133   0.269  1.00  0.00     0.035 C 
ENDBRANCH  14  16
ENDBRANCH  11  12
ENDBRANCH   1  11
BRANCH   1  26
HETATM   26  C21 UNL     1      -0.768   2.784   0.280  1.00  0.00     0.140 C 
HETATM   27  N3  UNL     1       0.157   3.033   1.137  1.00  0.00    -0.251 N 
ATOM     28  H3  UNL     1       0.560   2.261   1.668  1.00  0.00     0.196 HD
BRANCH  26  29
HETATM   29  O2  UNL     1      -1.301   3.851  -0.428  1.00  0.00    -0.348 OA
ATOM     30  H2  UNL     1      -0.978   4.730  -0.270  1.00  0.00     0.219 HD
ENDBRANCH  26  29
BRANCH  27  31
HETATM   31  O3  UNL     1       0.618   4.304   1.359  1.00  0.00    -0.288 OA
ATOM     32  H3  UNL     1       1.302   4.488   1.992  1.00  0.00     0.244 HD
ENDBRANCH  27  31
ENDBRANCH   1  26
TORSDOF 8
