REMARK  6 active torsions:
REMARK  status: ('A' for Active; 'I' for Inactive)
REMARK       I    between atoms: C1_2  and  N1_3 
REMARK       I    between atoms: C1_2  and  N3_21 
REMARK    1  A    between atoms: N1_3  and  C2_5 
REMARK    2  A    between atoms: C2_5  and  C3_6 
REMARK    3  A    between atoms: C6_9  and  C7_10 
REMARK       I    between atoms: C7_10  and  N2_12 
REMARK    4  A    between atoms: N2_12  and  C8_14 
REMARK    5  A    between atoms: C8_14  and  C9_15 
REMARK    6  A    between atoms: N3_21  and  C14_23 
ROOT
HETATM    1  C2  UNL     1       0.249  -1.682  -0.416  1.00  0.00     0.129 C 
ENDROOT
BRANCH   1   2
HETATM    2  N1  UNL     1      -0.846  -1.451   0.461  1.00  0.00    -0.343 N 
HETATM    3  C1  UNL     1      -2.047  -0.849   0.038  1.00  0.00     0.316 C 
HETATM    4  O1  UNL     1      -2.261  -0.469  -1.159  1.00  0.00    -0.247 OA
HETATM    5  N3  UNL     1      -3.091  -0.640   0.955  1.00  0.00    -0.334 N 
ATOM      6  H3  UNL     1      -2.932  -0.942   1.916  1.00  0.00     0.165 HD
ATOM      7  H1  UNL     1      -0.758  -1.733   1.437  1.00  0.00     0.164 HD
BRANCH   5   8
HETATM    8  C14 UNL     1      -4.359  -0.040   0.661  1.00  0.00     0.039 C 
HETATM    9  C15 UNL     1      -4.282   1.375   0.147  1.00  0.00     0.036 C 
HETATM   10  C16 UNL     1      -5.636   1.482  -0.570  1.00  0.00    -0.011 C 
HETATM   11  C17 UNL     1      -6.786   1.294   0.393  1.00  0.00     0.009 C 
HETATM   12  C21 UNL     1      -5.573   0.228  -1.433  1.00  0.00     0.012 C 
HETATM   13  C18 UNL     1      -6.619   0.075   1.240  1.00  0.00    -0.011 C 
HETATM   14  C19 UNL     1      -6.493  -1.149   0.324  1.00  0.00     0.012 C 
HETATM   15  C22 UNL     1      -5.247   0.029   1.910  1.00  0.00     0.036 C 
HETATM   16  C20 UNL     1      -5.169  -0.798  -0.372  1.00  0.00     0.014 C 
ENDBRANCH   5   8
ENDBRANCH   1   2
BRANCH   1  17
HETATM   17  C3  UNL     1       0.760  -0.394  -0.969  1.00  0.00     0.004 C 
HETATM   18  C4  UNL     1       1.232   0.545   0.121  1.00  0.00     0.007 C 
HETATM   19  C5  UNL     1       2.707   0.766  -0.124  1.00  0.00     0.014 C 
HETATM   20  C6  UNL     1       3.095  -0.590  -0.722  1.00  0.00     0.078 C 
HETATM   21  C13 UNL     1       2.019  -0.737  -1.772  1.00  0.00     0.020 C 
BRANCH  20  22
HETATM   22  C7  UNL     1       4.444  -0.572  -1.284  1.00  0.00     0.222 C 
HETATM   23  O2  UNL     1       4.646  -0.816  -2.498  1.00  0.00    -0.273 OA
HETATM   24  N2  UNL     1       5.550  -0.273  -0.443  1.00  0.00    -0.356 N 
ATOM     25  H2  UNL     1       5.389  -0.074   0.544  1.00  0.00     0.162 HD
BRANCH  24  26
HETATM   26  C8  UNL     1       6.890  -0.246  -0.958  1.00  0.00     0.168 C 
BRANCH  26  27
HETATM   27  C9  UNL     1       7.821   0.098   0.172  1.00  0.00     0.000 A 
HETATM   28  C10 UNL     1       8.230   1.343   0.572  1.00  0.00     0.017 A 
HETATM   29  C11 UNL     1       9.068   1.409   1.611  1.00  0.00     0.008 A 
HETATM   30  C12 UNL     1       9.451   0.232   2.192  1.00  0.00     0.050 A 
HETATM   31  S1  UNL     1       8.624  -0.936   1.264  1.00  0.00    -0.105 SA
ENDBRANCH  26  27
ENDBRANCH  24  26
ENDBRANCH  20  22
ENDBRANCH   1  17
TORSDOF 6
