REMARK  7 active torsions:
REMARK  status: ('A' for Active; 'I' for Inactive)
REMARK    1  A    between atoms: C2_2  and  C3_3 
REMARK    2  A    between atoms: C2_2  and  C8_8 
REMARK    3  A    between atoms: C11_11  and  C12_12 
REMARK    4  A    between atoms: C12_12  and  N1_13 
REMARK       I    between atoms: N1_13  and  C13_15 
REMARK    5  A    between atoms: C13_15  and  C14_17 
REMARK    6  A    between atoms: C14_17  and  N2_18 
REMARK       I    between atoms: N2_18  and  C15_20 
REMARK    7  A    between atoms: C15_20  and  C16_22 
ROOT
HETATM    1  N1  UNL     1      -0.876  -0.647   0.730  1.00  0.00    -0.357 N 
ATOM      2  H1  UNL     1      -0.606  -1.212  -0.075  1.00  0.00     0.162 HD
HETATM    3  C13 UNL     1      -2.234  -0.241   0.868  1.00  0.00     0.246 C 
HETATM    4  O1  UNL     1      -2.533   0.451   1.871  1.00  0.00    -0.271 OA
ENDROOT
BRANCH   1   5
HETATM    5  C12 UNL     1       0.132  -0.279   1.704  1.00  0.00     0.147 C 
BRANCH   5   6
HETATM    6  C11 UNL     1       1.449  -0.850   1.275  1.00  0.00     0.094 C 
HETATM    7  C10 UNL     1       1.891  -0.343  -0.061  1.00  0.00     0.027 C 
HETATM    8  C9  UNL     1       3.014  -1.291  -0.519  1.00  0.00     0.013 C 
HETATM    9  C8  UNL     1       4.062  -1.335   0.555  1.00  0.00     0.031 C 
HETATM   10  C24 UNL     1       3.788  -0.361   1.690  1.00  0.00     0.123 C 
HETATM   11  N3  UNL     1       2.480  -0.634   2.243  1.00  0.00    -0.415 N 
ATOM     12  H3  UNL     1       2.306  -0.670   3.247  1.00  0.00     0.153 HD
BRANCH   9  13
HETATM   13  C2  UNL     1       5.450  -1.350   0.081  1.00  0.00    -0.079 C 
HETATM   14  C1  UNL     1       6.075  -2.526   0.147  1.00  0.00     0.015 C 
BRANCH  13  15
HETATM   15  C3  UNL     1       6.196  -0.207  -0.452  1.00  0.00     0.014 C 
HETATM   16  C4  UNL     1       6.580   0.877   0.482  1.00  0.00     0.009 C 
HETATM   17  C5  UNL     1       6.337   2.198  -0.273  1.00  0.00     0.001 C 
HETATM   18  C6  UNL     1       6.537   1.702  -1.715  1.00  0.00     0.001 C 
HETATM   19  C7  UNL     1       5.599   0.476  -1.651  1.00  0.00     0.009 C 
ENDBRANCH  13  15
ENDBRANCH   9  13
ENDBRANCH   5   6
ENDBRANCH   1   5
BRANCH   3  20
HETATM   20  C14 UNL     1      -3.217  -0.632  -0.136  1.00  0.00     0.113 C 
HETATM   21  C20 UNL     1      -2.720  -0.228  -1.510  1.00  0.00     0.041 C 
HETATM   22  C21 UNL     1      -3.653  -1.016  -2.413  1.00  0.00     0.003 C 
HETATM   23  C22 UNL     1      -3.994  -2.277  -1.634  1.00  0.00     0.003 C 
HETATM   24  C23 UNL     1      -3.261  -2.154  -0.318  1.00  0.00     0.041 C 
BRANCH  20  25
HETATM   25  N2  UNL     1      -4.525  -0.132   0.138  1.00  0.00    -0.342 N 
HETATM   26  C15 UNL     1      -4.808   1.243   0.203  1.00  0.00     0.226 C 
HETATM   27  O2  UNL     1      -3.901   2.081   0.016  1.00  0.00    -0.273 OA
ATOM     28  H2  UNL     1      -5.283  -0.797   0.292  1.00  0.00     0.163 HD
BRANCH  26  29
HETATM   29  C16 UNL     1      -6.177   1.726   0.493  1.00  0.00     0.030 C 
HETATM   30  C17 UNL     1      -6.177   3.226   0.501  1.00  0.00     0.024 C 
HETATM   31  C18 UNL     1      -7.110   1.190  -0.569  1.00  0.00     0.024 C 
HETATM   32  C19 UNL     1      -6.597   1.196   1.847  1.00  0.00     0.024 C 
ENDBRANCH  26  29
ENDBRANCH  20  25
ENDBRANCH   3  20
TORSDOF 7
