REMARK  8 active torsions:
REMARK  status: ('A' for Active; 'I' for Inactive)
REMARK    1  A    between atoms: N1_1  and  C1_4 
REMARK    2  A    between atoms: C3_10  and  N4_11 
REMARK    3  A    between atoms: N5_14  and  C4_15 
REMARK    4  A    between atoms: C7_19  and  C8_20 
REMARK    5  A    between atoms: C8_20  and  N6_21 
REMARK    6  A    between atoms: C8_20  and  C9_25 
REMARK    7  A    between atoms: C10_31  and  O5_32 
REMARK    8  A    between atoms: C11_34  and  O6_35 
ROOT
HETATM    1  C4  UNL     1       0.556  -0.509   1.018  1.00  0.00     0.162 C 
HETATM    2  C5  UNL     1      -0.518   0.535   0.676  1.00  0.00     0.076 C 
HETATM    3  C6  UNL     1      -1.382  -0.636   0.268  1.00  0.00     0.144 C 
HETATM    4  O2  UNL     1      -2.230  -0.438  -0.783  1.00  0.00    -0.338 OA
HETATM    5  C7  UNL     1      -3.272   0.283  -0.226  1.00  0.00     0.366 C 
HETATM    6  N7  UNL     1      -3.450  -0.217   1.133  1.00  0.00    -0.017 N 
ATOM      7  H71 UNL     1      -4.352  -0.665   1.293  1.00  0.00     0.283 HD
ATOM      8  H72 UNL     1      -3.558   0.518   1.832  1.00  0.00     0.283 HD
HETATM    9  C10 UNL     1      -2.297  -1.099   1.370  1.00  0.00     0.359 C 
HETATM   10  C11 UNL     1      -0.147  -1.432   0.044  1.00  0.00     0.182 C 
ENDROOT
BRANCH   1  11
HETATM   11  N5  UNL     1       1.873  -0.097   0.648  1.00  0.00    -0.101 N 
HETATM   12  C3  UNL     1       2.928  -0.888   0.476  1.00  0.00     0.719 A 
HETATM   13  N3  UNL     1       4.014  -0.158   0.128  1.00  0.00     0.080 N 
HETATM   14  C2  UNL     1       5.299  -0.403  -0.162  1.00  0.00     0.376 A 
HETATM   15  C12 UNL     1       3.576   1.110   0.095  1.00  0.00     0.737 A 
HETATM   16  N2  UNL     1       6.132   0.575  -0.475  1.00  0.00    -0.140 N 
HETATM   17  O1  UNL     1       5.703  -1.596  -0.129  1.00  0.00    -0.244 OA
HETATM   18  C1  UNL     1       5.705   1.848  -0.511  1.00  0.00     0.694 A 
ATOM     19  H2  UNL     1       7.106   0.361  -0.691  1.00  0.00     0.189 HD
HETATM   20  N9  UNL     1       4.419   2.120  -0.225  1.00  0.00    -0.020 N 
ATOM     21  H9  UNL     1       4.081   3.082  -0.249  1.00  0.00     0.203 HD
HETATM   22  N8  UNL     1       2.258   1.144   0.416  1.00  0.00    -0.113 N 
ATOM     23  H8  UNL     1       1.672   1.977   0.468  1.00  0.00     0.206 HD
BRANCH  12  24
HETATM   24  N4  UNL     1       2.989  -2.172   0.603  1.00  0.00    -0.232 N 
ATOM     25  H42 UNL     1       3.798  -2.779   0.471  1.00  0.00     0.174 HD
ATOM     26  H41 UNL     1       2.171  -2.722   0.865  1.00  0.00     0.174 HD
ENDBRANCH  12  24
BRANCH  18  27
HETATM   27  N1  UNL     1       6.561   2.761  -0.823  1.00  0.00    -0.234 N 
ATOM     28  H12 UNL     1       7.536   2.555  -1.040  1.00  0.00     0.174 HD
ATOM     29  H11 UNL     1       6.237   3.728  -0.850  1.00  0.00     0.174 HD
ENDBRANCH  18  27
ENDBRANCH   1  11
BRANCH  10  30
HETATM   30  O6  UNL     1       0.326  -1.380  -1.262  1.00  0.00    -0.390 OA
ATOM     31  H6  UNL     1      -0.115  -1.959  -1.873  1.00  0.00     0.210 HD
ENDBRANCH  10  30
BRANCH   9  32
HETATM   32  O5  UNL     1      -2.729  -2.393   1.203  1.00  0.00    -0.367 OA
ATOM     33  H5  UNL     1      -3.306  -2.685   1.898  1.00  0.00     0.212 HD
ENDBRANCH   9  32
BRANCH   5  34
HETATM   34  C8  UNL     1      -4.559   0.113  -1.024  1.00  0.00     0.339 C 
BRANCH  34  35
HETATM   35  N6  UNL     1      -4.904  -1.284  -1.029  1.00  0.00    -0.061 N 
ATOM     36  H63 UNL     1      -4.147  -1.875  -1.373  1.00  0.00     0.275 HD
ATOM     37  H62 UNL     1      -4.969  -1.676  -0.090  1.00  0.00     0.275 HD
ATOM     38  H61 UNL     1      -5.765  -1.398  -1.563  1.00  0.00     0.275 HD
ENDBRANCH  34  35
BRANCH  34  39
HETATM   39  C9  UNL     1      -5.637   0.931  -0.420  1.00  0.00     0.209 C 
HETATM   40  O3  UNL     1      -6.700   0.433   0.020  1.00  0.00    -0.646 OA
HETATM   41  O4  UNL     1      -5.465   2.303  -0.337  1.00  0.00    -0.646 OA
ENDBRANCH  34  39
ENDBRANCH   5  34
TORSDOF 8
