REMARK  6 active torsions:
REMARK  status: ('A' for Active; 'I' for Inactive)
REMARK    1  A    between atoms: C2_4  and  N2_5 
REMARK    2  A    between atoms: C2_4  and  C11_19 
REMARK    3  A    between atoms: N2_5  and  C3_7 
REMARK    4  A    between atoms: C3_7  and  C4_8 
REMARK    5  A    between atoms: C4_8  and  N3_9 
REMARK    6  A    between atoms: C4_8  and  C5_13 
ROOT
HETATM    1  N2  UNL     1      -1.210  -0.573  -1.503  1.00  0.00    -0.371 N 
ATOM      2  H2  UNL     1      -1.449  -0.440  -2.486  1.00  0.00     0.161 HD
ENDROOT
BRANCH   1   3
HETATM    3  C2  UNL     1      -2.218  -0.509  -0.521  1.00  0.00     0.141 C 
HETATM    4  N1  UNL     1      -2.688  -1.595  -0.033  1.00  0.00    -0.378 N 
HETATM    5  C1  UNL     1      -2.188  -2.862  -0.490  1.00  0.00     0.147 C 
ATOM      6  H1  UNL     1      -3.417  -1.561   0.680  1.00  0.00     0.160 HD
BRANCH   3   7
HETATM    7  C11 UNL     1      -2.801   0.736   0.002  1.00  0.00     0.149 A 
HETATM    8  N4  UNL     1      -2.817   1.964  -0.540  1.00  0.00    -0.348 N 
HETATM    9  C12 UNL     1      -3.452   2.820   0.278  1.00  0.00     0.107 A 
ATOM     10  H4  UNL     1      -2.407   2.211  -1.441  1.00  0.00     0.167 HD
HETATM   11  C13 UNL     1      -3.858   2.108   1.386  1.00  0.00     0.107 A 
HETATM   12  N5  UNL     1      -3.446   0.851   1.182  1.00  0.00    -0.348 N 
ATOM     13  H5  UNL     1      -3.599   0.081   1.833  1.00  0.00     0.167 HD
ENDBRANCH   3   7
ENDBRANCH   1   3
BRANCH   1  14
HETATM   14  C3  UNL     1       0.156  -0.826  -1.125  1.00  0.00     0.159 C 
BRANCH  14  15
HETATM   15  C4  UNL     1       0.725   0.344  -0.391  1.00  0.00     0.234 C 
BRANCH  15  16
HETATM   16  N3  UNL     1       0.719   1.524  -1.219  1.00  0.00    -0.069 N 
ATOM     17  H33 UNL     1       1.199   1.365  -2.105  1.00  0.00     0.275 HD
ATOM     18  H32 UNL     1      -0.213   1.724  -1.582  1.00  0.00     0.275 HD
ATOM     19  H31 UNL     1       1.108   2.323  -0.718  1.00  0.00     0.275 HD
ENDBRANCH  15  16
BRANCH  15  20
HETATM   20  C5  UNL     1       2.095   0.086   0.120  1.00  0.00    -0.026 A 
HETATM   21  C6  UNL     1       2.315  -0.242   1.449  1.00  0.00     0.009 A 
HETATM   22  C7  UNL     1       3.563  -0.491   1.975  1.00  0.00     0.001 A 
HETATM   23  C8  UNL     1       4.669  -0.411   1.126  1.00  0.00     0.000 A 
HETATM   24  C9  UNL     1       4.485  -0.089  -0.192  1.00  0.00     0.001 A 
HETATM   25  C10 UNL     1       3.224   0.153  -0.681  1.00  0.00     0.009 A 
ENDBRANCH  15  20
ENDBRANCH  14  15
ENDBRANCH   1  14
TORSDOF 6
