REMARK  2 active torsions:
REMARK  status: ('A' for Active; 'I' for Inactive)
REMARK    1  A    between atoms: C2_2  and  C3_3 
REMARK    2  A    between atoms: C3_3  and  C4_4 
ROOT
HETATM    1  C4  UNL     1       0.415  -0.200  -0.466  1.00  0.00     0.103 C 
HETATM    2  C5  UNL     1      -0.657  -1.210  -0.841  1.00  0.00     0.256 C 
HETATM    3  N1  UNL     1      -1.777  -0.558  -1.483  1.00  0.00    -0.073 N 
ATOM      4  H11 UNL     1      -2.076  -1.015  -2.345  1.00  0.00     0.277 HD
ATOM      5  H12 UNL     1      -1.541   0.343  -1.898  1.00  0.00     0.277 HD
HETATM    6  C6  UNL     1      -2.829  -0.478  -0.467  1.00  0.00     0.235 C 
HETATM    7  C7  UNL     1      -2.494   0.711   0.401  1.00  0.00     0.067 C 
HETATM    8  C8  UNL     1      -1.207   0.556   1.148  1.00  0.00     0.186 C 
HETATM    9  C9  UNL     1      -1.243   1.522   2.272  1.00  0.00     0.084 C 
HETATM   10  N2  UNL     1      -1.284   2.277   3.147  1.00  0.00    -0.195 NA
HETATM   11  N3  UNL     1      -0.036   0.829   0.391  1.00  0.00    -0.400 N 
ATOM     12  H3  UNL     1       0.453   1.721   0.462  1.00  0.00     0.155 HD
ENDROOT
BRANCH   1  13
HETATM   13  C3  UNL     1       1.598  -0.973   0.030  1.00  0.00     0.026 C 
BRANCH  13  14
HETATM   14  C2  UNL     1       2.755  -0.115   0.445  1.00  0.00    -0.002 C 
HETATM   15  C1  UNL     1       3.302   0.744  -0.642  1.00  0.00     0.005 C 
ENDBRANCH  13  14
ENDBRANCH   1  13
TORSDOF 2
