REMARK  2 active torsions:
REMARK  status: ('A' for Active; 'I' for Inactive)
REMARK    1  A    between atoms: C2_2  and  C3_3 
REMARK    2  A    between atoms: C3_3  and  C4_4 
ROOT
HETATM    1  C4  UNL     1       0.232  -0.555   0.702  1.00  0.00     0.191 C 
HETATM    2  N1  UNL     1       0.120  -1.919   0.242  1.00  0.00    -0.069 N 
ATOM      3  H11 UNL     1       0.563  -2.620   0.836  1.00  0.00     0.277 HD
ATOM      4  H12 UNL     1       0.667  -2.148  -0.588  1.00  0.00     0.277 HD
HETATM    5  C5  UNL     1      -1.330  -2.044   0.095  1.00  0.00     0.256 C 
HETATM    6  C6  UNL     1      -1.655  -0.830  -0.726  1.00  0.00     0.138 C 
HETATM    7  N2  UNL     1      -2.961  -0.326  -0.369  1.00  0.00    -0.094 NA
HETATM    8  O1  UNL     1      -3.202   0.892  -0.893  1.00  0.00    -0.286 OA
HETATM    9  C7  UNL     1      -2.450   1.890  -0.298  1.00  0.00     0.196 C 
HETATM   10  C8  UNL     1      -1.328   1.301   0.497  1.00  0.00     0.036 C 
HETATM   11  C9  UNL     1      -0.611   0.200  -0.284  1.00  0.00     0.041 C 
ENDROOT
BRANCH   1  12
HETATM   12  C3  UNL     1       1.650  -0.079   0.785  1.00  0.00     0.033 C 
BRANCH  12  13
HETATM   13  C2  UNL     1       2.391  -0.107  -0.507  1.00  0.00    -0.002 C 
HETATM   14  C1  UNL     1       3.805   0.408  -0.224  1.00  0.00     0.005 C 
ENDBRANCH  12  13
ENDBRANCH   1  12
TORSDOF 2
