REMARK  9 active torsions:
REMARK  status: ('A' for Active; 'I' for Inactive)
REMARK    1  A    between atoms: N1_1  and  N2_4 
REMARK       I    between atoms: N2_4  and  C1_6 
REMARK    2  A    between atoms: C1_6  and  C2_8 
REMARK    3  A    between atoms: C2_8  and  N3_9 
REMARK    4  A    between atoms: C2_8  and  C3_13 
REMARK    5  A    between atoms: C3_13  and  O2_14 
REMARK    6  A    between atoms: C3_13  and  C4_16 
REMARK    7  A    between atoms: C6_18  and  C7_19 
REMARK    8  A    between atoms: C12_30  and  N7_31 
REMARK    9  A    between atoms: C14_36  and  N8_37 
ROOT
HETATM    1  C4  UNL     1       0.289  -0.120  -0.418  1.00  0.00     0.013 C 
HETATM    2  C5  UNL     1      -0.500   1.164  -0.279  1.00  0.00     0.036 C 
HETATM    3  C6  UNL     1      -1.190   1.533   0.952  1.00  0.00     0.151 C 
HETATM    4  C8  UNL     1      -2.698   1.512   0.850  1.00  0.00     0.187 C 
HETATM    5  O4  UNL     1      -3.230   2.568   0.581  1.00  0.00    -0.290 OA
HETATM    6  C9  UNL     1      -3.587   0.365   1.037  1.00  0.00     0.107 C 
HETATM    7  N5  UNL     1      -4.619   0.282  -0.015  1.00  0.00    -0.097 NA
HETATM    8  C10 UNL     1      -3.097  -0.952   1.416  1.00  0.00     0.114 C 
HETATM    9  N6  UNL     1      -2.575  -1.874   0.454  1.00  0.00    -0.389 N 
ATOM     10  H6  UNL     1      -2.941  -2.817   0.324  1.00  0.00     0.159 HD
HETATM   11  C11 UNL     1      -1.545  -1.367  -0.266  1.00  0.00     0.134 C 
HETATM   12  C12 UNL     1      -1.086  -1.818  -1.614  1.00  0.00     0.209 C 
HETATM   13  C13 UNL     1      -0.021  -0.709  -1.821  1.00  0.00     0.049 C 
HETATM   14  C14 UNL     1      -0.183  -1.259   0.363  1.00  0.00     0.110 C 
ENDROOT
BRANCH   1  15
HETATM   15  C3  UNL     1       1.725   0.182  -0.255  1.00  0.00     0.168 C 
BRANCH  15  16
HETATM   16  C2  UNL     1       2.795  -0.809  -0.352  1.00  0.00     0.305 C 
BRANCH  16  17
HETATM   17  C1  UNL     1       4.070  -0.133   0.097  1.00  0.00     0.268 C 
HETATM   18  N2  UNL     1       4.748   0.852  -0.640  1.00  0.00    -0.275 N 
ATOM     19  H2  UNL     1       4.384   1.152  -1.545  1.00  0.00     0.189 HD
HETATM   20  O1  UNL     1       4.564  -0.472   1.204  1.00  0.00    -0.269 OA
BRANCH  18  21
HETATM   21  N1  UNL     1       5.931   1.427  -0.131  1.00  0.00    -0.343 N 
ATOM     22  H12 UNL     1       6.281   1.116   0.775  1.00  0.00     0.176 HD
ATOM     23  H11 UNL     1       6.423   2.142  -0.666  1.00  0.00     0.176 HD
ENDBRANCH  18  21
ENDBRANCH  16  17
BRANCH  16  24
HETATM   24  N3  UNL     1       2.717  -1.983   0.476  1.00  0.00    -0.064 N 
ATOM     25  H33 UNL     1       3.544  -2.579   0.439  1.00  0.00     0.275 HD
ATOM     26  H32 UNL     1       2.763  -1.795   1.477  1.00  0.00     0.275 HD
ATOM     27  H31 UNL     1       1.857  -2.439   0.173  1.00  0.00     0.275 HD
ENDBRANCH  16  24
ENDBRANCH  15  16
BRANCH  15  28
HETATM   28  O2  UNL     1       2.123   1.216  -1.174  1.00  0.00    -0.392 OA
ATOM     29  H2  UNL     1       1.428   1.860  -1.111  1.00  0.00     0.210 HD
ENDBRANCH  15  28
ENDBRANCH   1  15
BRANCH  14  30
HETATM   30  N8  UNL     1      -0.073  -1.370   1.726  1.00  0.00    -0.423 N 
ATOM     31  H82 UNL     1       0.851  -1.297   2.153  1.00  0.00     0.150 HD
ATOM     32  H81 UNL     1      -0.403  -2.166   2.272  1.00  0.00     0.150 HD
ENDBRANCH  14  30
BRANCH   3  33
HETATM   33  C7  UNL     1      -0.867   2.942   1.341  1.00  0.00     0.242 C 
HETATM   34  N4  UNL     1      -1.173   4.052   0.508  1.00  0.00    -0.061 NA
HETATM   35  O3  UNL     1      -0.306   3.189   2.433  1.00  0.00    -0.276 OA
ENDBRANCH   3  33
BRANCH  12  36
HETATM   36  N7  UNL     1      -0.536  -3.132  -1.681  1.00  0.00    -0.073 N 
ATOM     37  H73 UNL     1       0.225  -3.223  -1.008  1.00  0.00     0.274 HD
ATOM     38  H72 UNL     1      -1.200  -3.805  -1.299  1.00  0.00     0.274 HD
ATOM     39  H71 UNL     1      -0.223  -3.440  -2.601  1.00  0.00     0.274 HD
ENDBRANCH  12  36
TORSDOF 9
