REMARK  7 active torsions:
REMARK  status: ('A' for Active; 'I' for Inactive)
REMARK    1  A    between atoms: C2_2  and  C3_4 
REMARK    2  A    between atoms: C3_4  and  C4_6 
REMARK    3  A    between atoms: C12_14  and  C13_15 
REMARK    4  A    between atoms: C13_15  and  N1_16 
REMARK       I    between atoms: N1_16  and  C14_18 
REMARK    5  A    between atoms: C14_18  and  C15_20 
REMARK    6  A    between atoms: C15_20  and  N2_21 
REMARK    7  A    between atoms: N3_25  and  S1_26 
ROOT
HETATM    1  C13 UNL     1      -1.238   0.897  -0.559  1.00  0.00     0.133 C 
ENDROOT
BRANCH   1   2
HETATM    2  C12 UNL     1      -2.352  -0.014  -0.230  1.00  0.00    -0.013 C 
HETATM    3  C4  UNL     1      -3.646   0.435  -0.905  1.00  0.00     0.071 C 
HETATM    4  C5  UNL     1      -4.691  -0.629  -0.737  1.00  0.00    -0.002 C 
HETATM    5  C6  UNL     1      -4.947  -0.841   0.745  1.00  0.00     0.010 C 
HETATM    6  C10 UNL     1      -4.299  -1.896  -1.410  1.00  0.00     0.010 C 
HETATM    7  C7  UNL     1      -3.701  -1.329   1.393  1.00  0.00    -0.013 C 
HETATM    8  C8  UNL     1      -3.270  -2.613   0.752  1.00  0.00     0.009 C 
HETATM    9  C22 UNL     1      -2.543  -0.332   1.187  1.00  0.00     0.016 C 
HETATM   10  C9  UNL     1      -3.043  -2.393  -0.716  1.00  0.00    -0.013 C 
HETATM   11  C11 UNL     1      -1.988  -1.354  -0.938  1.00  0.00     0.016 C 
BRANCH   3  12
HETATM   12  C3  UNL     1      -4.123   1.739  -0.362  1.00  0.00     0.150 C 
HETATM   13  O1  UNL     1      -3.644   2.341   0.571  1.00  0.00    -0.296 OA
BRANCH  12  14
HETATM   14  C2  UNL     1      -5.309   2.350  -1.042  1.00  0.00     0.148 C 
HETATM   15  C1  UNL     1      -5.654   3.661  -0.376  1.00  0.00     0.034 C 
HETATM   16 CL1  UNL     1      -4.992   2.665  -2.752  1.00  0.00    -0.117 Cl
ENDBRANCH  12  14
ENDBRANCH   3  12
ENDBRANCH   1   2
BRANCH   1  17
HETATM   17  N1  UNL     1       0.051   0.640  -0.030  1.00  0.00    -0.356 N 
HETATM   18  C14 UNL     1       0.601   0.710   1.241  1.00  0.00     0.256 C 
HETATM   19  O2  UNL     1      -0.050   1.076   2.269  1.00  0.00    -0.267 OA
ATOM     20  H1  UNL     1       0.720   0.338  -0.738  1.00  0.00     0.162 HD
BRANCH  18  21
HETATM   21  C15 UNL     1       2.017   0.359   1.542  1.00  0.00     0.164 C 
BRANCH  21  22
HETATM   22  N2  UNL     1       2.834   0.030   0.466  1.00  0.00    -0.364 N 
HETATM   23  C16 UNL     1       3.257   1.041  -0.429  1.00  0.00     0.129 C 
HETATM   24  C17 UNL     1       4.470   1.813   0.109  1.00  0.00     0.041 C 
HETATM   25  C18 UNL     1       5.478   0.842   0.714  1.00  0.00     0.137 C 
HETATM   26  N3  UNL     1       5.461  -0.338  -0.079  1.00  0.00    -0.306 N 
HETATM   27  C20 UNL     1       4.795  -1.451   0.501  1.00  0.00     0.179 C 
HETATM   28  C21 UNL     1       3.300  -1.283   0.284  1.00  0.00     0.084 C 
BRANCH  26  29
HETATM   29  S1  UNL     1       6.869  -0.652  -0.952  1.00  0.00     0.225 S 
HETATM   30  C19 UNL     1       8.316  -0.891   0.025  1.00  0.00     0.186 C 
HETATM   31  O3  UNL     1       6.668  -1.891  -1.779  1.00  0.00    -0.206 OA
HETATM   32  O4  UNL     1       7.064   0.485  -1.943  1.00  0.00    -0.206 OA
ENDBRANCH  26  29
ENDBRANCH  21  22
ENDBRANCH  18  21
ENDBRANCH   1  17
TORSDOF 7
