REMARK  0 active torsions:
REMARK  status: ('A' for Active; 'I' for Inactive)
REMARK       I    between atoms: N6_16  and  C5_17 
ROOT
HETATM    1  N1  UNL     1       0.219  -1.746  -1.764  1.00  0.00    -0.385 N 
ATOM      2  H11 UNL     1      -0.737  -2.095  -1.835  1.00  0.00     0.157 HD
ATOM      3  H12 UNL     1       0.688  -2.128  -2.586  1.00  0.00     0.157 HD
HETATM    4  C1  UNL     1       0.717  -0.994  -0.845  1.00  0.00     0.139 C 
HETATM    5  N2  UNL     1       2.050  -0.508  -0.746  1.00  0.00    -0.317 N 
ATOM      6  H2  UNL     1       2.860  -0.902  -1.225  1.00  0.00     0.170 HD
HETATM    7  C2  UNL     1       2.073   0.527   0.058  1.00  0.00     0.192 C 
HETATM    8  N3  UNL     1       3.226   1.309   0.426  1.00  0.00    -0.063 NA
HETATM    9  N4  UNL     1       0.761   0.795   0.543  1.00  0.00    -0.322 N 
ATOM     10  H4  UNL     1       0.408   1.664   0.943  1.00  0.00     0.165 HD
HETATM   11  C3  UNL     1       0.041  -0.443   0.340  1.00  0.00     0.273 C 
HETATM   12  C4  UNL     1      -0.044  -1.325   1.509  1.00  0.00     0.295 C 
HETATM   13  O1  UNL     1       0.760  -1.831   2.309  1.00  0.00    -0.266 OA
HETATM   14  N5  UNL     1      -1.441  -1.336   1.309  1.00  0.00    -0.257 N 
ATOM     15  H5  UNL     1      -2.208  -1.855   1.737  1.00  0.00     0.190 HD
HETATM   16  N6  UNL     1      -1.377  -0.366   0.303  1.00  0.00    -0.195 N 
HETATM   17  C5  UNL     1      -2.397   0.337  -0.393  1.00  0.00     0.352 C 
HETATM   18  N7  UNL     1      -1.984   1.279  -1.380  1.00  0.00    -0.038 NA
HETATM   19  O2  UNL     1      -3.620   0.164  -0.177  1.00  0.00    -0.249 OA
ENDROOT
TORSDOF 0
