REMARK  14 active torsions:
REMARK  status: ('A' for Active; 'I' for Inactive)
REMARK    1  A    between atoms: C6_6  and  O1_7 
REMARK    2  A    between atoms: C7_11  and  C8_12 
REMARK    3  A    between atoms: C8_12  and  C9_13 
REMARK    4  A    between atoms: C13_20  and  C14_21 
REMARK    5  A    between atoms: C14_21  and  C15_22 
REMARK    6  A    between atoms: C15_22  and  C16_23 
REMARK    7  A    between atoms: C16_23  and  C17_24 
REMARK    8  A    between atoms: C17_24  and  N3_25 
REMARK    9  A    between atoms: C19_33  and  C20_34 
REMARK   10  A    between atoms: C24_41  and  C25_42 
REMARK   11  A    between atoms: C25_42  and  C26_43 
REMARK   12  A    between atoms: C30_50  and  C31_51 
REMARK   13  A    between atoms: C31_51  and  C32_52 
REMARK   14  A    between atoms: C35_55  and  O6_56 
ROOT
HETATM    1  C1  UNL     1      -4.773  -3.607   0.525  1.00  0.00     0.048 C 
HETATM    2  C2  UNL     1      -3.423  -3.248  -0.117  1.00  0.00    -0.060 C 
HETATM    3  C3  UNL     1      -3.078  -3.957  -1.190  1.00  0.00     0.007 C 
HETATM    4  C4  UNL     1      -1.921  -3.924  -2.038  1.00  0.00     0.005 C 
HETATM    5  C5  UNL     1      -0.665  -4.233  -1.870  1.00  0.00     0.055 C 
HETATM    6  C6  UNL     1       0.086  -4.740  -0.743  1.00  0.00     0.136 C 
HETATM    7  N1  UNL     1       0.736  -4.114   0.321  1.00  0.00    -0.358 N 
ATOM      8  H1  UNL     1       0.280  -4.245   1.224  1.00  0.00     0.162 HD
HETATM    9  C7  UNL     1       1.937  -3.314   0.375  1.00  0.00     0.176 C 
HETATM   10  C12 UNL     1       1.614  -1.886   0.171  1.00  0.00     0.241 C 
HETATM   11  O2  UNL     1       0.842  -1.733  -0.852  1.00  0.00    -0.271 OA
HETATM   12  N2  UNL     1       1.985  -0.754   0.863  1.00  0.00    -0.346 N 
ATOM     13  H2  UNL     1       1.211  -0.254   1.300  1.00  0.00     0.163 HD
HETATM   14  C13 UNL     1       3.280  -0.152   1.077  1.00  0.00     0.176 C 
HETATM   15  C18 UNL     1       3.696   0.785   0.004  1.00  0.00     0.241 C 
HETATM   16  O3  UNL     1       4.759   0.433  -0.648  1.00  0.00    -0.271 OA
HETATM   17  N4  UNL     1       3.078   1.980  -0.371  1.00  0.00    -0.346 N 
ATOM     18  H4  UNL     1       3.664   2.814  -0.331  1.00  0.00     0.163 HD
HETATM   19  C19 UNL     1       1.719   2.189  -0.808  1.00  0.00     0.180 C 
HETATM   20  C23 UNL     1       1.545   1.771  -2.239  1.00  0.00     0.241 C 
HETATM   21  O4  UNL     1       2.541   2.057  -2.987  1.00  0.00    -0.271 OA
HETATM   22  N5  UNL     1       0.466   1.136  -2.814  1.00  0.00    -0.346 N 
ATOM     23  H5  UNL     1       0.670   0.330  -3.405  1.00  0.00     0.163 HD
HETATM   24  C24 UNL     1      -0.967   1.508  -2.660  1.00  0.00     0.177 C 
HETATM   25  C29 UNL     1      -1.756   0.283  -2.940  1.00  0.00     0.241 C 
HETATM   26  O5  UNL     1      -1.525  -0.228  -4.092  1.00  0.00    -0.271 OA
HETATM   27  N6  UNL     1      -2.689  -0.332  -2.086  1.00  0.00    -0.349 N 
ATOM     28  H6  UNL     1      -3.221  -1.100  -2.495  1.00  0.00     0.163 HD
HETATM   29  C30 UNL     1      -2.993  -0.029  -0.726  1.00  0.00     0.141 C 
HETATM   30  C35 UNL     1      -2.496  -0.922   0.311  1.00  0.00     0.066 C 
HETATM   31  C36 UNL     1      -2.681  -2.189   0.533  1.00  0.00     0.041 C 
ENDROOT
BRANCH  14  32
HETATM   32  C14 UNL     1       3.255   0.593   2.430  1.00  0.00     0.035 C 
BRANCH  32  33
HETATM   33  C15 UNL     1       4.628   1.193   2.600  1.00  0.00     0.004 C 
BRANCH  33  34
HETATM   34  C16 UNL     1       4.752   1.970   3.889  1.00  0.00     0.027 C 
BRANCH  34  35
HETATM   35  C17 UNL     1       3.766   3.116   3.951  1.00  0.00     0.229 C 
BRANCH  35  36
HETATM   36  N3  UNL     1       3.962   3.797   5.215  1.00  0.00    -0.079 N 
ATOM     37  H33 UNL     1       3.894   3.171   6.017  1.00  0.00     0.274 HD
ATOM     38  H32 UNL     1       4.927   4.096   5.359  1.00  0.00     0.274 HD
ATOM     39  H31 UNL     1       3.297   4.570   5.257  1.00  0.00     0.274 HD
ENDBRANCH  35  36
ENDBRANCH  34  35
ENDBRANCH  33  34
ENDBRANCH  32  33
ENDBRANCH  14  32
BRANCH   9  40
HETATM   40  C8  UNL     1       2.710  -3.601   1.647  1.00  0.00     0.038 C 
BRANCH  40  41
HETATM   41  C9  UNL     1       3.035  -5.093   1.611  1.00  0.00    -0.020 C 
HETATM   42  C10 UNL     1       3.808  -5.397   2.872  1.00  0.00     0.009 C 
HETATM   43  C11 UNL     1       3.920  -5.386   0.434  1.00  0.00     0.009 C 
ENDBRANCH  40  41
ENDBRANCH   9  40
BRANCH  19  44
HETATM   44  C20 UNL     1       1.382   3.651  -0.717  1.00  0.00     0.009 C 
HETATM   45  C21 UNL     1       2.239   4.542  -1.560  1.00  0.00     0.012 C 
HETATM   46  C22 UNL     1       1.432   4.170   0.700  1.00  0.00     0.012 C 
ENDBRANCH  19  44
BRANCH   6  47
HETATM   47  O1  UNL     1       0.193  -6.059  -0.695  1.00  0.00    -0.346 OA
ATOM     48  H1  UNL     1       0.686  -6.392   0.045  1.00  0.00     0.219 HD
ENDBRANCH   6  47
BRANCH  24  49
HETATM   49  C25 UNL     1      -1.316   2.562  -3.656  1.00  0.00     0.038 C 
BRANCH  49  50
HETATM   50  C26 UNL     1      -2.679   3.107  -3.685  1.00  0.00    -0.020 C 
HETATM   51  C27 UNL     1      -3.161   3.751  -2.408  1.00  0.00     0.009 C 
HETATM   52  C28 UNL     1      -3.775   2.252  -4.248  1.00  0.00     0.009 C 
ENDBRANCH  49  50
ENDBRANCH  24  49
BRANCH  29  53
HETATM   53  C31 UNL     1      -4.512   0.164  -0.636  1.00  0.00     0.036 C 
BRANCH  53  54
HETATM   54  C32 UNL     1      -4.957   0.478   0.777  1.00  0.00    -0.020 C 
HETATM   55  C33 UNL     1      -4.359   1.727   1.345  1.00  0.00     0.009 C 
HETATM   56  C34 UNL     1      -6.482   0.656   0.689  1.00  0.00     0.009 C 
ENDBRANCH  53  54
ENDBRANCH  29  53
BRANCH  30  57
HETATM   57  O6  UNL     1      -1.637  -0.264   1.268  1.00  0.00    -0.363 OA
ATOM     58  H6  UNL     1      -1.313  -0.847   1.945  1.00  0.00     0.217 HD
ENDBRANCH  30  57
TORSDOF 14
