REMARK  11 active torsions:
REMARK  status: ('A' for Active; 'I' for Inactive)
REMARK    1  A    between atoms: C2_2  and  O2_4 
REMARK    2  A    between atoms: O2_4  and  C3_5 
REMARK    3  A    between atoms: C3_5  and  C4_6 
REMARK    4  A    between atoms: C3_5  and  C15_18 
REMARK    5  A    between atoms: C4_6  and  C6_8 
REMARK    6  A    between atoms: C6_8  and  C7_9 
REMARK    7  A    between atoms: C7_9  and  C9_11 
REMARK    8  A    between atoms: C9_11  and  C10_12 
REMARK    9  A    between atoms: C11_13  and  C13_15 
REMARK   10  A    between atoms: C15_18  and  C17_20 
REMARK   11  A    between atoms: C26_29  and  O4_30 
ROOT
HETATM    1  C15 UNL     1      -0.067   0.160   0.637  1.00  0.00     0.020 C 
HETATM    2  C16 UNL     1       0.689   1.304  -0.029  1.00  0.00     0.013 C 
ENDROOT
BRANCH   1   3
HETATM    3  C3  UNL     1       0.895  -0.954   0.985  1.00  0.00     0.164 C 
BRANCH   3   4
HETATM    4  O2  UNL     1       0.330  -2.043   1.622  1.00  0.00    -0.311 OA
BRANCH   4   5
HETATM    5  C2  UNL     1       0.360  -3.365   1.379  1.00  0.00     0.255 C 
HETATM    6  C1  UNL     1      -0.392  -4.288   2.282  1.00  0.00     0.126 C 
HETATM    7  O1  UNL     1       1.005  -3.785   0.420  1.00  0.00    -0.266 OA
ENDBRANCH   4   5
ENDBRANCH   3   4
BRANCH   3   8
HETATM    8  C4  UNL     1       2.058  -0.406   1.804  1.00  0.00    -0.054 C 
HETATM    9  C5  UNL     1       1.858   0.306   3.058  1.00  0.00     0.046 C 
BRANCH   8  10
HETATM   10  C6  UNL     1       3.277  -0.585   1.363  1.00  0.00     0.007 C 
BRANCH  10  11
HETATM   11  C7  UNL     1       4.591  -0.239   1.824  1.00  0.00    -0.080 C 
HETATM   12  C8  UNL     1       4.831   0.175   3.222  1.00  0.00     0.043 C 
BRANCH  11  13
HETATM   13  C9  UNL     1       5.396   0.669   0.880  1.00  0.00     0.061 C 
BRANCH  13  14
HETATM   14  C10 UNL     1       5.598   0.023  -0.451  1.00  0.00    -0.012 C 
HETATM   15  C11 UNL     1       5.195   0.597  -1.569  1.00  0.00    -0.020 C 
HETATM   16  C12 UNL     1       4.524   1.927  -1.463  1.00  0.00     0.052 C 
BRANCH  15  17
HETATM   17  C13 UNL     1       5.361   0.020  -2.883  1.00  0.00     0.151 C 
HETATM   18  C14 UNL     1       5.999  -1.281  -3.134  1.00  0.00     0.096 C 
HETATM   19  O3  UNL     1       4.941   0.652  -3.883  1.00  0.00    -0.293 OA
ENDBRANCH  15  17
ENDBRANCH  13  14
ENDBRANCH  11  13
ENDBRANCH  10  11
ENDBRANCH   8  10
ENDBRANCH   3   8
ENDBRANCH   1   3
BRANCH   1  20
HETATM   20  C17 UNL     1      -1.293  -0.222  -0.070  1.00  0.00     0.004 C 
HETATM   21  C18 UNL     1      -1.328  -0.796  -1.394  1.00  0.00    -0.013 C 
HETATM   22  C19 UNL     1      -0.234  -1.467  -2.077  1.00  0.00     0.010 C 
HETATM   23  C20 UNL     1      -2.473  -1.835  -1.411  1.00  0.00     0.005 C 
HETATM   24  C21 UNL     1      -3.719  -0.992  -1.289  1.00  0.00     0.006 C 
HETATM   25  C22 UNL     1      -3.728  -0.009  -0.176  1.00  0.00     0.004 C 
HETATM   26  C23 UNL     1      -4.979   0.814  -0.312  1.00  0.00    -0.017 C 
HETATM   27  C29 UNL     1      -2.466   0.776   0.042  1.00  0.00    -0.035 C 
HETATM   28  C24 UNL     1      -5.743   0.949   1.014  1.00  0.00     0.018 C 
HETATM   29  C25 UNL     1      -6.001   0.073  -1.205  1.00  0.00     0.018 C 
HETATM   30  C26 UNL     1      -4.800   2.148  -0.950  1.00  0.00     0.126 C 
HETATM   31  C27 UNL     1      -3.487   2.326  -1.661  1.00  0.00     0.033 C 
HETATM   32  C28 UNL     1      -2.298   1.972  -0.817  1.00  0.00     0.012 C 
HETATM   33  C30 UNL     1      -2.429   1.237   1.503  1.00  0.00     0.016 C 
BRANCH  30  34
HETATM   34  O4  UNL     1      -4.927   3.229  -0.045  1.00  0.00    -0.395 OA
ATOM     35  H4  UNL     1      -4.813   4.080  -0.452  1.00  0.00     0.210 HD
ENDBRANCH  30  34
ENDBRANCH   1  20
TORSDOF 11
