REMARK  9 active torsions:
REMARK  status: ('A' for Active; 'I' for Inactive)
REMARK    1  A    between atoms: C2_2  and  C3_3 
REMARK    2  A    between atoms: C3_3  and  O1_4 
REMARK    3  A    between atoms: C10_12  and  C11_13 
REMARK    4  A    between atoms: C15_18  and  C16_19 
REMARK    5  A    between atoms: C16_19  and  C18_21 
REMARK    6  A    between atoms: C18_21  and  C19_22 
REMARK    7  A    between atoms: C19_22  and  C20_23 
REMARK    8  A    between atoms: C20_23  and  C21_24 
REMARK    9  A    between atoms: C21_24  and  C23_26 
ROOT
HETATM    1  C11 UNL     1      -1.958   4.276  -0.315  1.00  0.00     0.133 C 
HETATM    2  C12 UNL     1      -0.861   4.513  -1.210  1.00  0.00     0.059 C 
HETATM    3  N1  UNL     1       0.001   4.720  -1.926  1.00  0.00    -0.197 NA
ENDROOT
BRANCH   1   4
HETATM    4  C10 UNL     1      -2.056   2.895   0.251  1.00  0.00    -0.028 C 
HETATM    5  C9  UNL     1      -2.208   1.880  -0.831  1.00  0.00     0.021 C 
HETATM    6  C8  UNL     1      -2.498   0.499  -0.403  1.00  0.00    -0.016 C 
HETATM    7  C7  UNL     1      -3.151  -0.094  -1.692  1.00  0.00     0.012 C 
HETATM    8  C26 UNL     1      -1.472  -0.377   0.167  1.00  0.00     0.042 C 
HETATM    9  C29 UNL     1      -3.770   0.577   0.468  1.00  0.00     0.102 C 
HETATM   10  C6  UNL     1      -1.971  -0.487  -2.555  1.00  0.00     0.008 C 
HETATM   11  C4  UNL     1      -1.675  -1.850  -1.924  1.00  0.00     0.020 C 
HETATM   12  C3  UNL     1      -1.421  -1.761  -0.453  1.00  0.00     0.083 C 
HETATM   13  C5  UNL     1      -0.624  -2.498  -2.748  1.00  0.00     0.013 C 
HETATM   14  C15 UNL     1      -0.111   0.152   0.504  1.00  0.00     0.022 C 
HETATM   15  C14 UNL     1       0.085   1.618   0.447  1.00  0.00     0.010 C 
HETATM   16  C13 UNL     1      -0.924   2.492   1.124  1.00  0.00     0.011 C 
HETATM   17  C28 UNL     1      -3.667   1.526   1.602  1.00  0.00     0.021 C 
HETATM   18  C30 UNL     1      -4.925   1.025  -0.349  1.00  0.00     0.064 C 
HETATM   19  C27 UNL     1      -3.374   2.896   1.049  1.00  0.00     0.012 C 
HETATM   20  N2  UNL     1      -5.832   1.382  -0.968  1.00  0.00    -0.197 NA
BRANCH  12  21
HETATM   21  C2  UNL     1      -2.372  -2.704   0.270  1.00  0.00     0.001 C 
HETATM   22  C1  UNL     1      -2.765  -3.833  -0.250  1.00  0.00     0.010 C 
ENDBRANCH  12  21
BRANCH  12  23
HETATM   23  O1  UNL     1      -0.197  -2.410  -0.332  1.00  0.00    -0.385 OA
ATOM     24  H1  UNL     1       0.397  -1.821  -0.783  1.00  0.00     0.211 HD
ENDBRANCH  12  23
BRANCH  14  25
HETATM   25  C16 UNL     1       0.525  -0.428   1.732  1.00  0.00    -0.083 C 
HETATM   26  C17 UNL     1       0.048   0.128   3.054  1.00  0.00     0.043 C 
BRANCH  25  27
HETATM   27  C18 UNL     1       1.968  -0.769   1.693  1.00  0.00    -0.020 C 
BRANCH  27  28
HETATM   28  C19 UNL     1       3.000   0.223   1.421  1.00  0.00     0.054 C 
BRANCH  28  29
HETATM   29  C20 UNL     1       4.402  -0.246   1.503  1.00  0.00    -0.018 C 
BRANCH  29  30
HETATM   30  C21 UNL     1       4.963  -1.320   0.698  1.00  0.00    -0.059 C 
HETATM   31  C22 UNL     1       4.353  -2.694   0.821  1.00  0.00     0.046 C 
BRANCH  30  32
HETATM   32  C23 UNL     1       5.278  -1.085  -0.735  1.00  0.00     0.151 A 
HETATM   33  C24 UNL     1       4.243  -0.717  -1.714  1.00  0.00     0.063 A 
HETATM   34  C25 UNL     1       4.994   0.587  -1.863  1.00  0.00     0.171 A 
HETATM   35  O2  UNL     1       5.871   0.192  -0.880  1.00  0.00    -0.381 OA
ENDBRANCH  30  32
ENDBRANCH  29  30
ENDBRANCH  28  29
ENDBRANCH  27  28
ENDBRANCH  25  27
ENDBRANCH  14  25
ENDBRANCH   1   4
TORSDOF 9
