REMARK  7 active torsions:
REMARK  status: ('A' for Active; 'I' for Inactive)
REMARK    1  A    between atoms: N1_1  and  C1_4 
REMARK    2  A    between atoms: C3_11  and  N5_12 
REMARK    3  A    between atoms: C6_15  and  N6_16 
REMARK    4  A    between atoms: N6_16  and  C7_18 
REMARK    5  A    between atoms: C7_18  and  O1_19 
REMARK    6  A    between atoms: C7_18  and  C8_21 
REMARK    7  A    between atoms: C8_21  and  C9_23 
ROOT
HETATM    1  N5  UNL     1       2.172   0.080  -0.728  1.00  0.00    -0.215 N 
HETATM    2  C4  UNL     1       1.402  -1.094  -1.067  1.00  0.00     0.143 C 
HETATM    3  C5  UNL     1       0.196  -1.075  -0.124  1.00  0.00     0.047 C 
HETATM    4  C6  UNL     1       0.412   0.116   0.741  1.00  0.00     0.099 C 
HETATM    5  C13 UNL     1       1.206   1.044  -0.246  1.00  0.00     0.166 C 
ENDROOT
BRANCH   4   6
HETATM    6  N6  UNL     1      -0.670   0.797   1.254  1.00  0.00    -0.386 N 
ATOM      7  H6  UNL     1      -0.751   1.759   0.926  1.00  0.00     0.156 HD
BRANCH   6   8
HETATM    8  C7  UNL     1      -1.651   0.420   2.119  1.00  0.00     0.265 C 
BRANCH   8   9
HETATM    9  O1  UNL     1      -1.091   0.025   3.404  1.00  0.00    -0.372 OA
ATOM     10  H1  UNL     1      -1.776  -0.238   4.008  1.00  0.00     0.212 HD
ENDBRANCH   8   9
BRANCH   8  11
HETATM   11  C8  UNL     1      -2.708  -0.570   1.834  1.00  0.00     0.099 C 
HETATM   12  N7  UNL     1      -2.368  -1.937   1.729  1.00  0.00    -0.100 NA
BRANCH  11  13
HETATM   13  C9  UNL     1      -3.694  -0.155   0.790  1.00  0.00     0.072 A 
HETATM   14  C10 UNL     1      -4.703   0.751   1.084  1.00  0.00     0.036 A 
HETATM   15  C11 UNL     1      -5.632   1.131   0.139  1.00  0.00     0.049 A 
HETATM   16  C12 UNL     1      -5.544   0.586  -1.133  1.00  0.00     0.130 A 
HETATM   17  N8  UNL     1      -6.502   0.977  -2.109  1.00  0.00    -0.081 NA
HETATM   18  N9  UNL     1      -4.556  -0.284  -1.376  1.00  0.00    -0.287 N 
HETATM   19  N10 UNL     1      -3.671  -0.636  -0.451  1.00  0.00    -0.298 N 
ATOM     20  H9  UNL     1      -4.480  -0.692  -2.308  1.00  0.00     0.188 HD
ATOM     21  H10 UNL     1      -2.942  -1.304  -0.702  1.00  0.00     0.187 HD
ENDBRANCH  11  13
ENDBRANCH   8  11
ENDBRANCH   6   8
ENDBRANCH   4   6
BRANCH   1  22
HETATM   22  C3  UNL     1       3.573   0.256  -0.835  1.00  0.00     0.697 A 
HETATM   23  N4  UNL     1       4.422  -0.667  -1.259  1.00  0.00    -0.162 N 
HETATM   24  C2  UNL     1       5.755  -0.471  -1.354  1.00  0.00     0.221 A 
ATOM     25  H4  UNL     1       4.049  -1.577  -1.529  1.00  0.00     0.187 HD
HETATM   26  N2  UNL     1       6.236   0.735  -0.995  1.00  0.00    -0.163 N 
HETATM   27  N3  UNL     1       6.661  -1.462  -1.806  1.00  0.00    -0.062 NA
HETATM   28  C1  UNL     1       5.422   1.719  -0.555  1.00  0.00     0.692 A 
ATOM     29  H2  UNL     1       7.239   0.909  -1.057  1.00  0.00     0.187 HD
HETATM   30  N11 UNL     1       4.104   1.463  -0.482  1.00  0.00    -0.022 N 
ATOM     31  H11 UNL     1       3.478   2.197  -0.151  1.00  0.00     0.203 HD
BRANCH  28  32
HETATM   32  N1  UNL     1       5.894   2.893  -0.209  1.00  0.00    -0.234 N 
ATOM     33  H12 UNL     1       6.894   3.087  -0.264  1.00  0.00     0.174 HD
ATOM     34  H11 UNL     1       5.279   3.636   0.123  1.00  0.00     0.174 HD
ENDBRANCH  28  32
ENDBRANCH   1  22
TORSDOF 7
