REMARK  3 active torsions:
REMARK  status: ('A' for Active; 'I' for Inactive)
REMARK    1  A    between atoms: C7_7  and  N1_8 
REMARK       I    between atoms: C8_10  and  N3_12 
REMARK    2  A    between atoms: N3_12  and  N4_14 
REMARK    3  A    between atoms: N4_14  and  N5_15 
ROOT
HETATM    1  N1  UNL     1       0.481  -0.551  -0.360  1.00  0.00    -0.329 N 
ATOM      2  H1  UNL     1       0.358  -1.510  -0.685  1.00  0.00     0.168 HD
HETATM    3  C8  UNL     1       1.606  -0.251  -0.704  1.00  0.00     0.206 C 
HETATM    4  N2  UNL     1       2.483  -1.166  -1.412  1.00  0.00    -0.062 NA
HETATM    5  N3  UNL     1       2.122   1.050  -0.417  1.00  0.00    -0.258 N 
ATOM      6  H3  UNL     1       1.574   1.894  -0.581  1.00  0.00     0.187 HD
ENDROOT
BRANCH   1   7
HETATM    7  C7  UNL     1      -0.687  -0.239   0.241  1.00  0.00     0.040 A 
HETATM    8  C2  UNL     1      -1.931  -0.255  -0.407  1.00  0.00    -0.035 A 
HETATM    9  C1  UNL     1      -1.890  -0.686  -1.842  1.00  0.00     0.050 C 
HETATM   10  C3  UNL     1      -3.093   0.069   0.214  1.00  0.00     0.009 A 
HETATM   11  C4  UNL     1      -3.107   0.438   1.544  1.00  0.00     0.001 A 
HETATM   12  C5  UNL     1      -1.911   0.469   2.225  1.00  0.00     0.002 A 
HETATM   13  C6  UNL     1      -0.754   0.144   1.598  1.00  0.00     0.030 A 
ENDBRANCH   1   7
BRANCH   5  14
HETATM   14  N4  UNL     1       3.422   1.103   0.102  1.00  0.00    -0.028 NA
BRANCH  14  15
HETATM   15  N5  UNL     1       3.599   0.123   1.102  1.00  0.00    -0.329 N 
ATOM     16  H52 UNL     1       2.870  -0.528   1.395  1.00  0.00     0.174 HD
ATOM     17  H51 UNL     1       4.546   0.162   1.480  1.00  0.00     0.174 HD
ENDBRANCH  14  15
ENDBRANCH   5  14
TORSDOF 3
