REMARK  9 active torsions:
REMARK  status: ('A' for Active; 'I' for Inactive)
REMARK    1  A    between atoms: O1_2  and  C2_3 
REMARK    2  A    between atoms: C5_6  and  C6_7 
REMARK    3  A    between atoms: C6_7  and  N9_32 
REMARK    4  A    between atoms: N1_8  and  N2_10 
REMARK    5  A    between atoms: C7_12  and  C8_13 
REMARK    6  A    between atoms: N3_15  and  N4_16 
REMARK    7  A    between atoms: C10_19  and  C11_20 
REMARK    8  A    between atoms: N6_24  and  O3_25 
REMARK    9  A    between atoms: N9_32  and  N10_34 
REMARK       I    between atoms: N10_34  and  C14_36 
ROOT
HETATM    1  C11 UNL     1      -5.174  -0.537  -0.424  1.00  0.00     0.144 A 
HETATM    2  N5  UNL     1      -5.953   0.228  -1.208  1.00  0.00    -0.233 N 
ATOM      3  H5  UNL     1      -5.746   1.177  -1.519  1.00  0.00     0.197 HD
HETATM    4  O2  UNL     1      -7.009  -0.453  -1.497  1.00  0.00    -0.127 OA
HETATM    5  N6  UNL     1      -6.993  -1.631  -0.957  1.00  0.00    -0.089 N 
HETATM    6  C12 UNL     1      -5.844  -1.731  -0.264  1.00  0.00     0.202 A 
HETATM    7  C13 UNL     1      -5.442  -2.891   0.485  1.00  0.00     0.125 C 
HETATM    8  N7  UNL     1      -5.105  -3.831   1.075  1.00  0.00    -0.190 NA
ENDROOT
BRANCH   1   9
HETATM    9  C10 UNL     1      -3.878  -0.200   0.155  1.00  0.00     0.159 A 
HETATM   10  N3  UNL     1      -3.207   0.960   0.013  1.00  0.00    -0.253 N 
HETATM   11  C9  UNL     1      -2.043   0.872   0.709  1.00  0.00     0.148 A 
HETATM   12  C8  UNL     1      -1.974  -0.364   1.304  1.00  0.00     0.068 A 
HETATM   13  N8  UNL     1      -3.131  -0.991   0.933  1.00  0.00    -0.337 N 
ATOM     14  H8  UNL     1      -3.390  -1.937   1.213  1.00  0.00     0.167 HD
BRANCH  10  15
HETATM   15  N4  UNL     1      -3.701   2.023  -0.747  1.00  0.00    -0.337 N 
ATOM     16  H42 UNL     1      -3.193   2.901  -0.854  1.00  0.00     0.177 HD
ATOM     17  H41 UNL     1      -4.575   2.089  -1.269  1.00  0.00     0.177 HD
ENDBRANCH  10  15
BRANCH  12  18
HETATM   18  C7  UNL     1      -0.924  -0.930   2.142  1.00  0.00     0.138 C 
HETATM   19  N2  UNL     1       0.145  -0.365   2.458  1.00  0.00    -0.308 N 
ATOM     20  H2  UNL     1       0.750  -0.929   3.056  1.00  0.00     0.186 HD
BRANCH  19  21
HETATM   21  N1  UNL     1       0.648   0.843   2.160  1.00  0.00    -0.284 N 
HETATM   22  C6  UNL     1       1.627   1.093   1.319  1.00  0.00     0.145 C 
ATOM     23  H1  UNL     1       0.230   1.645   2.632  1.00  0.00     0.188 HD
BRANCH  22  24
HETATM   24  C5  UNL     1       2.303   0.028   0.589  1.00  0.00     0.011 A 
HETATM   25  C4  UNL     1       2.717  -1.094   1.297  1.00  0.00     0.018 A 
HETATM   26  C3  UNL     1       3.339  -2.116   0.612  1.00  0.00     0.037 A 
HETATM   27  C2  UNL     1       3.574  -2.086  -0.741  1.00  0.00     0.068 A 
HETATM   28  C16 UNL     1       3.161  -0.971  -1.433  1.00  0.00     0.037 A 
HETATM   29  C15 UNL     1       2.530   0.079  -0.776  1.00  0.00     0.018 A 
BRANCH  27  30
HETATM   30  O1  UNL     1       4.205  -3.154  -1.359  1.00  0.00    -0.356 OA
HETATM   31  C1  UNL     1       4.604  -4.272  -0.591  1.00  0.00     0.210 C 
ENDBRANCH  27  30
ENDBRANCH  22  24
BRANCH  22  32
HETATM   32  N9  UNL     1       2.001   2.449   1.169  1.00  0.00    -0.281 N 
ATOM     33  H9  UNL     1       1.677   3.108   1.877  1.00  0.00     0.188 HD
BRANCH  32  34
HETATM   34  N10 UNL     1       2.775   2.951   0.132  1.00  0.00    -0.272 N 
HETATM   35  C14 UNL     1       2.326   4.017  -0.685  1.00  0.00     0.200 C 
HETATM   36  N11 UNL     1       1.520   4.927  -0.204  1.00  0.00    -0.372 N 
HETATM   37  N12 UNL     1       2.761   4.084  -2.031  1.00  0.00    -0.062 NA
ATOM     38 2H11 UNL     1       1.207   4.879   0.765  1.00  0.00     0.158 HD
ATOM     39 1H11 UNL     1       1.197   5.695  -0.792  1.00  0.00     0.158 HD
ATOM     40  H10 UNL     1       3.692   2.541  -0.046  1.00  0.00     0.189 HD
ENDBRANCH  32  34
ENDBRANCH  22  32
ENDBRANCH  19  21
ENDBRANCH  12  18
ENDBRANCH   1   9
BRANCH   5  41
HETATM   41  O3  UNL     1      -7.956  -2.611  -1.057  1.00  0.00    -0.260 OA
ATOM     42  H3  UNL     1      -7.944  -3.475  -0.661  1.00  0.00     0.247 HD
ENDBRANCH   5  41
TORSDOF 9
