REMARK  7 active torsions:
REMARK  status: ('A' for Active; 'I' for Inactive)
REMARK    1  A    between atoms: C2_2  and  C3_4 
REMARK    2  A    between atoms: C3_4  and  C4_10 
REMARK    3  A    between atoms: N1_5  and  N2_7 
REMARK    4  A    between atoms: C5_11  and  S1_12 
REMARK    5  A    between atoms: S1_12  and  S2_13 
REMARK    6  A    between atoms: S2_13  and  C6_14 
REMARK    7  A    between atoms: C6_14  and  C7_15 
ROOT
HETATM    1  C4  UNL     1      -1.999   0.068  -0.426  1.00  0.00     0.036 A 
HETATM    2  C5  UNL     1      -0.888  -0.730  -0.772  1.00  0.00     0.093 A 
HETATM    3  C11 UNL     1      -0.439  -0.954  -2.034  1.00  0.00     0.265 A 
HETATM    4  O5  UNL     1       0.552  -1.685  -2.260  1.00  0.00    -0.267 OA
HETATM    5  N4  UNL     1      -1.052  -0.401  -3.071  1.00  0.00    -0.306 N 
ATOM      6  H4  UNL     1      -0.714  -0.560  -4.020  1.00  0.00     0.170 HD
HETATM    7  C12 UNL     1      -2.108   0.359  -2.852  1.00  0.00     0.137 A 
HETATM    8  N5  UNL     1      -2.957   0.901  -3.761  1.00  0.00    -0.283 N 
ATOM      9  H5  UNL     1      -2.816   0.866  -4.771  1.00  0.00     0.188 HD
HETATM   10  N6  UNL     1      -3.953   1.459  -3.193  1.00  0.00    -0.285 N 
ATOM     11  H6  UNL     1      -4.730   1.936  -3.650  1.00  0.00     0.188 HD
HETATM   12  C13 UNL     1      -3.769   1.288  -1.830  1.00  0.00     0.145 A 
HETATM   13  N7  UNL     1      -4.839   1.629  -0.969  1.00  0.00    -0.080 NA
HETATM   14  C14 UNL     1      -2.617   0.618  -1.583  1.00  0.00     0.066 A 
ENDROOT
BRANCH   2  15
HETATM   15  S1  UNL     1      -0.002  -1.413   0.631  1.00  0.00    -0.048 SA
BRANCH  15  16
HETATM   16  S2  UNL     1       1.783  -2.341   0.022  1.00  0.00    -0.042 SA
BRANCH  16  17
HETATM   17  C6  UNL     1       3.225  -1.259   0.112  1.00  0.00     0.210 C 
HETATM   18  C8  UNL     1       3.133  -0.023  -0.699  1.00  0.00     0.089 C 
HETATM   19  C9  UNL     1       4.386   0.786  -0.567  1.00  0.00     0.239 C 
HETATM   20  N3  UNL     1       4.751   0.918   0.816  1.00  0.00    -0.054 N 
HETATM   21  C10 UNL     1       3.769   0.348   1.702  1.00  0.00     0.402 C 
ATOM     22  H32 UNL     1       5.676   0.524   0.991  1.00  0.00     0.279 HD
ATOM     23  H31 UNL     1       4.940   1.892   1.055  1.00  0.00     0.279 HD
HETATM   24  O4  UNL     1       3.478  -0.974   1.474  1.00  0.00    -0.331 OA
BRANCH  17  25
HETATM   25  C7  UNL     1       4.384  -2.051  -0.368  1.00  0.00     0.221 C 
HETATM   26  O2  UNL     1       4.421  -2.444  -1.557  1.00  0.00    -0.645 OA
HETATM   27  O3  UNL     1       5.431  -2.366   0.475  1.00  0.00    -0.645 OA
ENDBRANCH  17  25
ENDBRANCH  16  17
ENDBRANCH  15  16
ENDBRANCH   2  15
BRANCH   1  28
HETATM   28  C3  UNL     1      -2.625   0.083   0.841  1.00  0.00     0.105 C 
HETATM   29  N1  UNL     1      -2.585  -0.669   1.838  1.00  0.00    -0.303 N 
ATOM     30  H1  UNL     1      -2.764  -0.120   2.679  1.00  0.00     0.186 HD
BRANCH  28  31
HETATM   31  C2  UNL     1      -2.946   1.492   1.446  1.00  0.00     0.174 C 
HETATM   32  C1  UNL     1      -3.278   1.463   2.920  1.00  0.00     0.098 C 
HETATM   33  O1  UNL     1      -2.932   2.495   0.816  1.00  0.00    -0.291 OA
ENDBRANCH  28  31
BRANCH  29  34
HETATM   34  N2  UNL     1      -2.388  -1.945   2.181  1.00  0.00    -0.345 N 
ATOM     35  H22 UNL     1      -2.211  -2.470   1.324  1.00  0.00     0.176 HD
ATOM     36  H21 UNL     1      -2.355  -2.559   2.995  1.00  0.00     0.176 HD
ENDBRANCH  29  34
ENDBRANCH   1  28
TORSDOF 7
