REMARK  7 active torsions:
REMARK  status: ('A' for Active; 'I' for Inactive)
REMARK    1  A    between atoms: N1_1  and  N2_4 
REMARK    2  A    between atoms: N3_6  and  C1_8 
REMARK    3  A    between atoms: C4_11  and  C5_12 
REMARK    4  A    between atoms: C7_16  and  N5_17 
REMARK       I    between atoms: N5_17  and  C8_19 
REMARK       I    between atoms: C8_19  and  N6_21 
REMARK    5  A    between atoms: N6_21  and  C9_23 
REMARK    6  A    between atoms: C12_26  and  O2_27 
REMARK    7  A    between atoms: O2_27  and  C13_28 
ROOT
HETATM    1  C5  UNL     1      -4.311   1.694  -0.250  1.00  0.00     0.075 A 
HETATM    2  C6  UNL     1      -4.639   2.882  -0.871  1.00  0.00     0.137 A 
HETATM    3  N4  UNL     1      -3.498   3.580  -1.070  1.00  0.00    -0.199 N 
ATOM      4  H4  UNL     1      -3.430   4.497  -1.510  1.00  0.00     0.183 HD
HETATM    5  C7  UNL     1      -2.464   2.859  -0.588  1.00  0.00     0.686 A 
HETATM    6  N7  UNL     1      -2.974   1.740  -0.106  1.00  0.00    -0.189 N 
ATOM      7  H7  UNL     1      -2.420   0.999   0.324  1.00  0.00     0.184 HD
ENDROOT
BRANCH   5   8
HETATM    8  N5  UNL     1      -1.231   3.206  -0.604  1.00  0.00    -0.141 N 
HETATM    9  C8  UNL     1      -0.280   2.270  -0.029  1.00  0.00     0.339 C 
HETATM   10  O1  UNL     1      -0.293   2.054   1.197  1.00  0.00    -0.246 OA
HETATM   11  N6  UNL     1       0.615   1.656  -0.912  1.00  0.00    -0.308 N 
ATOM     12  H6  UNL     1       0.550   1.890  -1.903  1.00  0.00     0.170 HD
ATOM     13  H5  UNL     1      -0.931   4.096  -1.001  1.00  0.00     0.189 HD
BRANCH  11  14
HETATM   14  C9  UNL     1       1.603   0.731  -0.511  1.00  0.00     0.036 A 
HETATM   15  C10 UNL     1       2.141  -0.096  -1.516  1.00  0.00     0.032 A 
HETATM   16  C11 UNL     1       3.124  -1.018  -1.243  1.00  0.00     0.039 A 
HETATM   17  C12 UNL     1       3.626  -1.173   0.030  1.00  0.00     0.076 A 
HETATM   18  C19 UNL     1       3.116  -0.382   1.010  1.00  0.00     0.039 A 
HETATM   19  C20 UNL     1       2.131   0.540   0.728  1.00  0.00     0.032 A 
BRANCH  17  20
HETATM   20  O2  UNL     1       4.624  -2.112   0.301  1.00  0.00    -0.311 OA
BRANCH  20  21
HETATM   21  C13 UNL     1       5.936  -1.661   0.179  1.00  0.00     0.076 A 
HETATM   22  C14 UNL     1       6.594  -1.109   1.257  1.00  0.00     0.037 A 
HETATM   23  C15 UNL     1       7.894  -0.657   1.154  1.00  0.00     0.003 A 
HETATM   24  C16 UNL     1       8.556  -0.758  -0.058  1.00  0.00     0.000 A 
HETATM   25  C17 UNL     1       7.878  -1.311  -1.116  1.00  0.00     0.003 A 
HETATM   26  C18 UNL     1       6.579  -1.770  -1.040  1.00  0.00     0.037 A 
ENDBRANCH  20  21
ENDBRANCH  17  20
ENDBRANCH  11  14
ENDBRANCH   5   8
BRANCH   1  27
HETATM   27  C4  UNL     1      -5.183   0.609   0.170  1.00  0.00    -0.007 A 
HETATM   28  C3  UNL     1      -6.547   0.657  -0.024  1.00  0.00     0.016 A 
HETATM   29  C2  UNL     1      -7.382  -0.374   0.376  1.00  0.00     0.032 A 
HETATM   30  C1  UNL     1      -6.870  -1.498   0.988  1.00  0.00     0.049 A 
HETATM   31  C22 UNL     1      -5.506  -1.548   1.182  1.00  0.00     0.032 A 
HETATM   32  C21 UNL     1      -4.667  -0.509   0.780  1.00  0.00     0.016 A 
BRANCH  30  33
HETATM   33  N3  UNL     1      -7.712  -2.577   1.409  1.00  0.00    -0.287 N 
HETATM   34  N2  UNL     1      -7.579  -3.639   0.791  1.00  0.00    -0.249 N 
ATOM     35  H2  UNL     1      -7.728  -3.344  -0.174  1.00  0.00     0.207 HD
ATOM     36  H3  UNL     1      -8.381  -2.475   2.172  1.00  0.00     0.188 HD
BRANCH  34  37
HETATM   37  N1  UNL     1      -7.370  -4.855   0.660  1.00  0.00    -0.331 N 
ATOM     38  H12 UNL     1      -7.228  -5.106   1.639  1.00  0.00     0.178 HD
ATOM     39  H11 UNL     1      -7.260  -5.731   0.150  1.00  0.00     0.178 HD
ENDBRANCH  34  37
ENDBRANCH  30  33
ENDBRANCH   1  27
TORSDOF 7
