REMARK  1 active torsions:
REMARK  status: ('A' for Active; 'I' for Inactive)
REMARK    1  A    between atoms: N1_1  and  C1_4 
ROOT
HETATM    1  C1  UNL     1      -0.968   0.390   0.101  1.00  0.00     0.693 A 
HETATM    2  N2  UNL     1      -0.635   0.422  -1.210  1.00  0.00    -0.130 N 
ATOM      3  H2  UNL     1      -1.303   0.788  -1.888  1.00  0.00     0.205 HD
HETATM    4  N3  UNL     1       0.548  -0.016  -1.629  1.00  0.00    -0.257 N 
ATOM      5  H3  UNL     1       0.759   0.026  -2.626  1.00  0.00     0.190 HD
HETATM    6  C2  UNL     1       1.480  -0.513  -0.795  1.00  0.00     0.272 A 
HETATM    7  F1  UNL     1       2.688  -0.960  -1.224  1.00  0.00    -0.179 F 
HETATM    8  C3  UNL     1       1.152  -0.551   0.545  1.00  0.00     0.317 A 
HETATM    9  O1  UNL     1       2.015  -1.013   1.338  1.00  0.00    -0.263 OA
HETATM   10  N4  UNL     1      -0.050  -0.103   0.949  1.00  0.00    -0.151 N 
ATOM     11  H4  UNL     1      -0.275  -0.139   1.943  1.00  0.00     0.188 HD
ENDROOT
BRANCH   1  12
HETATM   12  N1  UNL     1      -2.117   0.823   0.447  1.00  0.00    -0.233 N 
ATOM     13  H12 UNL     1      -2.814   1.197  -0.197  1.00  0.00     0.174 HD
ATOM     14  H11 UNL     1      -2.368   0.799   1.435  1.00  0.00     0.174 HD
ENDBRANCH   1  12
TORSDOF 1
