REMARK  4 active torsions:
REMARK  status: ('A' for Active; 'I' for Inactive)
REMARK    1  A    between atoms: C1_1  and  C8_10 
REMARK    2  A    between atoms: C2_2  and  C3_3 
REMARK    3  A    between atoms: C11_13  and  C12_14 
REMARK    4  A    between atoms: C13_15  and  C14_16 
ROOT
HETATM    1  C8  UNL     1       0.859  -0.131  -0.251  1.00  0.00     0.018 A 
HETATM    2  C9  UNL     1       0.291  -0.610   0.889  1.00  0.00     0.022 A 
HETATM    3  C10 UNL     1      -1.078  -0.602   1.048  1.00  0.00     0.022 A 
HETATM    4  C11 UNL     1      -1.925  -0.115   0.075  1.00  0.00     0.018 A 
HETATM    5  C18 UNL     1      -1.353   0.377  -1.091  1.00  0.00     0.022 A 
HETATM    6  C19 UNL     1       0.024   0.361  -1.234  1.00  0.00     0.022 A 
ENDROOT
BRANCH   1   7
HETATM    7  C1  UNL     1       2.294  -0.152  -0.390  1.00  0.00    -0.061 C 
HETATM    8  C2  UNL     1       3.497  -0.158  -0.490  1.00  0.00    -0.060 C 
BRANCH   8   9
HETATM    9  C3  UNL     1       4.931  -0.158  -0.584  1.00  0.00     0.033 A 
HETATM   10  C4  UNL     1       5.711   0.682   0.188  1.00  0.00     0.023 A 
HETATM   11  C5  UNL     1       7.078   0.680   0.095  1.00  0.00     0.019 A 
HETATM   12  C6  UNL     1       7.706  -0.171  -0.780  1.00  0.00     0.087 A 
HETATM   13  N1  UNL     1       6.961  -0.990  -1.532  1.00  0.00    -0.374 N 
HETATM   14  C7  UNL     1       5.627  -0.988  -1.443  1.00  0.00     0.108 A 
ATOM     15  H1  UNL     1       7.419  -1.627  -2.184  1.00  0.00     0.164 HD
ENDBRANCH   8   9
ENDBRANCH   1   7
BRANCH   4  16
HETATM   16  C12 UNL     1      -3.350  -0.107   0.242  1.00  0.00    -0.061 C 
HETATM   17  C13 UNL     1      -4.551  -0.086   0.398  1.00  0.00    -0.061 C 
BRANCH  17  18
HETATM   18  C14 UNL     1      -6.010  -0.040   0.604  1.00  0.00     0.025 A 
HETATM   19  C15 UNL     1      -6.770   1.020   0.251  1.00  0.00     0.028 A 
HETATM   20  C16 UNL     1      -8.114   0.934   0.497  1.00  0.00     0.051 A 
HETATM   21  S1  UNL     1      -8.281  -0.604   1.206  1.00  0.00    -0.112 SA
HETATM   22  C17 UNL     1      -6.652  -1.103   1.175  1.00  0.00     0.070 A 
ENDBRANCH  17  18
ENDBRANCH   4  16
TORSDOF 4
