REMARK  7 active torsions:
REMARK  status: ('A' for Active; 'I' for Inactive)
REMARK    1  A    between atoms: C2_2  and  O1_3 
REMARK    2  A    between atoms: O1_3  and  C3_4 
REMARK    3  A    between atoms: C3_4  and  C4_6 
REMARK    4  A    between atoms: C4_6  and  N1_7 
REMARK       I    between atoms: N1_7  and  C5_9 
REMARK       I    between atoms: C5_9  and  N2_11 
REMARK    5  A    between atoms: C9_15  and  C10_16 
REMARK       I    between atoms: C10_16  and  N3_18 
REMARK    6  A    between atoms: C11_19  and  O5_20 
REMARK    7  A    between atoms: O5_20  and  C12_21 
ROOT
HETATM    1  C10 UNL     1      -0.037  -0.411   0.950  1.00  0.00     0.245 C 
HETATM    2  O4  UNL     1       0.194   0.809   1.228  1.00  0.00    -0.271 OA
HETATM    3  N3  UNL     1      -1.186  -0.710   0.208  1.00  0.00    -0.317 N 
HETATM    4  C11 UNL     1      -1.622  -2.037  -0.235  1.00  0.00     0.237 C 
HETATM    5  C14 UNL     1      -3.128  -1.955  -0.353  1.00  0.00     0.075 C 
HETATM    6  C15 UNL     1      -3.448  -0.592   0.119  1.00  0.00     0.062 C 
HETATM    7  C16 UNL     1      -3.691  -0.547   1.601  1.00  0.00     0.028 C 
HETATM    8  C17 UNL     1      -4.578   0.058  -0.564  1.00  0.00     0.230 C 
HETATM    9  O7  UNL     1      -5.454  -0.509  -1.242  1.00  0.00    -0.272 OA
HETATM   10  N4  UNL     1      -4.631   1.493  -0.401  1.00  0.00    -0.347 N 
HETATM   11  C18 UNL     1      -5.915   2.193  -0.482  1.00  0.00     0.153 C 
HETATM   12  C19 UNL     1      -3.467   2.280  -0.160  1.00  0.00     0.029 C 
HETATM   13  C20 UNL     1      -3.102   3.103  -1.398  1.00  0.00     0.038 C 
HETATM   14  C21 UNL     1      -3.829   3.302   0.921  1.00  0.00     0.038 C 
HETATM   15  C22 UNL     1      -2.263   1.527   0.334  1.00  0.00     0.057 C 
HETATM   16  C23 UNL     1      -2.200   0.192  -0.281  1.00  0.00     0.109 C 
ENDROOT
BRANCH   1  17
HETATM   17  C9  UNL     1       0.955  -1.396   1.449  1.00  0.00     0.181 C 
HETATM   18  N2  UNL     1       2.152  -0.709   1.959  1.00  0.00    -0.321 N 
HETATM   19  C5  UNL     1       3.424  -0.590   1.335  1.00  0.00     0.319 C 
HETATM   20  C6  UNL     1       1.781  -0.165   3.249  1.00  0.00     0.129 C 
HETATM   21  N1  UNL     1       3.713  -1.145   0.070  1.00  0.00    -0.334 N 
HETATM   22  O3  UNL     1       4.324   0.053   1.968  1.00  0.00    -0.247 OA
ATOM     23  H1  UNL     1       2.964  -1.653  -0.401  1.00  0.00     0.164 HD
HETATM   24  C7  UNL     1       0.572  -0.913   3.708  1.00  0.00     0.022 C 
HETATM   25  C8  UNL     1       0.505  -2.085   2.726  1.00  0.00     0.037 C 
BRANCH  21  26
HETATM   26  C4  UNL     1       4.963  -1.055  -0.603  1.00  0.00     0.235 C 
BRANCH  26  27
HETATM   27  C3  UNL     1       5.361   0.339  -0.903  1.00  0.00     0.276 C 
HETATM   28  O2  UNL     1       4.599   1.282  -0.583  1.00  0.00    -0.263 OA
BRANCH  27  29
HETATM   29  O1  UNL     1       6.550   0.649  -1.527  1.00  0.00    -0.321 OA
BRANCH  29  30
HETATM   30  C2  UNL     1       6.977   1.953  -1.835  1.00  0.00     0.174 C 
HETATM   31  C1  UNL     1       8.310   1.926  -2.508  1.00  0.00     0.034 C 
ENDBRANCH  29  30
ENDBRANCH  27  29
ENDBRANCH  26  27
ENDBRANCH  21  26
ENDBRANCH   1  17
BRANCH   4  32
HETATM   32  O5  UNL     1      -1.145  -2.327  -1.537  1.00  0.00    -0.295 OA
BRANCH  32  33
HETATM   33  C12 UNL     1      -0.365  -3.465  -1.688  1.00  0.00     0.256 C 
HETATM   34  C13 UNL     1       0.194  -3.871  -3.010  1.00  0.00     0.126 C 
HETATM   35  O6  UNL     1      -0.089  -4.213  -0.716  1.00  0.00    -0.266 OA
ENDBRANCH  32  33
ENDBRANCH   4  32
TORSDOF 7
