REMARK  7 active torsions:
REMARK  status: ('A' for Active; 'I' for Inactive)
REMARK    1  A    between atoms: C3_3  and  C4_4 
REMARK    2  A    between atoms: C5_5  and  C6_6 
REMARK    3  A    between atoms: C7_7  and  C8_8 
REMARK       I    between atoms: C8_8  and  N1_10 
REMARK    4  A    between atoms: C12_14  and  C13_15 
REMARK       I    between atoms: C13_15  and  N2_17 
REMARK    5  A    between atoms: N2_17  and  C14_19 
REMARK    6  A    between atoms: C14_19  and  C15_20 
REMARK    7  A    between atoms: C14_19  and  C18_23 
ROOT
HETATM    1  C8  UNL     1       1.499   0.362  -1.490  1.00  0.00     0.245 C 
HETATM    2  O1  UNL     1       0.864  -0.222  -2.435  1.00  0.00    -0.268 OA
HETATM    3  N1  UNL     1       0.771   1.232  -0.647  1.00  0.00    -0.330 N 
HETATM    4  C9  UNL     1       0.974   2.093   0.482  1.00  0.00     0.095 A 
HETATM    5  C10 UNL     1       0.139   1.973   1.690  1.00  0.00     0.035 A 
HETATM    6  C11 UNL     1      -0.517   2.442   0.460  1.00  0.00     0.043 A 
HETATM    7  C12 UNL     1      -0.681   1.543  -0.712  1.00  0.00     0.186 A 
ENDROOT
BRANCH   7   8
HETATM    8  C13 UNL     1      -1.500   0.334  -0.492  1.00  0.00     0.241 C 
HETATM    9  O2  UNL     1      -0.950  -0.781  -0.269  1.00  0.00    -0.271 OA
HETATM   10  N2  UNL     1      -2.906   0.408  -0.529  1.00  0.00    -0.348 N 
ATOM     11  H2  UNL     1      -3.330   1.318  -0.711  1.00  0.00     0.163 HD
BRANCH  10  12
HETATM   12  C14 UNL     1      -3.798  -0.731  -0.324  1.00  0.00     0.171 C 
BRANCH  12  13
HETATM   13  C15 UNL     1      -4.679  -0.524   0.864  1.00  0.00     0.007 C 
HETATM   14  C16 UNL     1      -5.613  -1.657   1.139  1.00  0.00     0.012 C 
HETATM   15  C17 UNL     1      -5.490   0.745   0.803  1.00  0.00     0.012 C 
ENDBRANCH  12  13
BRANCH  12  16
HETATM   16  C18 UNL     1      -4.519  -0.932  -1.626  1.00  0.00     0.320 C 
HETATM   17  F1  UNL     1      -5.268   0.157  -2.014  1.00  0.00    -0.191 F 
HETATM   18  F2  UNL     1      -3.496  -1.017  -2.596  1.00  0.00    -0.191 F 
HETATM   19 BR1  UNL     1      -5.483  -2.585  -1.755  1.00  0.00    -0.009 Br
ENDBRANCH  12  16
ENDBRANCH  10  12
ENDBRANCH   7   8
BRANCH   1  20
HETATM   20  C7  UNL     1       2.915   0.123  -1.313  1.00  0.00     0.083 C 
HETATM   21  C6  UNL     1       3.694   0.636  -0.402  1.00  0.00     0.070 C 
BRANCH  21  22
HETATM   22  C5  UNL     1       5.104   0.244  -0.420  1.00  0.00    -0.074 C 
HETATM   23  C4  UNL     1       6.265  -0.076  -0.445  1.00  0.00    -0.074 C 
BRANCH  23  24
HETATM   24  C3  UNL     1       7.656  -0.468  -0.498  1.00  0.00     0.060 C 
HETATM   25  C2  UNL     1       8.092  -1.500   0.180  1.00  0.00    -0.022 C 
HETATM   26  C1  UNL     1       7.162  -2.282   1.012  1.00  0.00     0.036 C 
ENDBRANCH  23  24
ENDBRANCH  21  22
ENDBRANCH   1  20
TORSDOF 7
