REMARK  3 active torsions:
REMARK  status: ('A' for Active; 'I' for Inactive)
REMARK    1  A    between atoms: N1_2  and  C2_5 
REMARK    2  A    between atoms: C2_5  and  C3_6 
REMARK    3  A    between atoms: C3_6  and  N3_10 
ROOT
HETATM    1  N3  UNL     1       1.605   0.314  -0.417  1.00  0.00    -0.345 N 
HETATM    2  C4  UNL     1       1.022   1.249   0.523  1.00  0.00     0.153 C 
HETATM    3  C5  UNL     1       0.258   2.344  -0.198  1.00  0.00     0.252 C 
HETATM    4  N4  UNL     1      -1.080   1.984  -0.529  1.00  0.00    -0.072 N 
ATOM      5  H41 UNL     1      -1.222   0.978  -0.438  1.00  0.00     0.277 HD
ATOM      6  H42 UNL     1      -1.249   2.084  -1.530  1.00  0.00     0.277 HD
HETATM    7  C6  UNL     1      -2.076   2.729   0.251  1.00  0.00     0.259 C 
HETATM    8  C7  UNL     1      -3.418   2.054  -0.018  1.00  0.00     0.259 C 
HETATM    9  N5  UNL     1      -3.408   0.791   0.686  1.00  0.00    -0.072 N 
ATOM     10  H51 UNL     1      -3.666   0.921   1.664  1.00  0.00     0.277 HD
ATOM     11  H52 UNL     1      -2.454   0.452   0.806  1.00  0.00     0.277 HD
HETATM   12  C8  UNL     1      -4.232  -0.214   0.072  1.00  0.00     0.259 C 
HETATM   13  C9  UNL     1      -3.775  -1.562   0.638  1.00  0.00     0.259 C 
HETATM   14  N6  UNL     1      -2.352  -1.685   0.656  1.00  0.00    -0.072 N 
ATOM     15  H61 UNL     1      -2.029  -1.960   1.584  1.00  0.00     0.277 HD
ATOM     16  H62 UNL     1      -1.913  -0.767   0.585  1.00  0.00     0.277 HD
HETATM   17  C10 UNL     1      -1.825  -2.578  -0.349  1.00  0.00     0.260 C 
HETATM   18  C11 UNL     1      -0.351  -2.757  -0.111  1.00  0.00     0.261 C 
HETATM   19  N7  UNL     1       0.294  -1.568   0.358  1.00  0.00    -0.058 N 
ATOM     20  H71 UNL     1       1.001  -1.760   1.068  1.00  0.00     0.279 HD
ATOM     21  H72 UNL     1      -0.322  -0.988   0.928  1.00  0.00     0.279 HD
HETATM   22  C12 UNL     1       0.832  -0.854  -0.785  1.00  0.00     0.358 C 
ENDROOT
BRANCH   1  23
HETATM   23  C3  UNL     1       2.900   0.573  -0.941  1.00  0.00     0.100 C 
HETATM   24  N2  UNL     1       3.179   1.716  -1.454  1.00  0.00    -0.388 N 
ATOM     25  H22 UNL     1       4.109   1.902  -1.830  1.00  0.00     0.157 HD
ATOM     26  H21 UNL     1       2.467   2.446  -1.487  1.00  0.00     0.157 HD
BRANCH  23  27
HETATM   27  C2  UNL     1       3.918  -0.470  -0.894  1.00  0.00     0.307 C 
BRANCH  27  28
HETATM   28  N1  UNL     1       4.277  -0.917   0.425  1.00  0.00    -0.072 N 
HETATM   29  C1  UNL     1       4.975   0.059   1.217  1.00  0.00     0.267 C 
ATOM     30  H12 UNL     1       4.815  -1.782   0.372  1.00  0.00     0.277 HD
ATOM     31  H11 UNL     1       3.452  -1.254   0.922  1.00  0.00     0.277 HD
ENDBRANCH  27  28
ENDBRANCH  23  27
ENDBRANCH   1  23
TORSDOF 3
