REMARK  15 active torsions:
REMARK  status: ('A' for Active; 'I' for Inactive)
REMARK    1  A    between atoms: C2_2  and  S1_4 
REMARK    2  A    between atoms: S1_4  and  C3_5 
REMARK    3  A    between atoms: C3_5  and  C4_6 
REMARK    4  A    between atoms: C5_7  and  C6_8 
REMARK    5  A    between atoms: C9_15  and  C10_16 
REMARK    6  A    between atoms: C11_19  and  C12_20 
REMARK    7  A    between atoms: C12_20  and  O6_21 
REMARK    8  A    between atoms: C13_25  and  S2_26 
REMARK    9  A    between atoms: S2_26  and  S3_27 
REMARK   10  A    between atoms: S3_27  and  C14_28 
REMARK   11  A    between atoms: C18_38  and  S4_39 
REMARK   12  A    between atoms: S4_39  and  C19_40 
REMARK   13  A    between atoms: C19_40  and  C20_41 
REMARK   14  A    between atoms: C20_41  and  O7_42 
REMARK   15  A    between atoms: C21_46  and  C22_47 
ROOT
HETATM    1  C4  UNL     1      -2.883   1.156   2.899  1.00  0.00     0.036 C 
HETATM    2  C5  UNL     1      -3.582   1.200   1.800  1.00  0.00     0.074 C 
HETATM    3  C7  UNL     1      -2.855   0.623   0.596  1.00  0.00     0.222 A 
HETATM    4  C8  UNL     1      -3.622  -0.067  -0.433  1.00  0.00     0.134 A 
HETATM    5  N1  UNL     1      -4.439  -0.298  -1.475  1.00  0.00    -0.335 N 
ATOM      6  H1  UNL     1      -4.939   0.422  -1.997  1.00  0.00     0.167 HD
HETATM    7  C9  UNL     1      -4.501  -1.611  -1.728  1.00  0.00     0.138 A 
HETATM    8  C11 UNL     1      -3.664  -2.204  -0.770  1.00  0.00     0.093 A 
HETATM    9  N2  UNL     1      -3.129  -1.267   0.015  1.00  0.00    -0.235 N 
HETATM   10  N3  UNL     1      -2.381  -0.646   1.030  1.00  0.00    -0.245 N 
HETATM   11  C13 UNL     1      -1.551  -0.690   2.172  1.00  0.00     0.174 C 
HETATM   12  N8  UNL     1      -1.804   0.193   3.113  1.00  0.00    -0.337 N 
ATOM     13  H8  UNL     1      -1.258   0.206   3.975  1.00  0.00     0.168 HD
ENDROOT
BRANCH  11  14
HETATM   14  S2  UNL     1      -0.208  -1.820   2.272  1.00  0.00    -0.017 SA
BRANCH  14  15
HETATM   15  S3  UNL     1       0.393  -2.588   0.401  1.00  0.00    -0.061 SA
BRANCH  15  16
HETATM   16  C14 UNL     1       1.668  -1.499  -0.297  1.00  0.00     0.190 C 
HETATM   17  N4  UNL     1       2.863  -1.517   0.463  1.00  0.00    -0.358 N 
HETATM   18  C15 UNL     1       4.051  -1.133   0.197  1.00  0.00     0.133 A 
ATOM     19  H4  UNL     1       2.754  -1.910   1.398  1.00  0.00     0.162 HD
HETATM   20  N5  UNL     1       5.107  -1.224   1.066  1.00  0.00    -0.337 N 
HETATM   21  C17 UNL     1       4.591  -0.544  -0.959  1.00  0.00     0.111 A 
HETATM   22  C16 UNL     1       6.206  -0.723   0.475  1.00  0.00     0.182 A 
ATOM     23  H5  UNL     1       5.066  -1.610   2.009  1.00  0.00     0.168 HD
HETATM   24  N6  UNL     1       5.893  -0.310  -0.754  1.00  0.00    -0.347 N 
ATOM     25  H6  UNL     1       6.536   0.112  -1.424  1.00  0.00     0.167 HD
HETATM   26  C18 UNL     1       4.009  -0.287  -2.127  1.00  0.00     0.097 C 
HETATM   27  N7  UNL     1       2.640  -0.712  -2.380  1.00  0.00    -0.366 N 
HETATM   28  C21 UNL     1       1.907  -1.793  -1.752  1.00  0.00     0.217 C 
ATOM     29  H7  UNL     1       2.133  -0.182  -3.089  1.00  0.00     0.161 HD
BRANCH  26  30
HETATM   30  S4  UNL     1       4.855   0.466  -3.457  1.00  0.00    -0.108 SA
BRANCH  30  31
HETATM   31  C19 UNL     1       6.352   1.335  -3.128  1.00  0.00     0.107 C 
BRANCH  31  32
HETATM   32  C20 UNL     1       6.051   2.624  -2.371  1.00  0.00     0.174 C 
BRANCH  32  33
HETATM   33  O7  UNL     1       7.258   3.271  -2.114  1.00  0.00    -0.400 OA
ATOM     34  H7  UNL     1       7.070   4.074  -1.642  1.00  0.00     0.209 HD
ENDBRANCH  32  33
ENDBRANCH  31  32
ENDBRANCH  30  31
ENDBRANCH  26  30
BRANCH  28  35
HETATM   35  C22 UNL     1       2.532  -3.120  -1.944  1.00  0.00     0.199 C 
HETATM   36  O8  UNL     1       3.721  -3.223  -2.280  1.00  0.00    -0.646 OA
HETATM   37  O9  UNL     1       1.774  -4.253  -1.744  1.00  0.00    -0.646 OA
ENDBRANCH  28  35
ENDBRANCH  15  16
ENDBRANCH  14  15
ENDBRANCH  11  14
BRANCH   1  38
HETATM   38  C3  UNL     1      -3.252   1.898   4.152  1.00  0.00     0.140 C 
BRANCH  38  39
HETATM   39  S1  UNL     1      -1.875   2.891   4.686  1.00  0.00    -0.087 SA
BRANCH  39  40
HETATM   40  C2  UNL     1      -1.464   4.229   3.630  1.00  0.00     0.182 C 
HETATM   41  C1  UNL     1      -2.235   4.553   2.416  1.00  0.00     0.104 C 
HETATM   42  O1  UNL     1      -0.468   4.958   3.906  1.00  0.00    -0.286 OA
ENDBRANCH  39  40
ENDBRANCH  38  39
ENDBRANCH   1  38
BRANCH   2  43
HETATM   43  C6  UNL     1      -4.811   1.912   1.589  1.00  0.00     0.209 C 
HETATM   44  O2  UNL     1      -5.425   2.600   2.400  1.00  0.00    -0.644 OA
HETATM   45  O3  UNL     1      -5.398   1.829   0.321  1.00  0.00    -0.644 OA
ENDBRANCH   2  43
BRANCH   8  46
HETATM   46  C12 UNL     1      -3.534  -3.691  -0.761  1.00  0.00     0.226 C 
BRANCH  46  47
HETATM   47  O6  UNL     1      -2.741  -4.192   0.237  1.00  0.00    -0.395 OA
ATOM     48  H6  UNL     1      -2.658  -5.138   0.243  1.00  0.00     0.209 HD
ENDBRANCH  46  47
ENDBRANCH   8  46
BRANCH   7  49
HETATM   49  C10 UNL     1      -5.267  -2.291  -2.772  1.00  0.00     0.229 C 
HETATM   50  O4  UNL     1      -5.957  -1.536  -3.537  1.00  0.00    -0.643 OA
HETATM   51  O5  UNL     1      -5.284  -3.644  -2.967  1.00  0.00    -0.643 OA
ENDBRANCH   7  49
TORSDOF 15
