REMARK  7 active torsions:
REMARK  status: ('A' for Active; 'I' for Inactive)
REMARK    1  A    between atoms: C2_2  and  C3_3 
REMARK    2  A    between atoms: C3_3  and  C5_5 
REMARK    3  A    between atoms: C5_5  and  O2_7 
REMARK    4  A    between atoms: O2_7  and  S1_8 
REMARK    5  A    between atoms: S1_8  and  C6_11 
REMARK    6  A    between atoms: C14_19  and  O5_21 
REMARK    7  A    between atoms: O5_21  and  C16_22 
ROOT
HETATM    1  C6  UNL     1      -0.132   0.424   0.150  1.00  0.00     0.068 C 
HETATM    2  C7  UNL     1      -0.955  -0.515   0.572  1.00  0.00    -0.049 C 
HETATM    3  C8  UNL     1      -0.406  -1.223   1.761  1.00  0.00     0.036 C 
HETATM    4  C9  UNL     1      -1.142  -2.530   2.011  1.00  0.00     0.004 C 
HETATM    5  C10 UNL     1      -2.603  -2.372   2.219  1.00  0.00     0.001 C 
HETATM    6  C11 UNL     1      -3.155  -1.274   1.374  1.00  0.00     0.017 C 
HETATM    7  C12 UNL     1      -2.296  -1.005   0.130  1.00  0.00     0.012 C 
HETATM    8  C13 UNL     1      -2.254  -2.277  -0.657  1.00  0.00     0.023 C 
HETATM    9  C14 UNL     1      -3.025   0.095  -0.648  1.00  0.00     0.078 C 
HETATM   10  C15 UNL     1      -4.474  -0.351  -0.795  1.00  0.00     0.048 C 
HETATM   11  C18 UNL     1      -2.337   0.144  -1.968  1.00  0.00     0.040 C 
HETATM   12  C19 UNL     1      -1.241   1.097  -2.052  1.00  0.00     0.008 C 
HETATM   13  C20 UNL     1      -0.322   1.369  -0.961  1.00  0.00     0.054 C 
ENDROOT
BRANCH   1  14
HETATM   14  S1  UNL     1       1.386   0.696   0.967  1.00  0.00     0.301 S 
HETATM   15  O3  UNL     1       1.307   0.696   2.452  1.00  0.00    -0.193 OA
HETATM   16  O4  UNL     1       1.826   2.130   0.632  1.00  0.00    -0.193 OA
BRANCH  14  17
HETATM   17  O2  UNL     1       2.651  -0.245   0.341  1.00  0.00    -0.192 OA
BRANCH  17  18
HETATM   18  C5  UNL     1       3.982   0.153   0.410  1.00  0.00     0.278 C 
HETATM   19  O1  UNL     1       4.198   1.259   0.966  1.00  0.00    -0.264 OA
BRANCH  18  20
HETATM   20  C3  UNL     1       5.105  -0.621  -0.113  1.00  0.00     0.082 C 
HETATM   21  C4  UNL     1       5.014  -0.858  -1.608  1.00  0.00     0.020 C 
BRANCH  20  22
HETATM   22  C2  UNL     1       6.396   0.120   0.141  1.00  0.00     0.010 C 
HETATM   23  C1  UNL     1       6.478   1.437  -0.559  1.00  0.00     0.006 C 
ENDBRANCH  20  22
ENDBRANCH  18  20
ENDBRANCH  17  18
ENDBRANCH  14  17
ENDBRANCH   1  14
BRANCH   9  24
HETATM   24  O5  UNL     1      -2.973   1.247   0.126  1.00  0.00    -0.310 OA
BRANCH  24  25
HETATM   25  C16 UNL     1      -3.539   2.451  -0.156  1.00  0.00     0.255 C 
HETATM   26  C17 UNL     1      -3.379   3.590   0.776  1.00  0.00     0.126 C 
HETATM   27  O6  UNL     1      -4.200   2.607  -1.206  1.00  0.00    -0.266 OA
ENDBRANCH  24  25
ENDBRANCH   9  24
TORSDOF 7
