REMARK  5 active torsions:
REMARK  status: ('A' for Active; 'I' for Inactive)
REMARK    1  A    between atoms: C3_3  and  C5_5 
REMARK    2  A    between atoms: C5_5  and  C6_7 
REMARK    3  A    between atoms: C6_7  and  S1_8 
REMARK    4  A    between atoms: S1_8  and  C7_9 
REMARK    5  A    between atoms: C8_10  and  C9_11 
ROOT
HETATM    1  C1  UNL     1       4.524  -0.763   2.381  1.00  0.00     0.013 C 
HETATM    2  C2  UNL     1       3.984  -0.662   1.310  1.00  0.00    -0.105 C 
HETATM    3  C3  UNL     1       3.312  -0.563  -0.002  1.00  0.00     0.130 C 
HETATM    4  C4  UNL     1       4.270  -0.966  -1.091  1.00  0.00     0.031 C 
ENDROOT
BRANCH   3   5
HETATM    5  C5  UNL     1       2.788   0.804  -0.187  1.00  0.00     0.151 C 
HETATM    6  O1  UNL     1       2.938   1.631   0.661  1.00  0.00    -0.296 OA
BRANCH   5   7
HETATM    7  C6  UNL     1       2.055   1.160  -1.455  1.00  0.00     0.159 C 
BRANCH   7   8
HETATM    8  S1  UNL     1       0.590   0.253  -1.709  1.00  0.00    -0.120 SA
BRANCH   8   9
HETATM    9  C7  UNL     1      -0.759   0.455  -0.520  1.00  0.00     0.038 A 
HETATM   10  C8  UNL     1      -0.869   1.507   0.291  1.00  0.00     0.042 A 
HETATM   11  S3  UNL     1      -2.083   1.004   1.438  1.00  0.00    -0.069 SA
HETATM   12  C13 UNL     1      -2.398  -0.527   0.817  1.00  0.00     0.098 A 
HETATM   13  C14 UNL     1      -1.571  -0.633  -0.256  1.00  0.00     0.085 A 
HETATM   14  N2  UNL     1      -3.258  -1.484   1.234  1.00  0.00    -0.297 N 
HETATM   15  C15 UNL     1      -1.676  -1.857  -0.941  1.00  0.00     0.265 A 
HETATM   16  O2  UNL     1      -0.994  -2.134  -1.952  1.00  0.00    -0.267 OA
HETATM   17  N1  UNL     1      -2.525  -2.802  -0.533  1.00  0.00    -0.270 N 
HETATM   18  C16 UNL     1      -2.610  -4.059  -1.266  1.00  0.00     0.164 C 
HETATM   19  C17 UNL     1      -3.334  -2.656   0.550  1.00  0.00     0.331 A 
HETATM   20  O3  UNL     1      -4.119  -3.551   0.916  1.00  0.00    -0.246 OA
HETATM   21  C18 UNL     1      -4.102  -1.316   2.386  1.00  0.00     0.162 C 
BRANCH  10  22
HETATM   22  C9  UNL     1      -0.384   2.912   0.259  1.00  0.00     0.023 A 
HETATM   23  C10 UNL     1      -0.080   3.708  -0.808  1.00  0.00     0.021 A 
HETATM   24  C11 UNL     1       0.237   4.985  -0.563  1.00  0.00     0.008 A 
HETATM   25  C12 UNL     1       0.236   5.405   0.743  1.00  0.00     0.050 A 
HETATM   26  S2  UNL     1      -0.214   3.985   1.574  1.00  0.00    -0.101 SA
ENDBRANCH  10  22
ENDBRANCH   8   9
ENDBRANCH   7   8
ENDBRANCH   5   7
ENDBRANCH   3   5
TORSDOF 5
