REMARK  4 active torsions:
REMARK  status: ('A' for Active; 'I' for Inactive)
REMARK    1  A    between atoms: C3_8  and  C4_9 
REMARK    2  A    between atoms: C7_12  and  N3_13 
REMARK    3  A    between atoms: N4_16  and  C10_17 
REMARK    4  A    between atoms: C10_17  and  C11_18 
ROOT
HETATM    1  C4  UNL     1      -3.580  -0.014   0.044  1.00  0.00     0.025 A 
HETATM    2  C5  UNL     1      -3.123  -1.238   0.474  1.00  0.00     0.020 A 
HETATM    3  C6  UNL     1      -1.765  -1.466   0.720  1.00  0.00     0.049 A 
HETATM    4  C7  UNL     1      -0.861  -0.445   0.530  1.00  0.00     0.103 A 
HETATM    5  N9  UNL     1      -1.345   0.737   0.109  1.00  0.00    -0.351 N 
ATOM      6  H9  UNL     1      -0.683   1.499  -0.035  1.00  0.00     0.166 HD
HETATM    7  C15 UNL     1      -2.644   0.979  -0.134  1.00  0.00     0.105 A 
ENDROOT
BRANCH   4   8
HETATM    8  N3  UNL     1       0.519  -0.598   0.757  1.00  0.00    -0.364 N 
HETATM    9  C8  UNL     1       1.411   0.554   0.522  1.00  0.00     0.154 C 
HETATM   10  C9  UNL     1       2.339   0.098  -0.603  1.00  0.00     0.292 C 
HETATM   11  N4  UNL     1       3.055  -1.069  -0.222  1.00  0.00     0.098 N 
HETATM   12  C13 UNL     1       2.201  -2.177   0.149  1.00  0.00     0.292 C 
HETATM   13  C14 UNL     1       1.189  -1.780   1.205  1.00  0.00     0.154 C 
BRANCH  11  14
HETATM   14  C10 UNL     1       4.145  -0.872   0.677  1.00  0.00     0.350 C 
BRANCH  14  15
HETATM   15  C11 UNL     1       5.138   0.028   0.039  1.00  0.00     0.140 A 
HETATM   16  N5  UNL     1       6.098  -0.336  -0.861  1.00  0.00    -0.273 N 
HETATM   17  N6  UNL     1       6.809   0.701  -1.220  1.00  0.00    -0.131 N 
ATOM     18  H5  UNL     1       6.241  -1.285  -1.206  1.00  0.00     0.189 HD
HETATM   19  C12 UNL     1       6.346   1.777  -0.572  1.00  0.00     0.691 A 
ATOM     20  H6  UNL     1       7.585   0.692  -1.882  1.00  0.00     0.205 HD
HETATM   21  N7  UNL     1       6.796   2.982  -0.669  1.00  0.00    -0.233 N 
HETATM   22  N8  UNL     1       5.328   1.351   0.190  1.00  0.00    -0.176 N 
ATOM     23  H72 UNL     1       7.570   3.306  -1.249  1.00  0.00     0.174 HD
ATOM     24  H71 UNL     1       6.443   3.802  -0.175  1.00  0.00     0.174 HD
ATOM     25  H8  UNL     1       4.773   1.949   0.802  1.00  0.00     0.185 HD
ENDBRANCH  14  15
ENDBRANCH  11  14
ENDBRANCH   4   8
BRANCH   1  26
HETATM   26  C3  UNL     1      -4.993   0.231  -0.215  1.00  0.00     0.131 A 
HETATM   27  N2  UNL     1      -5.933  -0.716  -0.052  1.00  0.00    -0.347 N 
HETATM   28  C2  UNL     1      -7.242  -0.469  -0.298  1.00  0.00     0.139 A 
ATOM     29  H2  UNL     1      -5.653  -1.644   0.265  1.00  0.00     0.167 HD
HETATM   30  C1  UNL     1      -7.651   0.777  -0.728  1.00  0.00     0.129 A 
HETATM   31  N1  UNL     1      -8.897   1.061  -0.977  1.00  0.00    -0.383 N 
HETATM   32  N11 UNL     1      -6.688   1.704  -0.882  1.00  0.00    -0.283 N 
ATOM     33  H12 UNL     1      -9.627   0.358  -0.860  1.00  0.00     0.157 HD
ATOM     34  H11 UNL     1      -9.199   1.982  -1.295  1.00  0.00     0.157 HD
HETATM   35  N10 UNL     1      -5.403   1.441  -0.635  1.00  0.00    -0.283 N 
ATOM     36  H11 UNL     1      -6.949   2.638  -1.198  1.00  0.00     0.188 HD
ATOM     37  H10 UNL     1      -4.712   2.179  -0.769  1.00  0.00     0.188 HD
ENDBRANCH   1  26
TORSDOF 4
