REMARK  5 active torsions:
REMARK  status: ('A' for Active; 'I' for Inactive)
REMARK    1  A    between atoms: N1_1  and  C1_4 
REMARK    2  A    between atoms: N3_8  and  C3_10 
REMARK    3  A    between atoms: C3_10  and  C4_11 
REMARK    4  A    between atoms: C4_11  and  N4_12 
REMARK    5  A    between atoms: N10_30  and  C12_31 
ROOT
HETATM    1  C1  UNL     1      -1.010   2.612   1.084  1.00  0.00     0.145 A 
HETATM    2  N2  UNL     1      -0.090   1.677   1.476  1.00  0.00    -0.175 N 
ATOM      3  H2  UNL     1       0.735   1.970   1.999  1.00  0.00     0.186 HD
HETATM    4  C2  UNL     1      -0.261   0.381   1.180  1.00  0.00     0.681 A 
HETATM    5  N3  UNL     1       0.595  -0.472   1.547  1.00  0.00    -0.224 N 
ATOM      6  H3  UNL     1       0.395  -1.437   1.284  1.00  0.00     0.177 HD
HETATM    7  N8  UNL     1      -1.334  -0.060   0.491  1.00  0.00    -0.174 N 
ATOM      8  H8  UNL     1      -1.447  -1.051   0.276  1.00  0.00     0.186 HD
HETATM    9  C9  UNL     1      -2.250   0.842   0.096  1.00  0.00     0.157 A 
HETATM   10  C10 UNL     1      -2.119   2.196   0.378  1.00  0.00     0.123 A 
HETATM   11  N9  UNL     1      -3.193   2.856  -0.145  1.00  0.00    -0.346 N 
ATOM     12  H9  UNL     1      -3.375   3.859  -0.099  1.00  0.00     0.167 HD
HETATM   13  C11 UNL     1      -3.964   1.922  -0.733  1.00  0.00     0.188 A 
HETATM   14  N10 UNL     1      -3.416   0.701  -0.601  1.00  0.00    -0.299 N 
ENDROOT
BRANCH   5  15
HETATM   15  C3  UNL     1       1.806  -0.271   2.280  1.00  0.00     0.157 C 
BRANCH  15  16
HETATM   16  C4  UNL     1       2.887   0.125   1.267  1.00  0.00     0.141 C 
BRANCH  16  17
HETATM   17  N4  UNL     1       3.034  -0.949   0.308  1.00  0.00    -0.375 N 
HETATM   18  C5  UNL     1       4.042  -0.923  -0.485  1.00  0.00     0.104 A 
HETATM   19  C6  UNL     1       4.976   0.087  -0.447  1.00  0.00     0.093 A 
HETATM   20  N7  UNL     1       4.180  -1.916  -1.376  1.00  0.00    -0.339 N 
HETATM   21  C7  UNL     1       6.039   0.050  -1.333  1.00  0.00     0.120 A 
HETATM   22  N5  UNL     1       6.994   1.090  -1.288  1.00  0.00    -0.083 NA
HETATM   23  N6  UNL     1       6.132  -0.959  -2.200  1.00  0.00    -0.341 N 
HETATM   24  C8  UNL     1       5.229  -1.930  -2.232  1.00  0.00     0.183 A 
ATOM     25  H6  UNL     1       6.915  -0.985  -2.853  1.00  0.00     0.167 HD
ATOM     26  H7  UNL     1       3.490  -2.666  -1.409  1.00  0.00     0.168 HD
ATOM     27  H4  UNL     1       2.353  -1.707   0.264  1.00  0.00     0.161 HD
ENDBRANCH  16  17
ENDBRANCH  15  16
ENDBRANCH   5  15
BRANCH   1  28
HETATM   28  N1  UNL     1      -0.853   3.870   1.366  1.00  0.00    -0.383 N 
ATOM     29  H12 UNL     1      -0.033   4.178   1.888  1.00  0.00     0.157 HD
ATOM     30  H11 UNL     1      -1.538   4.567   1.074  1.00  0.00     0.157 HD
ENDBRANCH   1  28
BRANCH  14  31
HETATM   31  C12 UNL     1      -3.952  -0.533  -1.099  1.00  0.00     0.230 C 
HETATM   32  C13 UNL     1      -4.081  -1.599  -0.065  1.00  0.00     0.056 C 
HETATM   33  C14 UNL     1      -5.468  -2.139  -0.283  1.00  0.00     0.031 C 
HETATM   34  C15 UNL     1      -6.138  -1.011  -1.026  1.00  0.00     0.170 C 
HETATM   35  O1  UNL     1      -5.160  -0.311  -1.688  1.00  0.00    -0.366 OA
ENDBRANCH  14  31
TORSDOF 5
