REMARK  3 active torsions:
REMARK  status: ('A' for Active; 'I' for Inactive)
REMARK    1  A    between atoms: C8_8  and  C9_10 
REMARK    2  A    between atoms: C10_11  and  C11_12 
REMARK    3  A    between atoms: C14_18  and  O1_19 
ROOT
HETATM    1  C1  UNL     1      -4.322   0.407  -0.815  1.00  0.00     0.010 C 
HETATM    2  C2  UNL     1      -3.114  -0.477  -0.496  1.00  0.00    -0.017 C 
HETATM    3  C3  UNL     1      -2.963  -0.508   0.984  1.00  0.00     0.012 C 
HETATM    4  C4  UNL     1      -1.532  -0.296   1.404  1.00  0.00     0.024 C 
HETATM    5  C5  UNL     1      -1.150   1.113   0.977  1.00  0.00     0.022 C 
HETATM    6  C6  UNL     1      -0.011   0.851   0.048  1.00  0.00     0.026 C 
HETATM    7  C7  UNL     1       0.415   1.959  -0.806  1.00  0.00     0.021 C 
HETATM    8  C8  UNL     1       1.097   0.229   0.889  1.00  0.00     0.190 C 
HETATM    9  F1  UNL     1       1.088   0.826   2.136  1.00  0.00    -0.227 F 
HETATM   10  C13 UNL     1       0.686  -1.223   1.041  1.00  0.00     0.147 C 
HETATM   11 BR1  UNL     1       1.875  -2.441   0.196  1.00  0.00    -0.083 Br
HETATM   12  C14 UNL     1      -0.702  -1.233   0.521  1.00  0.00     0.097 C 
HETATM   13  C15 UNL     1      -0.606  -0.339  -0.724  1.00  0.00     0.062 C 
HETATM   14 BR2  UNL     1       0.581  -1.028  -2.034  1.00  0.00    -0.081 Br
HETATM   15  C16 UNL     1      -1.956   0.007  -1.269  1.00  0.00     0.029 C 
ENDROOT
BRANCH   8  16
HETATM   16  C9  UNL     1       2.390   0.325   0.229  1.00  0.00    -0.054 C 
HETATM   17  C10 UNL     1       3.460   0.422  -0.332  1.00  0.00    -0.026 C 
BRANCH  17  18
HETATM   18  C11 UNL     1       4.755   0.553  -1.011  1.00  0.00     0.302 C 
HETATM   19  C12 UNL     1       5.398  -0.820  -0.993  1.00  0.00     0.105 C 
HETATM   20  F2  UNL     1       5.599   1.419  -0.334  1.00  0.00    -0.192 F 
HETATM   21  F3  UNL     1       4.622   1.039  -2.295  1.00  0.00    -0.192 F 
ENDBRANCH  17  18
ENDBRANCH   8  16
BRANCH  12  22
HETATM   22  O1  UNL     1      -1.272  -2.428   0.293  1.00  0.00    -0.386 OA
ATOM     23  H1  UNL     1      -0.757  -3.009  -0.255  1.00  0.00     0.210 HD
ENDBRANCH  12  22
TORSDOF 3
