REMARK  6 active torsions:
REMARK  status: ('A' for Active; 'I' for Inactive)
REMARK    1  A    between atoms: C2_2  and  O1_3 
REMARK    2  A    between atoms: C2_2  and  C3_5 
REMARK    3  A    between atoms: C3_5  and  N1_6 
REMARK    4  A    between atoms: C6_15  and  O3_16 
REMARK    5  A    between atoms: C7_18  and  C8_19 
REMARK    6  A    between atoms: C10_26  and  C11_27 
ROOT
HETATM    1  N1  UNL     1      -1.759  -0.312   0.219  1.00  0.00    -0.331 N 
HETATM    2  C4  UNL     1      -1.004  -1.495   0.047  1.00  0.00     0.190 C 
HETATM    3  N2  UNL     1      -1.682  -2.774   0.171  1.00  0.00    -0.064 NA
HETATM    4  N3  UNL     1       0.244  -1.576  -0.220  1.00  0.00    -0.329 N 
ATOM      5  H3  UNL     1       0.661  -2.502  -0.316  1.00  0.00     0.165 HD
HETATM    6  C5  UNL     1       1.088  -0.422  -0.391  1.00  0.00     0.210 C 
HETATM    7  N4  UNL     1       1.835  -0.097   0.793  1.00  0.00    -0.089 NA
HETATM    8  N5  UNL     1       2.721  -1.141   0.402  1.00  0.00    -0.069 NA
HETATM    9  O2  UNL     1       4.016  -0.970   0.736  1.00  0.00    -0.215 OA
HETATM   10  C6  UNL     1       4.915  -0.154   0.112  1.00  0.00     0.233 C 
HETATM   11  C7  UNL     1       4.522   0.560  -0.933  1.00  0.00     0.167 C 
HETATM   12  N6  UNL     1       3.157   0.440  -1.360  1.00  0.00    -0.356 N 
ATOM     13  H6  UNL     1       2.723   1.168  -1.928  1.00  0.00     0.162 HD
HETATM   14  C9  UNL     1       2.419  -0.719  -0.974  1.00  0.00     0.262 C 
HETATM   15  S1  UNL     1       0.168   0.930  -1.167  1.00  0.00    -0.081 SA
HETATM   16  C10 UNL     1      -1.375   1.030  -0.148  1.00  0.00     0.242 C 
ENDROOT
BRANCH  16  17
HETATM   17  C11 UNL     1      -1.127   1.892   1.015  1.00  0.00     0.264 C 
HETATM   18  N7  UNL     1      -1.171   1.470   2.354  1.00  0.00    -0.059 NA
HETATM   19  O6  UNL     1      -0.851   3.116   0.771  1.00  0.00    -0.274 OA
ENDBRANCH  16  17
BRANCH   1  20
HETATM   20  C3  UNL     1      -3.081  -0.512   0.824  1.00  0.00     0.158 C 
BRANCH  20  21
HETATM   21  C2  UNL     1      -4.232  -0.340  -0.101  1.00  0.00     0.132 C 
HETATM   22  C1  UNL     1      -5.522  -0.652   0.669  1.00  0.00     0.041 C 
BRANCH  21  23
HETATM   23  O1  UNL     1      -4.390   0.902  -0.675  1.00  0.00    -0.394 OA
ATOM     24  H1  UNL     1      -3.591   1.095  -1.152  1.00  0.00     0.210 HD
ENDBRANCH  21  23
ENDBRANCH  20  21
ENDBRANCH   1  20
BRANCH  11  25
HETATM   25  C8  UNL     1       5.461   1.434  -1.610  1.00  0.00     0.231 C 
HETATM   26  O4  UNL     1       6.632   1.497  -1.191  1.00  0.00    -0.643 OA
HETATM   27  O5  UNL     1       5.099   2.197  -2.702  1.00  0.00    -0.643 OA
ENDBRANCH  11  25
BRANCH  10  28
HETATM   28  O3  UNL     1       6.252  -0.031   0.526  1.00  0.00    -0.338 OA
ATOM     29  H3  UNL     1       6.878   0.537   0.092  1.00  0.00     0.220 HD
ENDBRANCH  10  28
TORSDOF 6
