REMARK  6 active torsions:
REMARK  status: ('A' for Active; 'I' for Inactive)
REMARK    1  A    between atoms: C1_2  and  C2_4 
REMARK    2  A    between atoms: C2_4  and  N2_5 
REMARK    3  A    between atoms: C2_4  and  N3_9 
REMARK       I    between atoms: N3_9  and  C3_11 
REMARK    4  A    between atoms: C3_11  and  C4_13 
REMARK       I    between atoms: N4_17  and  C8_18 
REMARK       I    between atoms: C8_18  and  N5_20 
REMARK    5  A    between atoms: N5_20  and  C9_22 
REMARK    6  A    between atoms: C9_22  and  C10_23 
ROOT
HETATM    1  C4  UNL     1      -0.630  -1.290   0.121  1.00  0.00     0.181 C 
HETATM    2  C5  UNL     1      -1.076  -2.222   1.190  1.00  0.00     0.037 C 
HETATM    3  C6  UNL     1       0.191  -2.824   1.735  1.00  0.00     0.022 C 
HETATM    4  C7  UNL     1       1.124  -1.614   1.658  1.00  0.00     0.129 C 
HETATM    5  N4  UNL     1       0.736  -0.981   0.401  1.00  0.00    -0.321 N 
HETATM    6  C8  UNL     1       1.627  -0.209  -0.373  1.00  0.00     0.320 C 
HETATM    7  O3  UNL     1       1.189   0.273  -1.453  1.00  0.00    -0.247 OA
HETATM    8  N5  UNL     1       2.967   0.045   0.003  1.00  0.00    -0.324 N 
ATOM      9  H5  UNL     1       3.280  -0.362   0.884  1.00  0.00     0.165 HD
ENDROOT
BRANCH   1  10
HETATM   10  C3  UNL     1      -1.499  -0.087   0.010  1.00  0.00     0.242 C 
HETATM   11  N3  UNL     1      -2.853  -0.228  -0.311  1.00  0.00    -0.325 N 
ATOM     12  H3  UNL     1      -3.208  -1.172  -0.462  1.00  0.00     0.165 HD
HETATM   13  O2  UNL     1      -1.014   1.033   0.204  1.00  0.00    -0.271 OA
BRANCH  11  14
HETATM   14  C2  UNL     1      -3.786   0.869  -0.444  1.00  0.00     0.373 C 
BRANCH  14  15
HETATM   15  C1  UNL     1      -4.895   0.799   0.510  1.00  0.00     0.281 C 
HETATM   16  N1  UNL     1      -5.913   1.778   0.542  1.00  0.00    -0.059 NA
HETATM   17  O1  UNL     1      -4.957  -0.146   1.325  1.00  0.00    -0.273 OA
ENDBRANCH  14  15
BRANCH  14  18
HETATM   18  N2  UNL     1      -4.219   0.995  -1.825  1.00  0.00    -0.050 N 
ATOM     19  H23 UNL     1      -4.862   0.243  -2.072  1.00  0.00     0.277 HD
ATOM     20  H22 UNL     1      -4.843   1.794  -1.937  1.00  0.00     0.277 HD
ATOM     21  H21 UNL     1      -3.447   1.044  -2.489  1.00  0.00     0.277 HD
ENDBRANCH  14  18
ENDBRANCH  11  14
ENDBRANCH   1  10
BRANCH   8  22
HETATM   22  C9  UNL     1       3.923   0.811  -0.724  1.00  0.00     0.123 A 
HETATM   23  C11 UNL     1       3.465   2.123  -1.365  1.00  0.00     0.045 A 
HETATM   24  C12 UNL     1       3.891   0.978  -2.198  1.00  0.00     0.045 A 
BRANCH  22  25
HETATM   25  C10 UNL     1       5.280   0.931  -0.086  1.00  0.00     0.202 C 
HETATM   26  O4  UNL     1       6.191   1.588  -0.652  1.00  0.00    -0.646 OA
HETATM   27  O5  UNL     1       5.480   0.300   1.128  1.00  0.00    -0.646 OA
ENDBRANCH  22  25
ENDBRANCH   8  22
TORSDOF 6
