REMARK  10 active torsions:
REMARK  status: ('A' for Active; 'I' for Inactive)
REMARK    1  A    between atoms: C2_2  and  N1_3 
REMARK    2  A    between atoms: C2_2  and  C5_10 
REMARK    3  A    between atoms: N1_3  and  C3_6 
REMARK    4  A    between atoms: C3_6  and  C4_7 
REMARK       I    between atoms: C5_10  and  N2_12 
REMARK    5  A    between atoms: N2_12  and  C6_14 
REMARK    6  A    between atoms: C6_14  and  C7_15 
REMARK    7  A    between atoms: C10_18  and  C11_19 
REMARK    8  A    between atoms: C11_19  and  C13_21 
REMARK       I    between atoms: C13_21  and  N3_23 
REMARK    9  A    between atoms: N3_23  and  C14_25 
REMARK   10  A    between atoms: C14_25  and  C16_27 
ROOT
HETATM    1  C7  UNL     1       1.511  -0.492  -0.490  1.00  0.00     0.003 C 
HETATM    2  C8  UNL     1       1.449   0.885   0.086  1.00  0.00     0.006 C 
HETATM    3  C9  UNL     1       0.210   1.211   0.846  1.00  0.00     0.006 C 
HETATM    4  C10 UNL     1      -1.058   0.744   0.160  1.00  0.00    -0.002 C 
HETATM    5  C19 UNL     1      -0.920  -0.773   0.084  1.00  0.00     0.006 C 
HETATM    6  C20 UNL     1       0.181  -1.067  -0.876  1.00  0.00     0.006 C 
ENDROOT
BRANCH   1   7
HETATM    7  C6  UNL     1       2.177  -1.446   0.478  1.00  0.00     0.127 C 
BRANCH   7   8
HETATM    8  N2  UNL     1       3.536  -1.088   0.812  1.00  0.00    -0.359 N 
HETATM    9  C5  UNL     1       4.558  -1.033  -0.158  1.00  0.00     0.248 C 
HETATM   10  O3  UNL     1       4.357  -1.297  -1.359  1.00  0.00    -0.271 OA
ATOM     11  H2  UNL     1       3.764  -0.868   1.782  1.00  0.00     0.162 HD
BRANCH   9  12
HETATM   12  C2  UNL     1       5.923  -0.643   0.287  1.00  0.00     0.273 C 
HETATM   13  C1  UNL     1       5.792   0.710   0.938  1.00  0.00     0.050 C 
BRANCH  12  14
HETATM   14  N1  UNL     1       6.826  -0.663  -0.843  1.00  0.00    -0.053 N 
ATOM     15  H12 UNL     1       6.780  -1.558  -1.329  1.00  0.00     0.278 HD
ATOM     16  H11 UNL     1       6.491  -0.051  -1.587  1.00  0.00     0.278 HD
BRANCH  14  17
HETATM   17  C3  UNL     1       8.188  -0.340  -0.484  1.00  0.00     0.345 C 
BRANCH  17  18
HETATM   18  C4  UNL     1       9.042  -0.404  -1.684  1.00  0.00     0.199 C 
HETATM   19  O1  UNL     1       8.549  -0.691  -2.792  1.00  0.00    -0.647 OA
HETATM   20  O2  UNL     1      10.392  -0.148  -1.582  1.00  0.00    -0.647 OA
ENDBRANCH  17  18
ENDBRANCH  14  17
ENDBRANCH  12  14
ENDBRANCH   9  12
ENDBRANCH   7   8
ENDBRANCH   1   7
BRANCH   4  21
HETATM   21  C11 UNL     1      -2.243   1.060   0.993  1.00  0.00     0.078 C 
HETATM   22  C12 UNL     1      -2.316   0.418   2.332  1.00  0.00     0.020 C 
BRANCH  21  23
HETATM   23  C13 UNL     1      -3.499   0.750   0.177  1.00  0.00     0.222 C 
HETATM   24  O4  UNL     1      -3.345   0.555  -1.051  1.00  0.00    -0.273 OA
HETATM   25  N3  UNL     1      -4.718   0.703   0.809  1.00  0.00    -0.356 N 
ATOM     26  H3  UNL     1      -4.663   0.867   1.814  1.00  0.00     0.162 HD
BRANCH  25  27
HETATM   27  C14 UNL     1      -6.030   0.474   0.347  1.00  0.00     0.083 C 
HETATM   28  C15 UNL     1      -6.868  -0.119   1.433  1.00  0.00     0.032 C 
BRANCH  27  29
HETATM   29  C16 UNL     1      -6.232  -0.142  -1.004  1.00  0.00    -0.000 C 
HETATM   30  C17 UNL     1      -7.765  -0.423  -1.147  1.00  0.00     0.011 C 
HETATM   31  C18 UNL     1      -6.006   0.890  -2.136  1.00  0.00     0.011 C 
ENDBRANCH  27  29
ENDBRANCH  25  27
ENDBRANCH  21  23
ENDBRANCH   4  21
TORSDOF 10
