REMARK  0 active torsions:
REMARK  status: ('A' for Active; 'I' for Inactive)
REMARK       I    between atoms: N2_5  and  C4_6 
ROOT
HETATM    1  C1  UNL     1       2.897   0.120   0.380  1.00  0.00     0.156 C 
HETATM    2  N1  UNL     1       1.502  -0.067  -0.004  1.00  0.00    -0.356 N 
HETATM    3  C2  UNL     1       1.081  -0.889  -0.983  1.00  0.00     0.109 A 
HETATM    4  C3  UNL     1      -0.298  -0.819  -1.076  1.00  0.00     0.117 A 
HETATM    5  N2  UNL     1      -0.707   0.056  -0.140  1.00  0.00    -0.291 N 
HETATM    6  C4  UNL     1      -2.046   0.441   0.126  1.00  0.00     0.193 C 
HETATM    7  N3  UNL     1      -2.489   1.632  -0.076  1.00  0.00    -0.373 N 
ATOM      8  H31 UNL     1      -3.452   1.909   0.115  1.00  0.00     0.158 HD
ATOM      9  H32 UNL     1      -1.843   2.330  -0.445  1.00  0.00     0.158 HD
HETATM   10  N4  UNL     1      -2.944  -0.530   0.640  1.00  0.00    -0.063 NA
HETATM   11  C5  UNL     1       0.402   0.504   0.503  1.00  0.00     0.192 A 
ENDROOT
TORSDOF 0
