REMARK  1 active torsions:
REMARK  status: ('A' for Active; 'I' for Inactive)
REMARK    1  A    between atoms: C3_3  and  N1_4 
REMARK       I    between atoms: N1_4  and  C4_6 
REMARK       I    between atoms: C4_6  and  N4_11 
ROOT
HETATM    1  C1  UNL     1       3.625  -0.741   0.232  1.00  0.00     0.014 C 
HETATM    2  C2  UNL     1       2.798  -0.181  -0.448  1.00  0.00    -0.097 C 
HETATM    3  C3  UNL     1       1.772   0.510  -1.260  1.00  0.00     0.231 C 
ENDROOT
BRANCH   3   4
HETATM    4  N1  UNL     1       0.647   0.915  -0.475  1.00  0.00    -0.215 N 
HETATM    5  C4  UNL     1      -0.247  -0.023   0.096  1.00  0.00     0.683 C 
HETATM    6  N2  UNL     1       0.111  -0.708   1.115  1.00  0.00    -0.126 N 
HETATM    7  N4  UNL     1      -1.539  -0.217  -0.445  1.00  0.00    -0.230 N 
HETATM    8  C5  UNL     1      -0.655  -1.656   1.775  1.00  0.00     0.196 C 
ATOM      9  H2  UNL     1       1.050  -0.541   1.477  1.00  0.00     0.197 HD
HETATM   10  N3  UNL     1      -1.277  -2.449   2.337  1.00  0.00    -0.171 NA
HETATM   11  C6  UNL     1      -2.751  -0.243   0.332  1.00  0.00     0.165 C 
ATOM     12  H4  UNL     1      -1.618  -0.347  -1.454  1.00  0.00     0.177 HD
ATOM     13  H1  UNL     1       0.484   1.910  -0.322  1.00  0.00     0.178 HD
ENDBRANCH   3   4
TORSDOF 1
