REMARK  2 active torsions:
REMARK  status: ('A' for Active; 'I' for Inactive)
REMARK    1  A    between atoms: C4_6  and  N1_7 
REMARK    2  A    between atoms: C18_38  and  N13_39 
ROOT
HETATM    1  N1  UNL     1       1.712  -1.153  -0.300  1.00  0.00    -0.278 N 
HETATM    2  S1  UNL     1       0.391  -0.137   0.264  1.00  0.00    -0.010 SA
HETATM    3  C5  UNL     1      -1.090  -0.264  -0.730  1.00  0.00     0.159 C 
HETATM    4  N2  UNL     1      -0.872  -0.411  -2.131  1.00  0.00    -0.339 N 
ATOM      5  H2  UNL     1      -1.483   0.179  -2.696  1.00  0.00     0.164 HD
HETATM    6  C6  UNL     1      -0.084  -1.116  -2.821  1.00  0.00     0.192 C 
HETATM    7  N3  UNL     1      -0.141  -1.006  -4.251  1.00  0.00    -0.063 NA
HETATM    8  N4  UNL     1       0.888  -2.036  -2.379  1.00  0.00    -0.304 N 
ATOM      9  H4  UNL     1       1.006  -2.823  -3.017  1.00  0.00     0.171 HD
HETATM   10  C7  UNL     1       1.658  -2.107  -1.356  1.00  0.00     0.203 C 
HETATM   11  N5  UNL     1       2.537  -3.207  -1.232  1.00  0.00    -0.062 NA
HETATM   12  C8  UNL     1      -1.789   1.066  -0.588  1.00  0.00     0.040 A 
HETATM   13  C9  UNL     1      -1.475   2.269  -1.171  1.00  0.00     0.080 A 
HETATM   14  N6  UNL     1      -0.359   2.446  -2.049  1.00  0.00    -0.100 NA
HETATM   15  C10 UNL     1      -2.254   3.373  -0.914  1.00  0.00     0.091 A 
HETATM   16  C11 UNL     1      -1.961   4.657  -1.505  1.00  0.00     0.103 C 
HETATM   17  N7  UNL     1      -1.717   5.684  -1.999  1.00  0.00    -0.191 NA
HETATM   18  C12 UNL     1      -3.323   3.225  -0.079  1.00  0.00     0.090 A 
HETATM   19  C13 UNL     1      -4.128   4.399   0.175  1.00  0.00     0.102 C 
HETATM   20  N8  UNL     1      -4.777   5.334   0.398  1.00  0.00    -0.191 NA
HETATM   21  C14 UNL     1      -3.669   2.004   0.532  1.00  0.00     0.096 A 
HETATM   22  C15 UNL     1      -4.812   1.978   1.369  1.00  0.00     0.103 C 
HETATM   23  N9  UNL     1      -5.759   1.985   2.042  1.00  0.00    -0.191 NA
HETATM   24  C16 UNL     1      -2.868   0.948   0.246  1.00  0.00     0.085 A 
HETATM   25  N10 UNL     1      -2.951  -0.421   0.708  1.00  0.00    -0.274 N 
HETATM   26  N11 UNL     1      -3.622  -1.025   1.745  1.00  0.00    -0.248 N 
ATOM     27  H11 UNL     1      -4.182  -0.467   2.390  1.00  0.00     0.192 HD
HETATM   28  C17 UNL     1      -3.527  -2.457   1.913  1.00  0.00     0.336 C 
HETATM   29  O3  UNL     1      -4.156  -2.974   2.864  1.00  0.00    -0.246 OA
HETATM   30  N12 UNL     1      -2.729  -3.175   0.985  1.00  0.00    -0.312 N 
ATOM     31  H12 UNL     1      -2.929  -4.137   0.710  1.00  0.00     0.166 HD
HETATM   32  C18 UNL     1      -1.604  -2.423   0.460  1.00  0.00     0.314 C 
HETATM   33  C19 UNL     1      -2.138  -1.199  -0.190  1.00  0.00     0.204 C 
ENDROOT
BRANCH   1  34
HETATM   34  C4  UNL     1       2.993  -1.027   0.355  1.00  0.00     0.205 C 
HETATM   35  C3  UNL     1       4.029  -0.593  -0.613  1.00  0.00     0.283 C 
HETATM   36  O1  UNL     1       5.018   0.036   0.148  1.00  0.00    -0.314 OA
HETATM   37  O2  UNL     1       4.104  -0.712  -1.861  1.00  0.00    -0.263 OA
HETATM   38  C2  UNL     1       4.403   0.673   1.269  1.00  0.00     0.134 C 
HETATM   39  C1  UNL     1       4.414   2.166   1.019  1.00  0.00     0.040 C 
HETATM   40  C20 UNL     1       2.999   0.123   1.332  1.00  0.00     0.044 C 
HETATM   41  C21 UNL     1       2.656  -0.329   2.739  1.00  0.00     0.015 C 
ENDBRANCH   1  34
BRANCH  32  42
HETATM   42  N13 UNL     1      -0.727  -2.135   1.579  1.00  0.00    -0.056 N 
ATOM     43 3H13 UNL     1      -1.201  -1.662   2.348  1.00  0.00     0.276 HD
ATOM     44 2H13 UNL     1      -0.446  -2.970   2.093  1.00  0.00     0.276 HD
ATOM     45 1H13 UNL     1       0.064  -1.607   1.210  1.00  0.00     0.276 HD
ENDBRANCH  32  42
TORSDOF 2
