REMARK  3 active torsions:
REMARK  status: ('A' for Active; 'I' for Inactive)
REMARK    1  A    between atoms: C8_11  and  C9_12 
REMARK       I    between atoms: C9_12  and  N2_14 
REMARK    2  A    between atoms: C11_16  and  O2_17 
REMARK    3  A    between atoms: C11_16  and  C12_19 
ROOT
HETATM    1  C1  UNL     1      -3.924  -1.777  -0.625  1.00  0.00     0.039 C 
HETATM    2  C2  UNL     1      -2.877  -1.139   0.263  1.00  0.00     0.118 C 
HETATM    3  C3  UNL     1      -2.013  -0.290  -0.611  1.00  0.00     0.042 C 
HETATM    4  C4  UNL     1      -0.837   0.344   0.154  1.00  0.00    -0.021 C 
HETATM    5  C5  UNL     1      -1.438   1.497   0.932  1.00  0.00     0.038 C 
HETATM    6  C6  UNL     1      -1.226   2.831   0.316  1.00  0.00     0.233 C 
HETATM    7  N1  UNL     1      -1.267   2.711  -1.107  1.00  0.00    -0.074 N 
ATOM      8  H11 UNL     1      -1.384   3.614  -1.567  1.00  0.00     0.277 HD
ATOM      9  H12 UNL     1      -2.127   2.269  -1.432  1.00  0.00     0.277 HD
HETATM   10  C7  UNL     1      -0.102   2.022  -1.561  1.00  0.00     0.247 C 
HETATM   11  C8  UNL     1       0.187   0.736  -0.824  1.00  0.00     0.112 C 
HETATM   12  C13 UNL     1      -0.405  -0.681   1.160  1.00  0.00     0.036 C 
HETATM   13  C14 UNL     1      -0.803  -2.051   0.654  1.00  0.00     0.169 C 
HETATM   14  O3  UNL     1      -2.172  -2.182   0.864  1.00  0.00    -0.386 OA
ENDROOT
BRANCH  11  15
HETATM   15  C9  UNL     1       1.589   0.788  -0.390  1.00  0.00     0.229 C 
HETATM   16  O1  UNL     1       2.054   1.942  -0.088  1.00  0.00    -0.273 OA
HETATM   17  N2  UNL     1       2.468  -0.317  -0.275  1.00  0.00    -0.309 N 
HETATM   18  C10 UNL     1       2.895  -1.720  -0.339  1.00  0.00     0.196 A 
HETATM   19  C11 UNL     1       3.868  -0.776   0.068  1.00  0.00     0.213 A 
BRANCH  19  20
HETATM   20  O2  UNL     1       4.810  -0.199  -0.816  1.00  0.00    -0.365 OA
ATOM     21  H2  UNL     1       5.689  -0.487  -0.601  1.00  0.00     0.212 HD
ENDBRANCH  19  20
BRANCH  19  22
HETATM   22  C12 UNL     1       4.189  -0.446   1.504  1.00  0.00     0.410 C 
HETATM   23  F1  UNL     1       3.355  -1.033   2.417  1.00  0.00    -0.209 F 
HETATM   24  F2  UNL     1       5.491  -0.824   1.770  1.00  0.00    -0.209 F 
ENDBRANCH  19  22
ENDBRANCH  11  15
TORSDOF 3
