REMARK  13 active torsions:
REMARK  status: ('A' for Active; 'I' for Inactive)
REMARK    1  A    between atoms: N1_1  and  C1_4 
REMARK    2  A    between atoms: C2_7  and  S1_8 
REMARK    3  A    between atoms: S1_8  and  C3_9 
REMARK    4  A    between atoms: C3_9  and  C4_10 
REMARK    5  A    between atoms: C6_14  and  N4_15 
REMARK    6  A    between atoms: C8_26  and  N8_27 
REMARK    7  A    between atoms: N8_27  and  C9_29 
REMARK    8  A    between atoms: C9_29  and  C10_30 
REMARK    9  A    between atoms: C10_30  and  O1_31 
REMARK   10  A    between atoms: C12_37  and  C13_38 
REMARK   11  A    between atoms: C13_38  and  O2_39 
REMARK   12  A    between atoms: C13_38  and  C14_41 
REMARK   13  A    between atoms: C14_41  and  N11_42 
ROOT
HETATM    1  C4  UNL     1      -0.943   1.418   1.113  1.00  0.00     0.108 A 
HETATM    2  N3  UNL     1      -0.833   0.259   1.781  1.00  0.00    -0.325 N 
ATOM      3  H3  UNL     1      -0.071  -0.038   2.391  1.00  0.00     0.169 HD
HETATM    4  C5  UNL     1      -1.950  -0.425   1.469  1.00  0.00     0.191 A 
HETATM    5  C6  UNL     1      -2.154  -1.679   1.997  1.00  0.00     0.161 C 
HETATM    6  N5  UNL     1      -3.252  -2.447   1.863  1.00  0.00    -0.173 N 
ATOM      7  H5  UNL     1      -3.266  -3.304   2.416  1.00  0.00     0.186 HD
HETATM    8  C7  UNL     1      -4.329  -2.228   1.095  1.00  0.00     0.692 C 
HETATM    9  N6  UNL     1      -5.267  -3.108   1.275  1.00  0.00    -0.234 N 
ATOM     10  H61 UNL     1      -6.086  -2.941   0.691  1.00  0.00     0.174 HD
ATOM     11  H62 UNL     1      -5.124  -3.860   1.949  1.00  0.00     0.174 HD
HETATM   12  N7  UNL     1      -4.516  -1.246   0.214  1.00  0.00    -0.021 N 
ATOM     13  H7  UNL     1      -5.229  -1.445  -0.487  1.00  0.00     0.203 HD
HETATM   14  C8  UNL     1      -3.928  -0.023   0.079  1.00  0.00     0.716 C 
HETATM   15  N9  UNL     1      -2.743   0.291   0.624  1.00  0.00    -0.064 N 
HETATM   16  N10 UNL     1      -2.096   1.414   0.427  1.00  0.00    -0.265 N 
ATOM     17  H10 UNL     1      -2.423   2.178  -0.165  1.00  0.00     0.189 HD
ENDROOT
BRANCH   1  18
HETATM   18  C3  UNL     1      -0.001   2.584   1.066  1.00  0.00     0.158 C 
BRANCH  18  19
HETATM   19  S1  UNL     1       1.171   2.404  -0.277  1.00  0.00    -0.104 SA
BRANCH  19  20
HETATM   20  C2  UNL     1       2.294   1.042  -0.016  1.00  0.00     0.088 A 
HETATM   21  N2  UNL     1       2.217   0.323   1.098  1.00  0.00    -0.186 N 
HETATM   22  C1  UNL     1       3.011  -0.717   1.401  1.00  0.00     0.677 A 
ATOM     23  H2  UNL     1       1.500   0.580   1.776  1.00  0.00     0.185 HD
HETATM   24  N12 UNL     1       3.958  -1.044   0.490  1.00  0.00    -0.193 N 
HETATM   25  C12 UNL     1       4.101  -0.366  -0.662  1.00  0.00     0.059 A 
ATOM     26  H12 UNL     1       4.581  -1.828   0.684  1.00  0.00     0.184 HD
HETATM   27  C11 UNL     1       3.255   0.709  -0.939  1.00  0.00     0.065 A 
BRANCH  22  28
HETATM   28  N1  UNL     1       2.914  -1.393   2.485  1.00  0.00    -0.234 N 
ATOM     29  H12 UNL     1       2.201  -1.147   3.171  1.00  0.00     0.174 HD
ATOM     30  H11 UNL     1       3.517  -2.183   2.715  1.00  0.00     0.174 HD
ENDBRANCH  22  28
BRANCH  25  31
HETATM   31  C13 UNL     1       5.105  -0.692  -1.671  1.00  0.00     0.194 C 
BRANCH  31  32
HETATM   32  O2  UNL     1       5.757   0.421  -2.183  1.00  0.00    -0.388 OA
ATOM     33  H2  UNL     1       6.410   0.209  -2.839  1.00  0.00     0.210 HD
ENDBRANCH  31  32
BRANCH  31  34
HETATM   34  C14 UNL     1       6.153  -1.670  -1.205  1.00  0.00     0.267 C 
BRANCH  34  35
HETATM   35  N11 UNL     1       6.986  -1.081  -0.185  1.00  0.00    -0.077 N 
ATOM     36 3H11 UNL     1       7.401  -0.203  -0.497  1.00  0.00     0.274 HD
ATOM     37 2H11 UNL     1       6.433  -0.721   0.593  1.00  0.00     0.274 HD
ATOM     38 1H11 UNL     1       7.695  -1.743   0.130  1.00  0.00     0.274 HD
ENDBRANCH  34  35
ENDBRANCH  31  34
ENDBRANCH  25  31
ENDBRANCH  19  20
ENDBRANCH  18  19
ENDBRANCH   1  18
BRANCH   5  39
HETATM   39  N4  UNL     1      -1.164  -2.168   2.703  1.00  0.00    -0.382 N 
ATOM     40  H42 UNL     1      -0.332  -1.586   2.804  1.00  0.00     0.157 HD
ATOM     41  H41 UNL     1      -1.315  -3.098   3.094  1.00  0.00     0.157 HD
ENDBRANCH   5  39
BRANCH  14  42
HETATM   42  N8  UNL     1      -4.574   0.805  -0.600  1.00  0.00    -0.222 N 
ATOM     43  H8  UNL     1      -5.462   0.467  -0.971  1.00  0.00     0.177 HD
BRANCH  42  44
HETATM   44  C9  UNL     1      -4.253   2.140  -0.928  1.00  0.00     0.164 C 
BRANCH  44  45
HETATM   45  C10 UNL     1      -5.384   2.806  -1.736  1.00  0.00     0.184 C 
BRANCH  45  46
HETATM   46  O1  UNL     1      -5.607   2.112  -2.924  1.00  0.00    -0.399 OA
ATOM     47  H1  UNL     1      -6.304   2.522  -3.422  1.00  0.00     0.209 HD
ENDBRANCH  45  46
ENDBRANCH  44  45
ENDBRANCH  42  44
ENDBRANCH  14  42
TORSDOF 13
