REMARK  9 active torsions:
REMARK  status: ('A' for Active; 'I' for Inactive)
REMARK    1  A    between atoms: N1_1  and  C1_4 
REMARK    2  A    between atoms: C2_7  and  C3_8 
REMARK    3  A    between atoms: C3_8  and  C4_9 
REMARK    4  A    between atoms: C4_9  and  C5_11 
REMARK       I    between atoms: C5_11  and  N3_13 
REMARK    5  A    between atoms: N3_13  and  N4_15 
REMARK    6  A    between atoms: N4_15  and  N5_17 
REMARK    7  A    between atoms: N5_17  and  C6_19 
REMARK    8  A    between atoms: C7_21  and  N6_22 
REMARK    9  A    between atoms: C9_29  and  C10_30 
ROOT
HETATM    1  C5  UNL     1       0.656  -0.604   0.453  1.00  0.00     0.307 C 
HETATM    2  O2  UNL     1       0.136  -0.001   1.394  1.00  0.00    -0.263 OA
HETATM    3  N3  UNL     1      -0.047  -1.480  -0.407  1.00  0.00    -0.249 N 
ATOM      4  H3  UNL     1       0.470  -1.931  -1.161  1.00  0.00     0.192 HD
ENDROOT
BRANCH   3   5
HETATM    5  N4  UNL     1      -1.378  -1.756  -0.285  1.00  0.00    -0.239 N 
ATOM      6  H4  UNL     1      -1.838  -2.475  -0.843  1.00  0.00     0.208 HD
BRANCH   5   7
HETATM    7  N5  UNL     1      -2.050  -1.009   0.630  1.00  0.00    -0.278 N 
ATOM      8  H5  UNL     1      -1.867  -1.090   1.630  1.00  0.00     0.189 HD
BRANCH   7   9
HETATM    9  C6  UNL     1      -3.040  -0.092   0.105  1.00  0.00     0.114 A 
HETATM   10  S1  UNL     1      -2.668   1.443  -0.523  1.00  0.00    -0.034 SA
HETATM   11  C7  UNL     1      -4.026   2.308  -1.078  1.00  0.00     0.147 A 
HETATM   12  N7  UNL     1      -5.191   1.645  -0.935  1.00  0.00    -0.303 N 
HETATM   13  C8  UNL     1      -5.349   0.437  -0.424  1.00  0.00     0.265 A 
ATOM     14  H7  UNL     1      -6.034   2.123  -1.253  1.00  0.00     0.171 HD
HETATM   15  O3  UNL     1      -6.560   0.007  -0.390  1.00  0.00    -0.267 OA
HETATM   16  C9  UNL     1      -4.393  -0.412   0.072  1.00  0.00     0.132 A 
BRANCH  11  17
HETATM   17  N6  UNL     1      -3.963   3.492  -1.590  1.00  0.00    -0.380 N 
ATOM     18  H62 UNL     1      -3.082   3.994  -1.698  1.00  0.00     0.158 HD
ATOM     19  H61 UNL     1      -4.776   4.010  -1.922  1.00  0.00     0.158 HD
ENDBRANCH  11  17
BRANCH  16  20
HETATM   20  C10 UNL     1      -4.784  -1.706   0.602  1.00  0.00     0.273 C 
HETATM   21  N8  UNL     1      -6.142  -2.104   0.599  1.00  0.00    -0.057 NA
HETATM   22  O4  UNL     1      -3.928  -2.475   1.062  1.00  0.00    -0.271 OA
ENDBRANCH  16  20
ENDBRANCH   7   9
ENDBRANCH   5   7
ENDBRANCH   3   5
BRANCH   1  23
HETATM   23  C4  UNL     1       2.078  -0.403   0.217  1.00  0.00     0.225 C 
HETATM   24  O1  UNL     1       2.614  -0.967  -0.766  1.00  0.00    -0.287 OA
BRANCH  23  25
HETATM   25  C3  UNL     1       2.867   0.447   1.123  1.00  0.00     0.166 C 
BRANCH  25  26
HETATM   26  C2  UNL     1       4.277   0.462   0.610  1.00  0.00     0.107 A 
HETATM   27  N2  UNL     1       5.109  -0.565   0.873  1.00  0.00    -0.180 N 
HETATM   28  C1  UNL     1       6.381  -0.570   0.421  1.00  0.00     0.679 A 
ATOM     29  H2  UNL     1       4.771  -1.354   1.424  1.00  0.00     0.185 HD
HETATM   30  N10 UNL     1       6.861   0.453  -0.308  1.00  0.00    -0.166 N 
HETATM   31  C11 UNL     1       6.034   1.477  -0.571  1.00  0.00     0.191 A 
ATOM     32  H10 UNL     1       7.822   0.451  -0.650  1.00  0.00     0.186 HD
HETATM   33  N9  UNL     1       4.752   1.486  -0.117  1.00  0.00    -0.321 N 
HETATM   34  S2  UNL     1       6.614   2.731  -1.460  1.00  0.00    -0.040 SA
ATOM     35  H9  UNL     1       4.146   2.278  -0.331  1.00  0.00     0.169 HD
BRANCH  28  36
HETATM   36  N1  UNL     1       7.108  -1.594   0.713  1.00  0.00    -0.234 N 
ATOM     37  H12 UNL     1       6.744  -2.370   1.266  1.00  0.00     0.174 HD
ATOM     38  H11 UNL     1       8.069  -1.598   0.371  1.00  0.00     0.174 HD
ENDBRANCH  28  36
ENDBRANCH  25  26
ENDBRANCH  23  25
ENDBRANCH   1  23
TORSDOF 9
