REMARK  15 active torsions:
REMARK  status: ('A' for Active; 'I' for Inactive)
REMARK    1  A    between atoms: C2_2  and  O1_3 
REMARK    2  A    between atoms: O1_3  and  C3_4 
REMARK    3  A    between atoms: C3_4  and  C4_5 
REMARK       I    between atoms: C4_5  and  N1_7 
REMARK    4  A    between atoms: N1_7  and  C5_9 
REMARK    5  A    between atoms: C5_9  and  C6_10 
REMARK    6  A    between atoms: C5_9  and  C18_27 
REMARK    7  A    between atoms: C6_10  and  C7_11 
REMARK    8  A    between atoms: C7_11  and  C8_12 
REMARK    9  A    between atoms: C8_12  and  C9_13 
REMARK   10  A    between atoms: C9_13  and  C10_14 
REMARK       I    between atoms: C10_14  and  N2_16 
REMARK   11  A    between atoms: N2_16  and  C11_18 
REMARK   12  A    between atoms: C11_18  and  C12_19 
REMARK   13  A    between atoms: C12_19  and  C13_20 
REMARK   14  A    between atoms: C13_20  and  N3_21 
REMARK       I    between atoms: C18_27  and  N4_29 
REMARK   15  A    between atoms: N4_29  and  C19_31 
ROOT
HETATM    1  C5  UNL     1      -2.348   0.396   0.532  1.00  0.00     0.176 C 
ENDROOT
BRANCH   1   2
HETATM    2  N1  UNL     1      -2.211   1.676   1.176  1.00  0.00    -0.346 N 
HETATM    3  C4  UNL     1      -2.320   2.923   0.511  1.00  0.00     0.242 C 
HETATM    4  O2  UNL     1      -2.553   2.986  -0.719  1.00  0.00    -0.271 OA
ATOM      5  H1  UNL     1      -2.023   1.686   2.178  1.00  0.00     0.163 HD
BRANCH   3   6
HETATM    6  C3  UNL     1      -2.162   4.210   1.244  1.00  0.00     0.270 C 
BRANCH   6   7
HETATM    7  O1  UNL     1      -2.305   5.301   0.408  1.00  0.00    -0.382 OA
BRANCH   7   8
HETATM    8  C2  UNL     1      -2.141   6.455   1.173  1.00  0.00     0.163 C 
HETATM    9  C1  UNL     1      -2.303   7.672   0.288  1.00  0.00     0.033 C 
ENDBRANCH   7   8
ENDBRANCH   6   7
ENDBRANCH   3   6
ENDBRANCH   1   2
BRANCH   1  10
HETATM   10  C6  UNL     1      -1.181  -0.509   0.759  1.00  0.00     0.035 C 
BRANCH  10  11
HETATM   11  C7  UNL     1       0.133   0.001   0.278  1.00  0.00     0.003 C 
BRANCH  11  12
HETATM   12  C8  UNL     1       0.190   0.260  -1.191  1.00  0.00     0.009 C 
BRANCH  12  13
HETATM   13  C9  UNL     1       1.502   0.793  -1.690  1.00  0.00     0.103 C 
BRANCH  13  14
HETATM   14  C10 UNL     1       2.644  -0.098  -1.498  1.00  0.00     0.217 C 
HETATM   15  O3  UNL     1       2.503  -1.282  -1.102  1.00  0.00    -0.274 OA
HETATM   16  N2  UNL     1       3.969   0.363  -1.760  1.00  0.00    -0.361 N 
ATOM     17  H2  UNL     1       4.114   1.320  -2.083  1.00  0.00     0.162 HD
BRANCH  16  18
HETATM   18  C11 UNL     1       5.105  -0.505  -1.575  1.00  0.00     0.124 C 
BRANCH  18  19
HETATM   19  C12 UNL     1       6.378   0.247  -1.909  1.00  0.00     0.050 C 
BRANCH  19  20
HETATM   20  C13 UNL     1       7.576  -0.651  -1.716  1.00  0.00     0.274 C 
BRANCH  20  21
HETATM   21  N3  UNL     1       8.817   0.022  -2.011  1.00  0.00     0.092 N 
HETATM   22  C14 UNL     1       9.142   1.056  -1.080  1.00  0.00     0.298 C 
HETATM   23  C15 UNL     1      10.608   0.954  -0.729  1.00  0.00     0.198 C 
HETATM   24  O4  UNL     1      11.424   0.978  -1.841  1.00  0.00    -0.388 OA
HETATM   25  C16 UNL     1      11.068   0.040  -2.776  1.00  0.00     0.198 C 
HETATM   26  C17 UNL     1       9.909  -0.841  -2.330  1.00  0.00     0.298 C 
ENDBRANCH  20  21
ENDBRANCH  19  20
ENDBRANCH  18  19
ENDBRANCH  16  18
ENDBRANCH  13  14
ENDBRANCH  12  13
ENDBRANCH  11  12
ENDBRANCH  10  11
ENDBRANCH   1  10
BRANCH   1  27
HETATM   27  C18 UNL     1      -3.594  -0.266   1.002  1.00  0.00     0.241 C 
HETATM   28  O5  UNL     1      -4.307   0.324   1.849  1.00  0.00    -0.271 OA
HETATM   29  N4  UNL     1      -3.979  -1.546   0.504  1.00  0.00    -0.350 N 
ATOM     30  H4  UNL     1      -3.384  -2.006  -0.185  1.00  0.00     0.163 HD
BRANCH  29  31
HETATM   31  C19 UNL     1      -5.175  -2.208   0.940  1.00  0.00     0.034 C 
HETATM   32  C20 UNL     1      -6.440  -1.460   0.678  1.00  0.00     0.035 C 
HETATM   33  C21 UNL     1      -7.604  -2.249   1.222  1.00  0.00    -0.012 C 
HETATM   34  C22 UNL     1      -7.435  -2.522   2.695  1.00  0.00     0.009 C 
HETATM   35  C26 UNL     1      -7.762  -3.500   0.417  1.00  0.00     0.009 C 
HETATM   36  C23 UNL     1      -6.226  -3.401   2.857  1.00  0.00    -0.012 C 
HETATM   37  C24 UNL     1      -6.394  -4.679   2.063  1.00  0.00     0.009 C 
HETATM   38  C28 UNL     1      -5.023  -2.637   2.394  1.00  0.00     0.035 C 
HETATM   39  C25 UNL     1      -6.496  -4.313   0.588  1.00  0.00    -0.012 C 
HETATM   40  C27 UNL     1      -5.302  -3.524   0.156  1.00  0.00     0.035 C 
ENDBRANCH  29  31
ENDBRANCH   1  27
TORSDOF 15
