REMARK  15 active torsions:
REMARK  status: ('A' for Active; 'I' for Inactive)
REMARK    1  A    between atoms: C2_2  and  C3_3 
REMARK    2  A    between atoms: C3_3  and  C4_4 
REMARK    3  A    between atoms: C4_4  and  C5_5 
REMARK    4  A    between atoms: C5_5  and  C6_6 
REMARK    5  A    between atoms: C5_5  and  N5_34 
REMARK       I    between atoms: C6_6  and  N1_8 
REMARK    6  A    between atoms: N1_8  and  N2_10 
REMARK       I    between atoms: N2_10  and  C7_11 
REMARK    7  A    between atoms: N2_10  and  C18_31 
REMARK       I    between atoms: C7_11  and  N3_13 
REMARK    8  A    between atoms: N3_13  and  C8_15 
REMARK    9  A    between atoms: C8_15  and  C9_16 
REMARK   10  A    between atoms: C8_15  and  C15_28 
REMARK       I    between atoms: C9_16  and  N4_18 
REMARK   11  A    between atoms: N4_18  and  C10_20 
REMARK   12  A    between atoms: C10_20  and  C11_21 
REMARK   13  A    between atoms: C10_20  and  C12_23 
REMARK   14  A    between atoms: C12_23  and  O6_25 
REMARK   15  A    between atoms: O6_25  and  C13_26 
ROOT
HETATM    1  N2  UNL     1       0.835  -0.411  -1.184  1.00  0.00    -0.236 N 
HETATM    2  C7  UNL     1      -0.084  -0.635  -0.141  1.00  0.00     0.338 C 
HETATM    3  O2  UNL     1       0.281  -0.309   1.036  1.00  0.00    -0.245 OA
HETATM    4  N3  UNL     1      -1.345  -1.189  -0.349  1.00  0.00    -0.328 N 
ATOM      5  H3  UNL     1      -1.618  -1.451  -1.296  1.00  0.00     0.165 HD
ENDROOT
BRANCH   1   6
HETATM    6  N1  UNL     1       2.133   0.120  -0.861  1.00  0.00    -0.258 N 
HETATM    7  C6  UNL     1       3.050  -0.711  -0.131  1.00  0.00     0.290 C 
HETATM    8  O1  UNL     1       2.618  -1.866   0.168  1.00  0.00    -0.265 OA
ATOM      9  H1  UNL     1       2.396   1.064  -1.144  1.00  0.00     0.190 HD
BRANCH   7  10
HETATM   10  C5  UNL     1       4.395  -0.268   0.245  1.00  0.00     0.181 C 
BRANCH  10  11
HETATM   11  C4  UNL     1       4.581   1.229   0.235  1.00  0.00     0.071 C 
BRANCH  11  12
HETATM   12  C3  UNL     1       3.654   1.917   1.214  1.00  0.00     0.006 C 
BRANCH  12  13
HETATM   13  C2  UNL     1       3.852   3.411   1.191  1.00  0.00    -0.004 C 
HETATM   14  C1  UNL     1       5.256   3.797   1.565  1.00  0.00     0.005 C 
ENDBRANCH  12  13
ENDBRANCH  11  12
ENDBRANCH  10  11
BRANCH  10  15
HETATM   15  N5  UNL     1       5.484  -1.013  -0.305  1.00  0.00    -0.047 N 
HETATM   16  C21 UNL     1       6.716  -0.897   0.499  1.00  0.00     0.278 C 
HETATM   17  C22 UNL     1       5.868  -0.526  -1.627  1.00  0.00     0.278 C 
HETATM   18  C23 UNL     1       5.188  -2.425  -0.330  1.00  0.00     0.278 C 
ENDBRANCH  10  15
ENDBRANCH   7  10
ENDBRANCH   1   6
BRANCH   1  19
HETATM   19  C18 UNL     1       0.505  -0.693  -2.549  1.00  0.00     0.105 C 
HETATM   20  C19 UNL     1       0.293  -2.146  -2.805  1.00  0.00     0.034 C 
HETATM   21  C20 UNL     1      -0.557   0.220  -3.106  1.00  0.00     0.034 C 
ENDBRANCH   1  19
BRANCH   4  22
HETATM   22  C8  UNL     1      -2.289  -1.407   0.741  1.00  0.00     0.181 C 
BRANCH  22  23
HETATM   23  C9  UNL     1      -3.595  -0.879   0.364  1.00  0.00     0.241 C 
HETATM   24  O3  UNL     1      -4.041  -0.970  -0.834  1.00  0.00    -0.271 OA
HETATM   25  N4  UNL     1      -4.444  -0.238   1.296  1.00  0.00    -0.340 N 
ATOM     26  H4  UNL     1      -4.144  -0.119   2.263  1.00  0.00     0.163 HD
BRANCH  25  27
HETATM   27  C10 UNL     1      -5.729   0.244   0.877  1.00  0.00     0.246 C 
BRANCH  27  28
HETATM   28  C11 UNL     1      -6.741  -0.153   1.881  1.00  0.00     0.266 C 
HETATM   29  O4  UNL     1      -6.371  -0.766   2.872  1.00  0.00    -0.304 OA
ENDBRANCH  27  28
BRANCH  27  30
HETATM   30  C12 UNL     1      -5.673   1.740   0.728  1.00  0.00     0.288 C 
HETATM   31  O5  UNL     1      -4.621   2.370   0.955  1.00  0.00    -0.262 OA
BRANCH  30  32
HETATM   32  O6  UNL     1      -6.800   2.444   0.335  1.00  0.00    -0.320 OA
BRANCH  32  33
HETATM   33  C13 UNL     1      -6.725   3.846   0.206  1.00  0.00     0.174 C 
HETATM   34  C14 UNL     1      -8.073   4.331  -0.258  1.00  0.00     0.034 C 
ENDBRANCH  32  33
ENDBRANCH  30  32
ENDBRANCH  27  30
ENDBRANCH  25  27
ENDBRANCH  22  23
BRANCH  22  35
HETATM   35  C15 UNL     1      -2.336  -2.876   1.118  1.00  0.00     0.009 C 
HETATM   36  C16 UNL     1      -2.763  -3.761  -0.014  1.00  0.00     0.012 C 
HETATM   37  C17 UNL     1      -3.342  -3.071   2.230  1.00  0.00     0.012 C 
ENDBRANCH  22  35
ENDBRANCH   4  22
TORSDOF 15
