REMARK  8 active torsions:
REMARK  status: ('A' for Active; 'I' for Inactive)
REMARK    1  A    between atoms: O1_2  and  C2_3 
REMARK    2  A    between atoms: C4_5  and  C5_6 
REMARK    3  A    between atoms: C8_10  and  O3_11 
REMARK    4  A    between atoms: O3_11  and  C9_12 
REMARK    5  A    between atoms: C10_13  and  O4_14 
REMARK    6  A    between atoms: C11_17  and  C12_18 
REMARK    7  A    between atoms: C12_18  and  C13_20 
REMARK    8  A    between atoms: C18_25  and  O7_26 
ROOT
HETATM    1  O3  UNL     1       0.718   1.059  -0.873  1.00  0.00    -0.302 OA
ENDROOT
BRANCH   1   2
HETATM    2  C8  UNL     1       1.837   0.393  -0.493  1.00  0.00     0.113 A 
HETATM    3  C7  UNL     1       2.834   1.183   0.110  1.00  0.00     0.055 A 
HETATM    4  C4  UNL     1       4.031   0.681   0.556  1.00  0.00     0.015 A 
HETATM    5  C3  UNL     1       4.223  -0.675   0.385  1.00  0.00     0.055 A 
HETATM    6  C2  UNL     1       3.275  -1.478  -0.197  1.00  0.00     0.105 A 
HETATM    7  C18 UNL     1       2.073  -0.946  -0.641  1.00  0.00     0.133 A 
BRANCH   4   8
HETATM    8  C5  UNL     1       5.038   1.536   1.175  1.00  0.00     0.155 C 
HETATM    9  C6  UNL     1       4.799   2.971   1.341  1.00  0.00     0.096 C 
HETATM   10  O2  UNL     1       6.102   1.003   1.556  1.00  0.00    -0.293 OA
ENDBRANCH   4   8
BRANCH   6  11
HETATM   11  O1  UNL     1       3.491  -2.839  -0.359  1.00  0.00    -0.353 OA
HETATM   12  C1  UNL     1       4.712  -3.394   0.089  1.00  0.00     0.210 C 
ENDBRANCH   6  11
BRANCH   7  13
HETATM   13  O7  UNL     1       1.134  -1.788  -1.226  1.00  0.00    -0.356 OA
ATOM     14  H7  UNL     1       0.311  -1.424  -1.530  1.00  0.00     0.218 HD
ENDBRANCH   7  13
ENDBRANCH   1   2
BRANCH   1  15
HETATM   15  C9  UNL     1      -0.585   0.937  -0.551  1.00  0.00     0.143 A 
HETATM   16  C10 UNL     1      -1.190   1.333   0.664  1.00  0.00     0.219 A 
HETATM   17  O5  UNL     1      -2.465   1.069   0.625  1.00  0.00    -0.281 OA
HETATM   18  C11 UNL     1      -2.793   0.524  -0.517  1.00  0.00     0.133 A 
HETATM   19  C16 UNL     1      -1.628   0.430  -1.276  1.00  0.00     0.015 A 
HETATM   20  C17 UNL     1      -1.573  -0.105  -2.662  1.00  0.00     0.054 C 
BRANCH  16  21
HETATM   21  O4  UNL     1      -0.452   1.909   1.689  1.00  0.00    -0.339 OA
ATOM     22  H4  UNL     1      -0.859   2.175   2.505  1.00  0.00     0.220 HD
ENDBRANCH  16  21
BRANCH  18  23
HETATM   23  C12 UNL     1      -4.113   0.091  -0.934  1.00  0.00     0.187 C 
HETATM   24  O6  UNL     1      -4.247  -0.416  -2.075  1.00  0.00    -0.290 OA
BRANCH  23  25
HETATM   25  C13 UNL     1      -5.280   0.234  -0.059  1.00  0.00     0.054 C 
HETATM   26  C14 UNL     1      -6.524  -0.292  -0.731  1.00  0.00     0.018 C 
HETATM   27  C15 UNL     1      -5.111  -0.522   1.244  1.00  0.00     0.018 C 
ENDBRANCH  23  25
ENDBRANCH  18  23
ENDBRANCH   1  15
TORSDOF 8
