REMARK  1 active torsions:
REMARK  status: ('A' for Active; 'I' for Inactive)
REMARK    1  A    between atoms: C3_3  and  C4_4 
REMARK       I    between atoms: N4_9  and  C5_10 
ROOT
HETATM    1  C1  UNL     1      -1.352   0.121   2.535  1.00  0.00     0.016 C 
HETATM    2  C2  UNL     1      -1.011  -0.276   1.445  1.00  0.00    -0.055 C 
HETATM    3  C3  UNL     1      -0.585  -0.776   0.134  1.00  0.00     0.282 C 
HETATM    4  N2  UNL     1      -0.278  -2.163   0.067  1.00  0.00    -0.069 NA
HETATM    5  N3  UNL     1       1.072  -1.898   0.349  1.00  0.00    -0.019 NA
HETATM    6  N4  UNL     1       0.858  -0.589  -0.054  1.00  0.00    -0.204 N 
HETATM    7  C5  UNL     1       1.561   0.562  -0.486  1.00  0.00     0.204 C 
HETATM    8  N5  UNL     1       2.348   0.484  -1.497  1.00  0.00    -0.372 N 
ATOM      9  H51 UNL     1       2.854   1.313  -1.808  1.00  0.00     0.158 HD
ATOM     10  H52 UNL     1       2.501  -0.378  -2.020  1.00  0.00     0.158 HD
HETATM   11  N6  UNL     1       1.348   1.761   0.242  1.00  0.00    -0.062 NA
ENDROOT
BRANCH   3  12
HETATM   12  C4  UNL     1      -1.345  -0.197  -0.980  1.00  0.00     0.292 C 
HETATM   13  N1  UNL     1      -1.664   1.188  -0.936  1.00  0.00    -0.057 NA
HETATM   14  O1  UNL     1      -1.712  -0.902  -1.958  1.00  0.00    -0.271 OA
ENDBRANCH   3  12
TORSDOF 1
