REMARK  12 active torsions:
REMARK  status: ('A' for Active; 'I' for Inactive)
REMARK    1  A    between atoms: C2_2  and  C3_3 
REMARK    2  A    between atoms: C3_3  and  C4_4 
REMARK    3  A    between atoms: C4_4  and  C5_5 
REMARK    4  A    between atoms: C5_5  and  N1_6 
REMARK    5  A    between atoms: C5_5  and  C21_31 
REMARK       I    between atoms: N1_6  and  C6_8 
REMARK       I    between atoms: C6_8  and  N2_10 
REMARK    6  A    between atoms: N2_10  and  C7_12 
REMARK    7  A    between atoms: C7_12  and  C13_18 
REMARK    8  A    between atoms: C8_13  and  C9_14 
REMARK       I    between atoms: C13_18  and  N3_20 
REMARK    9  A    between atoms: N3_20  and  C14_21 
REMARK   10  A    between atoms: C14_21  and  C15_22 
REMARK       I    between atoms: C15_22  and  N4_24 
REMARK       I    between atoms: C21_31  and  N6_33 
REMARK   11  A    between atoms: C24_37  and  O5_38 
REMARK   12  A    between atoms: C24_37  and  C25_40 
REMARK       I    between atoms: N8_44  and  C29_46 
ROOT
HETATM    1  C5  UNL     1       0.412  -1.500  -0.165  1.00  0.00     0.178 C 
ENDROOT
BRANCH   1   2
HETATM    2  C4  UNL     1      -0.446  -0.124  -0.131  1.00  0.00     0.035 C 
BRANCH   2   3
HETATM    3  C3  UNL     1       0.375   0.991   0.344  1.00  0.00     0.002 C 
BRANCH   3   4
HETATM    4  C2  UNL     1      -0.495   2.264   0.417  1.00  0.00    -0.004 C 
HETATM    5  C1  UNL     1       0.298   3.435   0.914  1.00  0.00     0.005 C 
ENDBRANCH   3   4
ENDBRANCH   2   3
ENDBRANCH   1   2
BRANCH   1   6
HETATM    6  N1  UNL     1      -0.633  -2.385  -0.645  1.00  0.00    -0.330 N 
HETATM    7  C6  UNL     1      -1.717  -2.599   0.273  1.00  0.00     0.321 C 
HETATM    8  O1  UNL     1      -1.558  -2.170   1.422  1.00  0.00    -0.247 OA
HETATM    9  N2  UNL     1      -2.878  -3.218  -0.207  1.00  0.00    -0.303 N 
ATOM     10  H2  UNL     1      -2.766  -3.750  -1.070  1.00  0.00     0.171 HD
ATOM     11  H1  UNL     1      -0.600  -2.823  -1.566  1.00  0.00     0.165 HD
BRANCH   9  12
HETATM   12  C7  UNL     1      -4.217  -3.209   0.350  1.00  0.00     0.115 C 
HETATM   13  C8  UNL     1      -4.768  -4.365   0.961  1.00  0.00     0.014 C 
BRANCH  13  14
HETATM   14  C9  UNL     1      -4.173  -5.079   2.111  1.00  0.00     0.010 C 
HETATM   15  C10 UNL     1      -4.024  -4.430   3.438  1.00  0.00     0.009 C 
HETATM   16  C11 UNL     1      -5.362  -5.109   3.855  1.00  0.00     0.001 C 
HETATM   17  C12 UNL     1      -5.114  -6.107   2.748  1.00  0.00     0.009 C 
ENDBRANCH  13  14
BRANCH  12  18
HETATM   18  C13 UNL     1      -4.487  -1.819   0.917  1.00  0.00     0.337 C 
HETATM   19  O2  UNL     1      -3.665  -1.402   1.801  1.00  0.00    -0.250 OA
HETATM   20  N3  UNL     1      -5.511  -1.005   0.523  1.00  0.00    -0.401 NA
BRANCH  20  21
HETATM   21  C14 UNL     1      -6.557  -0.168   0.124  1.00  0.00     0.326 C 
BRANCH  21  22
HETATM   22  C15 UNL     1      -5.897   1.056  -0.521  1.00  0.00     0.274 C 
HETATM   23  O3  UNL     1      -4.646   1.079  -0.530  1.00  0.00    -0.269 OA
HETATM   24  N4  UNL     1      -6.609   2.124  -1.084  1.00  0.00    -0.175 N 
HETATM   25  C16 UNL     1      -8.078   2.114  -1.213  1.00  0.00     0.161 C 
HETATM   26  N5  UNL     1      -6.134   3.314  -1.578  1.00  0.00     0.009 N 
HETATM   27  C17 UNL     1      -8.171   2.735  -2.624  1.00  0.00     0.052 C 
HETATM   28  C18 UNL     1      -7.169   3.895  -2.417  1.00  0.00     0.266 C 
HETATM   29  C19 UNL     1      -4.875   3.251  -2.293  1.00  0.00     0.302 C 
HETATM   30  C20 UNL     1      -5.907   4.303  -0.499  1.00  0.00     0.302 C 
ENDBRANCH  21  22
ENDBRANCH  20  21
ENDBRANCH  12  18
ENDBRANCH   9  12
ENDBRANCH   1   6
BRANCH   1  31
HETATM   31  C21 UNL     1       1.445  -1.182  -1.138  1.00  0.00     0.242 C 
HETATM   32  O4  UNL     1       1.029  -1.142  -2.366  1.00  0.00    -0.271 OA
HETATM   33  N6  UNL     1       2.803  -0.898  -0.956  1.00  0.00    -0.347 N 
HETATM   34  C22 UNL     1       3.603  -0.393  -2.102  1.00  0.00     0.145 C 
HETATM   35  C33 UNL     1       3.533  -1.099   0.271  1.00  0.00     0.145 C 
HETATM   36  C23 UNL     1       4.219   0.903  -1.611  1.00  0.00     0.144 C 
HETATM   37  N7  UNL     1       5.166   0.605  -0.526  1.00  0.00    -0.362 N 
HETATM   38  C24 UNL     1       6.413   1.144  -0.578  1.00  0.00     0.118 C 
HETATM   39  C32 UNL     1       4.703  -0.238   0.542  1.00  0.00     0.144 C 
BRANCH  38  40
HETATM   40  O5  UNL     1       6.621   1.895  -1.671  1.00  0.00    -0.349 OA
ATOM     41  H5  UNL     1       7.492   2.272  -1.707  1.00  0.00     0.219 HD
ENDBRANCH  38  40
BRANCH  38  42
HETATM   42  C25 UNL     1       7.613   1.119   0.245  1.00  0.00     0.066 C 
HETATM   43  C26 UNL     1       8.728   1.972  -0.264  1.00  0.00     0.019 C 
HETATM   44  C27 UNL     1       9.979   1.186  -0.111  1.00  0.00     0.053 C 
HETATM   45  C28 UNL     1       9.610  -0.140   0.414  1.00  0.00    -0.010 C 
HETATM   46  N8  UNL     1      10.447  -1.056   0.727  1.00  0.00    -0.335 N 
HETATM   47  C31 UNL     1       8.166  -0.228   0.504  1.00  0.00     0.065 C 
HETATM   48  C29 UNL     1      11.843  -0.970   0.627  1.00  0.00     0.217 C 
ATOM     49  H8  UNL     1      10.062  -1.931   1.083  1.00  0.00     0.168 HD
HETATM   50  C30 UNL     1      12.606  -1.910  -0.249  1.00  0.00     0.117 C 
HETATM   51  O6  UNL     1      12.529  -0.119   1.251  1.00  0.00    -0.274 OA
ENDBRANCH  38  42
ENDBRANCH   1  31
TORSDOF 12
