REMARK  11 active torsions:
REMARK  status: ('A' for Active; 'I' for Inactive)
REMARK    1  A    between atoms: N1_1  and  C1_4 
REMARK    2  A    between atoms: C3_6  and  N2_7 
REMARK    3  A    between atoms: C7_19  and  N7_20 
REMARK       I    between atoms: N7_20  and  C8_22 
REMARK       I    between atoms: C8_22  and  N8_23 
REMARK       I    between atoms: C8_22  and  N9_27 
REMARK    4  A    between atoms: C9_31  and  O1_32 
REMARK    5  A    between atoms: C10_34  and  N10_35 
REMARK    6  A    between atoms: N10_35  and  C11_37 
REMARK    7  A    between atoms: C11_37  and  C12_38 
REMARK    8  A    between atoms: C11_37  and  C13_43 
REMARK    9  A    between atoms: C12_38  and  N11_39 
REMARK   10  A    between atoms: C13_43  and  N12_44 
REMARK   11  A    between atoms: C16_53  and  N16_54 
ROOT
HETATM    1  N2  UNL     1      -0.833   0.446  -0.079  1.00  0.00    -0.277 N 
HETATM    2  C4  UNL     1      -2.092   0.162  -0.466  1.00  0.00     0.091 A 
HETATM    3  C5  UNL     1      -2.969   1.122  -1.084  1.00  0.00     0.165 A 
HETATM    4  N3  UNL     1      -2.799   2.388  -1.378  1.00  0.00    -0.267 N 
ATOM      5  H3  UNL     1      -1.936   2.895  -1.182  1.00  0.00     0.190 HD
HETATM    6  N4  UNL     1      -3.848   2.943  -1.950  1.00  0.00    -0.227 N 
ATOM      7  H4  UNL     1      -3.940   3.910  -2.261  1.00  0.00     0.210 HD
HETATM    8  N5  UNL     1      -4.762   1.982  -2.038  1.00  0.00    -0.227 N 
ATOM      9  H5  UNL     1      -5.696   2.083  -2.436  1.00  0.00     0.210 HD
HETATM   10  N6  UNL     1      -4.260   0.877  -1.525  1.00  0.00    -0.267 N 
ATOM     11  H6  UNL     1      -4.745  -0.018  -1.462  1.00  0.00     0.190 HD
HETATM   12  C6  UNL     1      -2.648  -1.130  -0.273  1.00  0.00     0.066 A 
HETATM   13  C7  UNL     1      -1.847  -2.063   0.324  1.00  0.00     0.070 A 
HETATM   14  C9  UNL     1      -0.574  -1.744   0.705  1.00  0.00     0.137 A 
HETATM   15  C10 UNL     1      -0.018  -0.447   0.507  1.00  0.00     0.146 A 
ENDROOT
BRANCH  15  16
HETATM   16  N10 UNL     1       1.314  -0.289   0.858  1.00  0.00    -0.366 N 
ATOM     17  H10 UNL     1       1.613  -1.047   1.472  1.00  0.00     0.161 HD
BRANCH  16  18
HETATM   18  C11 UNL     1       2.377   0.601   0.623  1.00  0.00     0.128 C 
BRANCH  18  19
HETATM   19  C12 UNL     1       3.469   0.399   1.735  1.00  0.00     0.256 C 
BRANCH  19  20
HETATM   20  N11 UNL     1       4.519   1.327   1.427  1.00  0.00    -0.077 N 
ATOM     21 3H11 UNL     1       4.881   1.233   0.478  1.00  0.00     0.274 HD
ATOM     22 2H11 UNL     1       4.198   2.291   1.341  1.00  0.00     0.274 HD
ATOM     23 1H11 UNL     1       5.228   1.196   2.149  1.00  0.00     0.274 HD
ENDBRANCH  19  20
ENDBRANCH  18  19
BRANCH  18  24
HETATM   24  C13 UNL     1       3.057   0.196  -0.691  1.00  0.00     0.176 C 
BRANCH  24  25
HETATM   25  N12 UNL     1       3.589  -1.141  -0.662  1.00  0.00    -0.285 N 
HETATM   26  C14 UNL     1       2.928  -2.261  -1.009  1.00  0.00     0.201 A 
HETATM   27  N13 UNL     1       3.762  -3.307  -0.861  1.00  0.00    -0.346 N 
HETATM   28  C15 UNL     1       4.947  -2.855  -0.423  1.00  0.00     0.198 A 
ATOM     29  H13 UNL     1       3.531  -4.282  -1.051  1.00  0.00     0.167 HD
HETATM   30  N14 UNL     1       4.806  -1.522  -0.312  1.00  0.00    -0.293 N 
ATOM     31  H14 UNL     1       5.541  -0.888   0.001  1.00  0.00     0.188 HD
ENDBRANCH  24  25
ENDBRANCH  18  24
ENDBRANCH  16  18
ENDBRANCH  15  16
BRANCH   1  32
HETATM   32  C3  UNL     1      -0.392   1.779  -0.236  1.00  0.00     0.133 A 
HETATM   33  C2  UNL     1      -0.590   2.647   0.862  1.00  0.00     0.098 A 
HETATM   34  C1  UNL     1      -0.198   3.960   0.842  1.00  0.00     0.118 A 
HETATM   35  N17 UNL     1       0.396   4.434  -0.266  1.00  0.00    -0.177 N 
HETATM   36  C16 UNL     1       0.599   3.633  -1.332  1.00  0.00     0.679 A 
ATOM     37  H17 UNL     1       0.696   5.408  -0.301  1.00  0.00     0.185 HD
HETATM   38  N15 UNL     1       0.200   2.326  -1.293  1.00  0.00    -0.176 N 
ATOM     39  H15 UNL     1       0.364   1.743  -2.114  1.00  0.00     0.186 HD
BRANCH  34  40
HETATM   40  N1  UNL     1      -0.368   4.768   1.831  1.00  0.00    -0.385 N 
ATOM     41  H12 UNL     1      -0.819   4.408   2.672  1.00  0.00     0.157 HD
ATOM     42  H11 UNL     1      -0.076   5.745   1.816  1.00  0.00     0.157 HD
ENDBRANCH  34  40
BRANCH  36  43
HETATM   43  N16 UNL     1       1.164   4.115  -2.366  1.00  0.00    -0.234 N 
ATOM     44 2H16 UNL     1       1.318   3.509  -3.172  1.00  0.00     0.174 HD
ATOM     45 1H16 UNL     1       1.462   5.090  -2.395  1.00  0.00     0.174 HD
ENDBRANCH  36  43
ENDBRANCH   1  32
BRANCH  14  46
HETATM   46  O1  UNL     1       0.168  -2.750   1.303  1.00  0.00    -0.355 OA
ATOM     47  H1  UNL     1       1.053  -2.528   1.568  1.00  0.00     0.218 HD
ENDBRANCH  14  46
BRANCH  13  48
HETATM   48  N7  UNL     1      -2.312  -3.255   0.522  1.00  0.00    -0.339 N 
HETATM   49  C8  UNL     1      -3.641  -3.628   0.136  1.00  0.00     0.480 C 
HETATM   50  N8  UNL     1      -3.787  -5.090   0.145  1.00  0.00    -0.033 N 
HETATM   51  N9  UNL     1      -4.577  -3.079   1.076  1.00  0.00    -0.033 N 
ATOM     52  H83 UNL     1      -3.082  -5.545  -0.434  1.00  0.00     0.278 HD
ATOM     53  H82 UNL     1      -3.526  -5.492   1.046  1.00  0.00     0.278 HD
ATOM     54  H81 UNL     1      -4.733  -5.355  -0.130  1.00  0.00     0.278 HD
ATOM     55  H93 UNL     1      -4.363  -3.347   2.037  1.00  0.00     0.278 HD
ATOM     56  H92 UNL     1      -4.473  -2.070   1.181  1.00  0.00     0.278 HD
ATOM     57  H91 UNL     1      -5.523  -3.344   0.801  1.00  0.00     0.278 HD
ATOM     58  H7  UNL     1      -1.713  -3.951   0.967  1.00  0.00     0.163 HD
ENDBRANCH  13  48
TORSDOF 11
