REMARK  1 active torsions:
REMARK  status: ('A' for Active; 'I' for Inactive)
REMARK    1  A    between atoms: C3_3  and  N1_4 
ROOT
HETATM    1  C1  UNL     1       3.328  -0.572   0.843  1.00  0.00     0.014 C 
HETATM    2  C2  UNL     1       2.537  -0.013   0.118  1.00  0.00    -0.097 C 
HETATM    3  C3  UNL     1       1.557   0.647  -0.763  1.00  0.00     0.239 C 
ENDROOT
BRANCH   3   4
HETATM    4  N1  UNL     1       0.212   0.287  -0.387  1.00  0.00    -0.180 N 
HETATM    5  C4  UNL     1      -0.474  -0.765  -0.871  1.00  0.00     0.151 A 
HETATM    6  C5  UNL     1      -1.728  -0.811  -0.294  1.00  0.00     0.145 A 
HETATM    7  C6  UNL     1      -2.785  -1.757  -0.514  1.00  0.00     0.119 C 
HETATM    8  N3  UNL     1      -1.798   0.233   0.552  1.00  0.00    -0.181 N 
HETATM    9  N2  UNL     1      -3.644  -2.530  -0.676  1.00  0.00    -0.190 NA
HETATM   10  C7  UNL     1      -0.624   0.885   0.487  1.00  0.00     0.679 A 
ATOM     11  H3  UNL     1      -2.596   0.484   1.136  1.00  0.00     0.185 HD
HETATM   12  N4  UNL     1      -0.262   1.956   1.144  1.00  0.00    -0.234 N 
ATOM     13  H42 UNL     1       0.629   2.451   1.095  1.00  0.00     0.174 HD
ATOM     14  H41 UNL     1      -0.894   2.408   1.805  1.00  0.00     0.174 HD
ENDBRANCH   3   4
TORSDOF 1
