REMARK  1 active torsions:
REMARK  status: ('A' for Active; 'I' for Inactive)
REMARK    1  A    between atoms: N2_3  and  C2_5 
ROOT
HETATM    1  N1  UNL     1       3.506   0.287   1.171  1.00  0.00    -0.172 NA
HETATM    2  C1  UNL     1       2.636   0.392   0.403  1.00  0.00     0.182 C 
HETATM    3  N2  UNL     1       1.599   0.511  -0.537  1.00  0.00    -0.286 N 
ATOM      4  H2  UNL     1       1.783   0.996  -1.415  1.00  0.00     0.178 HD
ENDROOT
BRANCH   3   5
HETATM    5  C2  UNL     1       0.303  -0.021  -0.305  1.00  0.00     0.150 A 
HETATM    6  C3  UNL     1      -0.781   0.590   0.287  1.00  0.00     0.161 A 
HETATM    7  C4  UNL     1      -0.835   1.941   0.813  1.00  0.00     0.121 C 
HETATM    8  N4  UNL     1      -1.769  -0.322   0.273  1.00  0.00    -0.286 N 
HETATM    9  N3  UNL     1      -0.862   3.023   1.226  1.00  0.00    -0.190 NA
HETATM   10  N5  UNL     1      -1.391  -1.454  -0.279  1.00  0.00    -0.263 N 
ATOM     11  H4  UNL     1      -2.703  -0.155   0.647  1.00  0.00     0.188 HD
HETATM   12  C5  UNL     1      -0.089  -1.292  -0.652  1.00  0.00     0.290 A 
ATOM     13  H5  UNL     1      -1.961  -2.291  -0.404  1.00  0.00     0.190 HD
HETATM   14  O1  UNL     1       0.572  -2.188  -1.209  1.00  0.00    -0.264 OA
ENDBRANCH   3   5
TORSDOF 1
