REMARK  2 active torsions:
REMARK  status: ('A' for Active; 'I' for Inactive)
REMARK    1  A    between atoms: N1_1  and  C1_5 
REMARK    2  A    between atoms: C3_7  and  C4_8 
ROOT
HETATM    1  C1  UNL     1      -1.131   0.186   0.675  1.00  0.00     0.218 C 
HETATM    2  C2  UNL     1      -0.299  -0.977   0.116  1.00  0.00     0.045 C 
HETATM    3  C3  UNL     1       0.892  -0.068   0.314  1.00  0.00     0.052 C 
HETATM    4  C5  UNL     1      -0.057   1.080   0.039  1.00  0.00     0.206 C 
HETATM    5  F2  UNL     1       0.157   2.172   0.829  1.00  0.00    -0.247 F 
ENDROOT
BRANCH   1   6
HETATM    6  N1  UNL     1      -2.409   0.237   0.057  1.00  0.00    -0.072 N 
ATOM      7  H13 UNL     1      -2.335   0.281  -0.959  1.00  0.00     0.274 HD
ATOM      8  H12 UNL     1      -2.902  -0.652   0.137  1.00  0.00     0.274 HD
ATOM      9  H11 UNL     1      -2.962   1.010   0.428  1.00  0.00     0.274 HD
ENDBRANCH   1   6
BRANCH   3  10
HETATM   10  C4  UNL     1       2.006  -0.243  -0.670  1.00  0.00     0.229 C 
HETATM   11  F1  UNL     1       2.999   0.679  -0.318  1.00  0.00    -0.255 F 
ENDBRANCH   3  10
TORSDOF 2
