REMARK  7 active torsions:
REMARK  status: ('A' for Active; 'I' for Inactive)
REMARK    1  A    between atoms: N1_1  and  C1_4 
REMARK    2  A    between atoms: C4_9  and  N3_10 
REMARK    3  A    between atoms: C5_11  and  C6_12 
REMARK    4  A    between atoms: C7_25  and  N10_26 
REMARK    5  A    between atoms: C8_29  and  C9_30 
REMARK    6  A    between atoms: N11_31  and  N12_33 
REMARK    7  A    between atoms: N12_33  and  C10_35 
ROOT
HETATM    1  C1  UNL     1      -0.727  -2.794   1.740  1.00  0.00     0.112 A 
HETATM    2  N2  UNL     1      -1.972  -3.169   2.201  1.00  0.00    -0.352 N 
ATOM      3  H2  UNL     1      -2.110  -4.138   2.489  1.00  0.00     0.166 HD
HETATM    4  C2  UNL     1      -3.003  -2.332   2.290  1.00  0.00     0.092 A 
HETATM    5  C3  UNL     1      -2.804  -1.025   1.897  1.00  0.00     0.049 A 
HETATM    6  C4  UNL     1      -1.566  -0.617   1.429  1.00  0.00     0.075 A 
HETATM    7  C8  UNL     1      -0.503  -1.493   1.341  1.00  0.00     0.052 A 
ENDROOT
BRANCH   6   8
HETATM    8  N3  UNL     1      -1.416   0.734   1.040  1.00  0.00    -0.125 N 
HETATM    9  C5  UNL     1      -1.642   1.190  -0.226  1.00  0.00     0.191 A 
HETATM   10  N8  UNL     1      -1.391   2.507  -0.178  1.00  0.00    -0.267 N 
HETATM   11  N9  UNL     1      -1.027   2.874   1.038  1.00  0.00    -0.130 N 
ATOM     12  H8  UNL     1      -1.471   3.140  -0.974  1.00  0.00     0.189 HD
HETATM   13  C7  UNL     1      -1.038   1.773   1.811  1.00  0.00     0.699 A 
ATOM     14  H9  UNL     1      -0.783   3.818   1.336  1.00  0.00     0.205 HD
BRANCH   9  15
HETATM   15  C6  UNL     1      -2.067   0.380  -1.361  1.00  0.00     0.184 A 
HETATM   16  N4  UNL     1      -2.321  -0.932  -1.424  1.00  0.00    -0.266 N 
HETATM   17  N5  UNL     1      -2.677  -1.221  -2.664  1.00  0.00    -0.226 N 
ATOM     18  H4  UNL     1      -2.252  -1.594  -0.651  1.00  0.00     0.190 HD
HETATM   19  N6  UNL     1      -2.649  -0.118  -3.372  1.00  0.00    -0.226 N 
ATOM     20  H5  UNL     1      -2.931  -2.146  -3.011  1.00  0.00     0.210 HD
HETATM   21  N7  UNL     1      -2.277   0.870  -2.586  1.00  0.00    -0.266 N 
ATOM     22  H6  UNL     1      -2.877  -0.039  -4.363  1.00  0.00     0.210 HD
ATOM     23  H7  UNL     1      -2.168   1.845  -2.865  1.00  0.00     0.190 HD
ENDBRANCH   9  15
BRANCH  13  24
HETATM   24  N10 UNL     1      -0.749   1.664   3.077  1.00  0.00    -0.233 N 
ATOM     25 2H10 UNL     1      -0.757   0.829   3.663  1.00  0.00     0.174 HD
ATOM     26 1H10 UNL     1      -0.463   2.450   3.660  1.00  0.00     0.174 HD
ENDBRANCH  13  24
ENDBRANCH   6   8
BRANCH   7  27
HETATM   27  C9  UNL     1       0.756  -1.017   0.850  1.00  0.00     0.124 C 
HETATM   28  N11 UNL     1       1.847  -1.641   0.689  1.00  0.00    -0.308 N 
ATOM     29  H11 UNL     1       1.855  -2.630   0.939  1.00  0.00     0.186 HD
BRANCH  28  30
HETATM   30  N12 UNL     1       3.022  -1.111   0.209  1.00  0.00    -0.272 N 
ATOM     31  H12 UNL     1       3.873  -1.664   0.310  1.00  0.00     0.190 HD
BRANCH  30  32
HETATM   32  C10 UNL     1       3.124   0.166  -0.422  1.00  0.00     0.190 C 
HETATM   33  N13 UNL     1       3.729   1.207   0.045  1.00  0.00    -0.360 N 
HETATM   34  C11 UNL     1       3.629   2.323  -0.861  1.00  0.00     0.142 C 
ATOM     35  H13 UNL     1       4.216   1.236   0.941  1.00  0.00     0.162 HD
HETATM   36  C12 UNL     1       3.155   1.710  -2.172  1.00  0.00     0.142 C 
HETATM   37  N14 UNL     1       2.552   0.469  -1.692  1.00  0.00    -0.360 N 
ATOM     38  H14 UNL     1       1.846  -0.083  -2.179  1.00  0.00     0.162 HD
ENDBRANCH  30  32
ENDBRANCH  28  30
ENDBRANCH   7  27
BRANCH   1  39
HETATM   39  N1  UNL     1       0.148  -3.702   1.715  1.00  0.00    -0.385 N 
ATOM     40  H12 UNL     1      -0.018  -4.664   2.010  1.00  0.00     0.157 HD
ATOM     41  H11 UNL     1       1.069  -3.425   1.374  1.00  0.00     0.157 HD
ENDBRANCH   1  39
TORSDOF 7
