REMARK  11 active torsions:
REMARK  status: ('A' for Active; 'I' for Inactive)
REMARK    1  A    between atoms: C2_2  and  C3_3 
REMARK    2  A    between atoms: C3_3  and  C4_4 
REMARK    3  A    between atoms: C4_4  and  C5_5 
REMARK    4  A    between atoms: C5_5  and  C6_6 
REMARK    5  A    between atoms: C6_6  and  N1_7 
REMARK    6  A    between atoms: N1_7  and  C7_9 
REMARK    7  A    between atoms: C7_9  and  O1_15 
REMARK    8  A    between atoms: N2_10  and  N3_12 
REMARK    9  A    between atoms: O1_15  and  N4_16 
REMARK   10  A    between atoms: S1_21  and  N7_23 
REMARK   11  A    between atoms: N7_23  and  N8_25 
ROOT
HETATM    1  N4  UNL     1      -1.442   1.027   0.906  1.00  0.00    -0.060 N 
HETATM    2  C8  UNL     1      -2.088   1.498   1.986  1.00  0.00     0.407 A 
HETATM    3  O2  UNL     1      -1.635   2.083   3.034  1.00  0.00    -0.240 OA
HETATM    4  N5  UNL     1      -3.291   1.111   1.503  1.00  0.00     0.006 N 
HETATM    5  N6  UNL     1      -2.658   0.656   0.460  1.00  0.00    -0.057 N 
HETATM    6  S1  UNL     1      -3.845  -0.019  -0.591  1.00  0.00     0.268 S 
HETATM    7  O3  UNL     1      -3.644  -1.468  -0.832  1.00  0.00    -0.200 OA
HETATM    8  N10 UNL     1      -5.216   0.323   0.390  1.00  0.00    -0.111 N 
ATOM      9  H10 UNL     1      -6.195   0.113   0.194  1.00  0.00     0.197 HD
HETATM   10  C11 UNL     1      -4.676   0.963   1.531  1.00  0.00     0.713 A 
HETATM   11  N11 UNL     1      -5.466   1.363   2.506  1.00  0.00    -0.232 N 
ATOM     12 1H11 UNL     1      -6.480   1.255   2.527  1.00  0.00     0.174 HD
ATOM     13 2H11 UNL     1      -5.077   1.824   3.328  1.00  0.00     0.174 HD
ENDROOT
BRANCH   1  14
HETATM   14  O1  UNL     1      -0.154   0.936   0.417  1.00  0.00    -0.170 OA
BRANCH  14  15
HETATM   15  C7  UNL     1       0.429  -0.241  -0.027  1.00  0.00     0.260 C 
HETATM   16  N2  UNL     1       0.226  -1.283   0.697  1.00  0.00    -0.270 N 
ATOM     17  H2  UNL     1       0.644  -2.161   0.388  1.00  0.00     0.190 HD
BRANCH  15  18
HETATM   18  N1  UNL     1       1.211  -0.376  -1.194  1.00  0.00    -0.354 N 
ATOM     19  H1  UNL     1       0.888   0.071  -2.052  1.00  0.00     0.163 HD
BRANCH  18  20
HETATM   20  C6  UNL     1       2.436  -1.112  -1.224  1.00  0.00     0.123 C 
BRANCH  20  21
HETATM   21  C5  UNL     1       3.530  -0.440  -0.497  1.00  0.00     0.020 C 
BRANCH  21  22
HETATM   22  C4  UNL     1       3.360  -0.178   0.955  1.00  0.00     0.002 C 
BRANCH  22  23
HETATM   23  C3  UNL     1       4.687   0.483   1.406  1.00  0.00    -0.000 C 
BRANCH  23  24
HETATM   24  C2  UNL     1       4.628   0.793   2.867  1.00  0.00    -0.005 C 
HETATM   25  C1  UNL     1       5.924   1.444   3.313  1.00  0.00     0.005 C 
ENDBRANCH  23  24
ENDBRANCH  22  23
ENDBRANCH  21  22
ENDBRANCH  20  21
ENDBRANCH  18  20
ENDBRANCH  15  18
BRANCH  16  26
HETATM   26  N3  UNL     1      -0.519  -1.304   1.868  1.00  0.00    -0.342 N 
ATOM     27  H32 UNL     1      -0.929  -0.417   2.162  1.00  0.00     0.176 HD
ATOM     28  H31 UNL     1      -0.680  -2.131   2.443  1.00  0.00     0.176 HD
ENDBRANCH  16  26
ENDBRANCH  14  15
ENDBRANCH   1  14
BRANCH   6  29
HETATM   29  N7  UNL     1      -3.841   0.813  -1.921  1.00  0.00    -0.223 N 
ATOM     30  H7  UNL     1      -3.464   1.759  -1.975  1.00  0.00     0.200 HD
BRANCH  29  31
HETATM   31  N8  UNL     1      -4.397   0.155  -3.033  1.00  0.00    -0.282 N 
HETATM   32  C9  UNL     1      -3.586  -0.332  -3.903  1.00  0.00     0.104 C 
HETATM   33  C10 UNL     1      -4.199  -1.023  -5.070  1.00  0.00     0.086 C 
HETATM   34  N9  UNL     1      -2.183  -0.245  -3.813  1.00  0.00    -0.087 NA
ATOM     35  H8  UNL     1      -5.407   0.068  -3.145  1.00  0.00     0.188 HD
ENDBRANCH  29  31
ENDBRANCH   6  29
TORSDOF 11
