REMARK  13 active torsions:
REMARK  status: ('A' for Active; 'I' for Inactive)
REMARK       I    between atoms: C2_2  and  N1_4 
REMARK    1  A    between atoms: N1_4  and  C3_6 
REMARK    2  A    between atoms: C3_6  and  C4_7 
REMARK    3  A    between atoms: C4_7  and  C6_9 
REMARK    4  A    between atoms: C6_9  and  C7_10 
REMARK    5  A    between atoms: C7_10  and  C8_12 
REMARK    6  A    between atoms: C8_12  and  O3_13 
REMARK    7  A    between atoms: C9_15  and  C10_16 
REMARK    8  A    between atoms: C9_15  and  N2_19 
REMARK    9  A    between atoms: C16_24  and  C17_25 
REMARK       I    between atoms: C17_25  and  N3_27 
REMARK   10  A    between atoms: C20_31  and  C21_32 
REMARK   11  A    between atoms: C21_32  and  N5_41 
REMARK   12  A    between atoms: N4_33  and  C22_35 
REMARK   13  A    between atoms: C22_35  and  C24_37 
ROOT
HETATM    1  N5  UNL     1      -2.848  -1.984   1.764  1.00  0.00    -0.281 N 
ATOM      2  H5  UNL     1      -2.348  -1.760   2.624  1.00  0.00     0.179 HD
HETATM    3  C28 UNL     1      -2.572  -3.193   1.150  1.00  0.00     0.183 C 
HETATM    4  N6  UNL     1      -2.303  -4.224   0.642  1.00  0.00    -0.172 NA
ENDROOT
BRANCH   1   5
HETATM    5  C21 UNL     1      -3.770  -1.049   1.280  1.00  0.00     0.110 C 
HETATM    6  N4  UNL     1      -4.744  -1.400   0.565  1.00  0.00    -0.372 N 
ATOM      7  H4  UNL     1      -5.306  -0.582   0.329  1.00  0.00     0.161 HD
BRANCH   5   8
HETATM    8  C20 UNL     1      -3.665   0.366   1.597  1.00  0.00     0.165 C 
HETATM    9  N3  UNL     1      -2.623   1.168   1.077  1.00  0.00    -0.329 N 
HETATM   10  C17 UNL     1      -1.393   0.959   0.423  1.00  0.00     0.244 C 
HETATM   11  C18 UNL     1      -3.097   2.564   1.361  1.00  0.00     0.200 C 
HETATM   12  O5  UNL     1      -1.013  -0.206   0.209  1.00  0.00    -0.271 OA
HETATM   13  S1  UNL     1      -3.389   2.351   3.166  1.00  0.00    -0.147 SA
HETATM   14  C19 UNL     1      -3.578   0.514   3.135  1.00  0.00     0.108 C 
BRANCH  10  15
HETATM   15  C16 UNL     1      -0.568   2.097  -0.003  1.00  0.00     0.185 C 
HETATM   16  N2  UNL     1       0.749   1.755  -0.519  1.00  0.00    -0.301 N 
HETATM   17  C13 UNL     1       0.491   0.987  -1.693  1.00  0.00     0.225 C 
HETATM   18  O4  UNL     1       1.186   0.100  -2.237  1.00  0.00    -0.273 OA
HETATM   19  C14 UNL     1      -0.846   1.411  -2.253  1.00  0.00     0.106 C 
HETATM   20  C15 UNL     1      -1.224   2.554  -1.333  1.00  0.00     0.044 C 
BRANCH  16  21
HETATM   21  C9  UNL     1       2.048   2.139  -0.054  1.00  0.00     0.076 C 
HETATM   22  C8  UNL     1       2.847   1.042   0.388  1.00  0.00     0.139 C 
BRANCH  22  23
HETATM   23  C7  UNL     1       4.238   0.918   0.746  1.00  0.00     0.184 C 
HETATM   24  O2  UNL     1       4.989   1.897   0.626  1.00  0.00    -0.290 OA
BRANCH  23  25
HETATM   25  C6  UNL     1       4.852  -0.325   1.261  1.00  0.00     0.092 C 
BRANCH  25  26
HETATM   26  C4  UNL     1       6.331  -0.217   1.341  1.00  0.00     0.007 C 
HETATM   27  C5  UNL     1       6.976  -1.366   2.066  1.00  0.00     0.012 C 
BRANCH  26  28
HETATM   28  C3  UNL     1       7.036   0.001   0.030  1.00  0.00     0.127 C 
BRANCH  28  29
HETATM   29  N1  UNL     1       6.961  -1.174  -0.818  1.00  0.00    -0.361 N 
HETATM   30  C2  UNL     1       7.559  -1.174  -2.097  1.00  0.00     0.213 C 
HETATM   31  C1  UNL     1       7.450  -2.417  -2.929  1.00  0.00     0.117 C 
HETATM   32  O1  UNL     1       8.175  -0.209  -2.595  1.00  0.00    -0.274 OA
ATOM     33  H1  UNL     1       6.473  -2.006  -0.488  1.00  0.00     0.162 HD
ENDBRANCH  28  29
ENDBRANCH  26  28
ENDBRANCH  25  26
ENDBRANCH  23  25
ENDBRANCH  22  23
BRANCH  22  34
HETATM   34  O3  UNL     1       2.225  -0.096   0.504  1.00  0.00    -0.355 OA
ATOM     35  H3  UNL     1       1.308  -0.014   0.268  1.00  0.00     0.218 HD
ENDBRANCH  22  34
BRANCH  21  36
HETATM   36  C10 UNL     1       2.646   3.211  -0.915  1.00  0.00    -0.058 C 
HETATM   37  C11 UNL     1       3.253   2.781  -2.192  1.00  0.00     0.045 C 
HETATM   38  C12 UNL     1       3.395   4.299  -0.221  1.00  0.00     0.045 C 
ENDBRANCH  21  36
ENDBRANCH  16  21
ENDBRANCH  10  15
ENDBRANCH   5   8
BRANCH   6  39
HETATM   39  C22 UNL     1      -5.303  -2.522  -0.005  1.00  0.00     0.086 C 
HETATM   40  C23 UNL     1      -5.901  -3.406   1.102  1.00  0.00     0.033 C 
BRANCH  39  41
HETATM   41  C24 UNL     1      -6.536  -2.046  -0.831  1.00  0.00    -0.031 C 
HETATM   42  C25 UNL     1      -7.198  -3.235  -1.485  1.00  0.00     0.016 C 
HETATM   43  C26 UNL     1      -6.112  -1.048  -1.872  1.00  0.00     0.016 C 
HETATM   44  C27 UNL     1      -7.516  -1.375   0.109  1.00  0.00     0.016 C 
ENDBRANCH  39  41
ENDBRANCH   6  39
ENDBRANCH   1   5
TORSDOF 13
