REMARK  4 active torsions:
REMARK  status: ('A' for Active; 'I' for Inactive)
REMARK    1  A    between atoms: C1_2  and  C2_4 
REMARK    2  A    between atoms: C2_4  and  C3_5 
REMARK    3  A    between atoms: C3_5  and  O3_6 
REMARK    4  A    between atoms: N1_8  and  O4_10 
ROOT
HETATM    1  C2  UNL     1       0.515  -0.121   0.304  1.00  0.00     0.114 C 
HETATM    2  C4  UNL     1      -0.422   1.010   0.753  1.00  0.00     0.029 C 
HETATM    3  C5  UNL     1      -1.798   0.380   0.815  1.00  0.00     0.002 C 
HETATM    4  C6  UNL     1      -2.290   0.303  -0.633  1.00  0.00     0.000 C 
HETATM    5  C7  UNL     1      -1.286  -0.515  -1.410  1.00  0.00     0.002 C 
HETATM    6  C8  UNL     1      -0.244  -1.143  -0.515  1.00  0.00     0.029 C 
ENDROOT
BRANCH   1   7
HETATM    7  C1  UNL     1       1.041  -0.710   1.559  1.00  0.00     0.190 C 
HETATM    8  O1  UNL     1       2.269  -0.669   1.780  1.00  0.00    -0.647 OA
HETATM    9  O2  UNL     1       0.195  -1.310   2.500  1.00  0.00    -0.647 OA
ENDBRANCH   1   7
BRANCH   1  10
HETATM   10  C3  UNL     1       1.657   0.424  -0.462  1.00  0.00     0.155 C 
HETATM   11  N1  UNL     1       1.711   1.665  -0.760  1.00  0.00    -0.250 N 
ATOM     12  H1  UNL     1       0.964   2.296  -0.471  1.00  0.00     0.196 HD
BRANCH  10  13
HETATM   13  O3  UNL     1       2.683  -0.405  -0.866  1.00  0.00    -0.347 OA
ATOM     14  H3  UNL     1       3.416  -0.055  -1.358  1.00  0.00     0.219 HD
ENDBRANCH  10  13
BRANCH  11  15
HETATM   15  O4  UNL     1       2.779   2.139  -1.469  1.00  0.00    -0.288 OA
ATOM     16  H4  UNL     1       2.819   3.062  -1.691  1.00  0.00     0.244 HD
ENDBRANCH  11  15
ENDBRANCH   1  10
TORSDOF 4
