REMARK  4 active torsions:
REMARK  status: ('A' for Active; 'I' for Inactive)
REMARK    1  A    between atoms: C2_2  and  O2_4 
REMARK    2  A    between atoms: O2_4  and  C3_5 
REMARK    3  A    between atoms: C3_5  and  C4_6 
REMARK    4  A    between atoms: C9_12  and  O4_13 
ROOT
HETATM    1  C4  UNL     1       1.961  -0.928  -1.052  1.00  0.00     0.006 C 
HETATM    2  C5  UNL     1       2.884  -2.068  -0.842  1.00  0.00     0.020 C 
HETATM    3  C6  UNL     1       1.413  -1.020  -2.511  1.00  0.00     0.179 C 
HETATM    4  O3  UNL     1       0.326  -0.123  -2.363  1.00  0.00    -0.384 OA
HETATM    5  C7  UNL     1      -0.364  -0.831  -1.350  1.00  0.00     0.134 C 
HETATM    6  C8  UNL     1      -1.581  -0.153  -0.897  1.00  0.00     0.056 C 
HETATM    7  C9  UNL     1      -1.530   1.321  -0.754  1.00  0.00     0.126 C 
HETATM    8  C10 UNL     1      -2.352   1.659   0.497  1.00  0.00     0.041 C 
HETATM    9  C11 UNL     1      -3.090   0.377   0.774  1.00  0.00    -0.035 C 
HETATM   10  C12 UNL     1      -4.241   0.189  -0.175  1.00  0.00     0.015 C 
HETATM   11  C13 UNL     1      -3.602   0.287   2.180  1.00  0.00     0.015 C 
HETATM   12  C14 UNL     1      -2.045  -0.659   0.450  1.00  0.00     0.072 C 
HETATM   13  C15 UNL     1      -0.921  -0.657   1.418  1.00  0.00     0.132 C 
HETATM   14  O5  UNL     1      -1.192  -0.825   2.589  1.00  0.00    -0.298 OA
HETATM   15  C16 UNL     1       0.510  -0.455   0.978  1.00  0.00     0.086 C 
HETATM   16  C17 UNL     1       0.654  -1.168  -0.325  1.00  0.00     0.034 C 
ENDROOT
BRANCH   1  17
HETATM   17  C3  UNL     1       2.485   0.441  -0.939  1.00  0.00     0.190 C 
BRANCH  17  18
HETATM   18  O2  UNL     1       3.039   0.920   0.213  1.00  0.00    -0.321 OA
BRANCH  18  19
HETATM   19  C2  UNL     1       4.154   0.641   0.903  1.00  0.00     0.254 C 
HETATM   20  C1  UNL     1       4.514   1.348   2.205  1.00  0.00     0.126 C 
HETATM   21  O1  UNL     1       4.935  -0.238   0.462  1.00  0.00    -0.266 OA
ENDBRANCH  18  19
ENDBRANCH  17  18
ENDBRANCH   1  17
BRANCH   7  22
HETATM   22  O4  UNL     1      -2.155   1.946  -1.858  1.00  0.00    -0.395 OA
ATOM     23  H4  UNL     1      -2.122   2.891  -1.766  1.00  0.00     0.210 HD
ENDBRANCH   7  22
TORSDOF 4
