REMARK  13 active torsions:
REMARK  status: ('A' for Active; 'I' for Inactive)
REMARK    1  A    between atoms: C2_2  and  C3_3 
REMARK    2  A    between atoms: C4_4  and  C5_5 
REMARK    3  A    between atoms: C5_5  and  C6_6 
REMARK    4  A    between atoms: C6_6  and  C7_7 
REMARK    5  A    between atoms: C7_7  and  C8_8 
REMARK    6  A    between atoms: C8_8  and  C9_9 
REMARK    7  A    between atoms: N4_25  and  C18_26 
REMARK    8  A    between atoms: C18_26  and  C19_27 
REMARK    9  A    between atoms: C19_27  and  N5_28 
REMARK   10  A    between atoms: N5_28  and  N6_30 
REMARK   11  A    between atoms: C21_35  and  C22_36 
REMARK       I    between atoms: C22_36  and  N8_38 
REMARK   12  A    between atoms: N8_38  and  C23_40 
REMARK   13  A    between atoms: C23_40  and  C24_41 
ROOT
HETATM    1  C3  UNL     1      -0.141  -1.190  -0.019  1.00  0.00     0.053 A 
HETATM    2  C4  UNL     1      -0.817  -2.172  -0.734  1.00  0.00     0.051 A 
HETATM    3  N2  UNL     1      -0.747  -3.292   0.057  1.00  0.00    -0.288 N 
ATOM      4  H2  UNL     1      -1.143  -4.204  -0.169  1.00  0.00     0.188 HD
HETATM    5  N3  UNL     1      -0.092  -2.998   1.141  1.00  0.00    -0.240 N 
ATOM      6  H3  UNL     1       0.099  -3.658   1.895  1.00  0.00     0.208 HD
HETATM    7  N4  UNL     1       0.296  -1.731   1.140  1.00  0.00    -0.279 N 
ENDROOT
BRANCH   7   8
HETATM    8  C18 UNL     1       1.026  -1.078   2.202  1.00  0.00     0.171 C 
BRANCH   8   9
HETATM    9  C19 UNL     1       2.546  -1.197   1.937  1.00  0.00     0.163 C 
BRANCH   9  10
HETATM   10  N5  UNL     1       2.941  -2.540   1.900  1.00  0.00    -0.306 N 
ATOM     11  H5  UNL     1       2.185  -3.181   2.142  1.00  0.00     0.182 HD
BRANCH  10  12
HETATM   12  N6  UNL     1       4.119  -3.191   1.611  1.00  0.00    -0.137 N 
HETATM   13  O2  UNL     1       4.169  -4.549   1.570  1.00  0.00    -0.209 OA
HETATM   14  C20 UNL     1       5.354  -4.952   1.275  1.00  0.00     0.263 A 
HETATM   15  N7  UNL     1       6.100  -3.861   1.118  1.00  0.00    -0.324 N 
HETATM   16  C21 UNL     1       5.314  -2.731   1.335  1.00  0.00     0.221 A 
ATOM     17  H7  UNL     1       7.091  -3.853   0.877  1.00  0.00     0.169 HD
BRANCH  16  18
HETATM   18  C22 UNL     1       5.876  -1.391   1.284  1.00  0.00     0.289 C 
HETATM   19  O3  UNL     1       5.316  -0.324   1.544  1.00  0.00    -0.264 OA
HETATM   20  N8  UNL     1       7.273  -1.349   0.872  1.00  0.00    -0.354 N 
ATOM     21  H8  UNL     1       7.781  -2.206   0.652  1.00  0.00     0.162 HD
BRANCH  20  22
HETATM   22  C23 UNL     1       7.915  -0.067   0.784  1.00  0.00     0.127 C 
BRANCH  22  23
HETATM   23  C24 UNL     1       7.275   0.791  -0.246  1.00  0.00     0.003 C 
HETATM   24  C25 UNL     1       7.980   2.151  -0.317  1.00  0.00     0.006 C 
HETATM   25  C26 UNL     1       7.098   3.059  -1.150  1.00  0.00     0.000 C 
HETATM   26  C27 UNL     1       6.622   2.354  -2.407  1.00  0.00     0.000 C 
HETATM   27  C28 UNL     1       7.463   1.140  -2.712  1.00  0.00     0.000 C 
HETATM   28  C29 UNL     1       7.461   0.114  -1.606  1.00  0.00     0.006 C 
ENDBRANCH  22  23
ENDBRANCH  20  22
ENDBRANCH  16  18
ENDBRANCH  10  12
ENDBRANCH   9  10
ENDBRANCH   8   9
ENDBRANCH   7   8
BRANCH   1  29
HETATM   29  C2  UNL     1       0.143   0.197  -0.442  1.00  0.00     0.056 C 
HETATM   30  C1  UNL     1      -1.003   1.149  -0.364  1.00  0.00     0.011 C 
ENDBRANCH   1  29
BRANCH   2  31
HETATM   31  C5  UNL     1      -1.526  -2.096  -1.994  1.00  0.00     0.061 C 
BRANCH  31  32
HETATM   32  C6  UNL     1      -2.978  -2.112  -2.053  1.00  0.00     0.006 C 
BRANCH  32  33
HETATM   33  C7  UNL     1      -3.894  -1.193  -1.393  1.00  0.00     0.002 C 
BRANCH  33  34
HETATM   34  C8  UNL     1      -3.936  -1.266   0.080  1.00  0.00     0.025 C 
BRANCH  34  35
HETATM   35  C9  UNL     1      -4.989  -0.356   0.695  1.00  0.00     0.084 C 
HETATM   36  C10 UNL     1      -4.783   1.070   0.371  1.00  0.00     0.026 C 
HETATM   37  C11 UNL     1      -5.852   1.987   0.925  1.00  0.00     0.021 C 
HETATM   38  C12 UNL     1      -7.238   1.570   0.601  1.00  0.00     0.041 C 
HETATM   39  C13 UNL     1      -8.156   2.095   1.684  1.00  0.00     0.019 C 
HETATM   40  C16 UNL     1      -7.748   2.126  -0.704  1.00  0.00     0.019 C 
HETATM   41  C17 UNL     1      -7.400   0.091   0.547  1.00  0.00     0.226 C 
HETATM   42  C14 UNL     1      -9.050   3.104   0.987  1.00  0.00     0.001 C 
HETATM   43  C15 UNL     1      -9.206   2.476  -0.397  1.00  0.00     0.001 C 
HETATM   44  O1  UNL     1      -8.544  -0.365   0.752  1.00  0.00    -0.273 OA
HETATM   45  N1  UNL     1      -6.306  -0.774   0.275  1.00  0.00    -0.356 N 
ATOM     46  H1  UNL     1      -6.447  -1.664  -0.203  1.00  0.00     0.162 HD
ENDBRANCH  34  35
ENDBRANCH  33  34
ENDBRANCH  32  33
ENDBRANCH  31  32
ENDBRANCH   2  31
TORSDOF 13
