REMARK  13 active torsions:
REMARK  status: ('A' for Active; 'I' for Inactive)
REMARK    1  A    between atoms: C2_2  and  C3_3 
REMARK    2  A    between atoms: C3_3  and  O1_4 
REMARK    3  A    between atoms: O1_4  and  C4_5 
REMARK    4  A    between atoms: C4_5  and  C5_6 
REMARK    5  A    between atoms: C5_6  and  N1_7 
REMARK    6  A    between atoms: C16_20  and  N2_21 
REMARK       I    between atoms: N2_21  and  C17_23 
REMARK    7  A    between atoms: C17_23  and  C18_25 
REMARK    8  A    between atoms: C18_25  and  C19_26 
REMARK    9  A    between atoms: C18_25  and  C24_31 
REMARK   10  A    between atoms: C20_27  and  C22_29 
REMARK   11  A    between atoms: C24_31  and  C25_32 
REMARK   12  A    between atoms: C25_32  and  S1_33 
REMARK   13  A    between atoms: S1_33  and  C26_34 
ROOT
HETATM    1  N1  UNL     1      -1.753  -0.837   2.025  1.00  0.00    -0.350 N 
HETATM    2  C6  UNL     1      -2.726  -1.886   1.845  1.00  0.00     0.135 C 
HETATM    3  C7  UNL     1      -2.265  -3.236   2.338  1.00  0.00     0.131 C 
HETATM    4  C8  UNL     1      -3.468  -4.128   2.461  1.00  0.00     0.260 C 
HETATM    5  O2  UNL     1      -4.144  -3.957   3.510  1.00  0.00    -0.265 OA
HETATM    6  O3  UNL     1      -3.734  -5.029   1.464  1.00  0.00    -0.321 OA
HETATM    7  C9  UNL     1      -4.096  -4.823   0.142  1.00  0.00     0.178 C 
HETATM    8  C10 UNL     1      -3.162  -5.543  -0.842  1.00  0.00     0.027 C 
HETATM    9  C11 UNL     1      -3.410  -5.005  -2.205  1.00  0.00     0.002 C 
HETATM   10  C12 UNL     1      -2.277  -4.221  -2.813  1.00  0.00     0.000 C 
HETATM   11  C13 UNL     1      -1.449  -3.499  -1.787  1.00  0.00     0.000 C 
HETATM   12  C14 UNL     1      -0.617  -2.375  -2.336  1.00  0.00     0.002 C 
HETATM   13  C15 UNL     1      -0.976  -1.104  -1.628  1.00  0.00     0.026 C 
HETATM   14  C16 UNL     1       0.060  -0.566  -0.705  1.00  0.00     0.093 C 
HETATM   15  C27 UNL     1       0.228  -1.468   0.485  1.00  0.00     0.128 C 
HETATM   16  C28 UNL     1      -0.382  -0.897   1.714  1.00  0.00     0.221 C 
HETATM   17  O5  UNL     1       0.442  -0.413   2.569  1.00  0.00    -0.273 OA
ENDROOT
BRANCH  14  18
HETATM   18  N2  UNL     1       1.267  -0.277  -1.431  1.00  0.00    -0.355 N 
HETATM   19  C17 UNL     1       1.924   1.005  -1.338  1.00  0.00     0.225 C 
HETATM   20  O4  UNL     1       1.366   1.818  -0.568  1.00  0.00    -0.273 OA
ATOM     21  H2  UNL     1       1.670  -0.998  -2.029  1.00  0.00     0.162 HD
BRANCH  19  22
HETATM   22  C18 UNL     1       3.127   1.328  -2.080  1.00  0.00     0.101 C 
BRANCH  22  23
HETATM   23  C19 UNL     1       4.376   0.630  -1.802  1.00  0.00    -0.010 C 
HETATM   24  C20 UNL     1       4.851  -0.073  -0.835  1.00  0.00    -0.087 C 
HETATM   25  C21 UNL     1       6.267  -0.628  -0.999  1.00  0.00     0.043 C 
BRANCH  24  26
HETATM   26  C22 UNL     1       4.245  -0.389   0.463  1.00  0.00     0.029 C 
HETATM   27  C23 UNL     1       5.163   0.132   1.582  1.00  0.00     0.010 C 
ENDBRANCH  24  26
ENDBRANCH  22  23
BRANCH  22  28
HETATM   28  C24 UNL     1       3.448   2.806  -2.168  1.00  0.00     0.028 C 
BRANCH  28  29
HETATM   29  C25 UNL     1       3.705   3.477  -0.867  1.00  0.00     0.083 C 
BRANCH  29  30
HETATM   30  S1  UNL     1       4.088   5.260  -1.120  1.00  0.00    -0.098 SA
BRANCH  30  31
HETATM   31  C26 UNL     1       4.333   5.955   0.511  1.00  0.00     0.147 C 
HETATM   32  N3  UNL     1       4.609   7.212   0.608  1.00  0.00    -0.382 N 
ATOM     33  H32 UNL     1       4.679   7.760  -0.250  1.00  0.00     0.157 HD
ATOM     34  H31 UNL     1       4.749   7.608   1.538  1.00  0.00     0.157 HD
HETATM   35  N4  UNL     1       4.236   5.196   1.700  1.00  0.00    -0.075 NA
ENDBRANCH  30  31
ENDBRANCH  29  30
ENDBRANCH  28  29
ENDBRANCH  22  28
ENDBRANCH  19  22
ENDBRANCH  14  18
BRANCH   1  36
HETATM   36  C5  UNL     1      -2.279   0.418   2.597  1.00  0.00     0.152 C 
BRANCH  36  37
HETATM   37  C4  UNL     1      -2.745   1.348   1.528  1.00  0.00     0.187 C 
BRANCH  37  38
HETATM   38  O1  UNL     1      -3.256   2.532   2.111  1.00  0.00    -0.390 OA
BRANCH  38  39
HETATM   39  C3  UNL     1      -3.681   3.386   1.090  1.00  0.00     0.167 C 
BRANCH  39  40
HETATM   40  C2  UNL     1      -4.242   4.643   1.686  1.00  0.00     0.022 C 
HETATM   41  C1  UNL     1      -4.693   5.545   0.537  1.00  0.00     0.007 C 
ENDBRANCH  39  40
ENDBRANCH  38  39
ENDBRANCH  37  38
ENDBRANCH  36  37
ENDBRANCH   1  36
TORSDOF 13
