REMARK  7 active torsions:
REMARK  status: ('A' for Active; 'I' for Inactive)
REMARK    1  A    between atoms: N1_1  and  C1_5 
REMARK    2  A    between atoms: C1_5  and  C2_6 
REMARK    3  A    between atoms: C2_6  and  C3_7 
REMARK    4  A    between atoms: C3_7  and  N2_8 
REMARK    5  A    between atoms: N2_8  and  C4_10 
REMARK    6  A    between atoms: C4_10  and  C5_11 
REMARK    7  A    between atoms: C8_16  and  N4_17 
ROOT
HETATM    1  C5  UNL     1       1.136   0.035   0.108  1.00  0.00     0.022 C 
HETATM    2  C6  UNL     1       1.813  -1.025  -0.684  1.00  0.00     0.120 C 
HETATM    3  N3  UNL     1       2.891  -0.602  -1.502  1.00  0.00    -0.419 N 
ATOM      4  H3  UNL     1       3.000  -0.931  -2.461  1.00  0.00     0.153 HD
HETATM    5  C7  UNL     1       3.810   0.304  -0.912  1.00  0.00     0.146 C 
HETATM    6  C8  UNL     1       3.422   0.824   0.446  1.00  0.00     0.201 C 
HETATM    7  C9  UNL     1       1.965   1.243   0.380  1.00  0.00     0.042 C 
ENDROOT
BRANCH   1   8
HETATM    8  C4  UNL     1      -0.227   0.379  -0.526  1.00  0.00     0.120 C 
BRANCH   8   9
HETATM    9  N2  UNL     1      -0.959  -0.842  -0.532  1.00  0.00    -0.421 N 
ATOM     10  H2  UNL     1      -0.507  -1.736  -0.342  1.00  0.00     0.153 HD
BRANCH   9  11
HETATM   11  C3  UNL     1      -2.355  -0.756  -0.816  1.00  0.00     0.115 C 
BRANCH  11  12
HETATM   12  C2  UNL     1      -3.073  -0.092   0.351  1.00  0.00     0.046 C 
BRANCH  12  13
HETATM   13  C1  UNL     1      -4.550  -0.011   0.120  1.00  0.00     0.231 C 
BRANCH  13  14
HETATM   14  N1  UNL     1      -5.151   0.635   1.285  1.00  0.00    -0.079 N 
ATOM     15  H13 UNL     1      -4.913   0.171   2.161  1.00  0.00     0.274 HD
ATOM     16  H12 UNL     1      -4.733   1.542   1.494  1.00  0.00     0.274 HD
ATOM     17  H11 UNL     1      -6.157   0.690   1.128  1.00  0.00     0.274 HD
ENDBRANCH  13  14
ENDBRANCH  12  13
ENDBRANCH  11  12
ENDBRANCH   9  11
ENDBRANCH   8   9
ENDBRANCH   1   8
BRANCH   6  18
HETATM   18  N4  UNL     1       3.696  -0.063   1.528  1.00  0.00    -0.073 N 
ATOM     19  H43 UNL     1       3.261  -0.970   1.360  1.00  0.00     0.274 HD
ATOM     20  H42 UNL     1       4.679  -0.334   1.522  1.00  0.00     0.274 HD
ATOM     21  H41 UNL     1       3.433   0.289   2.448  1.00  0.00     0.274 HD
ENDBRANCH   6  18
TORSDOF 7
