REMARK  6 active torsions:
REMARK  status: ('A' for Active; 'I' for Inactive)
REMARK    1  A    between atoms: C2_2  and  N1_4 
REMARK    2  A    between atoms: N1_4  and  C4_6 
REMARK    3  A    between atoms: C4_6  and  C5_7 
REMARK    4  A    between atoms: C5_7  and  C6_8 
REMARK    5  A    between atoms: C6_8  and  N2_9 
REMARK    6  A    between atoms: N2_9  and  C7_12 
ROOT
HETATM    1  N2  UNL     1       1.059  -0.503  -0.053  1.00  0.00    -0.021 N 
ATOM      2  H21 UNL     1       0.564  -0.891  -0.856  1.00  0.00     0.281 HD
ATOM      3  H22 UNL     1       0.678  -1.105   0.677  1.00  0.00     0.281 HD
ENDROOT
BRANCH   1   4
HETATM    4  C6  UNL     1       0.707   0.859   0.163  1.00  0.00     0.242 C 
BRANCH   4   5
HETATM    5  C5  UNL     1      -0.792   1.091   0.194  1.00  0.00     0.072 C 
BRANCH   5   6
HETATM    6  C4  UNL     1      -1.488   0.322   1.249  1.00  0.00     0.057 C 
BRANCH   6   7
HETATM    7  N1  UNL     1      -2.871   0.442   1.402  1.00  0.00    -0.398 N 
ATOM      8  H1  UNL     1      -3.234   0.895   2.240  1.00  0.00     0.159 HD
BRANCH   7   9
HETATM    9  C2  UNL     1      -3.778  -0.036   0.449  1.00  0.00     0.072 C 
HETATM   10  C1  UNL     1      -3.794   0.599  -0.900  1.00  0.00     0.031 C 
HETATM   11  C3  UNL     1      -3.682  -1.540   0.213  1.00  0.00     0.031 C 
ENDBRANCH   7   9
ENDBRANCH   6   7
ENDBRANCH   5   6
ENDBRANCH   4   5
ENDBRANCH   1   4
BRANCH   1  12
HETATM   12  C7  UNL     1       2.480  -0.675  -0.183  1.00  0.00     0.580 C 
HETATM   13  N3  UNL     1       3.277  -0.254   0.913  1.00  0.00    -0.020 N 
HETATM   14  C8  UNL     1       4.624  -0.152   0.382  1.00  0.00     0.264 C 
ATOM     15  H32 UNL     1       2.944   0.599   1.362  1.00  0.00     0.281 HD
ATOM     16  H31 UNL     1       3.201  -0.855   1.734  1.00  0.00     0.281 HD
HETATM   17  C9  UNL     1       4.419   0.124  -1.079  1.00  0.00     0.264 C 
HETATM   18  N4  UNL     1       3.008  -0.010  -1.365  1.00  0.00    -0.020 N 
ATOM     19  H42 UNL     1       2.799  -0.483  -2.244  1.00  0.00     0.281 HD
ATOM     20  H41 UNL     1       2.540   0.865  -1.601  1.00  0.00     0.281 HD
ENDBRANCH   1  12
TORSDOF 6
