REMARK  11 active torsions:
REMARK  status: ('A' for Active; 'I' for Inactive)
REMARK    1  A    between atoms: C2_2  and  N1_3 
REMARK    2  A    between atoms: C2_2  and  C9_31 
REMARK    3  A    between atoms: N1_3  and  C3_5 
REMARK    4  A    between atoms: C4_8  and  N3_9 
REMARK    5  A    between atoms: C5_14  and  N5_15 
REMARK    6  A    between atoms: N5_15  and  C6_17 
REMARK    7  A    between atoms: N7_21  and  N8_22 
REMARK       I    between atoms: C9_31  and  N12_33 
REMARK    8  A    between atoms: N12_33  and  C10_35 
REMARK    9  A    between atoms: C12_37  and  N13_38 
REMARK   10  A    between atoms: C13_42  and  O2_43 
REMARK   11  A    between atoms: C14_45  and  N14_46 
ROOT
HETATM    1  C3  UNL     1       1.534   0.094   1.673  1.00  0.00     0.708 A 
HETATM    2  N2  UNL     1       2.137   0.285   2.869  1.00  0.00    -0.022 N 
ATOM      3  H2  UNL     1       1.573   0.411   3.709  1.00  0.00     0.203 HD
HETATM    4  C4  UNL     1       3.471   0.309   2.951  1.00  0.00     0.705 A 
HETATM    5  N4  UNL     1       4.191   0.138   1.804  1.00  0.00    -0.021 N 
ATOM      6  H4  UNL     1       5.210   0.155   1.849  1.00  0.00     0.203 HD
HETATM    7  C5  UNL     1       3.595  -0.051   0.625  1.00  0.00     0.725 A 
HETATM    8  N11 UNL     1       2.254  -0.075   0.554  1.00  0.00    -0.021 N 
ATOM      9  H11 UNL     1       1.788  -0.220  -0.342  1.00  0.00     0.203 HD
ENDROOT
BRANCH   1  10
HETATM   10  N1  UNL     1       0.234   0.080   1.593  1.00  0.00    -0.212 N 
ATOM     11  H1  UNL     1      -0.291   0.217   2.457  1.00  0.00     0.178 HD
BRANCH  10  12
HETATM   12  C2  UNL     1      -0.515  -0.112   0.393  1.00  0.00     0.187 C 
HETATM   13  C1  UNL     1      -0.480   1.098  -0.520  1.00  0.00     0.043 C 
BRANCH  12  14
HETATM   14  C9  UNL     1      -1.960  -0.321   0.725  1.00  0.00     0.241 C 
HETATM   15  O1  UNL     1      -2.325  -0.254   1.915  1.00  0.00    -0.271 OA
HETATM   16  N12 UNL     1      -2.908  -0.589  -0.283  1.00  0.00    -0.353 N 
ATOM     17  H12 UNL     1      -2.591  -0.645  -1.251  1.00  0.00     0.163 HD
BRANCH  16  18
HETATM   18  C10 UNL     1      -4.318  -0.789  -0.000  1.00  0.00     0.111 C 
HETATM   19  C11 UNL     1      -4.790  -2.175  -0.376  1.00  0.00     0.062 C 
HETATM   20  C12 UNL     1      -6.010  -1.946  -1.246  1.00  0.00     0.216 C 
HETATM   21  C13 UNL     1      -5.737  -0.595  -1.890  1.00  0.00     0.173 C 
HETATM   22  C14 UNL     1      -5.176   0.188  -0.749  1.00  0.00     0.137 C 
BRANCH  20  23
HETATM   23  N13 UNL     1      -7.177  -1.936  -0.406  1.00  0.00    -0.072 N 
ATOM     24 3H13 UNL     1      -7.256  -2.778   0.164  1.00  0.00     0.274 HD
ATOM     25 2H13 UNL     1      -7.106  -1.259   0.354  1.00  0.00     0.274 HD
ATOM     26 1H13 UNL     1      -7.998  -1.782  -0.991  1.00  0.00     0.274 HD
ENDBRANCH  20  23
BRANCH  21  27
HETATM   27  O2  UNL     1      -4.719  -0.796  -2.831  1.00  0.00    -0.391 OA
ATOM     28  H2  UNL     1      -4.549   0.048  -3.233  1.00  0.00     0.210 HD
ENDBRANCH  21  27
BRANCH  22  29
HETATM   29  N14 UNL     1      -6.208   0.695   0.137  1.00  0.00    -0.358 N 
HETATM   30  C15 UNL     1      -6.382   1.965   0.235  1.00  0.00     0.197 C 
HETATM   31  N15 UNL     1      -7.373   2.471   1.085  1.00  0.00    -0.067 NA
HETATM   32  N16 UNL     1      -5.563   2.862  -0.526  1.00  0.00    -0.067 NA
ATOM     33  H14 UNL     1      -6.788   0.051   0.675  1.00  0.00     0.162 HD
ENDBRANCH  22  29
ENDBRANCH  16  18
ENDBRANCH  12  14
ENDBRANCH  10  12
ENDBRANCH   1  10
BRANCH   4  34
HETATM   34  N3  UNL     1       4.045   0.493   4.083  1.00  0.00    -0.234 N 
ATOM     35  H32 UNL     1       3.507   0.621   4.940  1.00  0.00     0.174 HD
ATOM     36  H31 UNL     1       5.063   0.511   4.146  1.00  0.00     0.174 HD
ENDBRANCH   4  34
BRANCH   7  37
HETATM   37  N5  UNL     1       4.250  -0.187  -0.464  1.00  0.00    -0.021 N 
ATOM     38  H5  UNL     1       3.765  -0.332  -1.350  1.00  0.00     0.203 HD
BRANCH  37  39
HETATM   39  C6  UNL     1       5.679  -0.132  -0.413  1.00  0.00     0.696 A 
HETATM   40  N6  UNL     1       6.288   0.979  -0.222  1.00  0.00    -0.207 N 
HETATM   41  C7  UNL     1       7.692   1.217  -0.142  1.00  0.00     0.291 A 
ATOM     42  H6  UNL     1       5.692   1.799  -0.113  1.00  0.00     0.179 HD
HETATM   43  N7  UNL     1       8.419  -0.005  -0.343  1.00  0.00    -0.252 N 
HETATM   44  C8  UNL     1       7.726  -1.218  -0.550  1.00  0.00     0.225 A 
HETATM   45  N9  UNL     1       8.537  -2.406  -0.726  1.00  0.00    -0.061 NA
HETATM   46  N10 UNL     1       6.450  -1.312  -0.589  1.00  0.00    -0.162 N 
ATOM     47  H10 UNL     1       5.997  -2.213  -0.743  1.00  0.00     0.187 HD
BRANCH  43  48
HETATM   48  N8  UNL     1       9.855   0.000  -0.336  1.00  0.00    -0.339 N 
ATOM     49  H82 UNL     1      10.356   0.876  -0.186  1.00  0.00     0.177 HD
ATOM     50  H81 UNL     1      10.371  -0.868  -0.479  1.00  0.00     0.177 HD
ENDBRANCH  43  48
ENDBRANCH  37  39
ENDBRANCH   7  37
TORSDOF 11
