REMARK  5 active torsions:
REMARK  status: ('A' for Active; 'I' for Inactive)
REMARK    1  A    between atoms: C2_2  and  N1_3 
REMARK    2  A    between atoms: C2_2  and  C3_7 
REMARK    3  A    between atoms: C3_7  and  O1_8 
REMARK    4  A    between atoms: C3_7  and  C4_10 
REMARK    5  A    between atoms: C4_10  and  N2_11 
ROOT
HETATM    1  C3  UNL     1      -0.601   0.734  -0.384  1.00  0.00     0.217 C 
ENDROOT
BRANCH   1   2
HETATM    2  C2  UNL     1      -1.428   0.150   0.770  1.00  0.00     0.212 C 
HETATM    3  C1  UNL     1      -2.741   0.890   0.898  1.00  0.00     0.042 C 
BRANCH   2   4
HETATM    4  N1  UNL     1      -1.729  -1.225   0.484  1.00  0.00    -0.073 N 
ATOM      5  H13 UNL     1      -2.356  -1.645   1.170  1.00  0.00     0.274 HD
ATOM      6  H12 UNL     1      -2.329  -1.338  -0.333  1.00  0.00     0.274 HD
ATOM      7  H11 UNL     1      -0.844  -1.724   0.398  1.00  0.00     0.274 HD
ENDBRANCH   2   4
ENDBRANCH   1   2
BRANCH   1   8
HETATM    8  O1  UNL     1      -0.291   2.063  -0.141  1.00  0.00    -0.389 OA
ATOM      9  H1  UNL     1       0.221   2.424  -0.855  1.00  0.00     0.210 HD
ENDBRANCH   1   8
BRANCH   1  10
HETATM   10  C4  UNL     1       0.635  -0.089  -0.621  1.00  0.00     0.370 A 
HETATM   11  C5  UNL     1       1.665   0.621  -1.496  1.00  0.00     0.350 A 
HETATM   12  N3  UNL     1       1.901   0.379  -0.088  1.00  0.00     0.130 N 
HETATM   13  C6  UNL     1       2.931  -0.572   0.188  1.00  0.00     0.313 C 
BRANCH  10  14
HETATM   14  N2  UNL     1       0.453  -1.486  -0.885  1.00  0.00    -0.037 N 
ATOM     15  H23 UNL     1      -0.093  -1.905  -0.132  1.00  0.00     0.277 HD
ATOM     16  H22 UNL     1      -0.187  -1.602  -1.671  1.00  0.00     0.277 HD
ATOM     17  H21 UNL     1       1.291  -2.044  -1.046  1.00  0.00     0.277 HD
ENDBRANCH  10  14
ENDBRANCH   1  10
TORSDOF 5
