REMARK  8 active torsions:
REMARK  status: ('A' for Active; 'I' for Inactive)
REMARK    1  A    between atoms: O1_2  and  C2_3 
REMARK    2  A    between atoms: C2_3  and  C3_5 
REMARK    3  A    between atoms: C3_5  and  C4_6 
REMARK    4  A    between atoms: C3_5  and  N1_14 
REMARK    5  A    between atoms: C4_6  and  C5_7 
REMARK       I    between atoms: N1_14  and  C12_16 
REMARK       I    between atoms: C12_16  and  N2_18 
REMARK    6  A    between atoms: N2_18  and  C13_20 
REMARK    7  A    between atoms: C13_20  and  C14_21 
REMARK    8  A    between atoms: C16_25  and  O6_26 
ROOT
HETATM    1  N1  UNL     1       0.484  -1.365  -0.377  1.00  0.00    -0.329 N 
ATOM      2  H1  UNL     1       0.631  -1.497  -1.378  1.00  0.00     0.165 HD
HETATM    3  C12 UNL     1       1.550  -0.813   0.386  1.00  0.00     0.316 C 
HETATM    4  O3  UNL     1       1.462  -0.618   1.621  1.00  0.00    -0.247 OA
HETATM    5  N2  UNL     1       2.758  -0.467  -0.260  1.00  0.00    -0.341 N 
ATOM      6  H2  UNL     1       2.856  -0.615  -1.265  1.00  0.00     0.164 HD
ENDROOT
BRANCH   1   7
HETATM    7  C3  UNL     1      -0.795  -1.751   0.176  1.00  0.00     0.186 C 
BRANCH   7   8
HETATM    8  C2  UNL     1      -1.011  -3.230   0.019  1.00  0.00     0.281 C 
HETATM    9  O2  UNL     1      -0.123  -3.921  -0.535  1.00  0.00    -0.263 OA
BRANCH   8  10
HETATM   10  O1  UNL     1      -2.153  -3.873   0.460  1.00  0.00    -0.325 OA
HETATM   11  C1  UNL     1      -2.362  -5.266   0.315  1.00  0.00     0.213 C 
ENDBRANCH   8  10
ENDBRANCH   7   8
BRANCH   7  12
HETATM   12  C4  UNL     1      -1.950  -1.090  -0.497  1.00  0.00     0.040 C 
BRANCH  12  13
HETATM   13  C5  UNL     1      -1.955   0.400  -0.467  1.00  0.00    -0.012 C 
HETATM   14  C6  UNL     1      -3.216   0.848  -1.216  1.00  0.00     0.005 C 
HETATM   15  C7  UNL     1      -4.435   0.744  -0.368  1.00  0.00     0.000 C 
HETATM   16  C8  UNL     1      -4.604   1.841   0.629  1.00  0.00     0.000 C 
HETATM   17  C9  UNL     1      -3.526   2.880   0.577  1.00  0.00     0.000 C 
HETATM   18  C10 UNL     1      -2.187   2.376   1.007  1.00  0.00     0.000 C 
HETATM   19  C11 UNL     1      -2.069   0.869   0.968  1.00  0.00     0.005 C 
ENDBRANCH  12  13
ENDBRANCH   7  12
ENDBRANCH   1   7
BRANCH   5  20
HETATM   20  C13 UNL     1       3.851   0.092   0.489  1.00  0.00     0.161 C 
BRANCH  20  21
HETATM   21  C14 UNL     1       5.040   0.391  -0.368  1.00  0.00     0.197 C 
HETATM   22  O4  UNL     1       4.785   1.291  -1.374  1.00  0.00    -0.355 OA
HETATM   23  C15 UNL     1       5.728   2.300  -1.308  1.00  0.00     0.341 C 
HETATM   24  O5  UNL     1       6.778   1.816  -0.522  1.00  0.00    -0.335 OA
HETATM   25  C16 UNL     1       6.048   1.146   0.486  1.00  0.00     0.290 C 
BRANCH  25  26
HETATM   26  O6  UNL     1       6.858   0.292   1.220  1.00  0.00    -0.368 OA
ATOM     27  H6  UNL     1       7.487   0.763   1.753  1.00  0.00     0.212 HD
ENDBRANCH  25  26
ENDBRANCH  20  21
ENDBRANCH   5  20
TORSDOF 8
