REMARK  8 active torsions:
REMARK  status: ('A' for Active; 'I' for Inactive)
REMARK    1  A    between atoms: C1_2  and  N1_3 
REMARK    2  A    between atoms: N1_3  and  C2_5 
REMARK    3  A    between atoms: C2_5  and  C3_6 
REMARK    4  A    between atoms: C3_6  and  S1_7 
REMARK    5  A    between atoms: S1_7  and  C4_8 
REMARK    6  A    between atoms: C7_12  and  C8_13 
REMARK    7  A    between atoms: C14_19  and  O3_20 
REMARK    8  A    between atoms: C15_22  and  O4_23 
ROOT
HETATM    1  C4  UNL     1       2.004  -2.249   1.346  1.00  0.00     0.186 C 
HETATM    2  C5  UNL     1       1.241  -1.081   1.843  1.00  0.00     0.077 C 
HETATM    3  C6  UNL     1       0.426  -0.606   0.673  1.00  0.00     0.157 C 
HETATM    4  O2  UNL     1      -0.905  -0.846   0.952  1.00  0.00    -0.375 OA
HETATM    5  C7  UNL     1      -1.744  -0.668  -0.132  1.00  0.00     0.157 C 
HETATM    6  C14 UNL     1      -1.054  -0.559  -1.456  1.00  0.00     0.178 C 
HETATM    7  C15 UNL     1      -0.055  -1.727  -1.510  1.00  0.00     0.180 C 
HETATM    8  C16 UNL     1       0.970  -1.463  -0.427  1.00  0.00     0.183 C 
HETATM    9  O5  UNL     1       1.465  -2.584   0.137  1.00  0.00    -0.365 OA
ENDROOT
BRANCH   1  10
HETATM   10  S1  UNL     1       3.800  -1.971   1.270  1.00  0.00    -0.136 SA
BRANCH  10  11
HETATM   11  C3  UNL     1       4.272  -0.754   0.037  1.00  0.00     0.096 C 
BRANCH  11  12
HETATM   12  C2  UNL     1       5.783  -0.569   0.115  1.00  0.00     0.132 C 
BRANCH  12  13
HETATM   13  N1  UNL     1       6.289   0.385  -0.835  1.00  0.00    -0.367 N 
ATOM     14  H1  UNL     1       6.955   0.059  -1.536  1.00  0.00     0.161 HD
BRANCH  13  15
HETATM   15  C1  UNL     1       5.918   1.747  -0.854  1.00  0.00     0.348 C 
HETATM   16  O1  UNL     1       5.119   2.195  -0.026  1.00  0.00    -0.284 OA
ENDBRANCH  13  15
ENDBRANCH  12  13
ENDBRANCH  11  12
ENDBRANCH  10  11
ENDBRANCH   1  10
BRANCH   7  17
HETATM   17  O4  UNL     1       0.508  -1.778  -2.775  1.00  0.00    -0.390 OA
ATOM     18  H4  UNL     1       1.125  -2.500  -2.808  1.00  0.00     0.210 HD
ENDBRANCH   7  17
BRANCH   5  19
HETATM   19  C8  UNL     1      -2.684   0.489   0.047  1.00  0.00     0.017 C 
HETATM   20  C9  UNL     1      -3.576   0.293   1.265  1.00  0.00     0.007 C 
HETATM   21  C10 UNL     1      -4.292   1.574   1.530  1.00  0.00     0.000 C 
HETATM   22  C11 UNL     1      -5.086   2.059   0.338  1.00  0.00     0.000 C 
HETATM   23  C12 UNL     1      -4.329   1.984  -0.942  1.00  0.00     0.000 C 
HETATM   24  C13 UNL     1      -3.593   0.658  -1.138  1.00  0.00     0.007 C 
ENDBRANCH   5  19
BRANCH   6  25
HETATM   25  O3  UNL     1      -0.417   0.642  -1.654  1.00  0.00    -0.390 OA
ATOM     26  H3  UNL     1       0.021   0.711  -2.494  1.00  0.00     0.210 HD
ENDBRANCH   6  25
TORSDOF 8
