REMARK  4 active torsions:
REMARK  status: ('A' for Active; 'I' for Inactive)
REMARK    1  A    between atoms: N1_1  and  C1_4 
REMARK    2  A    between atoms: C5_8  and  N2_9 
REMARK    3  A    between atoms: C9_21  and  N6_22 
REMARK    4  A    between atoms: N6_22  and  N7_24 
ROOT
HETATM    1  C1  UNL     1       0.355  -0.565  -0.865  1.00  0.00     0.152 A 
HETATM    2  C2  UNL     1      -0.967  -0.332  -0.464  1.00  0.00     0.026 A 
HETATM    3  C3  UNL     1      -2.047  -0.820  -1.156  1.00  0.00     0.019 A 
HETATM    4  C4  UNL     1      -3.345  -0.557  -0.710  1.00  0.00     0.037 A 
HETATM    5  C5  UNL     1      -3.581   0.191   0.424  1.00  0.00     0.103 A 
HETATM    6  C6  UNL     1      -2.492   0.678   1.115  1.00  0.00     0.054 A 
HETATM    7  C7  UNL     1      -1.198   0.409   0.660  1.00  0.00     0.052 A 
HETATM    8  C8  UNL     1      -0.089   0.878   1.323  1.00  0.00     0.294 A 
HETATM    9  O3  UNL     1      -0.294   1.566   2.365  1.00  0.00    -0.264 OA
HETATM   10  N3  UNL     1       1.165   0.631   0.901  1.00  0.00    -0.118 N 
HETATM   11  N4  UNL     1       2.341   0.992   1.399  1.00  0.00    -0.203 N 
ATOM     12  H4  UNL     1       2.463   1.555   2.241  1.00  0.00     0.211 HD
HETATM   13  N5  UNL     1       3.323   0.530   0.667  1.00  0.00    -0.113 N 
ATOM     14  H5  UNL     1       4.320   0.666   0.833  1.00  0.00     0.207 HD
HETATM   15  C9  UNL     1       2.757  -0.169  -0.363  1.00  0.00     0.737 A 
HETATM   16  N8  UNL     1       1.423  -0.087  -0.189  1.00  0.00    -0.041 N 
ENDROOT
BRANCH  15  17
HETATM   17  N6  UNL     1       3.386  -0.774  -1.297  1.00  0.00    -0.135 N 
ATOM     18  H6  UNL     1       2.847  -1.263  -2.011  1.00  0.00     0.205 HD
BRANCH  17  19
HETATM   19  N7  UNL     1       4.758  -0.794  -1.380  1.00  0.00    -0.331 N 
ATOM     20  H72 UNL     1       5.282  -0.300  -0.657  1.00  0.00     0.177 HD
ATOM     21  H71 UNL     1       5.260  -1.277  -2.125  1.00  0.00     0.177 HD
ENDBRANCH  17  19
ENDBRANCH  15  17
BRANCH   1  22
HETATM   22  N1  UNL     1       0.481  -1.265  -1.923  1.00  0.00    -0.383 N 
ATOM     23  H12 UNL     1      -0.325  -1.626  -2.433  1.00  0.00     0.157 HD
ATOM     24  H11 UNL     1       1.443  -1.435  -2.215  1.00  0.00     0.157 HD
ENDBRANCH   1  22
BRANCH   5  25
HETATM   25  N2  UNL     1      -4.921   0.447   0.862  1.00  0.00    -0.116 N 
HETATM   26  O1  UNL     1      -5.177   1.108   1.866  1.00  0.00    -0.532 OA
HETATM   27  O2  UNL     1      -5.961  -0.061   0.138  1.00  0.00    -0.532 OA
ENDBRANCH   5  25
TORSDOF 4
