REMARK  12 active torsions:
REMARK  status: ('A' for Active; 'I' for Inactive)
REMARK    1  A    between atoms: C2_2  and  C5_5 
REMARK    2  A    between atoms: C5_5  and  C8_8 
REMARK    3  A    between atoms: C8_8  and  C9_9 
REMARK    4  A    between atoms: N1_12  and  C11_13 
REMARK    5  A    between atoms: C11_13  and  C12_14 
REMARK    6  A    between atoms: C12_14  and  C13_15 
REMARK    7  A    between atoms: C13_15  and  N2_16 
REMARK    8  A    between atoms: N2_16  and  C14_18 
REMARK    9  A    between atoms: C14_18  and  C15_19 
REMARK   10  A    between atoms: C16_20  and  O2_21 
REMARK   11  A    between atoms: C20_28  and  N4_29 
REMARK   12  A    between atoms: C24_36  and  O6_37 
ROOT
HETATM    1  C12 UNL     1       1.410   2.139   0.284  1.00  0.00     0.065 C 
ENDROOT
BRANCH   1   2
HETATM    2  C11 UNL     1       0.285   1.311  -0.196  1.00  0.00     0.140 C 
BRANCH   2   3
HETATM    3  N1  UNL     1      -0.682   0.937   0.816  1.00  0.00    -0.284 N 
HETATM    4  C10 UNL     1      -1.838   1.806   1.081  1.00  0.00     0.235 C 
HETATM    5  C9  UNL     1      -2.780   0.933   1.806  1.00  0.00     0.139 C 
HETATM    6  O1  UNL     1      -1.883   2.998   0.720  1.00  0.00    -0.272 OA
HETATM    7  C24 UNL     1      -1.764   0.237   2.734  1.00  0.00     0.229 C 
HETATM    8  C23 UNL     1      -0.782  -0.179   1.677  1.00  0.00     0.277 C 
HETATM    9 CL1  UNL     1      -1.016   1.472   3.726  1.00  0.00    -0.077 Cl
HETATM   10  O5  UNL     1      -0.184  -1.252   1.561  1.00  0.00    -0.268 OA
BRANCH   5  11
HETATM   11  C8  UNL     1      -3.464  -0.032   0.928  1.00  0.00     0.028 C 
BRANCH  11  12
HETATM   12  C5  UNL     1      -4.343   0.453  -0.161  1.00  0.00    -0.040 C 
HETATM   13  C6  UNL     1      -5.562   1.189   0.393  1.00  0.00     0.015 C 
HETATM   14  C7  UNL     1      -3.746   1.296  -1.234  1.00  0.00     0.015 C 
BRANCH  12  15
HETATM   15  C2  UNL     1      -4.913  -0.784  -0.882  1.00  0.00    -0.044 C 
HETATM   16  C1  UNL     1      -5.861  -0.404  -1.964  1.00  0.00     0.015 C 
HETATM   17  C3  UNL     1      -3.701  -1.473  -1.530  1.00  0.00     0.015 C 
HETATM   18  C4  UNL     1      -5.497  -1.779   0.065  1.00  0.00     0.015 C 
ENDBRANCH  12  15
ENDBRANCH  11  12
ENDBRANCH   5  11
BRANCH   7  19
HETATM   19  O6  UNL     1      -2.284  -0.782   3.459  1.00  0.00    -0.366 OA
ATOM     20  H6  UNL     1      -1.658  -1.211   4.031  1.00  0.00     0.212 HD
ENDBRANCH   7  19
ENDBRANCH   2   3
ENDBRANCH   1   2
BRANCH   1  21
HETATM   21  C13 UNL     1       2.312   1.405   1.237  1.00  0.00     0.062 C 
BRANCH  21  22
HETATM   22  N2  UNL     1       2.994   0.363   0.681  1.00  0.00    -0.378 N 
ATOM     23  H2  UNL     1       3.963   0.680   0.699  1.00  0.00     0.164 HD
BRANCH  22  24
HETATM   24  C14 UNL     1       3.066  -0.706   0.191  1.00  0.00     0.104 C 
BRANCH  24  25
HETATM   25  C15 UNL     1       4.326  -1.326  -0.251  1.00  0.00     0.043 A 
HETATM   26  C16 UNL     1       4.464  -2.575  -0.824  1.00  0.00     0.153 A 
HETATM   27  N3  UNL     1       5.761  -2.759  -1.081  1.00  0.00    -0.336 N 
HETATM   28  C17 UNL     1       6.461  -1.683  -0.699  1.00  0.00     0.045 A 
ATOM     29  H3  UNL     1       6.160  -3.596  -1.506  1.00  0.00     0.168 HD
HETATM   30  C18 UNL     1       7.801  -1.350  -0.735  1.00  0.00     0.033 A 
HETATM   31  C22 UNL     1       5.577  -0.769  -0.174  1.00  0.00     0.009 A 
HETATM   32  C19 UNL     1       8.269  -0.157  -0.270  1.00  0.00     0.038 A 
HETATM   33  C20 UNL     1       7.387   0.778   0.265  1.00  0.00     0.103 A 
HETATM   34  C21 UNL     1       6.056   0.461   0.306  1.00  0.00     0.050 A 
BRANCH  26  35
HETATM   35  O2  UNL     1       3.428  -3.485  -1.086  1.00  0.00    -0.345 OA
ATOM     36  H2  UNL     1       3.523  -4.344  -1.480  1.00  0.00     0.219 HD
ENDBRANCH  26  35
BRANCH  33  37
HETATM   37  N4  UNL     1       7.889   2.014   0.745  1.00  0.00    -0.116 N 
HETATM   38  O3  UNL     1       7.093   2.844   1.224  1.00  0.00    -0.532 OA
HETATM   39  O4  UNL     1       9.223   2.311   0.690  1.00  0.00    -0.532 OA
ENDBRANCH  33  37
ENDBRANCH  24  25
ENDBRANCH  22  24
ENDBRANCH  21  22
ENDBRANCH   1  21
TORSDOF 12
