REMARK  8 active torsions:
REMARK  status: ('A' for Active; 'I' for Inactive)
REMARK    1  A    between atoms: N1_1  and  C1_5 
REMARK    2  A    between atoms: C1_5  and  C2_6 
REMARK    3  A    between atoms: C3_9  and  O1_10 
REMARK    4  A    between atoms: C4_12  and  C5_13 
REMARK    5  A    between atoms: C5_13  and  C6_14 
REMARK    6  A    between atoms: C6_14  and  C7_15 
REMARK    7  A    between atoms: C7_15  and  N3_16 
REMARK    8  A    between atoms: C9_23  and  O2_24 
ROOT
HETATM    1  C2  UNL     1      -2.321   2.094   0.450  1.00  0.00     0.201 C 
HETATM    2  N2  UNL     1      -0.928   1.997  -0.083  1.00  0.00    -0.358 N 
ATOM      3  H2  UNL     1      -0.412   2.863  -0.239  1.00  0.00     0.162 HD
HETATM    4  C3  UNL     1      -0.278   0.761  -0.387  1.00  0.00     0.135 C 
HETATM    5  C4  UNL     1       0.117  -0.370   0.392  1.00  0.00     0.158 C 
HETATM    6  N6  UNL     1      -0.402  -1.694   0.255  1.00  0.00    -0.358 N 
ATOM      7  H6  UNL     1      -0.021  -2.271   1.005  1.00  0.00     0.162 HD
HETATM    8  C9  UNL     1      -1.224  -2.470  -0.516  1.00  0.00     0.151 C 
HETATM    9  C10 UNL     1      -2.631  -2.729  -0.782  1.00  0.00     0.140 C 
HETATM   10  N7  UNL     1      -3.661  -2.612   0.190  1.00  0.00    -0.379 N 
ATOM     11  H7  UNL     1      -3.874  -3.320   0.892  1.00  0.00     0.160 HD
HETATM   12  C11 UNL     1      -4.403  -1.293   0.046  1.00  0.00     0.245 C 
HETATM   13  N8  UNL     1      -3.396  -0.287   0.055  1.00  0.00    -0.343 N 
ATOM     14  H8  UNL     1      -2.878  -0.380  -0.819  1.00  0.00     0.164 HD
HETATM   15  C12 UNL     1      -2.841   0.733   0.729  1.00  0.00     0.243 C 
HETATM   16  O3  UNL     1      -2.646   0.614   1.997  1.00  0.00    -0.271 OA
ENDROOT
BRANCH   5  17
HETATM   17  C5  UNL     1       1.657  -0.487   0.464  1.00  0.00     0.035 C 
BRANCH  17  18
HETATM   18  C6  UNL     1       2.354  -0.656  -0.813  1.00  0.00     0.022 C 
BRANCH  18  19
HETATM   19  C7  UNL     1       3.878  -0.790  -0.575  1.00  0.00     0.122 C 
BRANCH  19  20
HETATM   20  N3  UNL     1       4.364   0.401   0.078  1.00  0.00    -0.367 N 
HETATM   21  C8  UNL     1       5.614   0.513   0.333  1.00  0.00     0.196 C 
HETATM   22  N4  UNL     1       6.064   1.692   0.973  1.00  0.00    -0.067 NA
HETATM   23  N5  UNL     1       6.530  -0.515  -0.017  1.00  0.00    -0.067 NA
ATOM     24  H3  UNL     1       3.718   1.147   0.334  1.00  0.00     0.161 HD
ENDBRANCH  19  20
ENDBRANCH  18  19
ENDBRANCH  17  18
ENDBRANCH   5  17
BRANCH   4  25
HETATM   25  O1  UNL     1       0.011   0.661  -1.651  1.00  0.00    -0.348 OA
ATOM     26  H1  UNL     1       0.443  -0.161  -1.853  1.00  0.00     0.219 HD
ENDBRANCH   4  25
BRANCH   8  27
HETATM   27  O2  UNL     1      -0.507  -3.270  -1.299  1.00  0.00    -0.345 OA
ATOM     28  H2  UNL     1      -1.078  -3.809  -1.834  1.00  0.00     0.219 HD
ENDBRANCH   8  27
BRANCH   1  29
HETATM   29  C1  UNL     1      -3.172   2.944  -0.466  1.00  0.00     0.264 C 
BRANCH  29  30
HETATM   30  N1  UNL     1      -4.515   3.070  -0.005  1.00  0.00    -0.077 N 
ATOM     31  H13 UNL     1      -4.939   2.154   0.144  1.00  0.00     0.274 HD
ATOM     32  H12 UNL     1      -4.543   3.422   0.952  1.00  0.00     0.274 HD
ATOM     33  H11 UNL     1      -5.089   3.643  -0.623  1.00  0.00     0.274 HD
ENDBRANCH  29  30
ENDBRANCH   1  29
TORSDOF 8
