REMARK  7 active torsions:
REMARK  status: ('A' for Active; 'I' for Inactive)
REMARK    1  A    between atoms: C3_3  and  N1_4 
REMARK    2  A    between atoms: N1_4  and  C4_6 
REMARK    3  A    between atoms: C4_6  and  C5_7 
REMARK    4  A    between atoms: C5_7  and  C6_8 
REMARK    5  A    between atoms: C6_8  and  N2_9 
REMARK       I    between atoms: N2_9  and  C7_11 
REMARK    6  A    between atoms: N4_13  and  C8_15 
REMARK    7  A    between atoms: C8_15  and  C9_16 
ROOT
HETATM    1  C1  UNL     1       2.898  -1.410   0.480  1.00  0.00     0.030 C 
HETATM    2  C2  UNL     1       2.896  -0.189  -0.006  1.00  0.00     0.030 A 
HETATM    3  C3  UNL     1       1.878   0.727   0.336  1.00  0.00     0.127 A 
HETATM    4  N5  UNL     1       2.247   1.859  -0.362  1.00  0.00    -0.284 N 
ATOM      5  H5  UNL     1       1.733   2.740  -0.353  1.00  0.00     0.188 HD
HETATM    6  N6  UNL     1       3.339   1.647  -1.031  1.00  0.00    -0.296 N 
ATOM      7  H6  UNL     1       3.793   2.346  -1.618  1.00  0.00     0.187 HD
HETATM    8  C11 UNL     1       3.807   0.376  -0.855  1.00  0.00     0.093 A 
HETATM    9  C12 UNL     1       4.907  -0.117  -1.430  1.00  0.00     0.134 A 
HETATM   10  N7  UNL     1       5.518  -1.377  -1.372  1.00  0.00    -0.302 N 
ATOM     11  H7  UNL     1       5.150  -2.158  -0.829  1.00  0.00     0.171 HD
HETATM   12  C13 UNL     1       6.720  -1.452  -2.161  1.00  0.00     0.327 A 
HETATM   13  O1  UNL     1       7.447  -2.482  -2.268  1.00  0.00    -0.247 OA
HETATM   14  N8  UNL     1       6.874  -0.196  -2.738  1.00  0.00    -0.274 N 
ATOM     15  H8  UNL     1       7.637   0.075  -3.359  1.00  0.00     0.173 HD
HETATM   16  C14 UNL     1       5.795   0.665  -2.328  1.00  0.00     0.278 A 
HETATM   17  O2  UNL     1       5.677   1.840  -2.690  1.00  0.00    -0.265 OA
ENDROOT
BRANCH   3  18
HETATM   18  N1  UNL     1       0.873   0.654   1.062  1.00  0.00    -0.374 N 
ATOM     19  H1  UNL     1       0.380   1.547   1.050  1.00  0.00     0.161 HD
BRANCH  18  20
HETATM   20  C4  UNL     1       0.199  -0.230   1.880  1.00  0.00     0.123 C 
BRANCH  20  21
HETATM   21  C5  UNL     1      -1.017   0.396   2.578  1.00  0.00     0.039 C 
BRANCH  21  22
HETATM   22  C6  UNL     1      -1.972   0.865   1.531  1.00  0.00     0.123 C 
BRANCH  22  23
HETATM   23  N2  UNL     1      -2.465  -0.166   0.663  1.00  0.00    -0.365 N 
HETATM   24  C7  UNL     1      -3.340  -1.209   1.050  1.00  0.00     0.183 C 
HETATM   25  N3  UNL     1      -2.979  -2.047   2.128  1.00  0.00    -0.064 NA
HETATM   26  N4  UNL     1      -4.448  -1.417   0.446  1.00  0.00    -0.365 N 
ATOM     27  H4  UNL     1      -5.056  -2.177   0.751  1.00  0.00     0.162 HD
ATOM     28  H2  UNL     1      -2.161  -0.146  -0.310  1.00  0.00     0.162 HD
BRANCH  26  29
HETATM   29  C8  UNL     1      -4.846  -0.583  -0.667  1.00  0.00     0.122 C 
BRANCH  29  30
HETATM   30  C9  UNL     1      -5.554   0.654  -0.144  1.00  0.00     0.015 C 
HETATM   31  C10 UNL     1      -5.968   1.532  -1.299  1.00  0.00     0.006 C 
ENDBRANCH  29  30
ENDBRANCH  26  29
ENDBRANCH  22  23
ENDBRANCH  21  22
ENDBRANCH  20  21
ENDBRANCH  18  20
ENDBRANCH   3  18
TORSDOF 7
