REMARK  4 active torsions:
REMARK  status: ('A' for Active; 'I' for Inactive)
REMARK    1  A    between atoms: O1_2  and  C2_3 
REMARK    2  A    between atoms: C6_7  and  O2_8 
REMARK    3  A    between atoms: C8_10  and  O3_11 
REMARK    4  A    between atoms: C18_25  and  C19_26 
ROOT
HETATM    1  C2  UNL     1       3.377   0.809  -0.868  1.00  0.00     0.107 A 
HETATM    2  C3  UNL     1       2.180   1.045  -1.504  1.00  0.00     0.077 A 
HETATM    3  C4  UNL     1       0.977   0.735  -0.858  1.00  0.00     0.090 A 
HETATM    4  C5  UNL     1       1.014   0.194   0.413  1.00  0.00     0.083 A 
HETATM    5  C6  UNL     1       2.231  -0.032   1.024  1.00  0.00     0.121 A 
HETATM    6  C8  UNL     1       3.431   0.265   0.411  1.00  0.00     0.136 A 
HETATM    7  C10 UNL     1      -0.386  -0.004   0.777  1.00  0.00     0.200 C 
HETATM    8  O4  UNL     1      -0.718  -0.216   1.979  1.00  0.00    -0.289 OA
HETATM    9  C11 UNL     1      -1.168   0.098  -0.453  1.00  0.00     0.138 C 
HETATM   10  C12 UNL     1      -1.263  -1.270  -1.077  1.00  0.00     0.062 C 
HETATM   11  C13 UNL     1      -2.289  -2.154  -0.469  1.00  0.00    -0.006 C 
HETATM   12  C14 UNL     1      -1.551  -3.375   0.100  1.00  0.00     0.021 C 
HETATM   13  C15 UNL     1      -3.228  -2.730  -1.540  1.00  0.00     0.021 C 
HETATM   14  C16 UNL     1      -3.137  -1.527   0.548  1.00  0.00    -0.012 C 
HETATM   15  N1  UNL     1      -3.791  -2.315   1.341  1.00  0.00    -0.405 N 
ATOM     16  H11 UNL     1      -4.381  -1.878   2.049  1.00  0.00     0.155 HD
ATOM     17  H12 UNL     1      -3.675  -3.320   1.209  1.00  0.00     0.155 HD
HETATM   18  C17 UNL     1      -3.306  -0.064   0.740  1.00  0.00     0.061 C 
HETATM   19  C18 UNL     1      -2.531   0.661  -0.309  1.00  0.00     0.037 C 
HETATM   20  O5  UNL     1      -0.334   0.879  -1.286  1.00  0.00    -0.330 OA
ENDROOT
BRANCH  19  21
HETATM   21  C19 UNL     1      -2.584   2.147  -0.108  1.00  0.00    -0.015 C 
HETATM   22  C20 UNL     1      -1.981   2.918  -1.233  1.00  0.00     0.010 C 
HETATM   23  C21 UNL     1      -1.988   2.610   1.180  1.00  0.00     0.010 C 
ENDBRANCH  19  21
BRANCH   5  24
HETATM   24  O2  UNL     1       2.284  -0.575   2.301  1.00  0.00    -0.352 OA
HETATM   25  C7  UNL     1       2.283   0.175   3.478  1.00  0.00     0.210 C 
ENDBRANCH   5  24
BRANCH   6  26
HETATM   26  O3  UNL     1       4.612   0.020   1.066  1.00  0.00    -0.351 OA
HETATM   27  C9  UNL     1       5.330  -1.190   0.992  1.00  0.00     0.210 C 
ENDBRANCH   6  26
BRANCH   1  28
HETATM   28  O1  UNL     1       4.608   1.096  -1.458  1.00  0.00    -0.353 OA
HETATM   29  C1  UNL     1       4.584   1.656  -2.773  1.00  0.00     0.210 C 
ENDBRANCH   1  28
TORSDOF 4
