REMARK  4 active torsions:
REMARK  status: ('A' for Active; 'I' for Inactive)
REMARK    1  A    between atoms: C2_3  and  C3_4 
REMARK    2  A    between atoms: C3_4  and  O1_5 
REMARK    3  A    between atoms: O1_5  and  N2_6 
REMARK    4  A    between atoms: C7_11  and  C8_12 
ROOT
HETATM    1  N1  UNL     1       5.707   2.278  -0.099  1.00  0.00    -0.197 NA
HETATM    2  C1  UNL     1       5.867   1.133  -0.194  1.00  0.00     0.061 C 
HETATM    3  C2  UNL     1       6.065  -0.306  -0.288  1.00  0.00     0.152 C 
ENDROOT
BRANCH   3   4
HETATM    4  C3  UNL     1       4.896  -0.985   0.398  1.00  0.00     0.215 C 
BRANCH   4   5
HETATM    5  O1  UNL     1       3.719  -0.572  -0.295  1.00  0.00    -0.280 OA
BRANCH   5   6
HETATM    6  N2  UNL     1       2.527  -1.069   0.157  1.00  0.00    -0.275 N 
HETATM    7  C4  UNL     1       1.463  -0.349   0.243  1.00  0.00     0.010 C 
HETATM    8  C5  UNL     1       1.337   1.088  -0.116  1.00  0.00     0.055 C 
HETATM    9  C13 UNL     1       0.148  -0.838   0.726  1.00  0.00     0.059 C 
HETATM   10  C6  UNL     1      -0.119   1.436   0.219  1.00  0.00     0.011 C 
HETATM   11  C7  UNL     1      -0.803   0.120  -0.001  1.00  0.00    -0.005 C 
ATOM     12  H2  UNL     1       2.479  -2.049   0.437  1.00  0.00     0.193 HD
BRANCH  11  13
HETATM   13  C8  UNL     1      -2.142   0.022   0.735  1.00  0.00    -0.007 C 
HETATM   14  C9  UNL     1      -2.711  -1.322   0.437  1.00  0.00     0.032 C 
HETATM   15  C10 UNL     1      -4.166  -1.338   0.109  1.00  0.00     0.232 C 
HETATM   16  N3  UNL     1      -4.363  -0.312  -0.929  1.00  0.00    -0.075 N 
HETATM   17  C11 UNL     1      -4.278   0.946  -0.243  1.00  0.00     0.232 C 
ATOM     18  H32 UNL     1      -3.719  -0.395  -1.716  1.00  0.00     0.277 HD
ATOM     19  H31 UNL     1      -5.223  -0.430  -1.465  1.00  0.00     0.277 HD
HETATM   20  C12 UNL     1      -3.030   1.177   0.519  1.00  0.00     0.032 C 
ENDBRANCH  11  13
ENDBRANCH   5   6
ENDBRANCH   4   5
ENDBRANCH   3   4
TORSDOF 4
