REMARK  12 active torsions:
REMARK  status: ('A' for Active; 'I' for Inactive)
REMARK    1  A    between atoms: N1_2  and  C2_4 
REMARK    2  A    between atoms: C2_4  and  C3_8 
REMARK    3  A    between atoms: C3_8  and  C4_9 
REMARK    4  A    between atoms: C4_9  and  N3_10 
REMARK    5  A    between atoms: C4_9  and  C15_29 
REMARK       I    between atoms: N3_10  and  C5_12 
REMARK       I    between atoms: C5_12  and  N4_14 
REMARK    6  A    between atoms: N4_14  and  C6_16 
REMARK    7  A    between atoms: C6_16  and  C7_17 
REMARK    8  A    between atoms: C7_17  and  C8_18 
REMARK    9  A    between atoms: C8_18  and  C9_19 
REMARK       I    between atoms: C9_19  and  N5_21 
REMARK       I    between atoms: C15_29  and  N6_31 
REMARK   10  A    between atoms: N6_31  and  C16_33 
REMARK   11  A    between atoms: C16_33  and  C17_34 
REMARK   12  A    between atoms: C17_34  and  C18_35 
ROOT
HETATM    1  N3  UNL     1      -1.330  -0.048   0.533  1.00  0.00    -0.329 N 
ATOM      2  H3  UNL     1      -0.783   0.227   1.349  1.00  0.00     0.165 HD
HETATM    3  C5  UNL     1      -0.722  -0.896  -0.399  1.00  0.00     0.316 C 
HETATM    4  O1  UNL     1      -1.307  -1.289  -1.428  1.00  0.00    -0.247 OA
HETATM    5  N4  UNL     1       0.615  -1.334  -0.172  1.00  0.00    -0.343 N 
ATOM      6  H4  UNL     1       1.121  -1.031   0.661  1.00  0.00     0.164 HD
ENDROOT
BRANCH   1   7
HETATM    7  C4  UNL     1      -2.686   0.471   0.424  1.00  0.00     0.185 C 
BRANCH   7   8
HETATM    8  C3  UNL     1      -2.706   1.341  -0.782  1.00  0.00     0.110 C 
BRANCH   8   9
HETATM    9  C2  UNL     1      -3.956   2.026  -1.111  1.00  0.00     0.072 C 
HETATM   10  N2  UNL     1      -4.604   1.730  -2.166  1.00  0.00    -0.389 N 
ATOM     11  H22 UNL     1      -5.476   2.208  -2.395  1.00  0.00     0.157 HD
ATOM     12  H21 UNL     1      -4.235   0.997  -2.771  1.00  0.00     0.157 HD
BRANCH   9  13
HETATM   13  N1  UNL     1      -4.465   3.038  -0.276  1.00  0.00    -0.384 N 
HETATM   14  C1  UNL     1      -3.718   4.281  -0.197  1.00  0.00     0.147 C 
ATOM     15  H1  UNL     1      -5.326   2.904   0.254  1.00  0.00     0.160 HD
ENDBRANCH   9  13
ENDBRANCH   8   9
ENDBRANCH   7   8
BRANCH   7  16
HETATM   16  C15 UNL     1      -3.608  -0.646   0.495  1.00  0.00     0.240 C 
HETATM   17  O3  UNL     1      -3.143  -1.837   0.611  1.00  0.00    -0.271 OA
HETATM   18  N6  UNL     1      -5.026  -0.603   0.454  1.00  0.00    -0.359 N 
ATOM     19  H6  UNL     1      -5.486   0.303   0.367  1.00  0.00     0.162 HD
BRANCH  18  20
HETATM   20  C16 UNL     1      -5.835  -1.781   0.530  1.00  0.00     0.128 C 
BRANCH  20  21
HETATM   21  C17 UNL     1      -7.295  -1.566   0.514  1.00  0.00     0.090 C 
BRANCH  21  22
HETATM   22  C18 UNL     1      -7.775  -0.810   1.710  1.00  0.00     0.354 C 
HETATM   23  F3  UNL     1      -7.414  -1.561   2.835  1.00  0.00    -0.214 F 
HETATM   24  F4  UNL     1      -7.271   0.452   1.739  1.00  0.00    -0.214 F 
ENDBRANCH  21  22
ENDBRANCH  20  21
ENDBRANCH  18  20
ENDBRANCH   7  16
ENDBRANCH   1   7
BRANCH   5  25
HETATM   25  C6  UNL     1       1.241  -2.199  -1.118  1.00  0.00     0.125 C 
BRANCH  25  26
HETATM   26  C7  UNL     1       2.656  -2.564  -0.726  1.00  0.00     0.029 C 
BRANCH  26  27
HETATM   27  C8  UNL     1       3.504  -1.315  -0.624  1.00  0.00     0.104 C 
BRANCH  27  28
HETATM   28  C9  UNL     1       4.896  -1.624  -0.243  1.00  0.00     0.219 C 
HETATM   29  O2  UNL     1       5.193  -2.825  -0.047  1.00  0.00    -0.273 OA
HETATM   30  N5  UNL     1       5.836  -0.568  -0.116  1.00  0.00    -0.352 N 
HETATM   31  C10 UNL     1       5.473   0.808  -0.348  1.00  0.00     0.131 C 
HETATM   32  C14 UNL     1       7.201  -0.868   0.259  1.00  0.00     0.131 C 
HETATM   33  C11 UNL     1       6.008   1.715   0.748  1.00  0.00     0.099 C 
HETATM   34  C12 UNL     1       7.488   1.436   1.003  1.00  0.00     0.246 C 
HETATM   35  F1  UNL     1       8.177   1.667  -0.159  1.00  0.00    -0.206 F 
HETATM   36  F2  UNL     1       7.902   2.274   2.001  1.00  0.00    -0.206 F 
HETATM   37  C13 UNL     1       7.592  -0.010   1.431  1.00  0.00     0.099 C 
ENDBRANCH  27  28
ENDBRANCH  26  27
ENDBRANCH  25  26
ENDBRANCH   5  25
TORSDOF 12
