REMARK  13 active torsions:
REMARK  status: ('A' for Active; 'I' for Inactive)
REMARK    1  A    between atoms: C2_2  and  N1_3 
REMARK    2  A    between atoms: C2_2  and  C29_44 
REMARK       I    between atoms: N1_3  and  C3_5 
REMARK    3  A    between atoms: C3_5  and  C4_7 
REMARK       I    between atoms: N2_11  and  C8_12 
REMARK    4  A    between atoms: C8_12  and  C9_14 
REMARK    5  A    between atoms: N3_18  and  C13_19 
REMARK    6  A    between atoms: C13_19  and  O3_20 
REMARK    7  A    between atoms: C14_22  and  N4_23 
REMARK    8  A    between atoms: C14_22  and  C26_41 
REMARK       I    between atoms: N4_23  and  C15_25 
REMARK    9  A    between atoms: C15_25  and  C16_27 
REMARK   10  A    between atoms: C16_27  and  C17_28 
REMARK   11  A    between atoms: C17_28  and  C18_29 
REMARK       I    between atoms: C18_29  and  N5_31 
REMARK   12  A    between atoms: N5_31  and  C19_33 
REMARK   13  A    between atoms: C19_33  and  C20_34 
REMARK       I    between atoms: C29_44  and  N7_46 
ROOT
HETATM    1  C9  UNL     1       1.932  -1.321   2.222  1.00  0.00     0.178 C 
HETATM    2  C10 UNL     1       2.673  -2.055   3.279  1.00  0.00     0.037 C 
HETATM    3  C11 UNL     1       1.845  -1.848   4.560  1.00  0.00     0.022 C 
HETATM    4  C12 UNL     1       0.427  -1.748   3.924  1.00  0.00     0.126 C 
HETATM    5  N3  UNL     1       0.707  -0.775   2.912  1.00  0.00    -0.347 N 
ENDROOT
BRANCH   5   6
HETATM    6  C13 UNL     1       0.073   0.394   2.425  1.00  0.00     0.162 C 
HETATM    7  C14 UNL     1      -0.928   1.325   2.859  1.00  0.00     0.066 C 
BRANCH   6   8
HETATM    8  O3  UNL     1       0.603   0.665   1.200  1.00  0.00    -0.345 OA
ATOM      9  H3  UNL     1       0.178   1.449   0.873  1.00  0.00     0.219 HD
ENDBRANCH   6   8
BRANCH   7  10
HETATM   10  N4  UNL     1      -2.002   1.482   1.909  1.00  0.00    -0.327 N 
HETATM   11  C15 UNL     1      -2.339   1.027   0.690  1.00  0.00     0.222 C 
HETATM   12  O4  UNL     1      -1.686   0.216   0.001  1.00  0.00    -0.273 OA
ATOM     13  H4  UNL     1      -2.710   2.124   2.265  1.00  0.00     0.168 HD
BRANCH  11  14
HETATM   14  C16 UNL     1      -3.625   1.494   0.023  1.00  0.00     0.112 C 
BRANCH  14  15
HETATM   15  C17 UNL     1      -3.995   0.582  -1.116  1.00  0.00     0.112 C 
BRANCH  15  16
HETATM   16  C18 UNL     1      -5.229   1.071  -1.766  1.00  0.00     0.218 C 
HETATM   17  O5  UNL     1      -5.682   2.191  -1.440  1.00  0.00    -0.274 OA
HETATM   18  N5  UNL     1      -5.855   0.227  -2.750  1.00  0.00    -0.359 N 
ATOM     19  H5  UNL     1      -5.420  -0.673  -2.954  1.00  0.00     0.162 HD
BRANCH  18  20
HETATM   20  C19 UNL     1      -7.037   0.567  -3.453  1.00  0.00     0.158 C 
BRANCH  20  21
HETATM   21  C20 UNL     1      -8.213   0.799  -2.537  1.00  0.00     0.240 C 
HETATM   22  C21 UNL     1      -9.458   1.153  -3.319  1.00  0.00     0.037 C 
HETATM   23  C22 UNL     1     -10.601   0.193  -3.133  1.00  0.00     0.004 C 
HETATM   24  C23 UNL     1     -10.131  -1.214  -2.900  1.00  0.00     0.030 C 
HETATM   25  C24 UNL     1      -9.257  -1.245  -1.705  1.00  0.00     0.272 C 
HETATM   26  N6  UNL     1      -8.384  -0.148  -1.501  1.00  0.00     0.090 N 
HETATM   27  C25 UNL     1      -8.756   0.544  -0.245  1.00  0.00     0.310 C 
ENDBRANCH  20  21
ENDBRANCH  18  20
ENDBRANCH  15  16
ENDBRANCH  14  15
ENDBRANCH  11  14
ENDBRANCH   7  10
BRANCH   7  28
HETATM   28  C26 UNL     1      -1.256   1.595   4.233  1.00  0.00     0.032 C 
HETATM   29  C27 UNL     1      -1.816   0.622   5.166  1.00  0.00     0.016 C 
HETATM   30  C28 UNL     1      -2.095   2.897   4.390  1.00  0.00     0.016 C 
ENDBRANCH   7  28
ENDBRANCH   5   6
BRANCH   1  31
HETATM   31  C8  UNL     1       1.554  -2.187   1.118  1.00  0.00     0.243 C 
HETATM   32  N2  UNL     1       2.467  -2.842   0.242  1.00  0.00    -0.337 N 
HETATM   33  C4  UNL     1       3.889  -2.785   0.315  1.00  0.00     0.179 C 
HETATM   34  C7  UNL     1       2.099  -3.691  -0.897  1.00  0.00     0.127 C 
HETATM   35  C5  UNL     1       4.285  -4.218  -0.102  1.00  0.00     0.037 C 
HETATM   36  C6  UNL     1       3.334  -4.459  -1.232  1.00  0.00     0.022 C 
HETATM   37  O2  UNL     1       0.313  -2.383   0.901  1.00  0.00    -0.271 OA
BRANCH  33  38
HETATM   38  C3  UNL     1       4.546  -1.805  -0.588  1.00  0.00     0.241 C 
HETATM   39  N1  UNL     1       5.956  -1.685  -0.470  1.00  0.00    -0.346 N 
ATOM     40  H1  UNL     1       6.473  -2.254   0.201  1.00  0.00     0.163 HD
HETATM   41  O1  UNL     1       3.940  -1.110  -1.411  1.00  0.00    -0.271 OA
BRANCH  39  42
HETATM   42  C2  UNL     1       6.655  -0.725  -1.334  1.00  0.00     0.172 C 
HETATM   43  C1  UNL     1       7.686  -1.467  -2.165  1.00  0.00     0.042 C 
BRANCH  42  44
HETATM   44  C29 UNL     1       7.267   0.285  -0.427  1.00  0.00     0.242 C 
HETATM   45  O6  UNL     1       7.122   0.181   0.840  1.00  0.00    -0.271 OA
HETATM   46  N7  UNL     1       8.023   1.386  -0.887  1.00  0.00    -0.350 N 
HETATM   47  C30 UNL     1       8.310   1.705  -2.251  1.00  0.00     0.126 C 
HETATM   48  C34 UNL     1       8.582   2.296   0.131  1.00  0.00     0.126 C 
HETATM   49  C31 UNL     1       7.968   3.151  -2.566  1.00  0.00     0.020 C 
HETATM   50  C32 UNL     1       8.386   4.105  -1.498  1.00  0.00     0.003 C 
HETATM   51  C33 UNL     1       7.975   3.650  -0.113  1.00  0.00     0.020 C 
ENDBRANCH  42  44
ENDBRANCH  39  42
ENDBRANCH  33  38
ENDBRANCH   1  31
TORSDOF 13
