REMARK  20 active torsions:
REMARK  status: ('A' for Active; 'I' for Inactive)
REMARK    1  A    between atoms: C3_4  and  O2_5 
REMARK    2  A    between atoms: O2_5  and  C4_6 
REMARK    3  A    between atoms: C6_9  and  O4_10 
REMARK    4  A    between atoms: C8_13  and  O5_14 
REMARK    5  A    between atoms: C9_16  and  O6_17 
REMARK    6  A    between atoms: C10_19  and  O7_20 
REMARK    7  A    between atoms: O7_20  and  C11_21 
REMARK    8  A    between atoms: C12_23  and  O9_24 
REMARK    9  A    between atoms: C14_28  and  O10_29 
REMARK   10  A    between atoms: O10_29  and  C15_30 
REMARK   11  A    between atoms: C15_30  and  C16_31 
REMARK   12  A    between atoms: C16_31  and  O11_32 
REMARK   13  A    between atoms: C16_31  and  C17_34 
REMARK   14  A    between atoms: C18_36  and  C19_37 
REMARK   15  A    between atoms: C19_37  and  O13_38 
REMARK   16  A    between atoms: C20_40  and  O14_41 
REMARK   17  A    between atoms: C21_43  and  O15_44 
REMARK   18  A    between atoms: C22_46  and  O16_47 
REMARK   19  A    between atoms: C23_50  and  C24_51 
REMARK   20  A    between atoms: C24_51  and  O18_52 
ROOT
HETATM    1  C11 UNL     1       1.458  -1.029  -0.667  1.00  0.00     0.296 C 
HETATM    2  O8  UNL     1       0.761  -1.859   0.177  1.00  0.00    -0.306 OA
HETATM    3  C12 UNL     1      -0.523  -1.459   0.463  1.00  0.00     0.309 C 
HETATM    4  C13 UNL     1      -1.193  -2.607   1.074  1.00  0.00     0.134 C 
HETATM    5  N1  UNL     1      -1.739  -3.519   1.552  1.00  0.00    -0.191 NA
HETATM    6  C14 UNL     1      -1.297  -0.913  -0.669  1.00  0.00     0.339 C 
HETATM    7  O17 UNL     1      -0.622  -0.952  -1.890  1.00  0.00    -0.342 OA
HETATM    8  C23 UNL     1       0.676  -0.570  -1.861  1.00  0.00     0.203 C 
ENDROOT
BRANCH   3   9
HETATM    9  O9  UNL     1      -0.408  -0.475   1.447  1.00  0.00    -0.350 OA
ATOM     10  H9  UNL     1      -1.295  -0.199   1.645  1.00  0.00     0.214 HD
ENDBRANCH   3   9
BRANCH   6  11
HETATM   11  O10 UNL     1      -1.693   0.397  -0.502  1.00  0.00    -0.352 OA
BRANCH  11  12
HETATM   12  C15 UNL     1      -3.033   0.624  -0.643  1.00  0.00     0.205 C 
BRANCH  12  13
HETATM   13  C16 UNL     1      -3.944  -0.067   0.336  1.00  0.00     0.173 C 
BRANCH  13  14
HETATM   14  O11 UNL     1      -3.676   0.288   1.649  1.00  0.00    -0.391 OA
ATOM     15  H11 UNL     1      -4.251  -0.148   2.267  1.00  0.00     0.210 HD
ENDBRANCH  13  14
BRANCH  13  16
HETATM   16  C17 UNL     1      -5.405   0.178  -0.014  1.00  0.00     0.184 C 
HETATM   17  O12 UNL     1      -6.201  -0.588   0.835  1.00  0.00    -0.370 OA
HETATM   18  C18 UNL     1      -7.437  -0.739   0.178  1.00  0.00     0.177 C 
HETATM   19  C20 UNL     1      -7.880   0.526  -0.487  1.00  0.00     0.180 C 
HETATM   20  C21 UNL     1      -7.277   1.700   0.284  1.00  0.00     0.180 C 
HETATM   21  C22 UNL     1      -5.771   1.629   0.071  1.00  0.00     0.181 C 
BRANCH  18  22
HETATM   22  C19 UNL     1      -8.469  -1.297   1.141  1.00  0.00     0.198 C 
BRANCH  22  23
HETATM   23  O13 UNL     1      -9.671  -1.432   0.462  1.00  0.00    -0.398 OA
ATOM     24  H13 UNL     1     -10.317  -1.781   1.065  1.00  0.00     0.209 HD
ENDBRANCH  22  23
ENDBRANCH  18  22
BRANCH  19  25
HETATM   25  O14 UNL     1      -9.253   0.691  -0.528  1.00  0.00    -0.390 OA
ATOM     26  H14 UNL     1      -9.534   1.494  -0.950  1.00  0.00     0.210 HD
ENDBRANCH  19  25
BRANCH  20  27
HETATM   27  O15 UNL     1      -7.768   2.919  -0.228  1.00  0.00    -0.390 OA
ATOM     28  H15 UNL     1      -7.393   3.649   0.251  1.00  0.00     0.210 HD
ENDBRANCH  20  27
BRANCH  21  29
HETATM   29  O16 UNL     1      -5.105   2.297   1.092  1.00  0.00    -0.390 OA
ATOM     30  H16 UNL     1      -5.337   3.217   1.146  1.00  0.00     0.210 HD
ENDBRANCH  21  29
ENDBRANCH  13  16
ENDBRANCH  12  13
ENDBRANCH  11  12
ENDBRANCH   6  11
BRANCH   1  31
HETATM   31  O7  UNL     1       1.945   0.025   0.095  1.00  0.00    -0.348 OA
BRANCH  31  32
HETATM   32  C10 UNL     1       3.307  -0.007   0.111  1.00  0.00     0.184 C 
HETATM   33  C2  UNL     1       3.939   1.283  -0.381  1.00  0.00     0.152 C 
HETATM   34  C1  UNL     1       3.479   2.449   0.481  1.00  0.00     0.042 C 
HETATM   35  O1  UNL     1       5.279   1.244  -0.437  1.00  0.00    -0.351 OA
HETATM   36  C3  UNL     1       5.942   0.215   0.150  1.00  0.00     0.298 C 
HETATM   37  C8  UNL     1       5.331  -0.399   1.357  1.00  0.00     0.205 C 
HETATM   38  C9  UNL     1       3.871  -0.147   1.532  1.00  0.00     0.183 C 
BRANCH  36  39
HETATM   39  O2  UNL     1       7.238   0.658   0.493  1.00  0.00    -0.316 OA
BRANCH  39  40
HETATM   40  C4  UNL     1       8.405   0.147  -0.049  1.00  0.00     0.099 A 
HETATM   41  C5  UNL     1       8.512  -0.852  -0.989  1.00  0.00     0.181 A 
HETATM   42  O3  UNL     1       9.801  -1.064  -1.258  1.00  0.00    -0.298 OA
HETATM   43  C6  UNL     1      10.553  -0.260  -0.547  1.00  0.00     0.185 A 
HETATM   44  C7  UNL     1       9.712   0.514   0.224  1.00  0.00     0.102 A 
BRANCH  43  45
HETATM   45  O4  UNL     1      11.958  -0.218  -0.585  1.00  0.00    -0.341 OA
ATOM     46  H4  UNL     1      12.503   0.365  -0.070  1.00  0.00     0.220 HD
ENDBRANCH  43  45
ENDBRANCH  39  40
ENDBRANCH  36  39
BRANCH  37  47
HETATM   47  O5  UNL     1       5.972   0.079   2.524  1.00  0.00    -0.388 OA
ATOM     48  H5  UNL     1       5.581  -0.314   3.296  1.00  0.00     0.210 HD
ENDBRANCH  37  47
BRANCH  38  49
HETATM   49  O6  UNL     1       3.252  -1.182   2.217  1.00  0.00    -0.390 OA
ATOM     50  H6  UNL     1       2.322  -1.022   2.328  1.00  0.00     0.210 HD
ENDBRANCH  38  49
ENDBRANCH  31  32
ENDBRANCH   1  31
BRANCH   8  51
HETATM   51  C24 UNL     1       1.324  -1.033  -3.169  1.00  0.00     0.201 C 
BRANCH  51  52
HETATM   52  O18 UNL     1       2.687  -0.664  -3.200  1.00  0.00    -0.398 OA
ATOM     53  H18 UNL     1       3.089  -0.951  -4.011  1.00  0.00     0.209 HD
ENDBRANCH  51  52
ENDBRANCH   8  51
TORSDOF 20
