REMARK  3 active torsions:
REMARK  status: ('A' for Active; 'I' for Inactive)
REMARK    1  A    between atoms: O1_2  and  C2_3 
REMARK    2  A    between atoms: C2_3  and  C3_5 
REMARK    3  A    between atoms: C3_5  and  N1_6 
ROOT
HETATM    1  N1  UNL     1       1.376   1.513  -1.710  1.00  0.00    -0.285 N 
ATOM      2  H1  UNL     1       2.262   1.465  -2.213  1.00  0.00     0.175 HD
HETATM    3  C4  UNL     1       0.377   2.377  -2.157  1.00  0.00     0.180 C 
HETATM    4  N2  UNL     1      -0.450   3.118  -2.540  1.00  0.00    -0.172 NA
ENDROOT
BRANCH   1   5
HETATM    5  C3  UNL     1       1.174   0.693  -0.556  1.00  0.00     0.257 C 
HETATM    6  C5  UNL     1       0.686   1.490   0.602  1.00  0.00     0.244 C 
HETATM    7  O3  UNL     1      -0.696   1.562   0.309  1.00  0.00    -0.350 OA
HETATM    8  C6  UNL     1      -0.981   0.256  -0.094  1.00  0.00     0.168 C 
HETATM    9  C7  UNL     1      -1.225  -0.582   1.137  1.00  0.00     0.068 C 
HETATM   10  C10 UNL     1      -2.192   0.139  -0.957  1.00  0.00     0.068 C 
HETATM   11  O4  UNL     1       0.120  -0.201  -0.781  1.00  0.00    -0.313 OA
HETATM   12  C8  UNL     1      -2.597  -1.173   0.950  1.00  0.00     0.006 C 
HETATM   13  C9  UNL     1      -3.318  -0.355  -0.069  1.00  0.00     0.006 C 
BRANCH   5  14
HETATM   14  C2  UNL     1       2.355  -0.150  -0.237  1.00  0.00     0.318 C 
HETATM   15  O2  UNL     1       3.345  -0.034  -1.004  1.00  0.00    -0.260 OA
BRANCH  14  16
HETATM   16  O1  UNL     1       2.392  -1.015   0.825  1.00  0.00    -0.323 OA
HETATM   17  C1  UNL     1       3.556  -1.788   1.065  1.00  0.00     0.213 C 
ENDBRANCH  14  16
ENDBRANCH   5  14
ENDBRANCH   1   5
TORSDOF 3
