REMARK  6 active torsions:
REMARK  status: ('A' for Active; 'I' for Inactive)
REMARK    1  A    between atoms: C2_2  and  O1_3 
REMARK    2  A    between atoms: O1_3  and  C3_4 
REMARK    3  A    between atoms: C18_20  and  C19_21 
REMARK       I    between atoms: C19_21  and  N1_23 
REMARK    4  A    between atoms: N1_23  and  C20_25 
REMARK    5  A    between atoms: C20_25  and  C21_26 
REMARK    6  A    between atoms: C21_26  and  O4_27 
ROOT
HETATM    1  C3  UNL     1       4.577  -0.364  -0.084  1.00  0.00     0.220 C 
HETATM    2  C4  UNL     1       4.705  -1.184   1.172  1.00  0.00     0.159 C 
HETATM    3  O2  UNL     1       5.565  -2.032   1.214  1.00  0.00    -0.295 OA
HETATM    4  C5  UNL     1       3.771  -0.905   2.279  1.00  0.00     0.082 C 
HETATM    5  C6  UNL     1       2.310  -0.870   1.830  1.00  0.00     0.021 C 
HETATM    6  C7  UNL     1       2.249   0.197   0.744  1.00  0.00    -0.014 C 
HETATM    7  C8  UNL     1       2.803   1.482   1.361  1.00  0.00     0.020 C 
HETATM    8  C9  UNL     1       3.112  -0.294  -0.343  1.00  0.00    -0.039 C 
HETATM    9  C10 UNL     1       2.658  -0.668  -1.497  1.00  0.00    -0.020 C 
HETATM   10  C11 UNL     1       1.224  -0.652  -1.891  1.00  0.00     0.033 C 
HETATM   11  C12 UNL     1       0.335  -0.562  -0.662  1.00  0.00    -0.001 C 
HETATM   12  C13 UNL     1       0.883   0.488   0.253  1.00  0.00     0.003 C 
HETATM   13  C14 UNL     1      -0.084   0.854   1.359  1.00  0.00     0.007 C 
HETATM   14  C15 UNL     1      -1.348   1.389   0.714  1.00  0.00     0.011 C 
HETATM   15  C16 UNL     1      -1.971   0.219   0.001  1.00  0.00    -0.028 C 
HETATM   16  C17 UNL     1      -2.195  -0.901   0.955  1.00  0.00     0.016 C 
HETATM   17  C18 UNL     1      -3.176   0.547  -0.813  1.00  0.00     0.086 C 
HETATM   18  C22 UNL     1      -3.247  -0.665  -1.739  1.00  0.00     0.015 C 
HETATM   19  C23 UNL     1      -1.807  -1.188  -1.844  1.00  0.00     0.007 C 
HETATM   20  C24 UNL     1      -1.008  -0.158  -1.130  1.00  0.00    -0.001 C 
ENDROOT
BRANCH  17  21
HETATM   21  C19 UNL     1      -4.403   0.723  -0.025  1.00  0.00     0.222 C 
HETATM   22  O3  UNL     1      -4.434   0.608   1.222  1.00  0.00    -0.273 OA
HETATM   23  N1  UNL     1      -5.614   1.039  -0.695  1.00  0.00    -0.359 N 
ATOM     24  H1  UNL     1      -5.590   1.136  -1.710  1.00  0.00     0.162 HD
BRANCH  23  25
HETATM   25  C20 UNL     1      -6.881   1.231  -0.022  1.00  0.00     0.148 C 
BRANCH  25  26
HETATM   26  C21 UNL     1      -7.343   0.001   0.733  1.00  0.00     0.183 C 
BRANCH  26  27
HETATM   27  O4  UNL     1      -8.580   0.377   1.315  1.00  0.00    -0.399 OA
ATOM     28  H4  UNL     1      -8.870  -0.394   1.788  1.00  0.00     0.209 HD
ENDBRANCH  26  27
ENDBRANCH  25  26
ENDBRANCH  23  25
ENDBRANCH  17  21
BRANCH   1  29
HETATM   29  O1  UNL     1       5.219  -1.027  -1.132  1.00  0.00    -0.374 OA
BRANCH  29  30
HETATM   30  C2  UNL     1       6.178  -0.229  -1.744  1.00  0.00     0.165 C 
HETATM   31  C1  UNL     1       7.260   0.220  -0.818  1.00  0.00     0.033 C 
ENDBRANCH  29  30
ENDBRANCH   1  29
TORSDOF 6
