REMARK  3 active torsions:
REMARK  status: ('A' for Active; 'I' for Inactive)
REMARK    1  A    between atoms: N1_1  and  N2_4 
REMARK    2  A    between atoms: N3_6  and  C1_8 
REMARK    3  A    between atoms: C5_12  and  N4_13 
ROOT
HETATM    1  C1  UNL     1       0.462   0.161   0.883  1.00  0.00     0.131 C 
HETATM    2  C2  UNL     1       0.610  -1.255   0.322  1.00  0.00     0.029 C 
HETATM    3  C3  UNL     1      -0.794  -1.458  -0.245  1.00  0.00     0.004 C 
HETATM    4  C4  UNL     1      -0.882  -0.191  -1.107  1.00  0.00     0.035 C 
HETATM    5  C5  UNL     1      -0.261   0.865  -0.218  1.00  0.00     0.207 C 
ENDROOT
BRANCH   1   6
HETATM    6  N3  UNL     1       1.708   0.741   1.251  1.00  0.00    -0.316 N 
HETATM    7  N2  UNL     1       2.683   0.697   0.499  1.00  0.00    -0.253 N 
ATOM      8  H2  UNL     1       2.735  -0.300   0.292  1.00  0.00     0.207 HD
ATOM      9  H3  UNL     1       1.796   1.203   2.156  1.00  0.00     0.182 HD
BRANCH   7  10
HETATM   10  N1  UNL     1       3.637   1.136  -0.156  1.00  0.00    -0.331 N 
ATOM     11  H12 UNL     1       3.545   2.124   0.080  1.00  0.00     0.178 HD
ATOM     12  H11 UNL     1       4.444   1.100  -0.779  1.00  0.00     0.178 HD
ENDBRANCH   7  10
ENDBRANCH   1   6
BRANCH   5  13
HETATM   13  N4  UNL     1      -1.315   1.714   0.333  1.00  0.00    -0.073 N 
ATOM     14  H43 UNL     1      -1.952   1.190   0.933  1.00  0.00     0.274 HD
ATOM     15  H42 UNL     1      -0.954   2.366   1.030  1.00  0.00     0.274 HD
ATOM     16  H41 UNL     1      -1.809   2.195  -0.419  1.00  0.00     0.274 HD
ENDBRANCH   5  13
TORSDOF 3
