REMARK  10 active torsions:
REMARK  status: ('A' for Active; 'I' for Inactive)
REMARK    1  A    between atoms: C1_2  and  C2_4 
REMARK    2  A    between atoms: C4_8  and  N3_9 
REMARK    3  A    between atoms: N3_9  and  C5_11 
REMARK    4  A    between atoms: C6_15  and  N7_16 
REMARK    5  A    between atoms: C8_21  and  S2_22 
REMARK    6  A    between atoms: S2_22  and  C9_23 
REMARK    7  A    between atoms: C9_23  and  C10_24 
REMARK    8  A    between atoms: C10_24  and  O1_25 
REMARK    9  A    between atoms: C10_24  and  O2_27 
REMARK   10  A    between atoms: N9_32  and  C12_33 
ROOT
HETATM    1  C2  UNL     1      -1.419   2.485   0.808  1.00  0.00     0.138 A 
HETATM    2  N2  UNL     1      -1.376   1.318   0.161  1.00  0.00    -0.345 N 
ATOM      3  H2  UNL     1      -2.094   1.101  -0.531  1.00  0.00     0.166 HD
HETATM    4  C3  UNL     1      -0.412   0.434   0.404  1.00  0.00     0.105 A 
HETATM    5  C4  UNL     1      -0.401  -0.766  -0.286  1.00  0.00     0.063 A 
HETATM    6  C7  UNL     1       0.661  -1.642   0.039  1.00  0.00     0.068 A 
HETATM    7  C8  UNL     1       1.611  -1.326   0.972  1.00  0.00     0.073 A 
HETATM    8  N8  UNL     1       1.555  -0.148   1.614  1.00  0.00    -0.334 N 
ATOM      9  H8  UNL     1       2.268   0.080   2.307  1.00  0.00     0.168 HD
HETATM   10  C11 UNL     1       0.561   0.748   1.354  1.00  0.00     0.162 A 
HETATM   11  N9  UNL     1       0.537   1.920   2.018  1.00  0.00    -0.089 N 
HETATM   12  C13 UNL     1      -0.453   2.781   1.741  1.00  0.00     0.297 A 
HETATM   13  O3  UNL     1      -0.450   3.875   2.382  1.00  0.00    -0.264 OA
ENDROOT
BRANCH   5  14
HETATM   14  N3  UNL     1      -1.244  -1.114  -1.157  1.00  0.00    -0.366 N 
ATOM     15  H3  UNL     1      -1.046  -2.038  -1.541  1.00  0.00     0.161 HD
BRANCH  14  16
HETATM   16  C5  UNL     1      -2.385  -0.537  -1.723  1.00  0.00     0.242 C 
HETATM   17  N4  UNL     1      -3.503  -0.724  -0.787  1.00  0.00    -0.101 NA
HETATM   18  N5  UNL     1      -3.890  -2.057  -0.940  1.00  0.00    -0.036 NA
HETATM   19  N6  UNL     1      -3.627  -2.443  -2.247  1.00  0.00    -0.093 NA
HETATM   20  C6  UNL     1      -2.926  -1.356  -2.899  1.00  0.00     0.332 C 
BRANCH  20  21
HETATM   21  N7  UNL     1      -3.921  -0.537  -3.567  1.00  0.00    -0.057 N 
ATOM     22  H73 UNL     1      -4.654  -0.206  -2.939  1.00  0.00     0.276 HD
ATOM     23  H72 UNL     1      -3.565   0.377  -3.846  1.00  0.00     0.276 HD
ATOM     24  H71 UNL     1      -4.281  -1.082  -4.350  1.00  0.00     0.276 HD
ENDBRANCH  20  21
ENDBRANCH  14  16
ENDBRANCH   5  14
BRANCH   7  25
HETATM   25  S2  UNL     1       2.930  -2.483   1.340  1.00  0.00    -0.107 SA
BRANCH  25  26
HETATM   26  C9  UNL     1       4.332  -2.144   0.214  1.00  0.00     0.141 C 
BRANCH  26  27
HETATM   27  C10 UNL     1       3.921  -2.466  -1.193  1.00  0.00     0.263 C 
BRANCH  27  28
HETATM   28  O1  UNL     1       3.575  -3.820  -1.234  1.00  0.00    -0.371 OA
ATOM     29  H1  UNL     1       3.315  -4.024  -2.125  1.00  0.00     0.212 HD
ENDBRANCH  27  28
BRANCH  27  30
HETATM   30  O2  UNL     1       5.010  -2.293  -2.032  1.00  0.00    -0.371 OA
ATOM     31  H2  UNL     1       4.750  -2.497  -2.923  1.00  0.00     0.212 HD
ENDBRANCH  27  30
ENDBRANCH  26  27
ENDBRANCH  25  26
ENDBRANCH   7  25
BRANCH   1  32
HETATM   32  C1  UNL     1      -2.485   3.460   0.536  1.00  0.00     0.145 C 
HETATM   33  N1  UNL     1      -2.493   4.125  -0.696  1.00  0.00    -0.087 NA
HETATM   34  S1  UNL     1      -3.630   3.753   1.651  1.00  0.00    -0.061 SA
ENDBRANCH   1  32
BRANCH  11  35
HETATM   35  C12 UNL     1       1.547   2.176   2.960  1.00  0.00     0.722 A 
HETATM   36  N10 UNL     1       2.659   2.901   2.755  1.00  0.00    -0.113 N 
HETATM   37  N11 UNL     1       3.366   2.918   3.874  1.00  0.00     0.009 NA
ATOM     38  H10 UNL     1       2.916   3.362   1.882  1.00  0.00     0.203 HD
HETATM   39  N12 UNL     1       2.737   2.219   4.802  1.00  0.00    -0.211 N 
HETATM   40  N13 UNL     1       1.634   1.773   4.236  1.00  0.00    -0.117 N 
ATOM     41  H12 UNL     1       3.043   2.057   5.762  1.00  0.00     0.206 HD
ATOM     42  H13 UNL     1       0.937   1.196   4.707  1.00  0.00     0.207 HD
ENDBRANCH  11  35
TORSDOF 10
