REMARK  2 active torsions:
REMARK  status: ('A' for Active; 'I' for Inactive)
REMARK       I    between atoms: C3_3  and  N1_5 
REMARK    1  A    between atoms: N1_5  and  C4_7 
REMARK    2  A    between atoms: C12_18  and  C13_19 
ROOT
HETATM    1  C1  UNL     1       4.879   0.276  -1.224  1.00  0.00     0.022 C 
HETATM    2  C2  UNL     1       3.812   0.558  -0.745  1.00  0.00    -0.017 C 
HETATM    3  C3  UNL     1       2.517   0.889  -0.172  1.00  0.00     0.296 C 
HETATM    4  O1  UNL     1       2.541   1.722   0.766  1.00  0.00    -0.258 OA
HETATM    5  N1  UNL     1       1.326   0.304  -0.650  1.00  0.00    -0.339 N 
ATOM      6  H1  UNL     1       1.374  -0.367  -1.417  1.00  0.00     0.164 HD
ENDROOT
BRANCH   5   7
HETATM    7  C4  UNL     1       0.064   0.625  -0.091  1.00  0.00     0.159 C 
HETATM    8  C5  UNL     1      -0.703  -0.516   0.451  1.00  0.00    -0.011 C 
HETATM    9  C6  UNL     1      -0.668  -1.128   1.604  1.00  0.00    -0.003 C 
HETATM   10  C10 UNL     1      -1.623  -0.890  -0.655  1.00  0.00     0.215 C 
HETATM   11  C7  UNL     1      -1.549  -2.276   1.938  1.00  0.00     0.059 C 
HETATM   12  C8  UNL     1       0.272  -0.657   2.586  1.00  0.00    -0.082 C 
HETATM   13  C9  UNL     1       1.061  -0.272   3.433  1.00  0.00     0.017 C 
HETATM   14  C11 UNL     1      -0.956  -1.620  -1.776  1.00  0.00     0.045 C 
HETATM   15  N2  UNL     1      -2.105   0.431  -1.041  1.00  0.00    -0.051 N 
HETATM   16  C12 UNL     1      -0.905   1.243  -1.067  1.00  0.00     0.313 C 
ATOM     17  H22 UNL     1      -2.642   0.446  -1.908  1.00  0.00     0.279 HD
ATOM     18  H21 UNL     1      -2.848   0.798  -0.447  1.00  0.00     0.279 HD
BRANCH  16  19
HETATM   19  C13 UNL     1      -1.273   2.626  -0.687  1.00  0.00     0.207 C 
HETATM   20  O2  UNL     1      -2.464   2.917  -0.411  1.00  0.00    -0.646 OA
HETATM   21  O3  UNL     1      -0.347   3.661  -0.614  1.00  0.00    -0.646 OA
ENDBRANCH  16  19
ENDBRANCH   5   7
TORSDOF 2
