REMARK  2 active torsions:
REMARK  status: ('A' for Active; 'I' for Inactive)
REMARK       I    between atoms: N1_3  and  C3_5 
REMARK       I    between atoms: C3_5  and  N3_9 
REMARK    1  A    between atoms: C7_13  and  C8_14 
REMARK       I    between atoms: C8_14  and  N4_16 
REMARK    2  A    between atoms: N4_16  and  C9_18 
ROOT
HETATM    1  C1  UNL     1      -3.977   1.326   2.172  1.00  0.00     0.037 C 
HETATM    2  C2  UNL     1      -3.739   1.254   0.983  1.00  0.00     0.015 C 
HETATM    3  N1  UNL     1      -3.456   1.155  -0.385  1.00  0.00    -0.150 N 
ATOM      4  H1  UNL     1      -3.646   1.959  -0.983  1.00  0.00     0.195 HD
HETATM    5  C3  UNL     1      -2.916  -0.018  -0.975  1.00  0.00     0.682 C 
HETATM    6  N2  UNL     1      -2.934  -0.113  -2.270  1.00  0.00    -0.234 N 
ATOM      7  H21 UNL     1      -2.546  -0.956  -2.694  1.00  0.00     0.174 HD
ATOM      8  H22 UNL     1      -3.333   0.666  -2.793  1.00  0.00     0.174 HD
HETATM    9  N3  UNL     1      -2.368  -1.088  -0.257  1.00  0.00    -0.204 N 
HETATM   10  C4  UNL     1      -3.087  -2.210   0.291  1.00  0.00     0.142 C 
HETATM   11  C5  UNL     1      -2.379  -2.433   1.609  1.00  0.00     0.023 C 
HETATM   12  C6  UNL     1      -1.106  -1.616   1.560  1.00  0.00     0.037 C 
HETATM   13  C7  UNL     1      -0.999  -1.304   0.084  1.00  0.00     0.194 C 
ENDROOT
BRANCH  13  14
HETATM   14  C8  UNL     1      -0.068  -0.234  -0.230  1.00  0.00     0.241 C 
HETATM   15  O1  UNL     1      -0.505   0.810  -0.773  1.00  0.00    -0.271 OA
HETATM   16  N4  UNL     1       1.325  -0.265   0.028  1.00  0.00    -0.355 N 
ATOM     17  H4  UNL     1       1.706  -1.102   0.468  1.00  0.00     0.162 HD
BRANCH  16  18
HETATM   18  C9  UNL     1       2.232   0.789  -0.283  1.00  0.00     0.084 C 
HETATM   19  C10 UNL     1       3.342   0.375  -1.222  1.00  0.00     0.025 C 
HETATM   20  C11 UNL     1       4.554   1.203  -0.849  1.00  0.00     0.002 C 
HETATM   21  C12 UNL     1       4.073   2.152   0.249  1.00  0.00     0.002 C 
HETATM   22  C13 UNL     1       2.997   1.308   0.903  1.00  0.00     0.025 C 
ENDBRANCH  16  18
ENDBRANCH  13  14
TORSDOF 2
