REMARK  1 active torsions:
REMARK  status: ('A' for Active; 'I' for Inactive)
REMARK    1  A    between atoms: C4_11  and  N4_12 
ROOT
HETATM    1  C1  UNL     1       1.927   0.630  -0.119  1.00  0.00     0.197 C 
HETATM    2  N1  UNL     1       0.512   0.303  -0.040  1.00  0.00    -0.126 N 
HETATM    3  N2  UNL     1      -0.398   1.256  -0.099  1.00  0.00    -0.246 N 
ATOM      4  H2  UNL     1      -0.118   2.232  -0.200  1.00  0.00     0.191 HD
HETATM    5  C2  UNL     1      -1.699   0.926  -0.024  1.00  0.00     0.329 A 
HETATM    6  O1  UNL     1      -2.537   1.864  -0.084  1.00  0.00    -0.261 OA
HETATM    7  C3  UNL     1      -2.079  -0.394   0.113  1.00  0.00     0.329 A 
HETATM    8  O2  UNL     1      -3.314  -0.704   0.184  1.00  0.00    -0.261 OA
HETATM    9  N3  UNL     1      -1.109  -1.328   0.168  1.00  0.00    -0.150 N 
ATOM     10  H3  UNL     1      -1.370  -2.309   0.269  1.00  0.00     0.188 HD
HETATM   11  C4  UNL     1       0.181  -1.005   0.094  1.00  0.00     0.695 A 
ENDROOT
BRANCH  11  12
HETATM   12  N4  UNL     1       1.088  -1.938   0.151  1.00  0.00    -0.233 N 
ATOM     13  H42 UNL     1       2.076  -1.691   0.094  1.00  0.00     0.174 HD
ATOM     14  H41 UNL     1       0.839  -2.922   0.252  1.00  0.00     0.174 HD
ENDBRANCH  11  12
TORSDOF 1
