REMARK  16 active torsions:
REMARK  status: ('A' for Active; 'I' for Inactive)
REMARK       I    between atoms: C2_2  and  N1_4 
REMARK    1  A    between atoms: N1_4  and  C3_6 
REMARK    2  A    between atoms: C3_6  and  C4_7 
REMARK    3  A    between atoms: C4_7  and  C5_8 
REMARK    4  A    between atoms: C8_11  and  O2_12 
REMARK    5  A    between atoms: C8_11  and  N2_14 
REMARK    6  A    between atoms: C9_15  and  C10_16 
REMARK    7  A    between atoms: C10_16  and  C11_17 
REMARK    8  A    between atoms: C18_27  and  C19_28 
REMARK    9  A    between atoms: C19_28  and  C20_29 
REMARK   10  A    between atoms: C20_29  and  C21_30 
REMARK   11  A    between atoms: C21_30  and  N4_31 
REMARK   12  A    between atoms: C24_38  and  C25_39 
REMARK   13  A    between atoms: C25_39  and  C26_40 
REMARK   14  A    between atoms: C26_40  and  C27_41 
REMARK   15  A    between atoms: C27_41  and  C28_42 
REMARK   16  A    between atoms: C28_42  and  C29_43 
ROOT
HETATM    1  N2  UNL     1      -1.362  -0.891  -0.654  1.00  0.00    -0.335 N 
HETATM    2  C9  UNL     1      -2.512  -1.287   0.218  1.00  0.00     0.179 C 
HETATM    3  C17 UNL     1      -3.377  -0.106   0.424  1.00  0.00     0.241 C 
HETATM    4  O3  UNL     1      -4.626  -0.419   0.445  1.00  0.00    -0.271 OA
HETATM    5  N3  UNL     1      -3.160   1.257   0.595  1.00  0.00    -0.348 N 
ATOM      6  H3  UNL     1      -3.667   1.688   1.368  1.00  0.00     0.163 HD
HETATM    7  C18 UNL     1      -2.309   2.156  -0.176  1.00  0.00     0.156 C 
HETATM    8  C23 UNL     1      -1.204   1.457  -0.809  1.00  0.00     0.172 C 
HETATM    9  O4  UNL     1      -0.713   1.784  -1.860  1.00  0.00    -0.293 OA
HETATM   10  C24 UNL     1      -0.554   0.238  -0.204  1.00  0.00     0.159 C 
ENDROOT
BRANCH   1  11
HETATM   11  C8  UNL     1      -1.069  -1.584  -1.803  1.00  0.00     0.166 C 
HETATM   12  C3  UNL     1      -1.333  -2.755  -2.561  1.00  0.00     0.082 C 
BRANCH  12  13
HETATM   13  N1  UNL     1      -1.656  -2.363  -3.979  1.00  0.00    -0.324 N 
HETATM   14  C2  UNL     1      -0.771  -2.539  -5.046  1.00  0.00     0.218 C 
HETATM   15  C1  UNL     1      -1.184  -2.120  -6.409  1.00  0.00     0.117 C 
HETATM   16  O1  UNL     1       0.382  -3.040  -4.936  1.00  0.00    -0.274 OA
ATOM     17  H1  UNL     1      -2.568  -1.948  -4.170  1.00  0.00     0.169 HD
ENDBRANCH  12  13
BRANCH  12  18
HETATM   18  C4  UNL     1      -2.114  -3.943  -2.257  1.00  0.00     0.011 C 
BRANCH  18  19
HETATM   19  C5  UNL     1      -1.990  -4.694  -0.998  1.00  0.00     0.002 C 
HETATM   20  C6  UNL     1      -0.547  -5.169  -0.868  1.00  0.00     0.013 C 
HETATM   21  C7  UNL     1      -2.762  -6.034  -1.252  1.00  0.00     0.013 C 
ENDBRANCH  18  19
ENDBRANCH  12  18
BRANCH  11  22
HETATM   22  O2  UNL     1      -0.152  -0.866  -2.528  1.00  0.00    -0.344 OA
ATOM     23  H2  UNL     1       0.025  -0.082  -2.021  1.00  0.00     0.219 HD
ENDBRANCH  11  22
ENDBRANCH   1  11
BRANCH   2  24
HETATM   24  C10 UNL     1      -1.927  -1.765   1.490  1.00  0.00     0.040 C 
BRANCH  24  25
HETATM   25  C11 UNL     1      -2.789  -2.285   2.573  1.00  0.00    -0.012 C 
HETATM   26  C12 UNL     1      -1.811  -2.720   3.696  1.00  0.00     0.005 C 
HETATM   27  C13 UNL     1      -1.326  -1.541   4.492  1.00  0.00     0.000 C 
HETATM   28  C14 UNL     1      -2.456  -1.075   5.420  1.00  0.00     0.000 C 
HETATM   29  C15 UNL     1      -3.728  -1.517   4.780  1.00  0.00     0.000 C 
HETATM   30  C16 UNL     1      -3.696  -1.300   3.242  1.00  0.00     0.005 C 
ENDBRANCH  24  25
ENDBRANCH   2  24
BRANCH  10  31
HETATM   31  C25 UNL     1       0.906   0.172  -0.350  1.00  0.00     0.033 C 
BRANCH  31  32
HETATM   32  C26 UNL     1       1.459   1.494   0.260  1.00  0.00     0.002 C 
BRANCH  32  33
HETATM   33  C27 UNL     1       2.966   1.501   0.147  1.00  0.00     0.000 C 
BRANCH  33  34
HETATM   34  C28 UNL     1       3.631   0.367   0.853  1.00  0.00     0.004 C 
BRANCH  34  35
HETATM   35  C29 UNL     1       5.130   0.498   0.666  1.00  0.00    -0.014 C 
HETATM   36  C30 UNL     1       5.690   1.770   1.211  1.00  0.00     0.004 C 
HETATM   37  C31 UNL     1       7.042   1.552   1.854  1.00  0.00     0.000 C 
HETATM   38  C32 UNL     1       7.867   0.512   1.137  1.00  0.00     0.000 C 
HETATM   39  C33 UNL     1       7.831   0.689  -0.357  1.00  0.00     0.000 C 
HETATM   40  C34 UNL     1       6.790  -0.267  -0.929  1.00  0.00     0.000 C 
HETATM   41  C35 UNL     1       5.454   0.421  -0.815  1.00  0.00     0.004 C 
ENDBRANCH  34  35
ENDBRANCH  33  34
ENDBRANCH  32  33
ENDBRANCH  31  32
ENDBRANCH  10  31
BRANCH   7  42
HETATM   42  C19 UNL     1      -3.183   2.934  -1.092  1.00  0.00     0.034 C 
BRANCH  42  43
HETATM   43  C20 UNL     1      -2.495   3.940  -1.955  1.00  0.00     0.022 C 
BRANCH  43  44
HETATM   44  C21 UNL     1      -1.722   4.962  -1.140  1.00  0.00     0.122 C 
BRANCH  44  45
HETATM   45  N4  UNL     1      -2.581   5.687  -0.261  1.00  0.00    -0.367 N 
HETATM   46  C22 UNL     1      -2.724   6.957  -0.221  1.00  0.00     0.196 C 
HETATM   47  N5  UNL     1      -2.031   7.869  -1.069  1.00  0.00    -0.067 NA
HETATM   48  N6  UNL     1      -3.646   7.476   0.750  1.00  0.00    -0.067 NA
ATOM     49  H4  UNL     1      -3.134   5.140   0.399  1.00  0.00     0.161 HD
ENDBRANCH  44  45
ENDBRANCH  43  44
ENDBRANCH  42  43
ENDBRANCH   7  42
TORSDOF 16
