REMARK  18 active torsions:
REMARK  status: ('A' for Active; 'I' for Inactive)
REMARK    1  A    between atoms: C2_2  and  C3_3 
REMARK    2  A    between atoms: C3_3  and  C4_4 
REMARK    3  A    between atoms: C4_4  and  C5_5 
REMARK    4  A    between atoms: C5_5  and  C6_6 
REMARK    5  A    between atoms: C5_5  and  N4_40 
REMARK    6  A    between atoms: C6_6  and  C7_7 
REMARK    7  A    between atoms: C7_7  and  N1_8 
REMARK    8  A    between atoms: N1_8  and  C8_10 
REMARK    9  A    between atoms: C8_10  and  N2_12 
REMARK   10  A    between atoms: C12_16  and  C13_17 
REMARK   11  A    between atoms: C13_17  and  C14_18 
REMARK   12  A    between atoms: C14_18  and  N3_19 
REMARK   13  A    between atoms: C14_18  and  C27_36 
REMARK       I    between atoms: N3_19  and  C15_21 
REMARK   14  A    between atoms: C15_21  and  C16_23 
REMARK   15  A    between atoms: C23_30  and  O2_31 
REMARK   16  A    between atoms: N4_40  and  C30_42 
REMARK   17  A    between atoms: C30_42  and  C31_43 
REMARK   18  A    between atoms: C31_43  and  N5_44 
ROOT
HETATM    1  N2  UNL     1       0.753  -1.037   0.334  1.00  0.00    -0.358 N 
HETATM    2  C9  UNL     1       0.387  -1.283   1.716  1.00  0.00     0.125 C 
HETATM    3  C10 UNL     1      -0.872  -0.520   2.063  1.00  0.00     0.020 C 
HETATM    4  C11 UNL     1      -0.976   0.758   1.258  1.00  0.00     0.008 C 
HETATM    5  C12 UNL     1      -1.118   0.477  -0.226  1.00  0.00     0.006 C 
HETATM    6  C29 UNL     1      -0.287  -0.781  -0.588  1.00  0.00     0.130 C 
ENDROOT
BRANCH   5   7
HETATM    7  C13 UNL     1      -2.507   0.176  -0.629  1.00  0.00     0.039 C 
BRANCH   7   8
HETATM    8  C14 UNL     1      -3.559   1.212  -0.400  1.00  0.00     0.154 C 
BRANCH   8   9
HETATM    9  N3  UNL     1      -4.815   0.550  -0.877  1.00  0.00    -0.349 N 
HETATM   10  C15 UNL     1      -5.803   0.094   0.022  1.00  0.00     0.227 C 
HETATM   11  O1  UNL     1      -5.586   0.267   1.235  1.00  0.00    -0.273 OA
ATOM     12  H3  UNL     1      -4.960   0.425  -1.879  1.00  0.00     0.163 HD
BRANCH  10  13
HETATM   13  C16 UNL     1      -7.017  -0.547  -0.451  1.00  0.00     0.042 C 
HETATM   14  C17 UNL     1      -6.624  -1.814  -1.270  1.00  0.00     0.026 C 
HETATM   15  C18 UNL     1      -7.737   0.316  -1.507  1.00  0.00     0.019 C 
HETATM   16  C19 UNL     1      -8.601   1.374  -0.863  1.00  0.00     0.002 C 
HETATM   17  C20 UNL     1      -9.673   0.751   0.012  1.00  0.00     0.012 C 
HETATM   18  C21 UNL     1      -8.961   0.000   1.104  1.00  0.00    -0.013 C 
HETATM   19  C22 UNL     1      -8.444   0.870   2.188  1.00  0.00     0.018 C 
HETATM   20  C23 UNL     1      -9.928  -0.992   1.792  1.00  0.00     0.126 C 
HETATM   21  C26 UNL     1      -8.030  -0.982   0.501  1.00  0.00     0.013 C 
HETATM   22  C24 UNL     1      -8.986  -2.042   2.346  1.00  0.00     0.033 C 
HETATM   23  C25 UNL     1      -7.629  -1.816   1.671  1.00  0.00     0.009 C 
BRANCH  20  24
HETATM   24  O2  UNL     1     -10.661  -1.575   0.765  1.00  0.00    -0.395 OA
ATOM     25  H2  UNL     1     -11.255  -2.184   1.188  1.00  0.00     0.210 HD
ENDBRANCH  20  24
ENDBRANCH  10  13
ENDBRANCH   8   9
BRANCH   8  26
HETATM   26  C27 UNL     1      -3.392   2.462  -1.138  1.00  0.00     0.145 C 
HETATM   27  C28 UNL     1      -2.306   3.418  -0.910  1.00  0.00     0.093 C 
HETATM   28  O3  UNL     1      -4.202   2.793  -2.034  1.00  0.00    -0.296 OA
ENDBRANCH   8  26
ENDBRANCH   7   8
ENDBRANCH   5   7
BRANCH   1  29
HETATM   29  C8  UNL     1       2.157  -1.095  -0.006  1.00  0.00     0.173 C 
HETATM   30  S1  UNL     1       3.111  -1.497   1.275  1.00  0.00    -0.041 SA
BRANCH  29  31
HETATM   31  N1  UNL     1       2.625  -0.880  -1.268  1.00  0.00    -0.347 N 
ATOM     32  H1  UNL     1       1.847  -0.689  -1.900  1.00  0.00     0.167 HD
BRANCH  31  33
HETATM   33  C7  UNL     1       3.820  -0.839  -1.964  1.00  0.00     0.065 C 
BRANCH  33  34
HETATM   34  C6  UNL     1       4.824   0.229  -1.866  1.00  0.00     0.069 C 
BRANCH  34  35
HETATM   35  C5  UNL     1       5.680   0.371  -0.684  1.00  0.00     0.081 C 
BRANCH  35  36
HETATM   36  C4  UNL     1       6.568   1.616  -0.778  1.00  0.00     0.025 C 
BRANCH  36  37
HETATM   37  C3  UNL     1       7.421   1.707  -1.976  1.00  0.00     0.002 C 
BRANCH  37  38
HETATM   38  C2  UNL     1       8.282   2.987  -1.926  1.00  0.00    -0.004 C 
HETATM   39  C1  UNL     1       9.143   3.070  -3.165  1.00  0.00     0.005 C 
ENDBRANCH  37  38
ENDBRANCH  36  37
ENDBRANCH  35  36
BRANCH  35  40
HETATM   40  N4  UNL     1       6.378  -0.766  -0.196  1.00  0.00    -0.412 N 
ATOM     41  H4  UNL     1       6.061  -1.237   0.652  1.00  0.00     0.153 HD
BRANCH  40  42
HETATM   42  C30 UNL     1       7.520  -1.245  -0.894  1.00  0.00     0.159 C 
BRANCH  42  43
HETATM   43  C31 UNL     1       7.966  -2.555  -0.219  1.00  0.00     0.082 C 
BRANCH  43  44
HETATM   44  N5  UNL     1       8.387  -2.455   1.102  1.00  0.00    -0.372 N 
HETATM   45  C32 UNL     1       7.534  -2.152   2.167  1.00  0.00     0.063 C 
HETATM   46  C33 UNL     1       8.002  -0.847   2.788  1.00  0.00     0.046 C 
HETATM   47  C34 UNL     1       9.429  -0.748   2.367  1.00  0.00     0.025 C 
HETATM   48  C35 UNL     1       9.648  -1.771   1.308  1.00  0.00     0.127 C 
ENDBRANCH  43  44
ENDBRANCH  42  43
ENDBRANCH  40  42
ENDBRANCH  35  40
ENDBRANCH  34  35
ENDBRANCH  33  34
ENDBRANCH  31  33
ENDBRANCH  29  31
ENDBRANCH   1  29
TORSDOF 18
