REMARK  7 active torsions:
REMARK  status: ('A' for Active; 'I' for Inactive)
REMARK    1  A    between atoms: N2_3  and  C2_4 
REMARK    2  A    between atoms: N2_3  and  C5_9 
REMARK    3  A    between atoms: C2_4  and  C3_5 
REMARK    4  A    between atoms: C3_5  and  C4_6 
REMARK    5  A    between atoms: C4_6  and  O1_7 
REMARK    6  A    between atoms: C7_11  and  N3_12 
REMARK    7  A    between atoms: C8_17  and  N5_18 
ROOT
HETATM    1  N1  UNL     1      -0.274  -3.624   0.300  1.00  0.00    -0.172 NA
HETATM    2  C1  UNL     1      -0.306  -2.485   0.112  1.00  0.00     0.185 C 
HETATM    3  N2  UNL     1      -0.328  -1.094  -0.130  1.00  0.00    -0.270 N 
ENDROOT
BRANCH   3   4
HETATM    4  C2  UNL     1      -1.583  -0.512  -0.467  1.00  0.00     0.144 C 
BRANCH   4   5
HETATM    5  C3  UNL     1      -2.565  -0.512   0.685  1.00  0.00     0.047 C 
BRANCH   5   6
HETATM    6  C4  UNL     1      -3.844   0.123   0.213  1.00  0.00     0.165 C 
BRANCH   6   7
HETATM    7  O1  UNL     1      -3.653   1.439  -0.214  1.00  0.00    -0.401 OA
ATOM      8  H1  UNL     1      -4.461   1.840  -0.512  1.00  0.00     0.209 HD
ENDBRANCH   6   7
ENDBRANCH   5   6
ENDBRANCH   4   5
ENDBRANCH   3   4
BRANCH   3   9
HETATM    9  C5  UNL     1       0.858  -0.331  -0.035  1.00  0.00     0.135 A 
HETATM   10  C6  UNL     1       0.965   1.024  -0.218  1.00  0.00     0.098 A 
HETATM   11  C7  UNL     1       2.178   1.706  -0.110  1.00  0.00     0.118 A 
HETATM   12  N4  UNL     1       3.296   1.039   0.182  1.00  0.00    -0.177 N 
HETATM   13  C8  UNL     1       3.213  -0.296   0.366  1.00  0.00     0.679 A 
ATOM     14  H4  UNL     1       4.189   1.524   0.264  1.00  0.00     0.185 HD
HETATM   15  N6  UNL     1       2.049  -0.943   0.261  1.00  0.00    -0.176 N 
ATOM     16  H6  UNL     1       2.046  -1.952   0.410  1.00  0.00     0.186 HD
BRANCH  11  17
HETATM   17  N3  UNL     1       2.206   2.981  -0.294  1.00  0.00    -0.385 N 
ATOM     18  H32 UNL     1       1.351   3.491  -0.517  1.00  0.00     0.157 HD
ATOM     19  H31 UNL     1       3.092   3.479  -0.215  1.00  0.00     0.157 HD
ENDBRANCH  11  17
BRANCH  13  20
HETATM   20  N5  UNL     1       4.326  -0.931   0.652  1.00  0.00    -0.234 N 
ATOM     21  H52 UNL     1       5.215  -0.437   0.732  1.00  0.00     0.174 HD
ATOM     22  H51 UNL     1       4.263  -1.940   0.791  1.00  0.00     0.174 HD
ENDBRANCH  13  20
ENDBRANCH   3   9
TORSDOF 7
