REMARK  3 active torsions:
REMARK  status: ('A' for Active; 'I' for Inactive)
REMARK    1  A    between atoms: C4_7  and  C5_8 
REMARK    2  A    between atoms: C5_8  and  N2_9 
REMARK    3  A    between atoms: N2_9  and  C6_12 
ROOT
HETATM    1  C1  UNL     1      -3.280   0.363   0.018  1.00  0.00     0.002 C 
HETATM    2  C2  UNL     1      -2.567  -0.235   1.182  1.00  0.00     0.027 C 
HETATM    3  C3  UNL     1      -1.878  -1.489   0.706  1.00  0.00     0.233 C 
HETATM    4  N1  UNL     1      -1.061  -1.100  -0.459  1.00  0.00    -0.069 N 
ATOM      5  H11 UNL     1      -1.612  -1.093  -1.318  1.00  0.00     0.277 HD
ATOM      6  H12 UNL     1      -0.392  -1.829  -0.708  1.00  0.00     0.277 HD
HETATM    7  C4  UNL     1      -0.419   0.144  -0.243  1.00  0.00     0.211 C 
HETATM    8  C9  UNL     1      -1.101   1.343  -0.818  1.00  0.00     0.034 C 
HETATM    9  C10 UNL     1      -2.570   1.353  -0.798  1.00  0.00     0.002 C 
ENDROOT
BRANCH   7  10
HETATM   10  C5  UNL     1       0.989   0.124  -0.809  1.00  0.00     0.265 C 
BRANCH  10  11
HETATM   11  N2  UNL     1       1.834  -0.879  -0.220  1.00  0.00    -0.069 N 
ATOM     12  H22 UNL     1       1.634  -1.026   0.769  1.00  0.00     0.277 HD
ATOM     13  H21 UNL     1       1.612  -1.818  -0.550  1.00  0.00     0.277 HD
BRANCH  11  14
HETATM   14  C6  UNL     1       3.228  -0.518  -0.460  1.00  0.00     0.186 A 
HETATM   15  C7  UNL     1       4.172  -0.831   0.616  1.00  0.00     0.035 A 
HETATM   16  C8  UNL     1       3.722   0.591   0.465  1.00  0.00     0.035 A 
ENDBRANCH  11  14
ENDBRANCH  10  11
ENDBRANCH   7  10
TORSDOF 3
