REMARK  2 active torsions:
REMARK  status: ('A' for Active; 'I' for Inactive)
REMARK    1  A    between atoms: C5_6  and  O1_7 
REMARK    2  A    between atoms: C7_10  and  O2_11 
ROOT
HETATM    1  C1  UNL     1       2.157   0.433   1.023  1.00  0.00     0.311 C 
HETATM    2  N1  UNL     1       0.734   0.228   0.792  1.00  0.00     0.098 N 
HETATM    3  C2  UNL     1       0.539  -1.015   0.043  1.00  0.00     0.253 C 
HETATM    4  C3  UNL     1       0.912  -0.210  -1.211  1.00  0.00     0.077 C 
HETATM    5  C4  UNL     1       0.335   0.932  -0.427  1.00  0.00     0.253 C 
HETATM    6  C5  UNL     1      -1.156   1.003  -0.468  1.00  0.00     0.154 C 
HETATM    7  C6  UNL     1      -1.717  -0.169   0.350  1.00  0.00     0.068 C 
HETATM    8  C7  UNL     1      -0.902  -1.385  -0.094  1.00  0.00     0.154 C 
ENDROOT
BRANCH   6   9
HETATM    9  O1  UNL     1      -1.590   2.158   0.138  1.00  0.00    -0.393 OA
ATOM     10  H1  UNL     1      -2.539   2.203   0.112  1.00  0.00     0.210 HD
ENDBRANCH   6   9
BRANCH   8  11
HETATM   11  O2  UNL     1      -1.271  -2.535   0.538  1.00  0.00    -0.393 OA
ATOM     12  H2  UNL     1      -2.187  -2.770   0.451  1.00  0.00     0.210 HD
ENDBRANCH   8  11
TORSDOF 2
