REMARK  2 active torsions:
REMARK  status: ('A' for Active; 'I' for Inactive)
REMARK       I    between atoms: N1_1  and  C1_5 
REMARK       I    between atoms: C1_5  and  N2_6 
REMARK       I    between atoms: C1_5  and  N3_10 
REMARK    1  A    between atoms: N3_10  and  C2_12 
REMARK    2  A    between atoms: N4_14  and  O1_15 
ROOT
HETATM    1  N1  UNL     1      -1.436  -0.404   0.940  1.00  0.00    -0.033 N 
ATOM      2  H11 UNL     1      -0.573  -0.798   1.315  1.00  0.00     0.278 HD
ATOM      3  H12 UNL     1      -2.242  -0.977   1.190  1.00  0.00     0.278 HD
ATOM      4  H13 UNL     1      -1.690   0.455   1.427  1.00  0.00     0.278 HD
HETATM    5  C1  UNL     1      -1.368  -0.190  -0.514  1.00  0.00     0.481 C 
HETATM    6  N2  UNL     1      -2.575   0.361  -1.038  1.00  0.00    -0.033 N 
ATOM      7  H21 UNL     1      -2.528   0.509  -2.046  1.00  0.00     0.278 HD
ATOM      8  H22 UNL     1      -2.829   1.220  -0.551  1.00  0.00     0.278 HD
ATOM      9  H23 UNL     1      -3.381  -0.212  -0.788  1.00  0.00     0.278 HD
HETATM   10  N3  UNL     1      -0.270   0.694  -0.801  1.00  0.00    -0.325 N 
ATOM     11  H3  UNL     1      -0.454   1.583  -1.266  1.00  0.00     0.165 HD
ENDROOT
BRANCH  10  12
HETATM   12  C2  UNL     1       1.066   0.357  -0.451  1.00  0.00     0.136 A 
HETATM   13  C3  UNL     1       1.503  -0.787   0.176  1.00  0.00     0.190 A 
HETATM   14  N4  UNL     1       2.851  -0.696   0.315  1.00  0.00    -0.155 N 
HETATM   15  N5  UNL     1       3.218   0.461  -0.207  1.00  0.00     0.007 NA
HETATM   16  N6  UNL     1       2.159   1.105  -0.671  1.00  0.00    -0.266 N 
ATOM     17  H6  UNL     1       2.171   2.020  -1.122  1.00  0.00     0.186 HD
BRANCH  14  18
HETATM   18  O1  UNL     1       3.669  -1.652   0.901  1.00  0.00    -0.270 OA
ATOM     19  H1  UNL     1       4.612  -1.588   0.998  1.00  0.00     0.246 HD
ENDBRANCH  14  18
ENDBRANCH  10  12
TORSDOF 2
