REMARK  2 active torsions:
REMARK  status: ('A' for Active; 'I' for Inactive)
REMARK    1  A    between atoms: N2_4  and  N3_6 
REMARK    2  A    between atoms: N3_6  and  C1_8 
ROOT
HETATM    1  N3  UNL     1       0.906  -0.610   0.498  1.00  0.00    -0.296 N 
ATOM      2  H3  UNL     1       1.175  -1.594   0.518  1.00  0.00     0.184 HD
ENDROOT
BRANCH   1   3
HETATM    3  N2  UNL     1       1.772   0.316  -0.085  1.00  0.00    -0.252 N 
HETATM    4  N1  UNL     1       1.782   1.521   0.287  1.00  0.00    -0.331 N 
ATOM      5  H12 UNL     1       1.141   1.807   1.027  1.00  0.00     0.178 HD
ATOM      6  H11 UNL     1       2.415   2.198  -0.139  1.00  0.00     0.178 HD
ATOM      7  H2  UNL     1       2.407   0.013  -0.824  1.00  0.00     0.207 HD
ENDBRANCH   1   3
BRANCH   1   8
HETATM    8  C1  UNL     1      -0.342  -0.224   1.066  1.00  0.00     0.232 A 
HETATM    9  C2  UNL     1      -1.331   0.436   0.146  1.00  0.00     0.188 A 
HETATM   10  N4  UNL     1      -2.053  -0.741   0.513  1.00  0.00    -0.335 N 
HETATM   11  N5  UNL     1      -1.266  -1.307   1.271  1.00  0.00    -0.314 N 
ATOM     12  H4  UNL     1      -2.984  -1.037   0.221  1.00  0.00     0.179 HD
ATOM     13  H5  UNL     1      -1.268  -2.172   1.812  1.00  0.00     0.182 HD
ENDBRANCH   1   8
TORSDOF 2
