REMARK  0 active torsions:
REMARK  status: ('A' for Active; 'I' for Inactive)
REMARK       I    between atoms: N1_1  and  C1_4 
ROOT
HETATM    1  N1  UNL     1      -1.989  -1.383  -0.444  1.00  0.00    -0.234 N 
ATOM      2  H11 UNL     1      -2.901  -0.989  -0.214  1.00  0.00     0.174 HD
ATOM      3  H12 UNL     1      -1.843  -2.317  -0.826  1.00  0.00     0.174 HD
HETATM    4  C1  UNL     1      -0.960  -0.638  -0.231  1.00  0.00     0.682 C 
HETATM    5  N2  UNL     1       0.248  -1.160  -0.536  1.00  0.00    -0.155 N 
ATOM      6  H2  UNL     1       0.212  -2.087  -0.960  1.00  0.00     0.187 HD
HETATM    7  C2  UNL     1       1.495  -0.666  -0.376  1.00  0.00     0.275 C 
HETATM    8  O1  UNL     1       2.461  -1.329  -0.851  1.00  0.00    -0.266 OA
HETATM    9  C3  UNL     1       1.882   0.499   0.254  1.00  0.00     0.167 C 
HETATM   10  N3  UNL     1       1.053   1.498   0.636  1.00  0.00    -0.313 N 
ATOM     11  H3  UNL     1       1.519   2.331   0.995  1.00  0.00     0.170 HD
HETATM   12  C4  UNL     1      -0.303   1.564   0.616  1.00  0.00     0.338 C 
HETATM   13  O2  UNL     1      -0.762   2.683   0.967  1.00  0.00    -0.246 OA
HETATM   14  N4  UNL     1      -1.153   0.601   0.276  1.00  0.00    -0.141 N 
ATOM     15  H4  UNL     1      -2.133   0.841   0.425  1.00  0.00     0.189 HD
ENDROOT
TORSDOF 0
