REMARK  1 active torsions:
REMARK  status: ('A' for Active; 'I' for Inactive)
REMARK    1  A    between atoms: N1_1  and  C1_4 
ROOT
HETATM    1  C1  UNL     1       1.372  -0.410   0.216  1.00  0.00     0.169 C 
HETATM    2  N2  UNL     1       0.535  -1.448   0.121  1.00  0.00    -0.334 N 
ATOM      3  H2  UNL     1       0.972  -2.368   0.178  1.00  0.00     0.168 HD
HETATM    4  C2  UNL     1      -0.801  -1.455  -0.039  1.00  0.00     0.186 C 
HETATM    5  N3  UNL     1      -1.638  -0.397  -0.047  1.00  0.00    -0.305 N 
ATOM      6  H3  UNL     1      -2.624  -0.635   0.058  1.00  0.00     0.171 HD
HETATM    7  C3  UNL     1      -1.386   0.934  -0.172  1.00  0.00     0.328 C 
HETATM    8  O1  UNL     1      -2.369   1.718  -0.122  1.00  0.00    -0.247 OA
HETATM    9  N4  UNL     1      -0.151   1.452  -0.346  1.00  0.00    -0.272 N 
ATOM     10  H4  UNL     1      -0.129   2.411  -0.693  1.00  0.00     0.174 HD
HETATM   11  C4  UNL     1       1.055   0.895  -0.131  1.00  0.00     0.293 C 
HETATM   12  O2  UNL     1       2.085   1.626  -0.249  1.00  0.00    -0.264 OA
ENDROOT
BRANCH   1  13
HETATM   13  N1  UNL     1       2.558  -0.641   0.661  1.00  0.00    -0.381 N 
ATOM     14  H12 UNL     1       2.791  -1.601   0.916  1.00  0.00     0.157 HD
ATOM     15  H11 UNL     1       3.197   0.151   0.733  1.00  0.00     0.157 HD
ENDBRANCH   1  13
TORSDOF 1
