REMARK  5 active torsions:
REMARK  status: ('A' for Active; 'I' for Inactive)
REMARK    1  A    between atoms: C5_7  and  C6_8 
REMARK    2  A    between atoms: C6_8  and  C7_9 
REMARK    3  A    between atoms: C8_12  and  N2_13 
REMARK    4  A    between atoms: C9_17  and  S2_18 
REMARK    5  A    between atoms: S2_18  and  C10_19 
ROOT
HETATM    1  C10 UNL     1       3.541  -1.119   2.003  1.00  0.00     0.203 C 
HETATM    2  C11 UNL     1       3.776   0.232   2.474  1.00  0.00     0.069 C 
HETATM    3  N3  UNL     1       3.971   1.296   2.861  1.00  0.00    -0.197 NA
ENDROOT
BRANCH   1   4
HETATM    4  S2  UNL     1       1.988  -1.191   1.090  1.00  0.00    -0.106 SA
BRANCH   4   5
HETATM    5  C9  UNL     1       2.185  -0.207  -0.411  1.00  0.00     0.072 A 
HETATM    6  C7  UNL     1       1.290   0.038  -1.409  1.00  0.00     0.061 A 
HETATM    7  N1  UNL     1       1.686   0.762  -2.430  1.00  0.00    -0.335 N 
HETATM    8  C8  UNL     1       2.936   1.222  -2.437  1.00  0.00     0.143 A 
ATOM      9  H1  UNL     1       1.051   0.968  -3.201  1.00  0.00     0.168 HD
HETATM   10  S1  UNL     1       3.578   0.621  -0.971  1.00  0.00    -0.045 SA
BRANCH   6  11
HETATM   11  C6  UNL     1      -0.071  -0.549  -1.349  1.00  0.00     0.074 C 
BRANCH  11  12
HETATM   12  C5  UNL     1      -0.993  -0.108  -0.513  1.00  0.00     0.149 C 
HETATM   13  C4  UNL     1      -0.981   0.938   0.465  1.00  0.00     0.319 C 
HETATM   14  O1  UNL     1      -2.245   0.958   1.071  1.00  0.00    -0.278 OA
HETATM   15  O2  UNL     1      -0.032   1.714   0.749  1.00  0.00    -0.257 OA
HETATM   16  C2  UNL     1      -2.959  -0.153   0.594  1.00  0.00     0.172 C 
HETATM   17  C1  UNL     1      -3.093  -1.225   1.660  1.00  0.00     0.079 C 
HETATM   18  C3  UNL     1      -4.310   0.288   0.072  1.00  0.00     0.079 C 
HETATM   19  O3  UNL     1      -2.258  -0.698  -0.483  1.00  0.00    -0.308 OA
ENDBRANCH  11  12
ENDBRANCH   6  11
BRANCH   8  20
HETATM   20  N2  UNL     1       3.543   1.961  -3.345  1.00  0.00    -0.380 N 
ATOM     21  H22 UNL     1       3.160   2.320  -4.220  1.00  0.00     0.158 HD
ATOM     22  H21 UNL     1       4.500   2.313  -3.350  1.00  0.00     0.158 HD
ENDBRANCH   8  20
ENDBRANCH   4   5
ENDBRANCH   1   4
TORSDOF 5
