REMARK  7 active torsions:
REMARK  status: ('A' for Active; 'I' for Inactive)
REMARK    1  A    between atoms: C2_2  and  C3_3 
REMARK    2  A    between atoms: C2_2  and  N2_23 
REMARK       I    between atoms: C3_3  and  N1_5 
REMARK    3  A    between atoms: N1_5  and  C4_7 
REMARK    4  A    between atoms: C18_25  and  C19_26 
REMARK    5  A    between atoms: C19_26  and  C20_27 
REMARK    6  A    between atoms: C20_27  and  C21_28 
REMARK    7  A    between atoms: C21_28  and  N3_29 
ROOT
HETATM    1  C3  UNL     1       0.735  -2.388  -0.642  1.00  0.00     0.240 C 
HETATM    2  O1  UNL     1      -0.035  -3.354  -0.887  1.00  0.00    -0.271 OA
HETATM    3  N1  UNL     1       0.164  -1.145  -0.286  1.00  0.00    -0.355 N 
ATOM      4  H1  UNL     1       0.773  -0.351  -0.087  1.00  0.00     0.162 HD
ENDROOT
BRANCH   3   5
HETATM    5  C4  UNL     1      -1.297  -0.979  -0.198  1.00  0.00     0.084 C 
HETATM    6  C5  UNL     1      -1.597  -0.860   1.291  1.00  0.00     0.025 C 
HETATM    7  C6  UNL     1      -2.961  -1.451   1.616  1.00  0.00     0.002 C 
HETATM    8  C7  UNL     1      -3.795  -0.530   2.447  1.00  0.00     0.000 C 
HETATM    9  C8  UNL     1      -5.285  -0.652   2.129  1.00  0.00     0.000 C 
HETATM   10  C9  UNL     1      -5.574  -0.591   0.661  1.00  0.00     0.000 C 
HETATM   11  C10 UNL     1      -6.835   0.125   0.303  1.00  0.00     0.001 C 
HETATM   12  C11 UNL     1      -6.764   1.596   0.298  1.00  0.00     0.015 C 
HETATM   13  C12 UNL     1      -5.487   2.216  -0.161  1.00  0.00     0.140 C 
HETATM   14  S1  UNL     1      -5.294   2.281  -1.906  1.00  0.00     0.144 S 
HETATM   15  O2  UNL     1      -6.173   1.270  -2.625  1.00  0.00    -0.228 OA
HETATM   16  O3  UNL     1      -5.745   3.636  -2.441  1.00  0.00    -0.228 OA
HETATM   17  C13 UNL     1      -3.588   2.066  -2.403  1.00  0.00     0.140 C 
HETATM   18  C14 UNL     1      -3.403   0.649  -2.819  1.00  0.00     0.015 C 
HETATM   19  C15 UNL     1      -2.123   0.007  -2.365  1.00  0.00     0.003 C 
HETATM   20  C16 UNL     1      -1.762   0.251  -0.945  1.00  0.00     0.025 C 
ENDBRANCH   3   5
BRANCH   1  21
HETATM   21  C2  UNL     1       2.194  -2.628  -0.748  1.00  0.00     0.175 C 
HETATM   22  C1  UNL     1       2.618  -3.930  -0.136  1.00  0.00     0.042 C 
BRANCH  21  23
HETATM   23  N2  UNL     1       2.923  -1.493  -0.261  1.00  0.00    -0.338 N 
HETATM   24  C17 UNL     1       3.727  -0.480  -0.879  1.00  0.00     0.141 C 
HETATM   25  C18 UNL     1       4.313  -0.204   0.469  1.00  0.00     0.096 C 
HETATM   26  C23 UNL     1       3.135  -0.899   0.995  1.00  0.00     0.226 C 
HETATM   27  O4  UNL     1       2.495  -0.997   2.085  1.00  0.00    -0.273 OA
BRANCH  25  28
HETATM   28  C19 UNL     1       4.384   1.271   0.837  1.00  0.00     0.017 C 
BRANCH  28  29
HETATM   29  C20 UNL     1       5.249   1.950  -0.206  1.00  0.00     0.020 C 
BRANCH  29  30
HETATM   30  C21 UNL     1       6.637   1.383  -0.244  1.00  0.00     0.122 C 
BRANCH  30  31
HETATM   31  N3  UNL     1       7.323   1.535   1.027  1.00  0.00    -0.367 N 
HETATM   32  C22 UNL     1       8.571   1.292   1.154  1.00  0.00     0.196 C 
HETATM   33  N4  UNL     1       9.208   1.450   2.410  1.00  0.00    -0.067 NA
HETATM   34  N5  UNL     1       9.324   0.864   0.036  1.00  0.00    -0.067 NA
ATOM     35  H3  UNL     1       6.793   1.845   1.842  1.00  0.00     0.161 HD
ENDBRANCH  30  31
ENDBRANCH  29  30
ENDBRANCH  28  29
ENDBRANCH  25  28
ENDBRANCH  21  23
ENDBRANCH   1  21
TORSDOF 7
