REMARK  4 active torsions:
REMARK  status: ('A' for Active; 'I' for Inactive)
REMARK    1  A    between atoms: C2_2  and  C3_3 
REMARK    2  A    between atoms: C3_3  and  S1_4 
REMARK    3  A    between atoms: C3_3  and  C5_6 
REMARK    4  A    between atoms: N3_13  and  C7_14 
ROOT
HETATM    1  C5  UNL     1       0.001  -0.669  -0.087  1.00  0.00     0.114 A 
HETATM    2  N1  UNL     1       0.043  -1.987  -0.260  1.00  0.00    -0.286 N 
ATOM      3  H1  UNL     1       0.902  -2.536  -0.269  1.00  0.00     0.188 HD
HETATM    4  N2  UNL     1      -1.168  -2.498  -0.419  1.00  0.00    -0.275 N 
ATOM      5  H2  UNL     1      -1.413  -3.477  -0.568  1.00  0.00     0.189 HD
HETATM    6  C6  UNL     1      -2.008  -1.446  -0.341  1.00  0.00     0.194 A 
HETATM    7  S2  UNL     1      -3.638  -1.614  -0.485  1.00  0.00    -0.039 SA
HETATM    8  N3  UNL     1      -1.298  -0.322  -0.137  1.00  0.00    -0.306 N 
ENDROOT
BRANCH   1   9
HETATM    9  C3  UNL     1       1.169   0.228   0.121  1.00  0.00     0.115 C 
BRANCH   9  10
HETATM   10  C2  UNL     1       1.824  -0.139   1.441  1.00  0.00     0.018 C 
HETATM   11  C1  UNL     1       2.254  -1.565   1.513  1.00  0.00     0.006 C 
ENDBRANCH   9  10
BRANCH   9  12
HETATM   12  S1  UNL     1       2.355  -0.066  -1.189  1.00  0.00    -0.161 SA
HETATM   13  C4  UNL     1       3.779   1.023  -1.120  1.00  0.00     0.090 C 
ENDBRANCH   9  12
ENDBRANCH   1   9
BRANCH   8  14
HETATM   14  C7  UNL     1      -1.869   0.984  -0.004  1.00  0.00     0.085 C 
HETATM   15  C8  UNL     1      -3.014   0.881   0.985  1.00  0.00     0.032 C 
HETATM   16  C9  UNL     1      -2.400   1.573  -1.259  1.00  0.00     0.032 C 
ENDBRANCH   8  14
TORSDOF 4
