REMARK  5 active torsions:
REMARK  status: ('A' for Active; 'I' for Inactive)
REMARK    1  A    between atoms: S1_2  and  C2_3 
REMARK    2  A    between atoms: C2_3  and  C3_4 
REMARK    3  A    between atoms: C2_3  and  C10_11 
REMARK    4  A    between atoms: C3_4  and  C4_5 
REMARK    5  A    between atoms: C12_15  and  C13_16 
ROOT
HETATM    1  C10 UNL     1      -0.487  -0.891   1.018  1.00  0.00    -0.026 A 
HETATM    2  C11 UNL     1      -0.390   0.114   1.973  1.00  0.00     0.096 A 
HETATM    3  N1  UNL     1       0.777   0.723   1.797  1.00  0.00    -0.365 N 
ATOM      4  H1  UNL     1       1.111   1.503   2.363  1.00  0.00     0.165 HD
HETATM    5  C12 UNL     1       1.460   0.179   0.778  1.00  0.00     0.042 A 
HETATM    6  C19 UNL     1       0.678  -0.833   0.283  1.00  0.00     0.040 A 
ENDROOT
BRANCH   1   7
HETATM    7  C2  UNL     1      -1.635  -1.802   0.892  1.00  0.00     0.085 C 
BRANCH   7   8
HETATM    8  S1  UNL     1      -1.145  -3.541   0.931  1.00  0.00    -0.164 SA
HETATM    9  C1  UNL     1      -0.060  -4.020  -0.406  1.00  0.00     0.090 C 
ENDBRANCH   7   8
BRANCH   7  10
HETATM   10  C3  UNL     1      -2.490  -1.468  -0.300  1.00  0.00     0.058 C 
BRANCH  10  11
HETATM   11  C4  UNL     1      -2.878  -0.039  -0.294  1.00  0.00    -0.057 A 
HETATM   12  C5  UNL     1      -4.031   0.329   0.408  1.00  0.00     0.007 A 
HETATM   13  C6  UNL     1      -4.468   1.621   0.458  1.00  0.00     0.001 A 
HETATM   14  C7  UNL     1      -3.778   2.628  -0.191  1.00  0.00     0.000 A 
HETATM   15  C8  UNL     1      -2.643   2.282  -0.885  1.00  0.00     0.001 A 
HETATM   16  C9  UNL     1      -2.196   0.967  -0.937  1.00  0.00     0.007 A 
ENDBRANCH  10  11
ENDBRANCH   7  10
ENDBRANCH   1   7
BRANCH   5  17
HETATM   17  C13 UNL     1       2.773   0.618   0.328  1.00  0.00    -0.009 A 
HETATM   18  C14 UNL     1       3.439   1.662   0.932  1.00  0.00     0.013 A 
HETATM   19  C15 UNL     1       4.678   2.097   0.528  1.00  0.00     0.001 A 
HETATM   20  C16 UNL     1       5.311   1.482  -0.529  1.00  0.00     0.000 A 
HETATM   21  C17 UNL     1       4.666   0.427  -1.160  1.00  0.00     0.001 A 
HETATM   22  C18 UNL     1       3.416   0.008  -0.731  1.00  0.00     0.013 A 
ENDBRANCH   5  17
TORSDOF 5
