REMARK  5 active torsions:
REMARK  status: ('A' for Active; 'I' for Inactive)
REMARK       I    between atoms: C2_2  and  N1_4 
REMARK    1  A    between atoms: N1_4  and  N2_6 
REMARK    2  A    between atoms: N2_6  and  N3_7 
REMARK    3  A    between atoms: N3_7  and  C3_9 
REMARK    4  A    between atoms: C3_9  and  O2_10 
REMARK    5  A    between atoms: C3_9  and  N4_12 
REMARK       I    between atoms: N4_12  and  C4_14 
ROOT
HETATM    1  N3  UNL     1       0.100   0.902   0.204  1.00  0.00    -0.249 N 
ATOM      2  H3  UNL     1       0.334  -0.064   0.431  1.00  0.00     0.188 HD
ENDROOT
BRANCH   1   3
HETATM    3  N2  UNL     1       1.142   1.758  -0.201  1.00  0.00    -0.017 NA
BRANCH   3   4
HETATM    4  N1  UNL     1       1.958   1.041  -1.079  1.00  0.00    -0.254 N 
HETATM    5  C2  UNL     1       2.764  -0.053  -0.683  1.00  0.00     0.230 C 
HETATM    6  C1  UNL     1       3.626  -0.814  -1.604  1.00  0.00     0.118 C 
HETATM    7  O1  UNL     1       2.757  -0.419   0.542  1.00  0.00    -0.273 OA
ATOM      8  H1  UNL     1       1.974   1.321  -2.060  1.00  0.00     0.187 HD
ENDBRANCH   3   4
ENDBRANCH   1   3
BRANCH   1   9
HETATM    9  C3  UNL     1      -1.247   1.300   0.314  1.00  0.00     0.237 C 
BRANCH   9  10
HETATM   10  O2  UNL     1      -1.434   2.547  -0.016  1.00  0.00    -0.331 OA
ATOM     11  H2  UNL     1      -2.342   2.815   0.058  1.00  0.00     0.221 HD
ENDBRANCH   9  10
BRANCH   9  12
HETATM   12  N4  UNL     1      -2.335   0.527   0.719  1.00  0.00    -0.292 N 
HETATM   13  C4  UNL     1      -2.297  -0.797   1.125  1.00  0.00     0.220 C 
HETATM   14  C5  UNL     1      -3.570  -1.483   1.573  1.00  0.00     0.117 C 
HETATM   15  O3  UNL     1      -1.282  -1.495   1.159  1.00  0.00    -0.274 OA
ATOM     16  H4  UNL     1      -3.248   0.981   0.716  1.00  0.00     0.172 HD
ENDBRANCH   9  12
ENDBRANCH   1   9
TORSDOF 5
