REMARK  3 active torsions:
REMARK  status: ('A' for Active; 'I' for Inactive)
REMARK    1  A    between atoms: N1_1  and  N2_4 
REMARK    2  A    between atoms: N2_4  and  C1_6 
REMARK    3  A    between atoms: C4_15  and  N6_16 
ROOT
HETATM    1  C1  UNL     1       2.131  -0.224  -0.288  1.00  0.00     0.712 A 
HETATM    2  N3  UNL     1       1.208  -1.106  -0.457  1.00  0.00    -0.172 N 
ATOM      3  H3  UNL     1       1.496  -2.051  -0.711  1.00  0.00     0.186 HD
HETATM    4  C2  UNL     1      -0.184  -0.856  -0.314  1.00  0.00     0.154 A 
HETATM    5  N4  UNL     1      -1.116  -1.802  -0.499  1.00  0.00    -0.336 N 
ATOM      6  H4  UNL     1      -0.815  -2.743  -0.753  1.00  0.00     0.168 HD
HETATM    7  C3  UNL     1      -2.430  -1.561  -0.364  1.00  0.00     0.183 A 
HETATM    8  N5  UNL     1      -2.898  -0.350  -0.032  1.00  0.00    -0.337 N 
ATOM      9  H5  UNL     1      -3.900  -0.187   0.067  1.00  0.00     0.168 HD
HETATM   10  C4  UNL     1      -1.998   0.667   0.172  1.00  0.00     0.132 A 
HETATM   11  C5  UNL     1      -0.649   0.418   0.032  1.00  0.00     0.137 A 
HETATM   12  N7  UNL     1       0.370   1.390   0.218  1.00  0.00    -0.280 N 
ATOM     13  H7  UNL     1       0.102   2.341   0.472  1.00  0.00     0.188 HD
HETATM   14  N8  UNL     1       1.738   1.089   0.065  1.00  0.00    -0.130 N 
ATOM     15  H8  UNL     1       2.441   1.814   0.208  1.00  0.00     0.205 HD
ENDROOT
BRANCH   1  16
HETATM   16  N2  UNL     1       3.524  -0.555  -0.450  1.00  0.00    -0.137 N 
ATOM     17  H2  UNL     1       4.092  -0.081  -1.152  1.00  0.00     0.205 HD
BRANCH  16  18
HETATM   18  N1  UNL     1       4.040  -1.461   0.308  1.00  0.00    -0.331 N 
ATOM     19  H12 UNL     1       3.459  -1.926   1.005  1.00  0.00     0.177 HD
ATOM     20  H11 UNL     1       5.026  -1.695   0.193  1.00  0.00     0.177 HD
ENDBRANCH  16  18
ENDBRANCH   1  16
BRANCH  10  21
HETATM   21  N6  UNL     1      -2.427   1.827   0.488  1.00  0.00    -0.383 N 
ATOM     22  H62 UNL     1      -3.425   2.011   0.592  1.00  0.00     0.157 HD
ATOM     23  H61 UNL     1      -1.759   2.582   0.640  1.00  0.00     0.157 HD
ENDBRANCH  10  21
TORSDOF 3
