REMARK  10 active torsions:
REMARK  status: ('A' for Active; 'I' for Inactive)
REMARK    1  A    between atoms: N1_1  and  C1_4 
REMARK    2  A    between atoms: C2_7  and  N3_8 
REMARK    3  A    between atoms: N3_8  and  C3_10 
REMARK    4  A    between atoms: C3_10  and  C4_11 
REMARK    5  A    between atoms: C4_11  and  C5_12 
REMARK    6  A    between atoms: C5_12  and  N4_13 
REMARK    7  A    between atoms: C5_12  and  C6_17 
REMARK    8  A    between atoms: C6_17  and  O1_18 
REMARK    9  A    between atoms: C7_22  and  N6_23 
REMARK   10  A    between atoms: N6_23  and  N7_25 
ROOT
HETATM    1  C1  UNL     1       0.529   2.562   0.006  1.00  0.00     0.705 A 
HETATM    2  N2  UNL     1       1.109   1.368  -0.307  1.00  0.00    -0.022 N 
ATOM      3  H2  UNL     1       2.121   1.321  -0.422  1.00  0.00     0.203 HD
HETATM    4  C2  UNL     1       0.381   0.258  -0.466  1.00  0.00     0.707 A 
HETATM    5  N5  UNL     1      -0.972   0.335  -0.309  1.00  0.00    -0.020 N 
ATOM      6  H5  UNL     1      -1.546  -0.500  -0.426  1.00  0.00     0.203 HD
HETATM    7  C7  UNL     1      -1.548   1.501  -0.002  1.00  0.00     0.725 A 
HETATM    8  N8  UNL     1      -0.808   2.604   0.155  1.00  0.00    -0.020 N 
ATOM      9  H8  UNL     1      -1.262   3.487   0.390  1.00  0.00     0.203 HD
ENDROOT
BRANCH   4  10
HETATM   10  N3  UNL     1       0.910  -0.889  -0.765  1.00  0.00    -0.225 N 
ATOM     11  H3  UNL     1       0.287  -1.690  -0.870  1.00  0.00     0.177 HD
BRANCH  10  12
HETATM   12  C3  UNL     1       2.309  -1.101  -0.956  1.00  0.00     0.140 C 
BRANCH  12  13
HETATM   13  C4  UNL     1       3.009  -1.294   0.355  1.00  0.00     0.055 C 
BRANCH  13  14
HETATM   14  C5  UNL     1       4.488  -1.518   0.164  1.00  0.00     0.208 C 
BRANCH  14  15
HETATM   15  N4  UNL     1       5.090  -1.697   1.493  1.00  0.00    -0.073 N 
ATOM     16  H43 UNL     1       4.885  -0.925   2.128  1.00  0.00     0.274 HD
ATOM     17  H42 UNL     1       4.644  -2.438   2.033  1.00  0.00     0.274 HD
ATOM     18  H41 UNL     1       6.090  -1.849   1.364  1.00  0.00     0.274 HD
ENDBRANCH  14  15
BRANCH  14  19
HETATM   19  C6  UNL     1       5.160  -0.288  -0.427  1.00  0.00     0.197 C 
BRANCH  19  20
HETATM   20  O1  UNL     1       6.530  -0.580  -0.486  1.00  0.00    -0.399 OA
ATOM     21  H1  UNL     1       6.950   0.188  -0.855  1.00  0.00     0.209 HD
ENDBRANCH  19  20
ENDBRANCH  14  19
ENDBRANCH  13  14
ENDBRANCH  12  13
ENDBRANCH  10  12
ENDBRANCH   4  10
BRANCH   1  22
HETATM   22  N1  UNL     1       1.220   3.628   0.160  1.00  0.00    -0.234 N 
ATOM     23  H12 UNL     1       2.233   3.596   0.047  1.00  0.00     0.174 HD
ATOM     24  H11 UNL     1       0.786   4.521   0.394  1.00  0.00     0.174 HD
ENDBRANCH   1  22
BRANCH   7  25
HETATM   25  N6  UNL     1      -2.816   1.557   0.142  1.00  0.00    -0.133 N 
ATOM     26  H6  UNL     1      -3.224   2.462   0.376  1.00  0.00     0.205 HD
BRANCH  25  27
HETATM   27  N7  UNL     1      -3.676   0.485   0.005  1.00  0.00    -0.310 N 
HETATM   28  C8  UNL     1      -4.152   0.109  -1.297  1.00  0.00     0.169 C 
HETATM   29  C9  UNL     1      -5.665   0.153  -1.255  1.00  0.00     0.189 C 
HETATM   30  O2  UNL     1      -6.206  -0.156  -0.033  1.00  0.00    -0.388 OA
HETATM   31  C10 UNL     1      -5.432  -0.928   0.791  1.00  0.00     0.189 C 
HETATM   32  C11 UNL     1      -4.110  -0.271   1.146  1.00  0.00     0.169 C 
ENDBRANCH  25  27
ENDBRANCH   7  25
TORSDOF 10
