REMARK  4 active torsions:
REMARK  status: ('A' for Active; 'I' for Inactive)
REMARK       I    between atoms: C1_2  and  N3_4 
REMARK    1  A    between atoms: N3_4  and  N4_6 
REMARK    2  A    between atoms: N4_6  and  C2_8 
REMARK    3  A    between atoms: C4_10  and  C5_11 
REMARK    4  A    between atoms: N5_12  and  O1_14 
ROOT
HETATM    1  C2  UNL     1       0.326   0.358  -0.211  1.00  0.00     0.126 C 
HETATM    2  C3  UNL     1      -0.867  -0.350   0.183  1.00  0.00     0.077 A 
HETATM    3  C4  UNL     1      -2.025   0.305   0.566  1.00  0.00     0.070 A 
HETATM    4  N6  UNL     1      -3.080  -0.443   0.914  1.00  0.00    -0.306 N 
ATOM      5  H6  UNL     1      -3.942   0.024   1.198  1.00  0.00     0.171 HD
HETATM    6  C6  UNL     1      -3.044  -1.786   0.903  1.00  0.00     0.327 A 
HETATM    7  O2  UNL     1      -4.052  -2.466   1.236  1.00  0.00    -0.247 OA
HETATM    8  N7  UNL     1      -1.945  -2.471   0.540  1.00  0.00    -0.275 N 
ATOM      9  H7  UNL     1      -1.923  -3.491   0.533  1.00  0.00     0.173 HD
HETATM   10  C7  UNL     1      -0.879  -1.737   0.188  1.00  0.00     0.263 A 
HETATM   11  O3  UNL     1       0.163  -2.379  -0.156  1.00  0.00    -0.267 OA
ENDROOT
BRANCH   1  12
HETATM   12  N4  UNL     1       1.367  -0.314  -0.555  1.00  0.00    -0.309 N 
ATOM     13  H4  UNL     1       1.323  -1.333  -0.541  1.00  0.00     0.186 HD
BRANCH  12  14
HETATM   14  N3  UNL     1       2.536   0.294  -0.941  1.00  0.00    -0.276 N 
HETATM   15  C1  UNL     1       3.664  -0.030  -0.412  1.00  0.00     0.215 C 
HETATM   16  N1  UNL     1       4.817   0.660  -0.882  1.00  0.00    -0.065 NA
HETATM   17  N2  UNL     1       3.762  -1.023   0.590  1.00  0.00    -0.065 NA
ATOM     18  H3  UNL     1       2.510   1.016  -1.661  1.00  0.00     0.189 HD
ENDBRANCH  12  14
ENDBRANCH   1  12
BRANCH   3  19
HETATM   19  C5  UNL     1      -2.106   1.758   0.592  1.00  0.00     0.144 C 
HETATM   20  N5  UNL     1      -3.206   2.320   0.955  1.00  0.00    -0.278 N 
ATOM     21  H5  UNL     1      -3.990   1.720   1.213  1.00  0.00     0.193 HD
BRANCH  20  22
HETATM   22  O1  UNL     1      -3.383   3.666   1.014  1.00  0.00    -0.290 OA
ATOM     23  H1  UNL     1      -4.195   4.081   1.282  1.00  0.00     0.244 HD
ENDBRANCH  20  22
ENDBRANCH   3  19
TORSDOF 4
