REMARK  2 active torsions:
REMARK  status: ('A' for Active; 'I' for Inactive)
REMARK    1  A    between atoms: C2_3  and  C3_4 
REMARK    2  A    between atoms: C2_3  and  N3_7 
ROOT
HETATM    1  N3  UNL     1       0.487   0.164   0.103  1.00  0.00    -0.200 N 
HETATM    2  N4  UNL     1       0.913   1.453  -0.023  1.00  0.00    -0.295 N 
ATOM      3  H4  UNL     1       0.196   2.178  -0.040  1.00  0.00     0.187 HD
HETATM    4  C4  UNL     1       2.168   1.849  -0.125  1.00  0.00     0.182 A 
HETATM    5  C5  UNL     1       3.142   0.874  -0.102  1.00  0.00     0.266 A 
HETATM    6  O2  UNL     1       4.339   1.238  -0.197  1.00  0.00    -0.267 OA
HETATM    7  N5  UNL     1       2.755  -0.392   0.020  1.00  0.00    -0.273 N 
ATOM      8  H5  UNL     1       3.467  -1.122   0.038  1.00  0.00     0.173 HD
HETATM    9  C6  UNL     1       1.444  -0.753   0.122  1.00  0.00     0.349 A 
HETATM   10  O3  UNL     1       1.247  -1.961   0.229  1.00  0.00    -0.245 OA
ENDROOT
BRANCH   1  11
HETATM   11  C2  UNL     1      -0.902  -0.072   0.199  1.00  0.00     0.139 C 
HETATM   12  C1  UNL     1      -1.564  -1.153   0.322  1.00  0.00     0.137 C 
HETATM   13  N1  UNL     1      -1.303  -2.517   0.416  1.00  0.00    -0.113 NA
BRANCH  11  14
HETATM   14  C3  UNL     1      -1.754   1.161   0.148  1.00  0.00     0.284 C 
HETATM   15  N2  UNL     1      -3.168   1.076   0.234  1.00  0.00    -0.056 NA
HETATM   16  O1  UNL     1      -1.261   2.294   0.031  1.00  0.00    -0.269 OA
ENDBRANCH  11  14
ENDBRANCH   1  11
TORSDOF 2
