REMARK  3 active torsions:
REMARK  status: ('A' for Active; 'I' for Inactive)
REMARK    1  A    between atoms: C4_6  and  C5_7 
REMARK    2  A    between atoms: C6_10  and  N4_11 
REMARK    3  A    between atoms: N4_11  and  N5_13 
ROOT
HETATM    1  N1  UNL     1      -3.124  -1.841   0.530  1.00  0.00    -0.191 NA
HETATM    2  C1  UNL     1      -2.892  -0.889  -0.133  1.00  0.00     0.111 C 
HETATM    3  C2  UNL     1      -2.631   0.249  -0.958  1.00  0.00     0.128 C 
HETATM    4  C3  UNL     1      -3.689   0.730  -1.833  1.00  0.00     0.111 C 
HETATM    5  N2  UNL     1      -4.532   1.126  -2.533  1.00  0.00    -0.191 NA
HETATM    6  C4  UNL     1      -1.457   0.833  -0.915  1.00  0.00     0.083 C 
ENDROOT
BRANCH   6   7
HETATM    7  C5  UNL     1      -0.327   0.467  -0.099  1.00  0.00     0.138 A 
HETATM    8  N3  UNL     1       0.914   0.402  -0.651  1.00  0.00    -0.174 N 
HETATM    9  C6  UNL     1       1.997   0.085   0.077  1.00  0.00     0.712 A 
ATOM     10  H3  UNL     1       1.025   0.599  -1.645  1.00  0.00     0.186 HD
HETATM   11  N6  UNL     1       1.878  -0.179   1.391  1.00  0.00    -0.021 N 
HETATM   12  C7  UNL     1       0.673  -0.118   1.944  1.00  0.00     0.692 A 
ATOM     13  H6  UNL     1       2.696  -0.421   1.950  1.00  0.00     0.203 HD
HETATM   14  N7  UNL     1       0.544  -0.370   3.204  1.00  0.00    -0.234 N 
HETATM   15  N8  UNL     1      -0.435   0.205   1.202  1.00  0.00    -0.176 N 
ATOM     16  H72 UNL     1       1.368  -0.610   3.756  1.00  0.00     0.174 HD
ATOM     17  H71 UNL     1      -0.382  -0.323   3.629  1.00  0.00     0.174 HD
ATOM     18  H8  UNL     1      -1.350   0.245   1.651  1.00  0.00     0.186 HD
BRANCH   9  19
HETATM   19  N4  UNL     1       3.142   0.037  -0.489  1.00  0.00    -0.138 N 
ATOM     20  H4  UNL     1       3.942  -0.207   0.096  1.00  0.00     0.205 HD
BRANCH  19  21
HETATM   21  N5  UNL     1       3.389   0.287  -1.825  1.00  0.00    -0.331 N 
ATOM     22  H52 UNL     1       2.578   0.529  -2.394  1.00  0.00     0.177 HD
ATOM     23  H51 UNL     1       4.303   0.249  -2.277  1.00  0.00     0.177 HD
ENDBRANCH  19  21
ENDBRANCH   9  19
ENDBRANCH   6   7
TORSDOF 3
