REMARK  4 active torsions:
REMARK  status: ('A' for Active; 'I' for Inactive)
REMARK    1  A    between atoms: N1_1  and  C1_4 
REMARK    2  A    between atoms: N4_12  and  C4_13 
REMARK    3  A    between atoms: C5_14  and  C6_15 
REMARK       I    between atoms: C6_15  and  N5_17 
REMARK    4  A    between atoms: N5_17  and  N6_19 
ROOT
HETATM    1  C1  UNL     1      -1.859   0.321  -0.938  1.00  0.00     0.687 A 
HETATM    2  N2  UNL     1      -3.199   0.294  -1.137  1.00  0.00    -0.187 N 
ATOM      3  H2  UNL     1      -3.577   0.735  -1.975  1.00  0.00     0.185 HD
HETATM    4  C2  UNL     1      -4.049  -0.287  -0.281  1.00  0.00     0.202 A 
HETATM    5  N3  UNL     1      -3.533  -0.861   0.813  1.00  0.00    -0.303 N 
ATOM      6  H3  UNL     1      -4.144  -1.315   1.492  1.00  0.00     0.171 HD
HETATM    7  C3  UNL     1      -2.214  -0.834   1.008  1.00  0.00     0.345 A 
HETATM    8  O1  UNL     1      -1.776  -1.392   2.061  1.00  0.00    -0.246 OA
HETATM    9  N4  UNL     1      -1.338  -0.240   0.134  1.00  0.00    -0.107 N 
ENDROOT
BRANCH   9  10
HETATM   10  C4  UNL     1       0.040  -0.283   0.465  1.00  0.00     0.125 C 
HETATM   11  C5  UNL     1       1.061   0.184  -0.162  1.00  0.00     0.094 C 
BRANCH  11  12
HETATM   12  C6  UNL     1       2.408   0.015   0.380  1.00  0.00     0.260 C 
HETATM   13  O2  UNL     1       2.538  -0.592   1.462  1.00  0.00    -0.267 OA
HETATM   14  N5  UNL     1       3.578   0.499  -0.247  1.00  0.00    -0.273 N 
ATOM     15  H5  UNL     1       3.465   0.995  -1.131  1.00  0.00     0.189 HD
BRANCH  14  16
HETATM   16  N6  UNL     1       4.853   0.356   0.236  1.00  0.00    -0.342 N 
ATOM     17  H62 UNL     1       4.947  -0.143   1.121  1.00  0.00     0.176 HD
ATOM     18  H61 UNL     1       5.698   0.705  -0.217  1.00  0.00     0.176 HD
ENDBRANCH  14  16
ENDBRANCH  11  12
ENDBRANCH   9  10
BRANCH   1  19
HETATM   19  N1  UNL     1      -1.154   0.900  -1.817  1.00  0.00    -0.234 N 
ATOM     20  H12 UNL     1      -1.557   1.334  -2.647  1.00  0.00     0.174 HD
ATOM     21  H11 UNL     1      -0.145   0.920  -1.667  1.00  0.00     0.174 HD
ENDBRANCH   1  19
TORSDOF 4
