REMARK  7 active torsions:
REMARK  status: ('A' for Active; 'I' for Inactive)
REMARK    1  A    between atoms: N1_1  and  C1_4 
REMARK    2  A    between atoms: C2_9  and  C3_10 
REMARK    3  A    between atoms: C3_10  and  N4_11 
REMARK    4  A    between atoms: N4_11  and  C4_12 
REMARK    5  A    between atoms: N4_11  and  C6_24 
REMARK       I    between atoms: N5_13  and  C5_15 
REMARK       I    between atoms: C5_15  and  N6_16 
REMARK       I    between atoms: C5_15  and  N7_20 
REMARK    6  A    between atoms: N7_20  and  N8_21 
REMARK    7  A    between atoms: C6_24  and  C7_25 
ROOT
HETATM    1  N4  UNL     1       0.460   0.532   1.116  1.00  0.00    -0.361 N 
ENDROOT
BRANCH   1   2
HETATM    2  C3  UNL     1       1.803   0.093   1.361  1.00  0.00     0.210 C 
BRANCH   2   3
HETATM    3  C2  UNL     1       2.353  -0.770   0.274  1.00  0.00     0.160 A 
HETATM    4  N3  UNL     1       1.735  -1.317  -0.788  1.00  0.00    -0.279 N 
HETATM    5  N2  UNL     1       2.670  -1.988  -1.437  1.00  0.00    -0.263 N 
ATOM      6  H3  UNL     1       0.750  -1.232  -1.040  1.00  0.00     0.189 HD
HETATM    7  C1  UNL     1       3.846  -1.868  -0.802  1.00  0.00     0.238 A 
ATOM      8  H2  UNL     1       2.520  -2.519  -2.295  1.00  0.00     0.190 HD
HETATM    9  O2  UNL     1       3.618  -1.114   0.245  1.00  0.00    -0.262 OA
BRANCH   7  10
HETATM   10  N1  UNL     1       4.991  -2.399  -1.159  1.00  0.00    -0.364 N 
ATOM     11  H12 UNL     1       5.168  -2.986  -1.974  1.00  0.00     0.159 HD
ATOM     12  H11 UNL     1       5.885  -2.308  -0.676  1.00  0.00     0.159 HD
ENDBRANCH   7  10
ENDBRANCH   2   3
ENDBRANCH   1   2
BRANCH   1  13
HETATM   13  C4  UNL     1      -0.553  -0.412   0.884  1.00  0.00     0.177 C 
HETATM   14  N5  UNL     1      -1.421  -0.291  -0.054  1.00  0.00    -0.345 N 
HETATM   15  C5  UNL     1      -2.466  -1.260  -0.298  1.00  0.00     0.396 C 
ATOM     16  H5  UNL     1      -1.371   0.530  -0.657  1.00  0.00     0.163 HD
HETATM   17  N6  UNL     1      -3.363  -1.423   0.803  1.00  0.00    -0.042 N 
HETATM   18  N7  UNL     1      -3.128  -0.905  -1.533  1.00  0.00    -0.093 NA
ATOM     19  H63 UNL     1      -2.851  -1.652   1.655  1.00  0.00     0.278 HD
ATOM     20  H62 UNL     1      -3.761  -0.526   1.080  1.00  0.00     0.278 HD
ATOM     21  H61 UNL     1      -4.100  -2.107   0.631  1.00  0.00     0.278 HD
BRANCH  18  22
HETATM   22  N8  UNL     1      -3.703   0.355  -1.512  1.00  0.00    -0.345 N 
ATOM     23  H82 UNL     1      -3.655   0.963  -0.694  1.00  0.00     0.172 HD
ATOM     24  H81 UNL     1      -4.170   0.606  -2.383  1.00  0.00     0.172 HD
ENDBRANCH  18  22
ENDBRANCH   1  13
BRANCH   1  25
HETATM   25  C6  UNL     1       0.129   1.929   1.122  1.00  0.00     0.223 C 
BRANCH  25  26
HETATM   26  C7  UNL     1       0.697   2.714   0.019  1.00  0.00     0.248 C 
HETATM   27  N9  UNL     1       0.415   4.101  -0.045  1.00  0.00    -0.061 NA
HETATM   28  O1  UNL     1       1.417   2.185  -0.855  1.00  0.00    -0.275 OA
ENDBRANCH  25  26
ENDBRANCH   1  25
TORSDOF 7
