REMARK  5 active torsions:
REMARK  status: ('A' for Active; 'I' for Inactive)
REMARK    1  A    between atoms: C2_2  and  N1_3 
REMARK    2  A    between atoms: N1_3  and  C3_5 
REMARK    3  A    between atoms: C6_12  and  N4_13 
REMARK    4  A    between atoms: N4_13  and  N5_15 
REMARK    5  A    between atoms: C8_18  and  C9_19 
REMARK       I    between atoms: C9_19  and  N6_21 
ROOT
HETATM    1  C3  UNL     1      -1.537   0.371   0.462  1.00  0.00     0.149 A 
HETATM    2  N2  UNL     1      -1.077  -0.843   0.115  1.00  0.00    -0.323 N 
ATOM      3  H2  UNL     1      -1.743  -1.600  -0.042  1.00  0.00     0.169 HD
HETATM    4  C4  UNL     1       0.242  -1.088  -0.031  1.00  0.00     0.153 A 
HETATM    5  C5  UNL     1       1.161  -0.082   0.176  1.00  0.00     0.114 A 
HETATM    6  N3  UNL     1       0.725   1.126   0.520  1.00  0.00    -0.333 N 
ATOM      7  H3  UNL     1       1.392   1.881   0.677  1.00  0.00     0.168 HD
HETATM    8  C6  UNL     1      -0.615   1.360   0.664  1.00  0.00     0.165 A 
HETATM    9  C8  UNL     1       2.445  -0.596  -0.039  1.00  0.00     0.147 A 
HETATM   10  N7  UNL     1       2.252  -1.882  -0.364  1.00  0.00    -0.290 N 
ATOM     11  H7  UNL     1       2.998  -2.542  -0.583  1.00  0.00     0.187 HD
HETATM   12  N8  UNL     1       0.966  -2.178  -0.362  1.00  0.00    -0.279 N 
HETATM   13  C11 UNL     1       0.362  -3.469  -0.663  1.00  0.00     0.179 C 
ENDROOT
BRANCH   8  14
HETATM   14  N4  UNL     1      -0.959   2.544   0.996  1.00  0.00    -0.287 N 
ATOM     15  H4  UNL     1      -0.227   3.241   1.134  1.00  0.00     0.188 HD
BRANCH  14  16
HETATM   16  N5  UNL     1      -2.271   2.926   1.177  1.00  0.00    -0.339 N 
HETATM   17  C7  UNL     1      -2.988   3.742   0.181  1.00  0.00     0.167 C 
ATOM     18  H5  UNL     1      -2.759   2.636   2.024  1.00  0.00     0.179 HD
ENDBRANCH  14  16
ENDBRANCH   8  14
BRANCH   1  19
HETATM   19  N1  UNL     1      -2.763   0.583   0.593  1.00  0.00    -0.373 N 
ATOM     20  H1  UNL     1      -3.015   1.535   0.857  1.00  0.00     0.161 HD
BRANCH  19  21
HETATM   21  C2  UNL     1      -3.853  -0.309   0.427  1.00  0.00     0.117 C 
HETATM   22  C1  UNL     1      -4.322  -0.460  -0.998  1.00  0.00     0.026 C 
ENDBRANCH  19  21
ENDBRANCH   1  19
BRANCH   9  23
HETATM   23  C9  UNL     1       3.693   0.140   0.077  1.00  0.00     0.271 C 
HETATM   24  O1  UNL     1       3.758   1.351   0.391  1.00  0.00    -0.266 OA
HETATM   25  N6  UNL     1       4.909  -0.549  -0.179  1.00  0.00    -0.360 N 
HETATM   26  C10 UNL     1       6.177   0.105  -0.086  1.00  0.00     0.149 C 
ATOM     27  H6  UNL     1       4.876  -1.536  -0.436  1.00  0.00     0.162 HD
ENDBRANCH   9  23
TORSDOF 5
