REMARK  5 active torsions:
REMARK  status: ('A' for Active; 'I' for Inactive)
REMARK       I    between atoms: C2_2  and  N1_4 
REMARK    1  A    between atoms: N1_4  and  C3_6 
REMARK    2  A    between atoms: C4_9  and  N3_10 
REMARK    3  A    between atoms: C6_16  and  C7_17 
REMARK    4  A    between atoms: N6_19  and  S1_21 
REMARK    5  A    between atoms: S1_21  and  N7_23 
ROOT
HETATM    1  C3  UNL     1      -1.326   0.785   0.258  1.00  0.00     0.138 A 
HETATM    2  N2  UNL     1      -2.555   1.330   0.418  1.00  0.00    -0.176 N 
ATOM      3  H2  UNL     1      -3.113   1.098   1.240  1.00  0.00     0.186 HD
HETATM    4  C4  UNL     1      -3.043   2.181  -0.511  1.00  0.00     0.677 A 
HETATM    5  N4  UNL     1      -2.314   2.480  -1.578  1.00  0.00    -0.201 N 
ATOM      6  H4  UNL     1      -2.691   3.124  -2.274  1.00  0.00     0.183 HD
HETATM    7  C5  UNL     1      -1.088   1.954  -1.765  1.00  0.00     0.124 A 
HETATM    8  C6  UNL     1      -0.539   1.080  -0.851  1.00  0.00     0.066 A 
ENDROOT
BRANCH   8   9
HETATM    9  C7  UNL     1       0.776   0.497  -1.021  1.00  0.00     0.139 C 
HETATM   10  N5  UNL     1       1.538   0.826  -2.163  1.00  0.00    -0.081 NA
HETATM   11  N6  UNL     1       1.225  -0.288  -0.163  1.00  0.00    -0.289 N 
ATOM     12  H6  UNL     1       0.486  -0.347   0.537  1.00  0.00     0.178 HD
BRANCH  11  13
HETATM   13  S1  UNL     1       2.430  -1.295   0.420  1.00  0.00     0.101 S 
HETATM   14  C8  UNL     1       3.691  -0.946  -0.901  1.00  0.00     0.160 C 
HETATM   15  O2  UNL     1       3.804  -0.668   1.695  1.00  0.00    -0.229 OA
BRANCH  13  16
HETATM   16  N7  UNL     1       2.611  -3.193   0.201  1.00  0.00    -0.345 N 
ATOM     17  H72 UNL     1       1.868  -3.630  -0.344  1.00  0.00     0.167 HD
ATOM     18  H71 UNL     1       3.345  -3.806   0.556  1.00  0.00     0.167 HD
ENDBRANCH  13  16
ENDBRANCH  11  13
ENDBRANCH   8   9
BRANCH   1  19
HETATM   19  N1  UNL     1      -0.838  -0.027   1.126  1.00  0.00    -0.312 N 
HETATM   20  C2  UNL     1      -1.597  -0.363   2.277  1.00  0.00     0.219 C 
HETATM   21  C1  UNL     1      -2.226  -1.718   2.322  1.00  0.00     0.117 C 
HETATM   22  O1  UNL     1      -1.769   0.410   3.251  1.00  0.00    -0.274 OA
ATOM     23  H1  UNL     1       0.090  -0.428   0.989  1.00  0.00     0.170 HD
ENDBRANCH   1  19
BRANCH   4  24
HETATM   24  N3  UNL     1      -4.222   2.655  -0.282  1.00  0.00    -0.234 N 
ATOM     25  H32 UNL     1      -4.783   2.425   0.539  1.00  0.00     0.174 HD
ATOM     26  H31 UNL     1      -4.590   3.297  -0.983  1.00  0.00     0.174 HD
ENDBRANCH   4  24
TORSDOF 5
