REMARK  7 active torsions:
REMARK  status: ('A' for Active; 'I' for Inactive)
REMARK    1  A    between atoms: C2_2  and  S1_3 
REMARK    2  A    between atoms: S1_3  and  C3_4 
REMARK    3  A    between atoms: C4_7  and  N2_8 
REMARK    4  A    between atoms: C5_13  and  N4_14 
REMARK    5  A    between atoms: C7_17  and  C8_18 
REMARK    6  A    between atoms: N5_19  and  N6_21 
REMARK    7  A    between atoms: N6_21  and  C9_23 
ROOT
HETATM    1  C3  UNL     1      -2.270   0.396  -0.589  1.00  0.00     0.101 A 
HETATM    2  N1  UNL     1      -3.481   0.294  -0.061  1.00  0.00    -0.185 N 
ATOM      3  H1  UNL     1      -4.158   1.027  -0.274  1.00  0.00     0.185 HD
HETATM    4  C4  UNL     1      -3.875  -0.717   0.740  1.00  0.00     0.678 A 
HETATM    5  N3  UNL     1      -2.994  -1.680   1.021  1.00  0.00    -0.176 N 
ATOM      6  H3  UNL     1      -3.273  -2.453   1.625  1.00  0.00     0.186 HD
HETATM    7  C5  UNL     1      -1.750  -1.650   0.524  1.00  0.00     0.131 A 
HETATM    8  C7  UNL     1      -1.366  -0.605  -0.294  1.00  0.00     0.059 A 
ENDROOT
BRANCH   8   9
HETATM    9  C8  UNL     1      -0.008  -0.580  -0.827  1.00  0.00     0.125 C 
HETATM   10  N5  UNL     1       0.824  -1.519  -0.543  1.00  0.00    -0.297 N 
ATOM     11  H5  UNL     1       0.519  -2.282   0.061  1.00  0.00     0.186 HD
BRANCH  10  12
HETATM   12  N6  UNL     1       2.118  -1.529  -1.029  1.00  0.00    -0.133 N 
ATOM     13  H6  UNL     1       2.327  -2.086  -1.857  1.00  0.00     0.205 HD
BRANCH  12  14
HETATM   14  C9  UNL     1       3.168  -0.792  -0.418  1.00  0.00     0.688 C 
HETATM   15  N7  UNL     1       4.207  -1.429   0.030  1.00  0.00    -0.225 N 
HETATM   16  C10 UNL     1       5.236  -0.587   0.643  1.00  0.00     0.139 C 
ATOM     17  H7  UNL     1       4.300  -2.442  -0.040  1.00  0.00     0.177 HD
HETATM   18  C11 UNL     1       5.474   0.546  -0.361  1.00  0.00     0.040 C 
HETATM   19  C12 UNL     1       4.267   1.441  -0.399  1.00  0.00     0.139 C 
HETATM   20  N8  UNL     1       3.068   0.624  -0.302  1.00  0.00    -0.225 N 
ATOM     21  H8  UNL     1       2.160   1.063  -0.152  1.00  0.00     0.177 HD
ENDBRANCH  12  14
ENDBRANCH  10  12
ENDBRANCH   8   9
BRANCH   1  22
HETATM   22  S1  UNL     1      -1.756   1.738  -1.642  1.00  0.00    -0.111 SA
BRANCH  22  23
HETATM   23  C2  UNL     1      -2.992   3.002  -1.871  1.00  0.00     0.076 C 
HETATM   24  C1  UNL     1      -3.244   3.783  -0.624  1.00  0.00     0.016 C 
ENDBRANCH  22  23
ENDBRANCH   1  22
BRANCH   7  25
HETATM   25  N4  UNL     1      -0.912  -2.611   0.820  1.00  0.00    -0.379 N 
HETATM   26  C6  UNL     1      -1.332  -3.690   1.673  1.00  0.00     0.147 C 
ATOM     27  H4  UNL     1       0.037  -2.595   0.446  1.00  0.00     0.160 HD
ENDBRANCH   7  25
BRANCH   4  28
HETATM   28  N2  UNL     1      -5.076  -0.746   1.222  1.00  0.00    -0.234 N 
ATOM     29  H22 UNL     1      -5.749  -0.010   1.007  1.00  0.00     0.174 HD
ATOM     30  H21 UNL     1      -5.374  -1.511   1.828  1.00  0.00     0.174 HD
ENDBRANCH   4  28
TORSDOF 7
