REMARK  2 active torsions:
REMARK  status: ('A' for Active; 'I' for Inactive)
REMARK    1  A    between atoms: C2_3  and  C3_4 
REMARK    2  A    between atoms: C6_10  and  N3_11 
ROOT
HETATM    1  N1  UNL     1       3.239  -0.165   1.817  1.00  0.00    -0.197 NA
HETATM    2  C1  UNL     1       2.716  -0.014   0.793  1.00  0.00     0.065 C 
HETATM    3  C2  UNL     1       2.052   0.157  -0.500  1.00  0.00     0.181 C 
ENDROOT
BRANCH   3   4
HETATM    4  C3  UNL     1       0.583   0.157  -0.249  1.00  0.00     0.044 A 
HETATM    5  C4  UNL     1      -0.041   1.355   0.008  1.00  0.00     0.101 A 
HETATM    6  C5  UNL     1      -1.399   1.363   0.242  1.00  0.00     0.261 A 
HETATM    7  O1  UNL     1      -1.957   2.479   0.477  1.00  0.00    -0.268 OA
HETATM    8  N2  UNL     1      -2.128   0.239   0.225  1.00  0.00    -0.156 N 
HETATM    9  C6  UNL     1      -1.471  -0.920  -0.033  1.00  0.00     0.678 A 
ATOM     10  H2  UNL     1      -3.133   0.254   0.398  1.00  0.00     0.187 HD
HETATM   11  N4  UNL     1      -0.147  -0.962  -0.265  1.00  0.00    -0.195 N 
ATOM     12  H4  UNL     1       0.304  -1.857  -0.455  1.00  0.00     0.184 HD
BRANCH   9  13
HETATM   13  N3  UNL     1      -2.170  -1.985  -0.048  1.00  0.00    -0.234 N 
ATOM     14  H32 UNL     1      -3.174  -1.953   0.128  1.00  0.00     0.174 HD
ATOM     15  H31 UNL     1      -1.676  -2.856  -0.242  1.00  0.00     0.174 HD
ENDBRANCH   9  13
ENDBRANCH   3   4
TORSDOF 2
