REMARK  3 active torsions:
REMARK  status: ('A' for Active; 'I' for Inactive)
REMARK    1  A    between atoms: C1_2  and  C2_3 
REMARK       I    between atoms: C1_2  and  N1_7 
REMARK    2  A    between atoms: C2_3  and  C3_4 
REMARK    3  A    between atoms: N1_7  and  C6_9 
ROOT
HETATM    1  C6  UNL     1      -0.165  -0.309   0.514  1.00  0.00     0.115 C 
HETATM    2  C7  UNL     1      -0.861   0.239   1.691  1.00  0.00     0.032 C 
HETATM    3  C8  UNL     1      -2.342   0.254   1.701  1.00  0.00    -0.010 C 
HETATM    4  C9  UNL     1      -2.949   1.321   0.826  1.00  0.00     0.009 C 
HETATM    5  C10 UNL     1      -3.114   0.864  -0.603  1.00  0.00    -0.010 C 
HETATM    6  C11 UNL     1      -3.881  -0.430  -0.706  1.00  0.00     0.037 C 
HETATM    7  C12 UNL     1      -3.088  -1.479   0.039  1.00  0.00     0.187 C 
HETATM    8  C13 UNL     1      -2.993  -1.076   1.471  1.00  0.00     0.037 C 
HETATM    9  N2  UNL     1      -1.802  -1.721  -0.571  1.00  0.00    -0.065 N 
ATOM     10  H21 UNL     1      -1.908  -2.194  -1.468  1.00  0.00     0.278 HD
ATOM     11  H22 UNL     1      -1.288  -2.441  -0.063  1.00  0.00     0.278 HD
HETATM   12  C14 UNL     1      -1.010  -0.527  -0.711  1.00  0.00     0.209 C 
HETATM   13  C15 UNL     1      -1.758   0.670  -1.183  1.00  0.00     0.040 C 
ENDROOT
BRANCH   1  14
HETATM   14  N1  UNL     1       0.948   0.518   0.119  1.00  0.00    -0.354 N 
HETATM   15  C1  UNL     1       2.254  -0.023   0.136  1.00  0.00     0.218 C 
HETATM   16  O1  UNL     1       2.414  -1.212   0.495  1.00  0.00    -0.274 OA
ATOM     17  H1  UNL     1       0.795   1.484  -0.170  1.00  0.00     0.162 HD
BRANCH  15  18
HETATM   18  C2  UNL     1       3.446   0.790  -0.264  1.00  0.00     0.107 C 
BRANCH  18  19
HETATM   19  C3  UNL     1       4.671  -0.052  -0.142  1.00  0.00    -0.006 A 
HETATM   20  C4  UNL     1       6.017   0.467  -0.467  1.00  0.00     0.005 A 
HETATM   21  C5  UNL     1       5.321  -0.437  -1.456  1.00  0.00     0.005 A 
ENDBRANCH  18  19
ENDBRANCH  15  18
ENDBRANCH   1  14
TORSDOF 3
