REMARK  4 active torsions:
REMARK  status: ('A' for Active; 'I' for Inactive)
REMARK    1  A    between atoms: N1_2  and  C2_5 
REMARK    2  A    between atoms: C2_5  and  C3_6 
REMARK    3  A    between atoms: C3_6  and  N2_7 
REMARK    4  A    between atoms: N2_7  and  C4_10 
ROOT
HETATM    1  N2  UNL     1      -0.012  -0.553  -0.087  1.00  0.00    -0.068 N 
ATOM      2  H21 UNL     1       0.352  -1.500   0.016  1.00  0.00     0.277 HD
ATOM      3  H22 UNL     1       0.036  -0.521  -1.105  1.00  0.00     0.277 HD
ENDROOT
BRANCH   1   4
HETATM    4  C3  UNL     1       0.785   0.457   0.570  1.00  0.00     0.260 C 
BRANCH   4   5
HETATM    5  C2  UNL     1       2.172   0.614   0.106  1.00  0.00     0.259 C 
BRANCH   5   6
HETATM    6  N1  UNL     1       3.053  -0.496   0.219  1.00  0.00    -0.077 N 
HETATM    7  C1  UNL     1       4.431  -0.113  -0.106  1.00  0.00     0.267 C 
ATOM      8  H12 UNL     1       2.739  -1.284  -0.348  1.00  0.00     0.276 HD
ATOM      9  H11 UNL     1       2.992  -0.932   1.139  1.00  0.00     0.276 HD
ENDBRANCH   5   6
ENDBRANCH   4   5
ENDBRANCH   1   4
BRANCH   1  10
HETATM   10  C4  UNL     1      -1.353  -0.375   0.447  1.00  0.00     0.213 C 
HETATM   11  C5  UNL     1      -2.383  -1.336  -0.023  1.00  0.00     0.062 C 
HETATM   12  C6  UNL     1      -3.649  -0.520   0.303  1.00  0.00     0.234 C 
HETATM   13  N3  UNL     1      -3.308   0.726  -0.384  1.00  0.00    -0.073 N 
HETATM   14  C7  UNL     1      -1.949   0.958   0.052  1.00  0.00     0.265 C 
ATOM     15  H32 UNL     1      -3.438   0.708  -1.396  1.00  0.00     0.277 HD
ATOM     16  H31 UNL     1      -3.951   1.499  -0.216  1.00  0.00     0.277 HD
ENDBRANCH   1  10
TORSDOF 4
