REMARK  11 active torsions:
REMARK  status: ('A' for Active; 'I' for Inactive)
REMARK    1  A    between atoms: C2_2  and  C4_5 
REMARK    2  A    between atoms: C4_5  and  O1_6 
REMARK    3  A    between atoms: C4_5  and  N1_8 
REMARK    4  A    between atoms: N1_8  and  C5_9 
REMARK    5  A    between atoms: N1_8  and  C8_12 
REMARK    6  A    between atoms: C12_16  and  N2_17 
REMARK    7  A    between atoms: C14_19  and  O2_20 
REMARK    8  A    between atoms: C17_27  and  O4_28 
REMARK    9  A    between atoms: C19_31  and  C20_32 
REMARK   10  A    between atoms: C20_32  and  C21_33 
REMARK   11  A    between atoms: C21_33  and  N4_36 
REMARK       I    between atoms: N4_36  and  C22_38 
ROOT
HETATM    1  C8  UNL     1      -0.790  -0.374   0.949  1.00  0.00     0.004 C 
HETATM    2  C9  UNL     1      -0.920  -1.882   1.079  1.00  0.00     0.058 C 
HETATM    3  C10 UNL     1      -0.363  -2.691  -0.025  1.00  0.00    -0.004 C 
HETATM    4  C11 UNL     1       1.138  -2.890   0.099  1.00  0.00     0.036 C 
HETATM    5  C12 UNL     1       1.917  -1.696  -0.333  1.00  0.00     0.045 C 
HETATM    6  C16 UNL     1       1.587  -1.122  -1.662  1.00  0.00     0.070 C 
HETATM    7  C17 UNL     1       0.096  -0.804  -1.405  1.00  0.00     0.074 C 
HETATM    8  C18 UNL     1      -0.556  -2.100  -1.390  1.00  0.00     0.044 C 
HETATM    9  C19 UNL     1       0.144  -0.003  -0.075  1.00  0.00     0.039 C 
HETATM   10  C23 UNL     1       1.534  -0.476   0.489  1.00  0.00     0.050 C 
ENDROOT
BRANCH   1  11
HETATM   11  N1  UNL     1      -1.963   0.298   1.480  1.00  0.00    -0.330 N 
BRANCH  11  12
HETATM   12  C4  UNL     1      -3.193   0.575   0.898  1.00  0.00     0.158 C 
BRANCH  12  13
HETATM   13  C2  UNL     1      -3.840   0.361  -0.394  1.00  0.00     0.160 C 
HETATM   14  C1  UNL     1      -4.219  -1.034  -0.756  1.00  0.00     0.060 C 
HETATM   15  C3  UNL     1      -5.226   1.097  -0.382  1.00  0.00     0.060 C 
HETATM   16  F1  UNL     1      -3.256   0.970  -1.475  1.00  0.00    -0.235 F 
ENDBRANCH  12  13
BRANCH  12  17
HETATM   17  O1  UNL     1      -4.030   1.188   1.698  1.00  0.00    -0.347 OA
ATOM     18  H1  UNL     1      -3.609   1.327   2.538  1.00  0.00     0.219 HD
ENDBRANCH  12  17
ENDBRANCH  11  12
BRANCH  11  19
HETATM   19  C5  UNL     1      -1.895   0.685   2.918  1.00  0.00     0.091 A 
HETATM   20  C6  UNL     1      -2.919   0.517   3.894  1.00  0.00     0.028 A 
HETATM   21  C7  UNL     1      -2.416   1.873   3.549  1.00  0.00     0.028 A 
ENDBRANCH  11  19
ENDBRANCH   1  11
BRANCH   9  22
HETATM   22  C20 UNL     1       0.331   1.377  -0.560  1.00  0.00     0.122 C 
BRANCH  22  23
HETATM   23  C21 UNL     1       0.731   2.553   0.210  1.00  0.00     0.324 C 
HETATM   24  F2  UNL     1       1.976   2.437   0.871  1.00  0.00    -0.183 F 
HETATM   25  F3  UNL     1      -0.189   3.100   1.079  1.00  0.00    -0.183 F 
BRANCH  23  26
HETATM   26  N4  UNL     1       1.006   3.607  -0.709  1.00  0.00    -0.305 N 
HETATM   27  C22 UNL     1       1.314   4.127  -1.699  1.00  0.00     0.201 C 
HETATM   28  N5  UNL     1       1.731   3.506  -2.945  1.00  0.00    -0.067 NA
HETATM   29  N6  UNL     1       1.322   5.587  -1.818  1.00  0.00    -0.067 NA
ATOM     30  H4  UNL     1       0.803   4.420  -0.127  1.00  0.00     0.167 HD
ENDBRANCH  23  26
ENDBRANCH  22  23
ENDBRANCH   9  22
BRANCH   7  31
HETATM   31  O4  UNL     1      -0.244   0.019  -2.477  1.00  0.00    -0.389 OA
ATOM     32  H4  UNL     1      -1.160   0.214  -2.319  1.00  0.00     0.210 HD
ENDBRANCH   7  31
BRANCH   5  33
HETATM   33  N2  UNL     1       3.313  -1.992  -0.222  1.00  0.00    -0.296 N 
HETATM   34  C13 UNL     1       3.991  -2.436   0.866  1.00  0.00     0.152 A 
HETATM   35  C14 UNL     1       5.313  -2.592   0.552  1.00  0.00     0.160 A 
HETATM   36  N3  UNL     1       5.425  -2.242  -0.721  1.00  0.00    -0.288 N 
HETATM   37  C15 UNL     1       4.216  -1.878  -1.192  1.00  0.00     0.329 A 
ATOM     38  H3  UNL     1       6.291  -2.247  -1.260  1.00  0.00     0.172 HD
HETATM   39  O3  UNL     1       4.104  -1.505  -2.403  1.00  0.00    -0.246 OA
BRANCH  35  40
HETATM   40  O2  UNL     1       6.342  -3.022   1.361  1.00  0.00    -0.345 OA
ATOM     41  H2  UNL     1       7.260  -3.130   1.143  1.00  0.00     0.219 HD
ENDBRANCH  35  40
ENDBRANCH   5  33
TORSDOF 11
