REMARK  5 active torsions:
REMARK  status: ('A' for Active; 'I' for Inactive)
REMARK    1  A    between atoms: N2_4  and  N3_6 
REMARK    2  A    between atoms: C1_8  and  C2_9 
REMARK    3  A    between atoms: C3_13  and  C4_14 
REMARK    4  A    between atoms: C4_14  and  C5_15 
REMARK    5  A    between atoms: C5_15  and  C6_16 
ROOT
HETATM    1  C2  UNL     1      -1.048  -0.670   0.799  1.00  0.00     0.256 A 
HETATM    2  N4  UNL     1       0.073  -1.491   0.462  1.00  0.00    -0.058 N 
ATOM      3  H41 UNL     1       0.237  -2.283  -0.159  1.00  0.00     0.278 HD
ATOM      4  H42 UNL     1       0.621  -2.209   0.937  1.00  0.00     0.278 HD
HETATM    5  C3  UNL     1       0.139  -0.010   0.338  1.00  0.00     0.222 A 
ENDROOT
BRANCH   1   6
HETATM    6  C1  UNL     1      -2.236  -0.702  -0.094  1.00  0.00     0.116 C 
HETATM    7  N3  UNL     1      -3.184   0.163   0.035  1.00  0.00    -0.300 N 
ATOM      8  H3  UNL     1      -3.095   0.869   0.766  1.00  0.00     0.187 HD
BRANCH   7   9
HETATM    9  N2  UNL     1      -4.315   0.187  -0.763  1.00  0.00    -0.250 N 
HETATM   10  N1  UNL     1      -4.764   1.269  -1.242  1.00  0.00    -0.331 N 
ATOM     11  H12 UNL     1      -4.269   2.134  -1.025  1.00  0.00     0.178 HD
ATOM     12  H11 UNL     1      -5.597   1.287  -1.830  1.00  0.00     0.178 HD
ATOM     13  H2  UNL     1      -4.798  -0.688  -0.970  1.00  0.00     0.207 HD
ENDBRANCH   7   9
ENDBRANCH   1   6
BRANCH   5  14
HETATM   14  C4  UNL     1       1.192   0.588   1.214  1.00  0.00     0.041 C 
BRANCH  14  15
HETATM   15  C5  UNL     1       2.280   1.189   0.351  1.00  0.00     0.046 C 
BRANCH  15  16
HETATM   16  C6  UNL     1       2.857   0.103  -0.479  1.00  0.00     0.052 C 
HETATM   17  N5  UNL     1       3.279   0.340  -1.656  1.00  0.00    -0.411 N 
ATOM     18  H52 UNL     1       3.213   1.292  -2.017  1.00  0.00     0.155 HD
ATOM     19  H51 UNL     1       3.676  -0.407  -2.227  1.00  0.00     0.155 HD
ENDBRANCH  15  16
ENDBRANCH  14  15
ENDBRANCH   5  14
TORSDOF 5
