REMARK  5 active torsions:
REMARK  status: ('A' for Active; 'I' for Inactive)
REMARK    1  A    between atoms: O1_1  and  N1_3 
REMARK    2  A    between atoms: C1_5  and  N2_6 
REMARK    3  A    between atoms: C1_5  and  O2_13 
REMARK    4  A    between atoms: N2_6  and  C2_8 
REMARK    5  A    between atoms: O2_13  and  C6_14 
ROOT
HETATM    1  N1  UNL     1       1.029   0.681  -1.123  1.00  0.00    -0.232 N 
ATOM      2  H1  UNL     1       1.881   0.732  -1.681  1.00  0.00     0.198 HD
HETATM    3  C1  UNL     1       0.902  -0.273  -0.269  1.00  0.00     0.245 C 
ENDROOT
BRANCH   3   4
HETATM    4  N2  UNL     1       1.933  -1.259  -0.089  1.00  0.00    -0.315 N 
ATOM      5  H2  UNL     1       1.734  -2.252  -0.208  1.00  0.00     0.170 HD
BRANCH   4   6
HETATM    6  C2  UNL     1       3.259  -0.806   0.265  1.00  0.00     0.076 A 
HETATM    7  C3  UNL     1       4.372  -1.576   0.480  1.00  0.00     0.038 A 
HETATM    8  C4  UNL     1       5.509  -0.931   0.802  1.00  0.00     0.010 A 
HETATM    9  C5  UNL     1       5.459   0.430   0.886  1.00  0.00     0.052 A 
HETATM   10  S1  UNL     1       3.835   0.779   0.517  1.00  0.00    -0.084 SA
ENDBRANCH   4   6
ENDBRANCH   3   4
BRANCH   3  11
HETATM   11  O2  UNL     1      -0.228  -0.352   0.479  1.00  0.00    -0.308 OA
BRANCH  11  12
HETATM   12  C6  UNL     1      -1.505   0.033  -0.076  1.00  0.00     0.079 A 
HETATM   13  C7  UNL     1      -1.932  -0.708  -1.223  1.00  0.00     0.047 A 
HETATM   14  C8  UNL     1      -2.607  -1.089   0.019  1.00  0.00     0.024 A 
HETATM   15  C9  UNL     1      -3.886  -0.324   0.413  1.00  0.00     0.012 C 
HETATM   16  C10 UNL     1      -3.532   1.038  -0.001  1.00  0.00    -0.007 A 
HETATM   17  C11 UNL     1      -2.957   2.158   0.642  1.00  0.00     0.013 A 
HETATM   18  C12 UNL     1      -2.169   1.002   0.793  1.00  0.00     0.026 A 
ENDBRANCH  11  12
ENDBRANCH   3  11
BRANCH   1  19
HETATM   19  O1  UNL     1       0.064   1.626  -1.308  1.00  0.00    -0.287 OA
ATOM     20  H1  UNL     1       0.158   2.330  -1.939  1.00  0.00     0.244 HD
ENDBRANCH   1  19
TORSDOF 5
