REMARK  8 active torsions:
REMARK  status: ('A' for Active; 'I' for Inactive)
REMARK    1  A    between atoms: C4_5  and  N2_6 
REMARK    2  A    between atoms: N2_6  and  C5_8 
REMARK    3  A    between atoms: C5_8  and  C6_9 
REMARK    4  A    between atoms: C6_9  and  N3_10 
REMARK    5  A    between atoms: N3_10  and  C7_13 
REMARK    6  A    between atoms: C7_13  and  C8_14 
REMARK    7  A    between atoms: C8_14  and  N4_15 
REMARK    8  A    between atoms: N4_15  and  C9_17 
ROOT
HETATM    1  C7  UNL     1      -0.454   1.012  -0.078  1.00  0.00     0.252 C 
ENDROOT
BRANCH   1   2
HETATM    2  N3  UNL     1      -1.117  -0.227  -0.358  1.00  0.00    -0.072 N 
ATOM      3  H32 UNL     1      -0.454  -0.921  -0.704  1.00  0.00     0.277 HD
ATOM      4  H31 UNL     1      -1.715  -0.139  -1.180  1.00  0.00     0.277 HD
BRANCH   2   5
HETATM    5  C6  UNL     1      -1.869  -0.752   0.771  1.00  0.00     0.251 C 
BRANCH   5   6
HETATM    6  C5  UNL     1      -2.498  -2.041   0.293  1.00  0.00     0.147 C 
BRANCH   6   7
HETATM    7  N2  UNL     1      -3.360  -1.763  -0.810  1.00  0.00    -0.388 N 
ATOM      8  H2  UNL     1      -3.106  -2.089  -1.743  1.00  0.00     0.159 HD
BRANCH   7   9
HETATM    9  C4  UNL     1      -4.566  -1.039  -0.624  1.00  0.00     0.028 A 
HETATM   10  C3  UNL     1      -5.080  -0.781   0.629  1.00  0.00     0.031 A 
HETATM   11  C2  UNL     1      -6.253  -0.066   0.796  1.00  0.00     0.029 A 
HETATM   12  C1  UNL     1      -6.965   0.422  -0.275  1.00  0.00     0.046 A 
HETATM   13  N1  UNL     1      -8.175   1.156  -0.081  1.00  0.00    -0.102 NA
HETATM   14  C16 UNL     1      -6.458   0.167  -1.536  1.00  0.00     0.029 A 
HETATM   15  C15 UNL     1      -5.289  -0.544  -1.707  1.00  0.00     0.031 A 
ENDBRANCH   7   9
ENDBRANCH   6   7
ENDBRANCH   5   6
ENDBRANCH   2   5
ENDBRANCH   1   2
BRANCH   1  16
HETATM   16  C8  UNL     1       0.291   1.409  -1.360  1.00  0.00     0.150 C 
BRANCH  16  17
HETATM   17  N4  UNL     1       1.229   0.347  -1.657  1.00  0.00    -0.355 N 
ATOM     18  H4  UNL     1       1.092  -0.244  -2.477  1.00  0.00     0.163 HD
BRANCH  17  19
HETATM   19  C9  UNL     1       2.372   0.128  -0.775  1.00  0.00     0.215 A 
HETATM   20  N5  UNL     1       3.574   0.445  -1.040  1.00  0.00    -0.344 N 
HETATM   21  C10 UNL     1       4.488   0.112   0.009  1.00  0.00     0.071 A 
ATOM     22  H5  UNL     1       3.858   0.891  -1.912  1.00  0.00     0.164 HD
HETATM   23  C11 UNL     1       5.206   1.331   0.510  1.00  0.00     0.055 C 
HETATM   24  C13 UNL     1       5.402  -0.962  -0.529  1.00  0.00     0.167 C 
HETATM   25  C14 UNL     1       3.564  -0.465   1.052  1.00  0.00     0.211 A 
HETATM   26  C12 UNL     1       6.647   1.411   0.245  1.00  0.00     0.138 C 
HETATM   27  N6  UNL     1       7.349   0.178   0.091  1.00  0.00    -0.340 N 
HETATM   28  N7  UNL     1       6.596  -0.957   0.250  1.00  0.00    -0.143 NA
ATOM     29  H6  UNL     1       8.346   0.143  -0.123  1.00  0.00     0.175 HD
HETATM   30  O1  UNL     1       2.298  -0.452   0.462  1.00  0.00    -0.320 OA
ENDBRANCH  17  19
ENDBRANCH  16  17
ENDBRANCH   1  16
TORSDOF 8
