REMARK  11 active torsions:
REMARK  status: ('A' for Active; 'I' for Inactive)
REMARK    1  A    between atoms: C2_2  and  N1_3 
REMARK    2  A    between atoms: N1_3  and  C3_5 
REMARK    3  A    between atoms: C4_6  and  O1_7 
REMARK    4  A    between atoms: O1_7  and  C5_8 
REMARK    5  A    between atoms: C7_10  and  O2_11 
REMARK    6  A    between atoms: C8_13  and  C9_14 
REMARK    7  A    between atoms: C9_14  and  O3_15 
REMARK    8  A    between atoms: C10_21  and  C11_22 
REMARK    9  A    between atoms: C11_22  and  S1_23 
REMARK   10  A    between atoms: S1_23  and  C12_24 
REMARK   11  A    between atoms: C14_26  and  O5_27 
ROOT
HETATM    1  C3  UNL     1      -0.653   1.121  -1.106  1.00  0.00     0.164 C 
HETATM    2  C4  UNL     1      -0.320   0.025  -0.114  1.00  0.00     0.348 C 
HETATM    3  N2  UNL     1      -1.329   0.122   0.924  1.00  0.00    -0.039 N 
ATOM      4  H21 UNL     1      -1.065   0.738   1.693  1.00  0.00     0.280 HD
ATOM      5  H22 UNL     1      -1.428  -0.729   1.477  1.00  0.00     0.280 HD
HETATM    6  C10 UNL     1      -2.549   0.522   0.255  1.00  0.00     0.228 C 
HETATM    7  C14 UNL     1      -2.135   1.318  -0.952  1.00  0.00     0.176 C 
ENDROOT
BRANCH   2   8
HETATM    8  O1  UNL     1       0.967   0.191   0.308  1.00  0.00    -0.327 OA
BRANCH   8   9
HETATM    9  C5  UNL     1       1.790  -0.889   0.117  1.00  0.00     0.265 C 
HETATM   10  C6  UNL     1       2.404  -1.277   1.427  1.00  0.00     0.095 C 
HETATM   11  C7  UNL     1       3.889  -1.241   1.151  1.00  0.00     0.154 C 
HETATM   12  C8  UNL     1       3.936  -1.274  -0.348  1.00  0.00     0.177 C 
HETATM   13  O4  UNL     1       2.825  -0.533  -0.736  1.00  0.00    -0.351 OA
BRANCH  11  14
HETATM   14  O2  UNL     1       4.557  -2.316   1.728  1.00  0.00    -0.393 OA
ATOM     15  H2  UNL     1       5.491  -2.293   1.554  1.00  0.00     0.210 HD
ENDBRANCH  11  14
BRANCH  12  16
HETATM   16  C9  UNL     1       5.224  -0.675  -0.867  1.00  0.00     0.198 C 
BRANCH  16  17
HETATM   17  O3  UNL     1       5.385   0.620  -0.380  1.00  0.00    -0.398 OA
ATOM     18  H3  UNL     1       6.194   0.996  -0.706  1.00  0.00     0.209 HD
ENDBRANCH  16  17
ENDBRANCH  12  16
ENDBRANCH   8   9
ENDBRANCH   2   8
BRANCH   1  19
HETATM   19  N1  UNL     1       0.163   2.252  -0.973  1.00  0.00    -0.411 N 
ATOM     20  H1  UNL     1       0.769   2.528  -1.746  1.00  0.00     0.153 HD
BRANCH  19  21
HETATM   21  C2  UNL     1       0.159   3.009   0.205  1.00  0.00     0.110 C 
HETATM   22  C1  UNL     1       1.157   4.165   0.006  1.00  0.00     0.026 C 
ENDBRANCH  19  21
ENDBRANCH   1  19
BRANCH   7  23
HETATM   23  O5  UNL     1      -2.550   2.630  -0.936  1.00  0.00    -0.391 OA
ATOM     24  H5  UNL     1      -3.487   2.755  -0.839  1.00  0.00     0.210 HD
ENDBRANCH   7  23
BRANCH   6  25
HETATM   25  C11 UNL     1      -3.370  -0.669  -0.180  1.00  0.00     0.109 C 
BRANCH  25  26
HETATM   26  S1  UNL     1      -3.862  -1.718   1.186  1.00  0.00    -0.167 SA
BRANCH  26  27
HETATM   27  C12 UNL     1      -4.816  -3.105   0.511  1.00  0.00     0.069 C 
HETATM   28  C13 UNL     1      -6.126  -2.633  -0.087  1.00  0.00     0.016 C 
ENDBRANCH  26  27
ENDBRANCH  25  26
ENDBRANCH   6  25
TORSDOF 11
