REMARK  8 active torsions:
REMARK  status: ('A' for Active; 'I' for Inactive)
REMARK       I    between atoms: N1_2  and  C2_4 
REMARK    1  A    between atoms: C2_4  and  O2_6 
REMARK    2  A    between atoms: O2_6  and  C3_7 
REMARK    3  A    between atoms: C3_7  and  C4_8 
REMARK    4  A    between atoms: C4_8  and  C5_9 
REMARK    5  A    between atoms: C5_9  and  O4_11 
REMARK    6  A    between atoms: O4_11  and  C6_12 
REMARK    7  A    between atoms: C11_20  and  C12_21 
REMARK    8  A    between atoms: C12_21  and  N3_22 
REMARK       I    between atoms: N3_22  and  C13_24 
ROOT
HETATM    1  C4  UNL     1      -0.868   0.040   0.200  1.00  0.00     0.237 C 
HETATM    2  N2  UNL     1      -0.801  -0.263  -1.161  1.00  0.00    -0.054 N 
ATOM      3  H21 UNL     1      -0.593   0.549  -1.743  1.00  0.00     0.278 HD
ATOM      4  H22 UNL     1      -1.710  -0.485  -1.568  1.00  0.00     0.278 HD
HETATM    5  C9  UNL     1       0.156  -1.321  -1.307  1.00  0.00     0.239 C 
HETATM    6  C10 UNL     1       1.079  -1.255  -0.134  1.00  0.00     0.024 C 
HETATM    7  C11 UNL     1       2.502  -0.920  -0.604  1.00  0.00     0.010 C 
HETATM    8  C14 UNL     1       2.311   0.454  -1.173  1.00  0.00     0.007 C 
HETATM    9  C15 UNL     1       1.375   1.099  -0.195  1.00  0.00     0.008 C 
HETATM   10  C16 UNL     1       0.641   0.008   0.557  1.00  0.00     0.040 C 
ENDROOT
BRANCH   1  11
HETATM   11  C3  UNL     1      -1.596   1.152   0.787  1.00  0.00     0.230 C 
BRANCH  11  12
HETATM   12  O2  UNL     1      -1.509   2.464   0.478  1.00  0.00    -0.301 OA
BRANCH  12  13
HETATM   13  C2  UNL     1      -1.975   3.202  -0.564  1.00  0.00     0.360 C 
HETATM   14  N1  UNL     1      -1.768   4.613  -0.702  1.00  0.00    -0.341 N 
HETATM   15  C1  UNL     1      -2.313   5.382  -1.774  1.00  0.00     0.151 C 
ATOM     16  H1  UNL     1      -1.204   5.091   0.000  1.00  0.00     0.164 HD
HETATM   17  O1  UNL     1      -2.632   2.619  -1.450  1.00  0.00    -0.239 OA
ENDBRANCH  12  13
ENDBRANCH  11  12
ENDBRANCH   1  11
BRANCH   1  18
HETATM   18  C5  UNL     1      -1.437  -1.231   0.889  1.00  0.00     0.298 C 
HETATM   19  O3  UNL     1      -0.760  -1.894   1.627  1.00  0.00    -0.262 OA
BRANCH  18  20
HETATM   20  O4  UNL     1      -2.733  -1.560   0.614  1.00  0.00    -0.315 OA
BRANCH  20  21
HETATM   21  C6  UNL     1      -3.534  -2.572   1.084  1.00  0.00     0.123 C 
HETATM   22  C7  UNL     1      -3.416  -3.760   0.007  1.00  0.00     0.040 C 
HETATM   23  C8  UNL     1      -5.000  -2.237   1.050  1.00  0.00     0.040 C 
ENDBRANCH  20  21
ENDBRANCH  18  20
ENDBRANCH   1  18
BRANCH   7  24
HETATM   24  C12 UNL     1       3.385  -0.814   0.629  1.00  0.00     0.129 C 
BRANCH  24  25
HETATM   25  N3  UNL     1       4.730  -0.497   0.250  1.00  0.00    -0.345 N 
HETATM   26  C13 UNL     1       5.732  -0.369   1.279  1.00  0.00     0.328 C 
HETATM   27  N4  UNL     1       7.066  -0.053   0.906  1.00  0.00    -0.040 NA
HETATM   28  O5  UNL     1       5.450  -0.527   2.481  1.00  0.00    -0.251 OA
ATOM     29  H3  UNL     1       4.975  -0.364  -0.731  1.00  0.00     0.163 HD
ENDBRANCH  24  25
ENDBRANCH   7  24
TORSDOF 8
