REMARK  13 active torsions:
REMARK  status: ('A' for Active; 'I' for Inactive)
REMARK    1  A    between atoms: N2_3  and  C2_5 
REMARK    2  A    between atoms: C2_5  and  C3_6 
REMARK    3  A    between atoms: C2_5  and  C17_45 
REMARK    4  A    between atoms: N5_11  and  C4_12 
REMARK    5  A    between atoms: C4_12  and  C5_13 
REMARK       I    between atoms: C5_13  and  N6_15 
REMARK    6  A    between atoms: N6_15  and  C6_17 
REMARK    7  A    between atoms: C11_22  and  O2_23 
REMARK    8  A    between atoms: C12_25  and  N7_26 
REMARK    9  A    between atoms: C14_32  and  N10_33 
REMARK   10  A    between atoms: C15_38  and  N12_39 
REMARK   11  A    between atoms: C17_45  and  O3_46 
REMARK   12  A    between atoms: C17_45  and  C18_48 
REMARK   13  A    between atoms: C18_48  and  O4_49 
ROOT
HETATM    1  N1  UNL     1      -5.285  -0.772   2.353  1.00  0.00    -0.172 NA
HETATM    2  C1  UNL     1      -4.278  -0.955   1.770  1.00  0.00     0.178 C 
HETATM    3  N2  UNL     1      -3.067  -1.158   1.094  1.00  0.00    -0.316 N 
ATOM      4  H2  UNL     1      -2.189  -1.241   1.606  1.00  0.00     0.172 HD
ENDROOT
BRANCH   3   5
HETATM    5  C2  UNL     1      -3.095  -1.246  -0.337  1.00  0.00     0.178 C 
BRANCH   5   6
HETATM    6  C3  UNL     1      -1.830  -1.128  -1.041  1.00  0.00     0.100 A 
HETATM    7  N3  UNL     1      -1.431  -1.876  -2.114  1.00  0.00    -0.284 N 
HETATM    8  N4  UNL     1      -0.237  -1.485  -2.514  1.00  0.00    -0.238 N 
ATOM      9  H3  UNL     1      -1.976  -2.625  -2.541  1.00  0.00     0.188 HD
HETATM   10  N5  UNL     1       0.193  -0.486  -1.742  1.00  0.00    -0.250 N 
ATOM     11  H4  UNL     1       0.280  -1.886  -3.296  1.00  0.00     0.208 HD
HETATM   12  C12 UNL     1      -0.792  -0.254  -0.818  1.00  0.00     0.175 A 
BRANCH  10  13
HETATM   13  C4  UNL     1       1.424   0.242  -1.805  1.00  0.00     0.255 C 
BRANCH  13  14
HETATM   14  C5  UNL     1       2.454  -0.446  -0.959  1.00  0.00     0.242 C 
HETATM   15  O1  UNL     1       2.087  -1.476  -0.386  1.00  0.00    -0.271 OA
HETATM   16  N6  UNL     1       3.742   0.123  -0.880  1.00  0.00    -0.323 N 
ATOM     17  H6  UNL     1       3.879   0.979  -1.418  1.00  0.00     0.169 HD
BRANCH  16  18
HETATM   18  C6  UNL     1       4.857  -0.325  -0.166  1.00  0.00     0.068 A 
HETATM   19  C7  UNL     1       4.826  -1.467   0.622  1.00  0.00     0.032 A 
HETATM   20  C8  UNL     1       5.956  -1.853   1.301  1.00  0.00     0.002 A 
HETATM   21  C9  UNL     1       7.122  -1.135   1.221  1.00  0.00     0.003 A 
HETATM   22  C10 UNL     1       7.174  -0.019   0.460  1.00  0.00     0.039 A 
HETATM   23  C11 UNL     1       6.052   0.399  -0.239  1.00  0.00     0.092 A 
BRANCH  23  24
HETATM   24  O2  UNL     1       6.159   1.522  -0.986  1.00  0.00    -0.358 OA
ATOM     25  H2  UNL     1       6.970   2.014  -1.036  1.00  0.00     0.217 HD
ENDBRANCH  23  24
ENDBRANCH  16  18
ENDBRANCH  13  14
ENDBRANCH  10  13
BRANCH  12  26
HETATM   26  N7  UNL     1      -0.770   0.730   0.203  1.00  0.00    -0.203 N 
HETATM   27  N8  UNL     1      -0.043   0.790   1.305  1.00  0.00    -0.232 N 
HETATM   28  N9  UNL     1      -0.298   1.860   2.001  1.00  0.00    -0.279 N 
ATOM     29  H8  UNL     1       0.638   0.081   1.578  1.00  0.00     0.209 HD
HETATM   30  C13 UNL     1      -1.244   2.571   1.349  1.00  0.00     0.140 A 
ATOM     31  H9  UNL     1       0.140   2.117   2.885  1.00  0.00     0.189 HD
HETATM   32  C14 UNL     1      -1.860   3.755   1.639  1.00  0.00     0.147 A 
HETATM   33  C16 UNL     1      -1.536   1.830   0.196  1.00  0.00     0.177 A 
HETATM   34  N11 UNL     1      -2.778   4.210   0.771  1.00  0.00    -0.175 N 
HETATM   35  C15 UNL     1      -3.089   3.518  -0.361  1.00  0.00     0.679 A 
ATOM     36  H11 UNL     1      -3.253   5.092   0.963  1.00  0.00     0.186 HD
HETATM   37  N13 UNL     1      -2.462   2.357  -0.610  1.00  0.00    -0.172 N 
ATOM     38  H13 UNL     1      -2.706   1.850  -1.461  1.00  0.00     0.186 HD
BRANCH  32  39
HETATM   39  N10 UNL     1      -1.538   4.377   2.716  1.00  0.00    -0.383 N 
ATOM     40 2H10 UNL     1      -0.841   4.031   3.375  1.00  0.00     0.157 HD
ATOM     41 1H10 UNL     1      -1.998   5.261   2.933  1.00  0.00     0.157 HD
ENDBRANCH  32  39
BRANCH  35  42
HETATM   42  N12 UNL     1      -3.973   3.950  -1.203  1.00  0.00    -0.234 N 
ATOM     43 2H12 UNL     1      -4.449   4.832  -1.014  1.00  0.00     0.174 HD
ATOM     44 1H12 UNL     1      -4.206   3.432  -2.050  1.00  0.00     0.174 HD
ENDBRANCH  35  42
ENDBRANCH  12  26
ENDBRANCH   5   6
BRANCH   5  45
HETATM   45  C17 UNL     1      -3.925  -2.448  -0.724  1.00  0.00     0.171 C 
BRANCH  45  46
HETATM   46  O3  UNL     1      -5.265  -2.224  -0.278  1.00  0.00    -0.391 OA
ATOM     47  H3  UNL     1      -5.787  -2.980  -0.521  1.00  0.00     0.210 HD
ENDBRANCH  45  46
BRANCH  45  48
HETATM   48  C18 UNL     1      -3.443  -3.738  -0.094  1.00  0.00     0.198 C 
BRANCH  48  49
HETATM   49  O4  UNL     1      -2.162  -4.105  -0.423  1.00  0.00    -0.398 OA
ATOM     50  H4  UNL     1      -1.860  -4.914  -0.028  1.00  0.00     0.209 HD
ENDBRANCH  48  49
ENDBRANCH  45  48
ENDBRANCH   5  45
ENDBRANCH   3   5
TORSDOF 13
