REMARK  1 active torsions:
REMARK  status: ('A' for Active; 'I' for Inactive)
REMARK    1  A    between atoms: N1_2  and  C2_5 
ROOT
HETATM    1  C2  UNL     1       0.815  -0.354   0.159  1.00  0.00     0.424 C 
HETATM    2  C3  UNL     1      -0.404  -0.613   0.996  1.00  0.00     0.067 C 
HETATM    3  C4  UNL     1      -1.207  -1.515   0.065  1.00  0.00     0.040 C 
HETATM    4  C5  UNL     1      -0.619  -1.247  -1.307  1.00  0.00     0.275 C 
HETATM    5  N2  UNL     1       0.252  -0.085  -1.132  1.00  0.00     0.120 N 
HETATM    6  C6  UNL     1      -0.578   1.082  -1.194  1.00  0.00     0.276 C 
HETATM    7  C7  UNL     1      -1.644   1.145  -0.139  1.00  0.00     0.051 C 
HETATM    8  C8  UNL     1      -1.119   0.698   1.196  1.00  0.00     0.092 C 
HETATM    9 CL1  UNL     1      -2.415   0.451   2.375  1.00  0.00    -0.124 Cl
ENDROOT
BRANCH   1  10
HETATM   10  N1  UNL     1       1.687   0.658   0.666  1.00  0.00    -0.047 N 
HETATM   11  C1  UNL     1       3.052   0.210   0.441  1.00  0.00     0.269 C 
ATOM     12  H12 UNL     1       1.501   0.892   1.641  1.00  0.00     0.279 HD
ATOM     13  H11 UNL     1       1.500   1.579   0.270  1.00  0.00     0.279 HD
ENDBRANCH   1  10
TORSDOF 1
