REMARK  2 active torsions:
REMARK  status: ('A' for Active; 'I' for Inactive)
REMARK    1  A    between atoms: C1_2  and  C2_3 
REMARK    2  A    between atoms: C1_2  and  N1_5 
ROOT
HETATM    1  N1  UNL     1       0.354  -0.031  -0.503  1.00  0.00    -0.351 N 
HETATM    2  C3  UNL     1      -0.325  -1.151   0.100  1.00  0.00     0.127 C 
HETATM    3  C4  UNL     1      -1.543  -0.722   0.902  1.00  0.00     0.047 C 
HETATM    4  C5  UNL     1      -1.716   0.759   0.617  1.00  0.00     0.236 C 
HETATM    5  N2  UNL     1      -1.769   0.870  -0.834  1.00  0.00    -0.059 N 
ATOM      6  H21 UNL     1      -2.308   1.676  -1.151  1.00  0.00     0.279 HD
ATOM      7  H22 UNL     1      -2.343   0.146  -1.267  1.00  0.00     0.279 HD
HETATM    8  C6  UNL     1      -0.420   0.876  -1.319  1.00  0.00     0.357 C 
ENDROOT
BRANCH   1   9
HETATM    9  C1  UNL     1       1.755   0.222  -0.329  1.00  0.00     0.090 C 
HETATM   10  S1  UNL     1       2.456   1.510  -1.042  1.00  0.00    -0.064 SA
BRANCH   9  11
HETATM   11  C2  UNL     1       2.590  -0.673   0.493  1.00  0.00     0.184 C 
HETATM   12 CL1  UNL     1       4.257  -0.084   0.501  1.00  0.00    -0.123 Cl
ENDBRANCH   9  11
ENDBRANCH   1   9
TORSDOF 2
