REMARK  4 active torsions:
REMARK  status: ('A' for Active; 'I' for Inactive)
REMARK    1  A    between atoms: N1_1  and  C1_4 
REMARK    2  A    between atoms: C2_7  and  N3_8 
REMARK    3  A    between atoms: C4_10  and  C5_11 
REMARK       I    between atoms: C5_11  and  N4_13 
REMARK       I    between atoms: N4_13  and  C6_15 
REMARK       I    between atoms: C6_15  and  N5_16 
REMARK       I    between atoms: C6_15  and  N6_20 
REMARK    4  A    between atoms: C8_29  and  N9_30 
ROOT
HETATM    1  N3  UNL     1      -1.281  -0.493  -0.036  1.00  0.00    -0.096 N 
HETATM    2  C3  UNL     1      -0.287   0.362   0.207  1.00  0.00     0.153 A 
HETATM    3  C4  UNL     1       0.896  -0.301   0.051  1.00  0.00     0.067 A 
HETATM    4  C7  UNL     1       0.598  -1.595  -0.297  1.00  0.00     0.126 A 
HETATM    5  N7  UNL     1      -0.741  -1.657  -0.336  1.00  0.00    -0.290 N 
ATOM      6  H7  UNL     1      -1.272  -2.496  -0.568  1.00  0.00     0.187 HD
ENDROOT
BRANCH   1   7
HETATM    7  C2  UNL     1      -2.671  -0.168   0.028  1.00  0.00     0.732 A 
HETATM    8  N2  UNL     1      -3.601  -1.119   0.207  1.00  0.00    -0.020 N 
HETATM    9  C1  UNL     1      -4.926  -0.806   0.267  1.00  0.00     0.705 A 
ATOM     10  H2  UNL     1      -3.311  -2.093   0.300  1.00  0.00     0.203 HD
HETATM   11  N10 UNL     1      -5.332   0.476   0.147  1.00  0.00    -0.022 N 
HETATM   12  C8  UNL     1      -4.405   1.429  -0.032  1.00  0.00     0.705 A 
ATOM     13  H10 UNL     1      -6.323   0.715   0.192  1.00  0.00     0.203 HD
HETATM   14  N8  UNL     1      -3.103   1.100  -0.089  1.00  0.00    -0.020 N 
ATOM     15  H8  UNL     1      -2.416   1.841  -0.226  1.00  0.00     0.203 HD
BRANCH   9  16
HETATM   16  N1  UNL     1      -5.814  -1.728   0.440  1.00  0.00    -0.234 N 
ATOM     17  H12 UNL     1      -5.507  -2.697   0.531  1.00  0.00     0.174 HD
ATOM     18  H11 UNL     1      -6.806  -1.494   0.485  1.00  0.00     0.174 HD
ENDBRANCH   9  16
BRANCH  12  19
HETATM   19  N9  UNL     1      -4.796   2.647  -0.146  1.00  0.00    -0.234 N 
ATOM     20  H92 UNL     1      -4.091   3.372  -0.282  1.00  0.00     0.174 HD
ATOM     21  H91 UNL     1      -5.784   2.897  -0.103  1.00  0.00     0.174 HD
ENDBRANCH  12  19
ENDBRANCH   1   7
BRANCH   3  22
HETATM   22  C5  UNL     1       2.239   0.272   0.225  1.00  0.00     0.257 C 
HETATM   23  O1  UNL     1       2.360   1.481   0.547  1.00  0.00    -0.267 OA
HETATM   24  N4  UNL     1       3.384  -0.515   0.034  1.00  0.00    -0.307 N 
HETATM   25  C6  UNL     1       4.689   0.063   0.209  1.00  0.00     0.483 C 
ATOM     26  H4  UNL     1       3.291  -1.496  -0.229  1.00  0.00     0.166 HD
HETATM   27  N5  UNL     1       5.337  -0.650   1.305  1.00  0.00    -0.033 N 
HETATM   28  N6  UNL     1       5.430  -0.087  -1.026  1.00  0.00    -0.033 N 
ATOM     29  H53 UNL     1       4.784  -0.652   2.162  1.00  0.00     0.278 HD
ATOM     30  H52 UNL     1       5.364  -1.660   1.163  1.00  0.00     0.278 HD
ATOM     31  H51 UNL     1       6.263  -0.240   1.429  1.00  0.00     0.278 HD
ATOM     32  H63 UNL     1       5.471  -1.056  -1.342  1.00  0.00     0.278 HD
ATOM     33  H62 UNL     1       4.935   0.302  -1.829  1.00  0.00     0.278 HD
ATOM     34  H61 UNL     1       6.356   0.323  -0.902  1.00  0.00     0.278 HD
ENDBRANCH   3  22
TORSDOF 4
