REMARK  11 active torsions:
REMARK  status: ('A' for Active; 'I' for Inactive)
REMARK    1  A    between atoms: C2_2  and  O1_3 
REMARK    2  A    between atoms: O1_3  and  C3_4 
REMARK    3  A    between atoms: C3_4  and  O2_5 
REMARK    4  A    between atoms: C5_10  and  O3_11 
REMARK    5  A    between atoms: C9_16  and  N2_17 
REMARK    6  A    between atoms: N2_17  and  N3_19 
REMARK    7  A    between atoms: N3_19  and  O4_20 
REMARK    8  A    between atoms: N3_19  and  C10_22 
REMARK    9  A    between atoms: C13_29  and  N7_30 
REMARK   10  A    between atoms: N7_30  and  N8_31 
REMARK   11  A    between atoms: C14_34  and  C15_35 
ROOT
HETATM    1  N2  UNL     1      -0.083  -0.782   0.160  1.00  0.00    -0.267 N 
ATOM      2  H2  UNL     1      -0.042  -0.255   1.032  1.00  0.00     0.190 HD
ENDROOT
BRANCH   1   3
HETATM    3  C9  UNL     1      -1.149  -1.680  -0.087  1.00  0.00     0.133 A 
HETATM    4  C8  UNL     1      -2.418  -1.476  -0.340  1.00  0.00     0.056 A 
HETATM    5  C4  UNL     1      -3.167  -0.336  -0.454  1.00  0.00     0.107 A 
HETATM    6  C7  UNL     1      -3.021  -2.737  -0.509  1.00  0.00     0.054 A 
HETATM    7  C3  UNL     1      -2.773   0.885  -0.298  1.00  0.00     0.206 C 
HETATM    8  N1  UNL     1      -4.507  -0.537  -0.740  1.00  0.00    -0.332 N 
HETATM    9  C5  UNL     1      -5.082  -1.708  -0.900  1.00  0.00     0.142 A 
ATOM     10  H1  UNL     1      -5.095   0.291  -0.834  1.00  0.00     0.168 HD
HETATM   11  C6  UNL     1      -4.362  -2.861  -0.791  1.00  0.00     0.086 A 
HETATM   12  N9  UNL     1      -2.073  -3.779  -0.349  1.00  0.00    -0.321 N 
HETATM   13  C16 UNL     1      -0.852  -3.143  -0.076  1.00  0.00     0.275 A 
ATOM     14  H9  UNL     1      -2.243  -4.782  -0.418  1.00  0.00     0.169 HD
HETATM   15  O7  UNL     1       0.224  -3.712   0.125  1.00  0.00    -0.266 OA
BRANCH   7  16
HETATM   16  O1  UNL     1      -3.812   1.858  -0.447  1.00  0.00    -0.329 OA
BRANCH  16  17
HETATM   17  C2  UNL     1      -4.740   2.079   0.569  1.00  0.00     0.173 C 
HETATM   18  C1  UNL     1      -4.132   2.513   1.874  1.00  0.00     0.034 C 
ENDBRANCH  16  17
ENDBRANCH   7  16
BRANCH   7  19
HETATM   19  O2  UNL     1      -1.600   1.501  -0.022  1.00  0.00    -0.339 OA
ATOM     20  H2  UNL     1      -0.910   0.855   0.077  1.00  0.00     0.220 HD
ENDBRANCH   7  19
BRANCH   9  21
HETATM   21  O3  UNL     1      -6.434  -1.793  -1.184  1.00  0.00    -0.346 OA
ATOM     22  H3  UNL     1      -6.850  -2.639  -1.300  1.00  0.00     0.219 HD
ENDBRANCH   9  21
ENDBRANCH   1   3
BRANCH   1  23
HETATM   23  N3  UNL     1       0.896  -0.631  -0.792  1.00  0.00    -0.144 N 
BRANCH  23  24
HETATM   24  O4  UNL     1       0.421  -0.289  -1.977  1.00  0.00    -0.266 OA
ATOM     25  H4  UNL     1       1.098  -0.185  -2.635  1.00  0.00     0.247 HD
ENDBRANCH  23  24
BRANCH  23  26
HETATM   26  C10 UNL     1       2.068   0.043  -0.455  1.00  0.00     0.173 A 
HETATM   27  N4  UNL     1       2.012   1.384  -0.349  1.00  0.00    -0.325 N 
HETATM   28  C11 UNL     1       3.071   2.149  -0.062  1.00  0.00     0.145 A 
ATOM     29  H4  UNL     1       1.112   1.842  -0.496  1.00  0.00     0.169 HD
HETATM   30  N5  UNL     1       2.925   3.568   0.041  1.00  0.00    -0.081 NA
HETATM   31  C12 UNL     1       4.296   1.581   0.141  1.00  0.00     0.131 A 
HETATM   32  N6  UNL     1       5.469   2.336   0.453  1.00  0.00    -0.095 NA
HETATM   33  C13 UNL     1       4.432   0.172   0.044  1.00  0.00     0.179 A 
HETATM   34  C14 UNL     1       3.274  -0.567  -0.259  1.00  0.00     0.133 A 
BRANCH  33  35
HETATM   35  N7  UNL     1       5.506  -0.325   0.205  1.00  0.00    -0.330 NA
BRANCH  35  36
HETATM   36  N8  UNL     1       6.633  -0.899   0.370  1.00  0.00    -0.280 N 
ATOM     37  H82 UNL     1       5.836  -1.505   0.177  1.00  0.00     0.191 HD
ATOM     38  H81 UNL     1       7.550  -1.323   0.508  1.00  0.00     0.191 HD
ENDBRANCH  35  36
ENDBRANCH  33  35
BRANCH  34  39
HETATM   39  C15 UNL     1       3.447  -1.993  -0.335  1.00  0.00     0.217 C 
HETATM   40  O5  UNL     1       3.338  -2.728   0.678  1.00  0.00    -0.644 OA
HETATM   41  O6  UNL     1       3.743  -2.595  -1.547  1.00  0.00    -0.644 OA
ENDBRANCH  34  39
ENDBRANCH  23  26
ENDBRANCH   1  23
TORSDOF 11
