REMARK  8 active torsions:
REMARK  status: ('A' for Active; 'I' for Inactive)
REMARK    1  A    between atoms: C2_3  and  N2_4 
REMARK    2  A    between atoms: C5_14  and  N5_15 
REMARK    3  A    between atoms: C7_17  and  C8_18 
REMARK    4  A    between atoms: C8_18  and  N6_19 
REMARK    5  A    between atoms: N6_19  and  C9_21 
REMARK    6  A    between atoms: C9_21  and  C12_24 
REMARK    7  A    between atoms: C14_28  and  S1_29 
REMARK    8  A    between atoms: S1_29  and  N8_30 
ROOT
HETATM    1  N5  UNL     1      -2.183  -1.133   0.394  1.00  0.00    -0.081 N 
HETATM    2  C6  UNL     1      -1.123  -0.429  -0.022  1.00  0.00     0.164 A 
HETATM    3  C7  UNL     1       0.008  -1.269   0.008  1.00  0.00     0.062 A 
HETATM    4  N10 UNL     1      -0.457  -2.437   0.456  1.00  0.00    -0.287 N 
ATOM      5  H10 UNL     1       0.108  -3.273   0.601  1.00  0.00     0.188 HD
HETATM    6  N11 UNL     1      -1.775  -2.352   0.688  1.00  0.00    -0.222 N 
ATOM      7  H11 UNL     1      -2.366  -3.107   1.035  1.00  0.00     0.209 HD
ENDROOT
BRANCH   3   8
HETATM    8  C8  UNL     1       1.347  -0.832  -0.458  1.00  0.00     0.175 C 
BRANCH   8   9
HETATM    9  N6  UNL     1       1.801   0.259   0.325  1.00  0.00    -0.402 N 
ATOM     10  H6  UNL     1       1.293   0.578   1.150  1.00  0.00     0.154 HD
BRANCH   9  11
HETATM   11  C9  UNL     1       2.997   0.881  -0.102  1.00  0.00     0.077 C 
HETATM   12  C10 UNL     1       3.169   2.192   0.664  1.00  0.00     0.046 C 
HETATM   13  C11 UNL     1       2.906   1.321  -1.576  1.00  0.00     0.046 C 
BRANCH  11  14
HETATM   14  C12 UNL     1       4.243   0.104  -0.009  1.00  0.00     0.110 A 
HETATM   15  N7  UNL     1       4.464  -1.195  -0.313  1.00  0.00    -0.351 N 
HETATM   16  C13 UNL     1       5.732  -1.532  -0.178  1.00  0.00     0.133 A 
ATOM     17  H7  UNL     1       3.733  -1.841  -0.613  1.00  0.00     0.166 HD
HETATM   18  C14 UNL     1       6.376  -0.395   0.236  1.00  0.00     0.165 A 
HETATM   19  N9  UNL     1       5.475   0.571   0.335  1.00  0.00    -0.332 N 
ATOM     20  H9  UNL     1       5.675   1.528   0.627  1.00  0.00     0.168 HD
BRANCH  18  21
HETATM   21  S1  UNL     1       8.106  -0.335   0.470  1.00  0.00     0.273 S 
HETATM   22  O2  UNL     1       8.419   1.131   0.795  1.00  0.00    -0.199 OA
HETATM   23  O3  UNL     1       8.806  -0.705  -0.808  1.00  0.00    -0.199 OA
BRANCH  21  24
HETATM   24  N8  UNL     1       8.637  -1.301   1.806  1.00  0.00    -0.323 N 
ATOM     25  H82 UNL     1       7.995  -1.842   2.385  1.00  0.00     0.169 HD
ATOM     26  H81 UNL     1       9.647  -1.266   1.943  1.00  0.00     0.169 HD
ENDBRANCH  21  24
ENDBRANCH  18  21
ENDBRANCH  11  14
ENDBRANCH   9  11
ENDBRANCH   8   9
ENDBRANCH   3   8
BRANCH   1  27
HETATM   27  C5  UNL     1      -3.524  -0.639   0.416  1.00  0.00     0.706 A 
HETATM   28  N4  UNL     1      -3.862   0.659   0.183  1.00  0.00    -0.180 N 
HETATM   29  C4  UNL     1      -5.196   0.818   0.189  1.00  0.00     0.162 A 
ATOM     30  H4  UNL     1      -3.191   1.411   0.025  1.00  0.00     0.184 HD
HETATM   31  C3  UNL     1      -6.046   1.890  -0.019  1.00  0.00     0.290 A 
HETATM   32  C15 UNL     1      -5.721  -0.431   0.438  1.00  0.00     0.171 A 
HETATM   33  N3  UNL     1      -7.370   1.734   0.019  1.00  0.00    -0.154 N 
HETATM   34  O1  UNL     1      -5.486   2.994  -0.239  1.00  0.00    -0.265 OA
HETATM   35  C2  UNL     1      -7.875   0.506   0.264  1.00  0.00     0.682 A 
ATOM     36  H3  UNL     1      -7.991   2.529  -0.134  1.00  0.00     0.187 HD
HETATM   37  N1  UNL     1      -7.074  -0.543   0.468  1.00  0.00    -0.170 N 
HETATM   38  C1  UNL     1      -7.608  -1.847   0.740  1.00  0.00     0.177 C 
HETATM   39  N12 UNL     1      -4.686  -1.286   0.571  1.00  0.00    -0.171 N 
ATOM     40  H12 UNL     1      -4.776  -2.284   0.762  1.00  0.00     0.186 HD
BRANCH  35  41
HETATM   41  N2  UNL     1      -9.157   0.391   0.271  1.00  0.00    -0.234 N 
ATOM     42  H22 UNL     1      -9.538  -0.537   0.456  1.00  0.00     0.174 HD
ATOM     43  H21 UNL     1      -9.769   1.192   0.115  1.00  0.00     0.174 HD
ENDBRANCH  35  41
ENDBRANCH   1  27
TORSDOF 8
