REMARK  16 active torsions:
REMARK  status: ('A' for Active; 'I' for Inactive)
REMARK    1  A    between atoms: O1_2  and  N1_3 
REMARK    2  A    between atoms: N1_3  and  O2_4 
REMARK    3  A    between atoms: N1_3  and  C2_6 
REMARK    4  A    between atoms: C3_9  and  N3_10 
REMARK    5  A    between atoms: C5_16  and  N5_17 
REMARK    6  A    between atoms: N5_17  and  S1_19 
REMARK    7  A    between atoms: S1_19  and  N6_22 
REMARK    8  A    between atoms: N6_22  and  C6_24 
REMARK    9  A    between atoms: C6_24  and  C7_25 
REMARK   10  A    between atoms: C6_24  and  C14_40 
REMARK   11  A    between atoms: C7_25  and  C8_27 
REMARK   12  A    between atoms: C9_28  and  C10_29 
REMARK   13  A    between atoms: C12_33  and  N8_34 
REMARK   14  A    between atoms: C15_42  and  N10_43 
REMARK   15  A    between atoms: C20_52  and  O9_53 
REMARK   16  A    between atoms: C21_55  and  O10_56 
ROOT
HETATM    1  C6  UNL     1      -0.060   1.176   1.491  1.00  0.00     0.209 C 
ENDROOT
BRANCH   1   2
HETATM    2  N6  UNL     1       1.039   0.415   2.105  1.00  0.00    -0.287 N 
ATOM      3  H6  UNL     1       0.898  -0.280   2.839  1.00  0.00     0.174 HD
BRANCH   2   4
HETATM    4  S1  UNL     1       2.566   0.807   1.472  1.00  0.00     0.321 S 
HETATM    5  O3  UNL     1       2.594   2.230   0.962  1.00  0.00    -0.182 OA
HETATM    6  O4  UNL     1       3.665   0.722   2.494  1.00  0.00    -0.182 OA
BRANCH   4   7
HETATM    7  N5  UNL     1       2.900  -0.218   0.124  1.00  0.00    -0.250 N 
ATOM      8  H5  UNL     1       2.614   0.085  -0.807  1.00  0.00     0.182 HD
BRANCH   7   9
HETATM    9  C5  UNL     1       3.559  -1.469   0.266  1.00  0.00     0.165 A 
HETATM   10  C2  UNL     1       3.807  -2.234  -0.838  1.00  0.00     0.205 A 
HETATM   11  N2  UNL     1       4.436  -3.437  -0.760  1.00  0.00    -0.321 N 
HETATM   12  C3  UNL     1       4.825  -3.885   0.447  1.00  0.00     0.116 A 
ATOM     13  H2  UNL     1       4.609  -3.989  -1.600  1.00  0.00     0.169 HD
HETATM   14  C4  UNL     1       4.581  -3.123   1.569  1.00  0.00     0.138 A 
HETATM   15  N4  UNL     1       3.947  -1.915   1.469  1.00  0.00    -0.345 N 
ATOM     16  H4  UNL     1       3.771  -1.357   2.305  1.00  0.00     0.167 HD
BRANCH  10  17
HETATM   17  N1  UNL     1       3.397  -1.742  -2.107  1.00  0.00    -0.106 N 
BRANCH  17  18
HETATM   18  O1  UNL     1       4.249  -0.971  -2.821  1.00  0.00    -0.257 OA
HETATM   19  C1  UNL     1       5.372  -0.392  -2.192  1.00  0.00     0.240 C 
ENDBRANCH  17  18
BRANCH  17  20
HETATM   20  O2  UNL     1       2.252  -2.061  -2.487  1.00  0.00    -0.261 OA
ATOM     21  H2  UNL     1       1.654  -2.602  -1.986  1.00  0.00     0.247 HD
ENDBRANCH  17  20
ENDBRANCH  10  17
BRANCH  12  22
HETATM   22  N3  UNL     1       5.428  -5.032   0.540  1.00  0.00    -0.384 N 
ATOM     23  H32 UNL     1       5.609  -5.596  -0.290  1.00  0.00     0.157 HD
ATOM     24  H31 UNL     1       5.723  -5.372   1.455  1.00  0.00     0.157 HD
ENDBRANCH  12  22
ENDBRANCH   7   9
ENDBRANCH   4   7
ENDBRANCH   2   4
ENDBRANCH   1   2
BRANCH   1  25
HETATM   25  C7  UNL     1      -0.657   2.066   2.514  1.00  0.00     0.228 C 
HETATM   26  O5  UNL     1      -0.256   2.017   3.735  1.00  0.00    -0.281 OA
BRANCH  25  27
HETATM   27  C8  UNL     1      -1.678   2.990   2.176  1.00  0.00    -0.020 C 
HETATM   28  C9  UNL     1      -2.552   3.815   1.912  1.00  0.00    -0.039 C 
BRANCH  28  29
HETATM   29  C10 UNL     1      -3.571   4.773   1.598  1.00  0.00     0.102 A 
HETATM   30  C11 UNL     1      -3.669   5.985   2.283  1.00  0.00     0.128 A 
HETATM   31  N7  UNL     1      -4.629   6.876   1.980  1.00  0.00    -0.349 N 
HETATM   32  C12 UNL     1      -5.527   6.638   1.012  1.00  0.00     0.114 A 
ATOM     33  H7  UNL     1      -4.676   7.753   2.498  1.00  0.00     0.167 HD
HETATM   34  C13 UNL     1      -5.443   5.445   0.328  1.00  0.00     0.137 A 
HETATM   35  N9  UNL     1      -4.487   4.560   0.631  1.00  0.00    -0.354 N 
ATOM     36  H9  UNL     1      -4.449   3.685   0.108  1.00  0.00     0.166 HD
BRANCH  32  37
HETATM   37  N8  UNL     1      -6.446   7.519   0.741  1.00  0.00    -0.384 N 
ATOM     38  H82 UNL     1      -6.508   8.402   1.247  1.00  0.00     0.157 HD
ATOM     39  H81 UNL     1      -7.129   7.338   0.005  1.00  0.00     0.157 HD
ENDBRANCH  32  37
ENDBRANCH  28  29
ENDBRANCH  25  27
ENDBRANCH   1  25
BRANCH   1  40
HETATM   40  C14 UNL     1      -0.974   0.190   0.873  1.00  0.00     0.187 C 
HETATM   41  O6  UNL     1      -0.247  -0.566  -0.055  1.00  0.00    -0.353 OA
HETATM   42  C15 UNL     1      -1.073  -1.008  -1.038  1.00  0.00     0.263 C 
HETATM   43  C20 UNL     1      -2.463  -0.520  -0.738  1.00  0.00     0.198 C 
HETATM   44  C21 UNL     1      -2.127   0.752   0.075  1.00  0.00     0.182 C 
BRANCH  42  45
HETATM   45  N10 UNL     1      -1.034  -2.446  -1.226  1.00  0.00    -0.280 N 
HETATM   46  C16 UNL     1      -0.450  -3.262  -0.352  1.00  0.00     0.104 A 
HETATM   47  C17 UNL     1      -0.423  -4.642  -0.549  1.00  0.00     0.092 A 
HETATM   48  C18 UNL     1      -1.026  -5.148  -1.690  1.00  0.00     0.250 A 
HETATM   49  O7  UNL     1      -1.015  -6.409  -1.893  1.00  0.00    -0.268 OA
HETATM   50  N11 UNL     1      -1.610  -4.301  -2.558  1.00  0.00    -0.275 N 
HETATM   51  C19 UNL     1      -1.608  -2.980  -2.322  1.00  0.00     0.331 A 
ATOM     52  H11 UNL     1      -2.056  -4.665  -3.400  1.00  0.00     0.173 HD
HETATM   53  O8  UNL     1      -2.163  -2.215  -3.154  1.00  0.00    -0.246 OA
ENDBRANCH  42  45
BRANCH  43  54
HETATM   54  O9  UNL     1      -3.169  -1.388   0.083  1.00  0.00    -0.388 OA
ATOM     55  H9  UNL     1      -4.047  -1.080   0.273  1.00  0.00     0.210 HD
ENDBRANCH  43  54
BRANCH  44  56
HETATM   56  O10 UNL     1      -1.753   1.684  -0.868  1.00  0.00    -0.390 OA
ATOM     57  H10 UNL     1      -2.478   2.037  -1.370  1.00  0.00     0.210 HD
ENDBRANCH  44  56
ENDBRANCH   1  40
TORSDOF 16
