REMARK  4 active torsions:
REMARK  status: ('A' for Active; 'I' for Inactive)
REMARK    1  A    between atoms: C1_2  and  C2_3 
REMARK       I    between atoms: C1_2  and  N2_11 
REMARK    2  A    between atoms: C2_3  and  S1_4 
REMARK    3  A    between atoms: S1_4  and  C3_5 
REMARK    4  A    between atoms: N2_11  and  C6_13 
ROOT
HETATM    1  O1  UNL     1       0.703  -1.069  -2.368  1.00  0.00    -0.273 OA
HETATM    2  C1  UNL     1       1.261  -0.734  -1.289  1.00  0.00     0.227 C 
HETATM    3  N2  UNL     1       0.441  -0.293  -0.249  1.00  0.00    -0.356 N 
ATOM      4  H2  UNL     1       0.883  -0.021   0.629  1.00  0.00     0.162 HD
ENDROOT
BRANCH   3   5
HETATM    5  C6  UNL     1      -1.030  -0.198  -0.347  1.00  0.00     0.084 C 
HETATM    6  C7  UNL     1      -1.408   1.218  -0.296  1.00  0.00     0.025 C 
HETATM    7  C8  UNL     1      -2.515   1.645  -1.218  1.00  0.00     0.002 C 
HETATM    8  C9  UNL     1      -3.597   0.664  -1.435  1.00  0.00     0.000 C 
HETATM    9  C10 UNL     1      -4.807   0.887  -0.550  1.00  0.00     0.000 C 
HETATM   10  C11 UNL     1      -4.500   0.689   0.911  1.00  0.00     0.000 C 
HETATM   11  C12 UNL     1      -3.947  -0.661   1.213  1.00  0.00     0.000 C 
HETATM   12  C13 UNL     1      -2.496  -0.623   1.688  1.00  0.00     0.002 C 
HETATM   13  C14 UNL     1      -1.606  -1.144   0.616  1.00  0.00     0.025 C 
ENDBRANCH   3   5
BRANCH   2  14
HETATM   14  C2  UNL     1       2.720  -0.799  -1.109  1.00  0.00     0.184 C 
BRANCH  14  15
HETATM   15  S1  UNL     1       3.231  -0.258   0.538  1.00  0.00    -0.096 SA
BRANCH  15  16
HETATM   16  C3  UNL     1       4.982  -0.349   0.716  1.00  0.00     0.108 C 
HETATM   17  N1  UNL     1       5.821  -0.709  -0.130  1.00  0.00    -0.358 N 
HETATM   18  C4  UNL     1       7.175  -0.726   0.169  1.00  0.00     0.072 C 
ATOM     19  H1  UNL     1       5.508  -0.996  -1.057  1.00  0.00     0.166 HD
HETATM   20  C5  UNL     1       7.519   0.203   1.313  1.00  0.00     0.126 C 
HETATM   21  S2  UNL     1       5.890   0.095   2.189  1.00  0.00    -0.100 SA
ENDBRANCH  15  16
ENDBRANCH  14  15
ENDBRANCH   2  14
TORSDOF 4
