REMARK  5 active torsions:
REMARK  status: ('A' for Active; 'I' for Inactive)
REMARK    1  A    between atoms: C2_2  and  C3_3 
REMARK    2  A    between atoms: C6_8  and  C7_9 
REMARK    3  A    between atoms: C7_9  and  C8_10 
REMARK    4  A    between atoms: C8_10  and  C9_11 
REMARK    5  A    between atoms: C9_11  and  O4_13 
ROOT
HETATM    1  C3  UNL     1       0.654  -0.990   0.192  1.00  0.00     0.020 C 
HETATM    2  C4  UNL     1      -0.739  -0.909  -0.327  1.00  0.00     0.049 C 
HETATM    3  C5  UNL     1      -1.287   0.459  -0.397  1.00  0.00     0.104 C 
HETATM    4  O1  UNL     1      -0.238   1.366  -0.516  1.00  0.00    -0.228 OA
HETATM    5  O2  UNL     1       0.380   1.369   0.641  1.00  0.00    -0.234 OA
HETATM    6  C6  UNL     1       1.177   0.251   0.826  1.00  0.00     0.165 C 
HETATM    7  C11 UNL     1      -2.129   0.851   0.802  1.00  0.00     0.024 C 
HETATM    8  C12 UNL     1      -3.359   0.009   0.902  1.00  0.00     0.012 C 
HETATM    9  C13 UNL     1      -4.175  -0.008  -0.351  1.00  0.00    -0.013 C 
HETATM   10  C14 UNL     1      -4.488   1.412  -0.833  1.00  0.00     0.010 C 
HETATM   11  C15 UNL     1      -3.060   1.905  -1.067  1.00  0.00    -0.007 C 
HETATM   12  C16 UNL     1      -2.550   2.251   0.333  1.00  0.00     0.012 C 
HETATM   13  C17 UNL     1      -2.268   0.694  -1.514  1.00  0.00     0.028 C 
HETATM   14  C18 UNL     1      -3.286  -0.454  -1.514  1.00  0.00     0.012 C 
ENDROOT
BRANCH   1  15
HETATM   15  C2  UNL     1       0.720  -2.161   1.173  1.00  0.00     0.003 C 
HETATM   16  C1  UNL     1       0.360  -3.464   0.492  1.00  0.00     0.005 C 
ENDBRANCH   1  15
BRANCH   6  17
HETATM   17  C7  UNL     1       2.569   0.633   0.375  1.00  0.00     0.045 C 
BRANCH  17  18
HETATM   18  C8  UNL     1       3.577  -0.446   0.689  1.00  0.00     0.114 C 
BRANCH  18  19
HETATM   19  C9  UNL     1       4.944  -0.061   0.244  1.00  0.00     0.258 C 
HETATM   20  O3  UNL     1       5.909  -0.847   0.428  1.00  0.00    -0.265 OA
BRANCH  19  21
HETATM   21  O4  UNL     1       5.212   1.150  -0.378  1.00  0.00    -0.326 OA
HETATM   22  C10 UNL     1       6.528   1.453  -0.775  1.00  0.00     0.213 C 
ENDBRANCH  19  21
ENDBRANCH  18  19
ENDBRANCH  17  18
ENDBRANCH   6  17
TORSDOF 5
