REMARK  6 active torsions:
REMARK  status: ('A' for Active; 'I' for Inactive)
REMARK    1  A    between atoms: C2_5  and  N3_6 
REMARK    2  A    between atoms: N3_6  and  N4_8 
REMARK    3  A    between atoms: C3_13  and  N6_14 
REMARK    4  A    between atoms: N6_14  and  N7_16 
REMARK    5  A    between atoms: C4_19  and  S1_20 
REMARK    6  A    between atoms: S1_20  and  N8_21 
ROOT
HETATM    1  C1  UNL     1      -0.133  -2.411   0.401  1.00  0.00     0.179 C 
HETATM    2  N1  UNL     1       0.311  -1.048   0.253  1.00  0.00    -0.267 N 
HETATM    3  N2  UNL     1       1.611  -0.791   0.157  1.00  0.00    -0.128 N 
ATOM      4  H2  UNL     1       2.276  -1.564   0.200  1.00  0.00     0.206 HD
HETATM    5  C2  UNL     1       2.071   0.461   0.005  1.00  0.00     0.712 A 
HETATM    6  N5  UNL     1       1.174   1.435  -0.046  1.00  0.00    -0.170 N 
ATOM      7  H5  UNL     1       1.514   2.390  -0.161  1.00  0.00     0.186 HD
HETATM    8  C3  UNL     1      -0.179   1.246   0.045  1.00  0.00     0.177 A 
HETATM    9  C4  UNL     1      -0.620  -0.045   0.202  1.00  0.00     0.212 A 
ENDROOT
BRANCH   9  10
HETATM   10  S1  UNL     1      -2.296  -0.399   0.341  1.00  0.00     0.277 S 
HETATM   11  O1  UNL     1      -3.067   0.647   1.095  1.00  0.00    -0.199 OA
HETATM   12  O2  UNL     1      -2.521  -1.695   1.096  1.00  0.00    -0.199 OA
BRANCH  10  13
HETATM   13  N8  UNL     1      -3.061  -0.584  -1.208  1.00  0.00    -0.323 N 
ATOM     14  H82 UNL     1      -2.559  -0.490  -2.091  1.00  0.00     0.169 HD
ATOM     15  H81 UNL     1      -4.056  -0.794  -1.126  1.00  0.00     0.169 HD
ENDBRANCH  10  13
ENDBRANCH   9  10
BRANCH   8  16
HETATM   16  N6  UNL     1      -1.049   2.351  -0.046  1.00  0.00    -0.289 N 
ATOM     17  H6  UNL     1      -2.062   2.233  -0.041  1.00  0.00     0.188 HD
BRANCH  16  18
HETATM   18  N7  UNL     1      -0.455   3.631  -0.145  1.00  0.00    -0.344 N 
ATOM     19  H72 UNL     1       0.560   3.733  -0.149  1.00  0.00     0.176 HD
ATOM     20  H71 UNL     1      -1.085   4.431  -0.211  1.00  0.00     0.176 HD
ENDBRANCH  16  18
ENDBRANCH   8  16
BRANCH   5  21
HETATM   21  N3  UNL     1       3.350   0.665  -0.085  1.00  0.00    -0.137 N 
ATOM     22  H3  UNL     1       3.692   1.619  -0.200  1.00  0.00     0.205 HD
BRANCH  21  23
HETATM   23  N4  UNL     1       4.270  -0.382  -0.029  1.00  0.00    -0.331 N 
ATOM     24  H42 UNL     1       3.911  -1.330   0.086  1.00  0.00     0.177 HD
ATOM     25  H41 UNL     1       5.275  -0.222  -0.100  1.00  0.00     0.177 HD
ENDBRANCH  21  23
ENDBRANCH   5  21
TORSDOF 6
