REMARK  2 active torsions:
REMARK  status: ('A' for Active; 'I' for Inactive)
REMARK    1  A    between atoms: C2_2  and  C3_3 
REMARK    2  A    between atoms: C5_6  and  C6_7 
ROOT
HETATM    1  C3  UNL     1      -3.560   0.608  -0.944  1.00  0.00    -0.060 A 
HETATM    2  C4  UNL     1      -3.284  -0.485  -0.319  1.00  0.00     0.165 A 
HETATM    3  N1  UNL     1      -1.940  -0.358   0.289  1.00  0.00    -0.327 N 
HETATM    4  C5  UNL     1      -1.571  -1.347   1.064  1.00  0.00     0.138 C 
HETATM    5  N3  UNL     1      -0.172  -1.618   1.391  1.00  0.00    -0.338 N 
ATOM      6  H3  UNL     1       0.133  -1.569   2.363  1.00  0.00     0.167 HD
HETATM    7  C9  UNL     1       0.788  -1.954   0.363  1.00  0.00     0.064 C 
HETATM    8  C10 UNL     1       0.826  -1.458  -0.940  1.00  0.00     0.062 C 
HETATM    9  C11 UNL     1       1.977  -0.627  -1.105  1.00  0.00     0.047 C 
HETATM   10  C12 UNL     1       3.265  -1.267  -1.226  1.00  0.00     0.018 A 
HETATM   11  C13 UNL     1       4.038  -0.585  -2.138  1.00  0.00     0.017 A 
HETATM   12  C14 UNL     1       5.310  -1.074  -2.338  1.00  0.00     0.018 A 
HETATM   13  C15 UNL     1       5.798  -2.190  -1.664  1.00  0.00     0.088 A 
HETATM   14  N4  UNL     1       5.009  -2.832  -0.774  1.00  0.00    -0.364 N 
ATOM     15  H4  UNL     1       5.354  -3.651  -0.273  1.00  0.00     0.165 HD
HETATM   16  C16 UNL     1       3.788  -2.384  -0.563  1.00  0.00     0.058 A 
HETATM   17  C17 UNL     1       3.160  -3.103   0.446  1.00  0.00     0.036 A 
HETATM   18  C18 UNL     1       3.186  -4.050   1.419  1.00  0.00     0.104 A 
HETATM   19  N5  UNL     1       1.891  -3.817   1.794  1.00  0.00    -0.362 N 
ATOM     20  H5  UNL     1       1.270  -4.210   2.501  1.00  0.00     0.165 HD
HETATM   21  C19 UNL     1       1.766  -2.864   0.859  1.00  0.00     0.073 A 
HETATM   22  N6  UNL     1       2.137   0.674  -1.010  1.00  0.00    -0.349 N 
ATOM     23  H6  UNL     1       3.027   0.833  -1.482  1.00  0.00     0.166 HD
HETATM   24  C20 UNL     1       1.789   1.839  -0.652  1.00  0.00     0.086 A 
HETATM   25  S1  UNL     1       2.818   3.217  -1.001  1.00  0.00    -0.071 SA
HETATM   26  C21 UNL     1       2.054   4.342  -0.018  1.00  0.00     0.018 A 
HETATM   27  C22 UNL     1       2.358   5.712   0.241  1.00  0.00     0.020 A 
HETATM   28  C23 UNL     1       1.613   6.438   1.111  1.00  0.00     0.001 A 
HETATM   29  C24 UNL     1       0.576   5.805   1.713  1.00  0.00     0.001 A 
HETATM   30  C25 UNL     1       0.310   4.517   1.449  1.00  0.00     0.014 A 
HETATM   31  C26 UNL     1       1.048   3.708   0.553  1.00  0.00    -0.006 A 
HETATM   32  C27 UNL     1       0.850   2.290   0.209  1.00  0.00     0.011 A 
HETATM   33  C28 UNL     1      -0.391   1.800   0.341  1.00  0.00     0.044 C 
HETATM   34  C29 UNL     1      -1.453   0.906  -0.019  1.00  0.00     0.037 A 
HETATM   35  C30 UNL     1      -2.498   1.498  -0.806  1.00  0.00     0.034 A 
ENDROOT
BRANCH   4  36
HETATM   36  C6  UNL     1      -2.433  -2.538   1.402  1.00  0.00     0.101 A 
HETATM   37  C7  UNL     1      -3.078  -3.436   0.644  1.00  0.00     0.176 A 
HETATM   38  O1  UNL     1      -3.714  -4.285   1.404  1.00  0.00    -0.316 OA
HETATM   39  C8  UNL     1      -3.491  -3.953   2.646  1.00  0.00     0.233 A 
HETATM   40  N2  UNL     1      -2.701  -2.874   2.707  1.00  0.00    -0.342 N 
ATOM     41  H2  UNL     1      -2.368  -2.400   3.547  1.00  0.00     0.167 HD
ENDBRANCH   4  36
BRANCH   1  42
HETATM   42  C2  UNL     1      -4.837   0.881  -1.701  1.00  0.00     0.031 C 
HETATM   43  C1  UNL     1      -5.673  -0.363  -1.628  1.00  0.00     0.010 C 
ENDBRANCH   1  42
TORSDOF 2
