REMARK  0 active torsions:
REMARK  status: ('A' for Active; 'I' for Inactive)
ROOT
HETATM    1  O1  UNL     1      -3.475  -1.200   0.067  1.00  0.00    -0.247 OA
HETATM    2  C1  UNL     1      -2.331  -0.678   0.044  1.00  0.00     0.328 A 
HETATM    3  N1  UNL     1      -2.208   0.651   0.038  1.00  0.00    -0.275 N 
ATOM      4  H1  UNL     1      -3.051   1.224   0.052  1.00  0.00     0.173 HD
HETATM    5  C2  UNL     1      -1.019   1.254   0.014  1.00  0.00     0.269 A 
HETATM    6  O2  UNL     1      -0.885   2.506   0.007  1.00  0.00    -0.267 OA
HETATM    7  C3  UNL     1       0.133   0.512  -0.004  1.00  0.00     0.144 A 
HETATM    8  C4  UNL     1       1.371   1.130  -0.029  1.00  0.00     0.265 A 
HETATM    9  O3  UNL     1       1.456   2.386  -0.034  1.00  0.00    -0.267 OA
HETATM   10  N2  UNL     1       2.463   0.346  -0.046  1.00  0.00    -0.319 N 
ATOM     11  H2  UNL     1       3.393   0.764  -0.064  1.00  0.00     0.169 HD
HETATM   12  C5  UNL     1       2.324  -1.001  -0.039  1.00  0.00     0.184 A 
HETATM   13  N3  UNL     1       1.121  -1.604  -0.015  1.00  0.00    -0.337 N 
ATOM     14  H3  UNL     1       1.060  -2.622  -0.010  1.00  0.00     0.168 HD
HETATM   15  C6  UNL     1      -0.002  -0.860   0.003  1.00  0.00     0.131 A 
HETATM   16  N4  UNL     1      -1.220  -1.428   0.027  1.00  0.00    -0.293 N 
ATOM     17  H4  UNL     1      -1.300  -2.445   0.032  1.00  0.00     0.172 HD
ENDROOT
TORSDOF 0
