REMARK  8 active torsions:
REMARK  status: ('A' for Active; 'I' for Inactive)
REMARK       I    between atoms: C1_2  and  N1_3 
REMARK    1  A    between atoms: C1_2  and  C18_24 
REMARK    2  A    between atoms: N1_3  and  C2_5 
REMARK    3  A    between atoms: C2_5  and  C3_6 
REMARK    4  A    between atoms: C3_6  and  C4_7 
REMARK    5  A    between atoms: C4_7  and  C5_8 
REMARK    6  A    between atoms: C5_8  and  C6_9 
REMARK    7  A    between atoms: C6_9  and  N2_10 
REMARK       I    between atoms: N2_10  and  C7_12 
REMARK    8  A    between atoms: C7_12  and  C8_14 
ROOT
HETATM    1  N2  UNL     1      -0.894   0.417   1.095  1.00  0.00    -0.360 N 
ATOM      2  H2  UNL     1      -0.865   0.887   0.190  1.00  0.00     0.162 HD
HETATM    3  C7  UNL     1      -2.146  -0.054   1.575  1.00  0.00     0.226 C 
HETATM    4  O2  UNL     1      -2.311  -0.634   2.654  1.00  0.00    -0.273 OA
ENDROOT
BRANCH   1   5
HETATM    5  C6  UNL     1       0.328   0.261   1.824  1.00  0.00     0.122 C 
BRANCH   5   6
HETATM    6  C5  UNL     1       0.642  -1.196   2.040  1.00  0.00     0.020 C 
BRANCH   6   7
HETATM    7  C4  UNL     1       0.766  -1.860   0.689  1.00  0.00     0.003 C 
BRANCH   7   8
HETATM    8  C3  UNL     1       1.847  -1.263  -0.156  1.00  0.00     0.020 C 
BRANCH   8   9
HETATM    9  C2  UNL     1       3.222  -1.360   0.474  1.00  0.00     0.122 C 
BRANCH   9  10
HETATM   10  N1  UNL     1       4.194  -0.759  -0.421  1.00  0.00    -0.361 N 
HETATM   11  C1  UNL     1       5.564  -0.716  -0.074  1.00  0.00     0.221 C 
HETATM   12  O1  UNL     1       5.932  -1.203   1.018  1.00  0.00    -0.273 OA
ATOM     13  H1  UNL     1       3.886  -0.364  -1.309  1.00  0.00     0.162 HD
BRANCH  11  14
HETATM   14  C18 UNL     1       6.573  -0.116  -0.955  1.00  0.00     0.078 C 
HETATM   15  C19 UNL     1       6.342   1.363  -1.264  1.00  0.00     0.014 C 
HETATM   16  C20 UNL     1       7.838   1.553  -1.122  1.00  0.00     0.002 C 
HETATM   17  C21 UNL     1       7.855   0.313  -0.252  1.00  0.00     0.014 C 
ENDBRANCH  11  14
ENDBRANCH   9  10
ENDBRANCH   8   9
ENDBRANCH   7   8
ENDBRANCH   6   7
ENDBRANCH   5   6
ENDBRANCH   1   5
BRANCH   3  18
HETATM   18  C8  UNL     1      -3.336   0.182   0.690  1.00  0.00     0.042 C 
HETATM   19  C9  UNL     1      -3.541   1.661   0.448  1.00  0.00     0.024 C 
HETATM   20  C10 UNL     1      -4.743   1.811  -0.444  1.00  0.00    -0.013 C 
HETATM   21  C11 UNL     1      -4.457   1.154  -1.763  1.00  0.00     0.009 C 
HETATM   22  C15 UNL     1      -5.976   1.157   0.147  1.00  0.00     0.009 C 
HETATM   23  C12 UNL     1      -4.224  -0.327  -1.546  1.00  0.00    -0.013 C 
HETATM   24  C13 UNL     1      -5.401  -0.996  -0.915  1.00  0.00     0.009 C 
HETATM   25  C17 UNL     1      -3.004  -0.454  -0.654  1.00  0.00     0.024 C 
HETATM   26  C14 UNL     1      -5.732  -0.308   0.388  1.00  0.00    -0.013 C 
HETATM   27  C16 UNL     1      -4.549  -0.433   1.310  1.00  0.00     0.024 C 
ENDBRANCH   3  18
TORSDOF 8
