REMARK  10 active torsions:
REMARK  status: ('A' for Active; 'I' for Inactive)
REMARK    1  A    between atoms: C3_3  and  C4_4 
REMARK    2  A    between atoms: C4_4  and  C5_5 
REMARK    3  A    between atoms: C5_5  and  C6_6 
REMARK    4  A    between atoms: C6_6  and  C7_7 
REMARK    5  A    between atoms: C7_7  and  C8_8 
REMARK       I    between atoms: C8_8  and  N1_10 
REMARK    6  A    between atoms: N1_10  and  C9_12 
REMARK    7  A    between atoms: N2_15  and  C12_16 
REMARK    8  A    between atoms: C12_16  and  O2_17 
REMARK    9  A    between atoms: C12_16  and  N3_19 
REMARK   10  A    between atoms: N3_19  and  C13_20 
ROOT
HETATM    1  C1  UNL     1       8.677   3.642   0.624  1.00  0.00     0.012 C 
HETATM    2  C2  UNL     1       8.412   2.519   0.358  1.00  0.00    -0.117 C 
HETATM    3  C3  UNL     1       8.078   1.145   0.034  1.00  0.00     0.093 C 
ENDROOT
BRANCH   3   4
HETATM    4  C4  UNL     1       6.587   0.836   0.171  1.00  0.00     0.012 C 
BRANCH   4   5
HETATM    5  C5  UNL     1       6.277  -0.569  -0.223  1.00  0.00     0.001 C 
BRANCH   5   6
HETATM    6  C6  UNL     1       4.827  -0.958  -0.090  1.00  0.00     0.009 C 
BRANCH   6   7
HETATM    7  C7  UNL     1       3.964  -0.002  -0.854  1.00  0.00     0.103 C 
BRANCH   7   8
HETATM    8  C8  UNL     1       2.551  -0.279  -0.893  1.00  0.00     0.217 C 
HETATM    9  O1  UNL     1       2.129  -1.496  -0.923  1.00  0.00    -0.274 OA
HETATM   10  N1  UNL     1       1.560   0.705  -0.889  1.00  0.00    -0.356 N 
ATOM     11  H1  UNL     1       1.864   1.677  -0.838  1.00  0.00     0.162 HD
BRANCH  10  12
HETATM   12  C9  UNL     1       0.167   0.459  -0.950  1.00  0.00     0.087 C 
HETATM   13  C10 UNL     1      -0.439   0.292   0.401  1.00  0.00     0.045 C 
HETATM   14  C11 UNL     1      -1.922   0.098   0.305  1.00  0.00     0.129 C 
HETATM   15  N2  UNL     1      -2.412  -0.094  -1.028  1.00  0.00    -0.336 N 
HETATM   16  C19 UNL     1      -1.642  -0.515  -2.180  1.00  0.00     0.129 C 
HETATM   17  C20 UNL     1      -0.199  -0.808  -1.741  1.00  0.00     0.045 C 
BRANCH  15  18
HETATM   18  C12 UNL     1      -3.830   0.077  -1.182  1.00  0.00     0.291 C 
BRANCH  18  19
HETATM   19  O2  UNL     1      -4.180   0.079  -2.439  1.00  0.00    -0.322 OA
ATOM     20  H2  UNL     1      -5.118   0.192  -2.541  1.00  0.00     0.222 HD
ENDBRANCH  18  19
BRANCH  18  21
HETATM   21  N3  UNL     1      -4.684   0.209  -0.120  1.00  0.00    -0.404 NA
BRANCH  21  22
HETATM   22  C13 UNL     1      -5.562   0.339   0.871  1.00  0.00     0.167 C 
HETATM   23  C14 UNL     1      -5.175  -0.441   2.140  1.00  0.00     0.039 C 
HETATM   24  C15 UNL     1      -5.143  -1.891   1.652  1.00  0.00     0.003 C 
HETATM   25  C16 UNL     1      -6.560  -2.362   1.453  1.00  0.00     0.000 C 
HETATM   26  C17 UNL     1      -7.354  -1.445   0.595  1.00  0.00     0.003 C 
HETATM   27  C18 UNL     1      -7.031  -0.019   0.642  1.00  0.00     0.039 C 
ENDBRANCH  21  22
ENDBRANCH  18  21
ENDBRANCH  15  18
ENDBRANCH  10  12
ENDBRANCH   7   8
ENDBRANCH   6   7
ENDBRANCH   5   6
ENDBRANCH   4   5
ENDBRANCH   3   4
TORSDOF 10
