REMARK  4 active torsions:
REMARK  status: ('A' for Active; 'I' for Inactive)
REMARK    1  A    between atoms: N1_2  and  C3_4 
REMARK    2  A    between atoms: C3_4  and  C4_5 
REMARK    3  A    between atoms: C4_5  and  N2_6 
REMARK    4  A    between atoms: N2_6  and  C5_8 
ROOT
HETATM    1  C5  UNL     1       1.262  -0.004   0.357  1.00  0.00     0.131 A 
HETATM    2  N3  UNL     1       1.347  -1.320   0.562  1.00  0.00    -0.337 N 
ATOM      3  H3  UNL     1       0.481  -1.826   0.748  1.00  0.00     0.168 HD
HETATM    4  C6  UNL     1       2.494  -2.031   0.542  1.00  0.00     0.182 A 
HETATM    5  N4  UNL     1       3.637  -1.372   0.299  1.00  0.00    -0.350 N 
ATOM      6  H4  UNL     1       4.514  -1.892   0.280  1.00  0.00     0.166 HD
HETATM    7  C7  UNL     1       3.659  -0.037   0.078  1.00  0.00     0.065 A 
HETATM    8  C8  UNL     1       4.707   0.830  -0.188  1.00  0.00     0.049 A 
HETATM    9  C9  UNL     1       4.109   2.063  -0.319  1.00  0.00     0.091 A 
HETATM   10  N5  UNL     1       2.777   1.944  -0.141  1.00  0.00    -0.361 N 
ATOM     11  H5  UNL     1       2.108   2.713  -0.186  1.00  0.00     0.165 HD
HETATM   12  C10 UNL     1       2.466   0.666   0.104  1.00  0.00     0.103 A 
ENDROOT
BRANCH   1  13
HETATM   13  N2  UNL     1       0.221   0.712   0.365  1.00  0.00    -0.373 N 
ATOM     14  H2  UNL     1       0.356   1.707   0.186  1.00  0.00     0.161 HD
BRANCH  13  15
HETATM   15  C4  UNL     1      -1.140   0.283   0.599  1.00  0.00     0.151 C 
BRANCH  15  16
HETATM   16  C3  UNL     1      -1.798   0.161  -0.745  1.00  0.00     0.290 C 
BRANCH  16  17
HETATM   17  N1  UNL     1      -3.153  -0.248  -0.693  1.00  0.00     0.081 N 
HETATM   18  C1  UNL     1      -3.282  -1.600  -0.265  1.00  0.00     0.309 C 
HETATM   19  C2  UNL     1      -4.064   0.685  -0.122  1.00  0.00     0.309 C 
ENDBRANCH  16  17
ENDBRANCH  15  16
ENDBRANCH  13  15
ENDBRANCH   1  13
TORSDOF 4
