REMARK  15 active torsions:
REMARK  status: ('A' for Active; 'I' for Inactive)
REMARK       I    between atoms: N1_5  and  C5_6 
REMARK    1  A    between atoms: C5_6  and  C6_8 
REMARK    2  A    between atoms: C6_8  and  C7_9 
REMARK    3  A    between atoms: C6_8  and  N2_13 
REMARK    4  A    between atoms: C7_9  and  C8_10 
REMARK    5  A    between atoms: N2_13  and  C11_15 
REMARK    6  A    between atoms: C11_15  and  C12_16 
REMARK    7  A    between atoms: C11_15  and  C15_19 
REMARK    8  A    between atoms: C15_19  and  N3_20 
REMARK       I    between atoms: N3_20  and  C16_22 
REMARK    9  A    between atoms: C16_22  and  C17_24 
REMARK   10  A    between atoms: C17_24  and  N4_25 
REMARK   11  A    between atoms: C17_24  and  C18_29 
REMARK   12  A    between atoms: C18_29  and  C19_30 
REMARK   13  A    between atoms: C27_41  and  C28_42 
REMARK   14  A    between atoms: C28_42  and  O3_43 
REMARK   15  A    between atoms: C28_42  and  C29_45 
ROOT
HETATM    1  C15 UNL     1       0.956   1.006   1.786  1.00  0.00     0.103 C 
HETATM    2  C25 UNL     1       1.969   1.114   2.830  1.00  0.00     0.067 C 
HETATM    3  C26 UNL     1       2.257   2.555   3.171  1.00  0.00     0.236 C 
HETATM    4  N5  UNL     1       1.629   3.261   2.152  1.00  0.00    -0.066 N 
ATOM      5  H51 UNL     1       2.246   3.967   1.750  1.00  0.00     0.277 HD
ATOM      6  H52 UNL     1       0.903   3.877   2.516  1.00  0.00     0.277 HD
HETATM    7  C27 UNL     1       1.101   2.355   1.121  1.00  0.00     0.248 C 
ENDROOT
BRANCH   1   8
HETATM    8  C11 UNL     1      -0.529   0.928   2.173  1.00  0.00     0.017 C 
BRANCH   8   9
HETATM    9  N2  UNL     1      -1.385   0.948   1.066  1.00  0.00    -0.381 N 
ATOM     10  H2  UNL     1      -1.460   1.912   0.742  1.00  0.00     0.160 HD
BRANCH   9  11
HETATM   11  C6  UNL     1      -2.132   0.193   0.282  1.00  0.00     0.174 C 
BRANCH  11  12
HETATM   12  C5  UNL     1      -3.423  -0.420   0.718  1.00  0.00     0.242 C 
HETATM   13  N1  UNL     1      -4.048  -1.523   0.087  1.00  0.00    -0.347 N 
HETATM   14  C4  UNL     1      -3.536  -2.240  -1.064  1.00  0.00     0.153 C 
HETATM   15  C35 UNL     1      -5.308  -1.993   0.617  1.00  0.00     0.130 C 
HETATM   16  C3  UNL     1      -3.923  -3.683  -1.072  1.00  0.00    -0.005 C 
HETATM   17  C2  UNL     1      -5.177  -3.964  -0.761  1.00  0.00    -0.084 C 
HETATM   18  C1  UNL     1      -5.634  -5.360  -0.748  1.00  0.00     0.043 C 
HETATM   19  C36 UNL     1      -6.043  -2.797  -0.434  1.00  0.00     0.053 C 
HETATM   20  O1  UNL     1      -4.075  -0.000   1.707  1.00  0.00    -0.271 OA
ENDBRANCH  11  12
BRANCH  11  21
HETATM   21  C7  UNL     1      -2.493   0.956  -1.002  1.00  0.00     0.038 C 
BRANCH  21  22
HETATM   22  C8  UNL     1      -3.434   2.028  -1.010  1.00  0.00    -0.020 C 
HETATM   23  C9  UNL     1      -3.510   2.520  -2.489  1.00  0.00     0.009 C 
HETATM   24  C10 UNL     1      -4.786   2.072  -0.504  1.00  0.00     0.009 C 
ENDBRANCH  21  22
ENDBRANCH  11  21
ENDBRANCH   9  11
ENDBRANCH   8   9
BRANCH   8  25
HETATM   25  C12 UNL     1      -1.016   0.269   3.380  1.00  0.00     0.025 C 
HETATM   26  C13 UNL     1      -0.238   0.323   4.670  1.00  0.00     0.016 C 
HETATM   27  C14 UNL     1      -1.277  -1.238   3.232  1.00  0.00     0.016 C 
ENDBRANCH   8  25
ENDBRANCH   1   8
BRANCH   1  28
HETATM   28  N3  UNL     1       1.302  -0.117   0.932  1.00  0.00    -0.343 N 
HETATM   29  C16 UNL     1       2.488  -0.569   0.357  1.00  0.00     0.249 C 
HETATM   30  O2  UNL     1       3.658  -0.146   0.400  1.00  0.00    -0.271 OA
ATOM     31  H3  UNL     1       0.500  -0.704   0.703  1.00  0.00     0.163 HD
BRANCH  29  32
HETATM   32  C17 UNL     1       2.486  -1.822  -0.526  1.00  0.00     0.275 C 
BRANCH  32  33
HETATM   33  N4  UNL     1       1.214  -2.438  -0.584  1.00  0.00    -0.066 N 
ATOM     34  H43 UNL     1       0.863  -2.646   0.351  1.00  0.00     0.275 HD
ATOM     35  H42 UNL     1       0.498  -1.776  -0.883  1.00  0.00     0.275 HD
ATOM     36  H41 UNL     1       1.213  -3.272  -1.172  1.00  0.00     0.275 HD
ENDBRANCH  32  33
BRANCH  32  37
HETATM   37  C18 UNL     1       3.522  -2.814  -0.069  1.00  0.00     0.047 C 
BRANCH  37  38
HETATM   38  C19 UNL     1       3.485  -4.016  -0.949  1.00  0.00    -0.012 C 
HETATM   39  C20 UNL     1       3.747  -3.774  -2.395  1.00  0.00     0.005 C 
HETATM   40  C21 UNL     1       5.175  -3.455  -2.710  1.00  0.00     0.000 C 
HETATM   41  C22 UNL     1       6.076  -4.563  -2.194  1.00  0.00     0.000 C 
HETATM   42  C23 UNL     1       5.870  -4.714  -0.708  1.00  0.00     0.000 C 
HETATM   43  C24 UNL     1       4.423  -5.110  -0.488  1.00  0.00     0.005 C 
ENDBRANCH  37  38
ENDBRANCH  32  37
ENDBRANCH  29  32
ENDBRANCH   1  28
BRANCH   7  44
HETATM   44  C28 UNL     1       1.840   2.512  -0.127  1.00  0.00     0.155 C 
BRANCH  44  45
HETATM   45  O3  UNL     1       1.321   1.695  -1.127  1.00  0.00    -0.393 OA
ATOM     46  H3  UNL     1       1.802   1.797  -1.940  1.00  0.00     0.210 HD
ENDBRANCH  44  45
BRANCH  44  47
HETATM   47  C29 UNL     1       1.566   3.919  -0.663  1.00  0.00     0.016 C 
HETATM   48  C30 UNL     1       0.133   4.205  -0.928  1.00  0.00     0.007 C 
HETATM   49  C31 UNL     1       0.103   5.409  -1.886  1.00  0.00     0.000 C 
HETATM   50  C32 UNL     1       0.893   6.571  -1.329  1.00  0.00     0.000 C 
HETATM   51  C33 UNL     1       2.325   6.178  -0.987  1.00  0.00     0.000 C 
HETATM   52  C34 UNL     1       2.251   5.024   0.041  1.00  0.00     0.007 C 
ENDBRANCH  44  47
ENDBRANCH   7  44
TORSDOF 15
