REMARK  13 active torsions:
REMARK  status: ('A' for Active; 'I' for Inactive)
REMARK    1  A    between atoms: C3_3  and  C4_4 
REMARK    2  A    between atoms: C5_5  and  C6_6 
REMARK    3  A    between atoms: C6_6  and  C7_8 
REMARK    4  A    between atoms: C8_9  and  C9_10 
REMARK    5  A    between atoms: C9_10  and  C10_12 
REMARK    6  A    between atoms: C16_19  and  O3_20 
REMARK    7  A    between atoms: C17_22  and  C18_23 
REMARK    8  A    between atoms: C18_23  and  C19_24 
REMARK    9  A    between atoms: C22_29  and  O4_30 
REMARK   10  A    between atoms: N2_34  and  C25_35 
REMARK   11  A    between atoms: C25_35  and  C27_37 
REMARK   12  A    between atoms: C27_37  and  O5_38 
REMARK   13  A    between atoms: C31_46  and  O7_47 
ROOT
HETATM    1  C1  UNL     1      10.887   2.611  -2.581  1.00  0.00     0.112 C 
HETATM    2  C2  UNL     1       9.595   2.029  -2.199  1.00  0.00    -0.106 C 
HETATM    3  C3  UNL     1       8.576   1.571  -1.901  1.00  0.00    -0.079 C 
ENDROOT
BRANCH   3   4
HETATM    4  C4  UNL     1       7.340   1.011  -1.525  1.00  0.00     0.068 C 
HETATM    5  C5  UNL     1       6.365   0.852  -2.474  1.00  0.00     0.063 C 
BRANCH   5   6
HETATM    6  C6  UNL     1       5.086   0.312  -2.295  1.00  0.00     0.172 C 
HETATM    7  O1  UNL     1       4.305   0.284  -3.315  1.00  0.00    -0.289 OA
BRANCH   6   8
HETATM    8  C7  UNL     1       4.546  -0.228  -1.084  1.00  0.00     0.052 C 
HETATM    9  C8  UNL     1       3.288  -0.708  -1.055  1.00  0.00    -0.002 C 
BRANCH   9  10
HETATM   10  C9  UNL     1       2.595  -1.298   0.096  1.00  0.00     0.111 C 
HETATM   11 CL1  UNL     1       2.407  -3.011  -0.370  1.00  0.00    -0.120 Cl
BRANCH  10  12
HETATM   12  C10 UNL     1       1.199  -0.663   0.366  1.00  0.00     0.042 C 
HETATM   13  C11 UNL     1       1.413   0.698   0.655  1.00  0.00     0.017 C 
HETATM   14  C12 UNL     1       0.572   1.899   0.586  1.00  0.00     0.025 C 
HETATM   15  C13 UNL     1       0.725   2.774  -0.646  1.00  0.00     0.013 C 
HETATM   16  C14 UNL     1      -0.884   1.506   0.754  1.00  0.00     0.128 C 
HETATM   17  C15 UNL     1      -1.237   1.161  -0.613  1.00  0.00     0.055 C 
HETATM   18  O2  UNL     1      -1.828   2.546   1.015  1.00  0.00    -0.340 OA
HETATM   19  C31 UNL     1      -0.716   0.802   1.974  1.00  0.00     0.147 C 
HETATM   20  C16 UNL     1      -3.123   2.173   1.359  1.00  0.00     0.281 C 
HETATM   21  C17 UNL     1      -3.948   1.051   0.857  1.00  0.00     0.139 C 
HETATM   22  N1  UNL     1      -4.024  -0.105   1.746  1.00  0.00    -0.360 N 
HETATM   23  C22 UNL     1      -3.976  -1.484   1.607  1.00  0.00     0.161 C 
ATOM     24  H1  UNL     1      -4.143   0.174   2.720  1.00  0.00     0.162 HD
HETATM   25  C23 UNL     1      -2.938  -2.526   1.558  1.00  0.00     0.082 C 
HETATM   26  C24 UNL     1      -3.551  -3.928   1.629  1.00  0.00     0.075 C 
HETATM   27  N2  UNL     1      -1.808  -2.401   0.709  1.00  0.00    -0.252 N 
HETATM   28  O6  UNL     1      -0.835  -1.763   1.055  1.00  0.00    -0.270 OA
HETATM   29  C28 UNL     1       0.484  -1.713   1.177  1.00  0.00     0.180 C 
HETATM   30  C29 UNL     1       0.596  -1.445   2.690  1.00  0.00     0.111 C 
HETATM   31  C30 UNL     1       1.878  -1.467   3.307  1.00  0.00     0.035 C 
HETATM   32  N3  UNL     1      -0.288  -0.287   2.796  1.00  0.00    -0.365 N 
ATOM     33  H3  UNL     1      -0.723  -0.243   3.717  1.00  0.00     0.161 HD
BRANCH  20  34
HETATM   34  O3  UNL     1      -3.654   2.944   2.265  1.00  0.00    -0.369 OA
ATOM     35  H3  UNL     1      -4.539   2.689   2.500  1.00  0.00     0.212 HD
ENDBRANCH  20  34
BRANCH  21  36
HETATM   36  C18 UNL     1      -5.390   1.680   0.864  1.00  0.00     0.034 C 
BRANCH  36  37
HETATM   37  C19 UNL     1      -5.449   2.847  -0.037  1.00  0.00    -0.021 C 
HETATM   38  C20 UNL     1      -5.147   2.475  -1.476  1.00  0.00     0.009 C 
HETATM   39  C21 UNL     1      -6.840   3.465  -0.016  1.00  0.00     0.009 C 
ENDBRANCH  36  37
ENDBRANCH  21  36
BRANCH  23  40
HETATM   40  O4  UNL     1      -5.164  -2.056   1.485  1.00  0.00    -0.345 OA
ATOM     41  H4  UNL     1      -5.131  -3.001   1.390  1.00  0.00     0.219 HD
ENDBRANCH  23  40
BRANCH  27  42
HETATM   42  C25 UNL     1      -1.695  -3.054  -0.516  1.00  0.00     0.134 C 
HETATM   43  C26 UNL     1      -1.598  -4.560  -0.532  1.00  0.00     0.037 C 
BRANCH  42  44
HETATM   44  C27 UNL     1      -2.668  -2.664  -1.598  1.00  0.00     0.191 C 
BRANCH  44  45
HETATM   45  O5  UNL     1      -2.415  -3.426  -2.764  1.00  0.00    -0.399 OA
ATOM     46  H5  UNL     1      -3.029  -3.180  -3.446  1.00  0.00     0.209 HD
ENDBRANCH  44  45
ENDBRANCH  42  44
ENDBRANCH  27  42
BRANCH  19  47
HETATM   47  O7  UNL     1      -1.233   1.567   2.913  1.00  0.00    -0.347 OA
ATOM     48  H7  UNL     1      -1.120   1.096   3.730  1.00  0.00     0.219 HD
ENDBRANCH  19  47
ENDBRANCH  10  12
ENDBRANCH   9  10
ENDBRANCH   6   8
ENDBRANCH   5   6
ENDBRANCH   3   4
TORSDOF 13
