REMARK  11 active torsions:
REMARK  status: ('A' for Active; 'I' for Inactive)
REMARK    1  A    between atoms: C2_2  and  C3_3 
REMARK    2  A    between atoms: C2_2  and  C4_6 
REMARK    3  A    between atoms: C15_20  and  N1_21 
REMARK       I    between atoms: N1_21  and  C16_23 
REMARK    4  A    between atoms: C16_23  and  C17_25 
REMARK    5  A    between atoms: C17_25  and  C18_26 
REMARK    6  A    between atoms: C18_26  and  C19_27 
REMARK    7  A    between atoms: C20_29  and  C21_30 
REMARK    8  A    between atoms: C21_30  and  O7_31 
REMARK    9  A    between atoms: O7_31  and  C22_32 
REMARK   10  A    between atoms: C22_32  and  O8_33 
REMARK   11  A    between atoms: C24_36  and  O9_37 
ROOT
HETATM    1  C4  UNL     1      -5.342   1.624   0.965  1.00  0.00     0.187 C 
HETATM    2  C5  UNL     1      -5.007   1.624  -0.488  1.00  0.00     0.045 C 
HETATM    3  C6  UNL     1      -3.826   1.105  -0.710  1.00  0.00     0.079 C 
HETATM    4  O3  UNL     1      -3.129   0.901  -1.884  1.00  0.00    -0.339 OA
HETATM    5  C7  UNL     1      -1.803   0.509  -2.231  1.00  0.00     0.207 C 
HETATM    6  C8  UNL     1      -1.724  -0.880  -2.781  1.00  0.00     0.170 C 
HETATM    7  O4  UNL     1      -1.990  -1.346  -3.841  1.00  0.00    -0.294 OA
HETATM    8  C9  UNL     1      -1.166  -1.640  -1.537  1.00  0.00     0.059 C 
HETATM    9  C10 UNL     1      -2.040  -0.980  -0.587  1.00  0.00    -0.056 C 
HETATM   10  C11 UNL     1      -2.911  -0.713   0.376  1.00  0.00     0.016 C 
HETATM   11  C12 UNL     1      -3.313   0.730   0.702  1.00  0.00     0.202 C 
HETATM   12  O5  UNL     1      -4.384   0.816   1.513  1.00  0.00    -0.361 OA
HETATM   13  C13 UNL     1      -1.067   0.230  -0.943  1.00  0.00     0.060 C 
HETATM   14  C14 UNL     1      -0.046  -0.773  -1.203  1.00  0.00     0.040 C 
HETATM   15  C15 UNL     1       0.827  -1.271  -0.082  1.00  0.00     0.093 C 
HETATM   16  C23 UNL     1       0.539  -2.753   0.223  1.00  0.00     0.064 C 
HETATM   17  C24 UNL     1       0.390  -3.434  -1.089  1.00  0.00     0.068 C 
HETATM   18  C25 UNL     1       0.214  -4.908  -1.077  1.00  0.00     0.016 C 
HETATM   19  C26 UNL     1       1.499  -5.684  -0.944  1.00  0.00     0.013 C 
HETATM   20  C27 UNL     1      -0.410  -5.146  -2.460  1.00  0.00     0.008 C 
HETATM   21  C28 UNL     1      -1.066  -3.815  -2.857  1.00  0.00     0.010 C 
HETATM   22  C29 UNL     1      -1.015  -3.049  -1.604  1.00  0.00     0.041 C 
ENDROOT
BRANCH  15  23
HETATM   23  N1  UNL     1       0.807  -0.458   1.100  1.00  0.00    -0.356 N 
HETATM   24  C16 UNL     1       1.995   0.155   1.653  1.00  0.00     0.218 C 
HETATM   25  O6  UNL     1       3.044  -0.065   1.041  1.00  0.00    -0.274 OA
ATOM     26  H1  UNL     1      -0.085  -0.305   1.571  1.00  0.00     0.162 HD
BRANCH  24  27
HETATM   27  C17 UNL     1       1.964   0.979   2.853  1.00  0.00     0.108 C 
BRANCH  27  28
HETATM   28  C18 UNL     1       3.328   1.494   3.212  1.00  0.00     0.055 C 
BRANCH  28  29
HETATM   29  C19 UNL     1       3.958   2.350   2.186  1.00  0.00    -0.013 C 
HETATM   30 BR1  UNL     1       3.021   3.916   1.637  1.00  0.00    -0.056 Br
HETATM   31  C20 UNL     1       5.119   2.064   1.659  1.00  0.00     0.014 C 
BRANCH  31  32
HETATM   32  C21 UNL     1       5.816   2.855   0.639  1.00  0.00     0.198 C 
BRANCH  32  33
HETATM   33  O7  UNL     1       5.171   3.986   0.223  1.00  0.00    -0.363 OA
BRANCH  33  34
HETATM   34  C22 UNL     1       5.841   4.709  -0.732  1.00  0.00     0.334 C 
BRANCH  34  35
HETATM   35  O8  UNL     1       7.099   5.161  -0.321  1.00  0.00    -0.377 OA
ATOM     36  H8  UNL     1       7.563   5.661  -0.982  1.00  0.00     0.212 HD
ENDBRANCH  34  35
ENDBRANCH  33  34
ENDBRANCH  32  33
ENDBRANCH  31  32
ENDBRANCH  28  29
ENDBRANCH  27  28
ENDBRANCH  24  27
ENDBRANCH  15  23
BRANCH  17  37
HETATM   37  O9  UNL     1       1.381  -3.063  -1.989  1.00  0.00    -0.389 OA
ATOM     38  H9  UNL     1       1.286  -3.498  -2.828  1.00  0.00     0.210 HD
ENDBRANCH  17  37
BRANCH   1  39
HETATM   39  C2  UNL     1      -5.583   2.925   1.550  1.00  0.00     0.041 C 
HETATM   40  C1  UNL     1      -6.708   3.116   2.223  1.00  0.00     0.029 C 
BRANCH  39  41
HETATM   41  C3  UNL     1      -4.641   4.012   1.446  1.00  0.00     0.207 C 
HETATM   42  O1  UNL     1      -4.955   5.115   2.027  1.00  0.00    -0.644 OA
HETATM   43  O2  UNL     1      -3.426   3.935   0.757  1.00  0.00    -0.644 OA
ENDBRANCH  39  41
ENDBRANCH   1  39
TORSDOF 11
