REMARK  9 active torsions:
REMARK  status: ('A' for Active; 'I' for Inactive)
REMARK    1  A    between atoms: O1_2  and  C2_3 
REMARK    2  A    between atoms: C2_3  and  C4_6 
REMARK    3  A    between atoms: C5_7  and  C6_8 
REMARK       I    between atoms: C6_8  and  N1_10 
REMARK    4  A    between atoms: N3_24  and  C17_25 
REMARK    5  A    between atoms: C17_25  and  C18_26 
REMARK       I    between atoms: C18_26  and  N4_28 
REMARK    6  A    between atoms: N4_28  and  C19_30 
REMARK    7  A    between atoms: C19_30  and  C20_31 
REMARK       I    between atoms: C20_31  and  N5_33 
REMARK    8  A    between atoms: N5_33  and  C21_35 
REMARK    9  A    between atoms: C21_35  and  C22_36 
ROOT
HETATM    1  C4  UNL     1      -0.455   0.718  -0.077  1.00  0.00     0.308 C 
HETATM    2  C5  UNL     1      -1.920   0.698   0.300  1.00  0.00     0.162 C 
HETATM    3  C13 UNL     1      -2.041   0.303   1.762  1.00  0.00    -0.003 C 
HETATM    4  N2  UNL     1      -2.696   0.929   2.625  1.00  0.00    -0.405 N 
ATOM      5  H21 UNL     1      -2.777   0.664   3.607  1.00  0.00     0.155 HD
ATOM      6  H22 UNL     1      -3.203   1.774   2.361  1.00  0.00     0.155 HD
HETATM    7  C14 UNL     1      -1.310  -0.916   2.143  1.00  0.00     0.088 C 
HETATM    8  C15 UNL     1       0.069  -0.891   1.561  1.00  0.00     0.225 C 
HETATM    9  C16 UNL     1       1.007  -1.238   2.710  1.00  0.00     0.043 C 
HETATM   10  N3  UNL     1       0.351   0.433   1.040  1.00  0.00     0.113 N 
ENDROOT
BRANCH  10  11
HETATM   11  C17 UNL     1       1.740   0.674   1.003  1.00  0.00     0.375 C 
BRANCH  11  12
HETATM   12  C18 UNL     1       2.579  -0.202   0.190  1.00  0.00     0.246 C 
HETATM   13  O3  UNL     1       2.184  -1.194  -0.487  1.00  0.00    -0.272 OA
HETATM   14  N4  UNL     1       3.971   0.074   0.146  1.00  0.00    -0.351 N 
ATOM     15  H4  UNL     1       4.322   0.868   0.681  1.00  0.00     0.163 HD
BRANCH  14  16
HETATM   16  C19 UNL     1       4.921  -0.712  -0.618  1.00  0.00     0.225 C 
BRANCH  16  17
HETATM   17  C20 UNL     1       6.295  -0.176  -0.474  1.00  0.00     0.235 C 
HETATM   18  O4  UNL     1       6.515   0.854   0.250  1.00  0.00    -0.272 OA
HETATM   19  N5  UNL     1       7.420  -0.751  -1.110  1.00  0.00    -0.351 N 
ATOM     20  H5  UNL     1       7.278  -1.575  -1.694  1.00  0.00     0.162 HD
BRANCH  19  21
HETATM   21  C21 UNL     1       8.755  -0.232  -0.974  1.00  0.00     0.240 C 
BRANCH  21  22
HETATM   22  C22 UNL     1       9.730  -1.069  -1.772  1.00  0.00     0.403 C 
HETATM   23  F2  UNL     1      11.019  -0.582  -1.651  1.00  0.00    -0.169 F 
HETATM   24  F3  UNL     1       9.387  -1.011  -3.106  1.00  0.00    -0.169 F 
HETATM   25  F4  UNL     1       9.712  -2.370  -1.295  1.00  0.00    -0.169 F 
ENDBRANCH  21  22
ENDBRANCH  19  21
ENDBRANCH  16  17
ENDBRANCH  14  16
ENDBRANCH  11  12
ENDBRANCH  10  11
BRANCH   1  26
HETATM   26  C2  UNL     1      -0.153   1.979  -0.834  1.00  0.00     0.233 C 
HETATM   27  C3  UNL     1      -1.136   2.064  -2.044  1.00  0.00     0.087 C 
HETATM   28  F1  UNL     1       1.070   1.794  -1.514  1.00  0.00    -0.210 F 
BRANCH  26  29
HETATM   29  O1  UNL     1      -0.097   3.113  -0.171  1.00  0.00    -0.355 OA
HETATM   30  C1  UNL     1      -1.020   3.807   0.454  1.00  0.00     0.206 C 
ENDBRANCH  26  29
ENDBRANCH   1  26
BRANCH   2  31
HETATM   31  C6  UNL     1      -2.665  -0.352  -0.436  1.00  0.00     0.232 C 
HETATM   32  O2  UNL     1      -2.073  -1.339  -0.917  1.00  0.00    -0.272 OA
HETATM   33  N1  UNL     1      -4.059  -0.252  -0.600  1.00  0.00    -0.343 N 
HETATM   34  C7  UNL     1      -4.934   0.819  -0.170  1.00  0.00     0.127 C 
HETATM   35  C10 UNL     1      -4.976  -1.199  -1.228  1.00  0.00     0.028 C 
HETATM   36  C8  UNL     1      -5.972   0.025   0.629  1.00  0.00     0.022 C 
HETATM   37  C9  UNL     1      -6.149  -1.209  -0.251  1.00  0.00     0.032 C 
HETATM   38  C11 UNL     1      -5.457  -0.773  -2.572  1.00  0.00     0.038 C 
HETATM   39  C12 UNL     1      -4.443  -2.593  -1.276  1.00  0.00     0.038 C 
ENDBRANCH   2  31
TORSDOF 9
