REMARK  9 active torsions:
REMARK  status: ('A' for Active; 'I' for Inactive)
REMARK    1  A    between atoms: N1_1  and  C1_4 
REMARK    2  A    between atoms: C2_5  and  C3_6 
REMARK    3  A    between atoms: C4_7  and  C5_8 
REMARK    4  A    between atoms: C5_8  and  N2_9 
REMARK    5  A    between atoms: N2_9  and  S1_11 
REMARK    6  A    between atoms: S1_11  and  N3_12 
REMARK    7  A    between atoms: C9_22  and  O3_23 
REMARK    8  A    between atoms: O3_23  and  C10_24 
REMARK    9  A    between atoms: C10_24  and  C11_25 
ROOT
HETATM    1  C3  UNL     1      -0.671  -0.628  -0.505  1.00  0.00     0.064 A 
HETATM    2  C4  UNL     1      -1.722   0.225  -0.865  1.00  0.00    -0.001 A 
HETATM    3  C6  UNL     1      -1.514   1.085  -1.895  1.00  0.00     0.021 A 
HETATM    4 BR1  UNL     1      -2.905   2.244  -2.486  1.00  0.00    -0.050 Br
HETATM    5  C7  UNL     1      -0.288   1.092  -2.544  1.00  0.00     0.042 A 
HETATM    6  C8  UNL     1       0.738   0.237  -2.168  1.00  0.00     0.047 A 
HETATM    7 BR2  UNL     1       2.332   0.345  -3.199  1.00  0.00    -0.048 Br
HETATM    8  C9  UNL     1       0.553  -0.639  -1.135  1.00  0.00     0.111 A 
ENDROOT
BRANCH   8   9
HETATM    9  O3  UNL     1       1.521  -1.490  -0.736  1.00  0.00    -0.319 OA
BRANCH   9  10
HETATM   10  C10 UNL     1       2.472  -1.417   0.255  1.00  0.00     0.154 C 
BRANCH  10  11
HETATM   11  C11 UNL     1       3.446  -0.343   0.249  1.00  0.00    -0.008 A 
HETATM   12  C12 UNL     1       4.739  -0.600  -0.184  1.00  0.00     0.059 A 
HETATM   13  C13 UNL     1       5.724   0.360  -0.209  1.00  0.00     0.158 A 
HETATM   14  F1  UNL     1       6.986   0.129  -0.628  1.00  0.00    -0.203 F 
HETATM   15  C14 UNL     1       5.375   1.624   0.224  1.00  0.00     0.193 A 
HETATM   16  F2  UNL     1       6.320   2.590   0.211  1.00  0.00    -0.200 F 
HETATM   17  C15 UNL     1       4.090   1.885   0.656  1.00  0.00     0.158 A 
HETATM   18  F3  UNL     1       3.784   3.145   1.075  1.00  0.00    -0.203 F 
HETATM   19  C16 UNL     1       3.104   0.922   0.680  1.00  0.00     0.059 A 
ENDBRANCH  10  11
ENDBRANCH   9  10
ENDBRANCH   8   9
BRANCH   1  20
HETATM   20  C2  UNL     1      -0.852  -1.555   0.578  1.00  0.00    -0.041 C 
HETATM   21  C1  UNL     1      -1.006  -2.363   1.487  1.00  0.00     0.009 C 
BRANCH  21  22
HETATM   22  N1  UNL     1      -1.192  -3.299   2.511  1.00  0.00    -0.359 N 
ATOM     23  H12 UNL     1      -1.382  -3.155   1.519  1.00  0.00     0.166 HD
ATOM     24  H11 UNL     1      -1.320  -3.971   3.267  1.00  0.00     0.166 HD
ENDBRANCH  21  22
ENDBRANCH   1  20
BRANCH   2  25
HETATM   25  C5  UNL     1      -2.959   0.069  -0.088  1.00  0.00     0.175 C 
BRANCH  25  26
HETATM   26  N2  UNL     1      -4.021   0.977  -0.388  1.00  0.00    -0.299 N 
ATOM     27  H2  UNL     1      -4.010   1.733  -1.073  1.00  0.00     0.174 HD
BRANCH  26  28
HETATM   28  S1  UNL     1      -5.365   0.516   0.680  1.00  0.00     0.313 S 
HETATM   29  O1  UNL     1      -6.658   0.920   0.017  1.00  0.00    -0.183 OA
HETATM   30  O2  UNL     1      -5.269  -0.968   0.848  1.00  0.00    -0.183 OA
BRANCH  28  31
HETATM   31  N3  UNL     1      -5.233   1.336   2.185  1.00  0.00    -0.312 N 
ATOM     32  H32 UNL     1      -4.485   1.990   2.417  1.00  0.00     0.170 HD
ATOM     33  H31 UNL     1      -6.004   1.071   2.798  1.00  0.00     0.170 HD
ENDBRANCH  28  31
ENDBRANCH  26  28
ENDBRANCH  25  26
ENDBRANCH   2  25
TORSDOF 9
