REMARK  4 active torsions:
REMARK  status: ('A' for Active; 'I' for Inactive)
REMARK    1  A    between atoms: N1_1  and  C1_4 
REMARK    2  A    between atoms: C5_12  and  N4_13 
REMARK    3  A    between atoms: N6_20  and  C7_21 
REMARK    4  A    between atoms: C7_21  and  C8_22 
ROOT
HETATM    1  C1  UNL     1      -1.828   2.249   0.330  1.00  0.00     0.677 A 
HETATM    2  N2  UNL     1      -0.982   1.360  -0.219  1.00  0.00    -0.176 N 
ATOM      3  H2  UNL     1      -0.098   1.703  -0.594  1.00  0.00     0.186 HD
HETATM    4  C2  UNL     1      -1.238   0.047  -0.300  1.00  0.00     0.141 A 
HETATM    5  C3  UNL     1      -2.447  -0.364   0.221  1.00  0.00     0.068 A 
HETATM    6  C4  UNL     1      -3.335   0.525   0.790  1.00  0.00     0.125 A 
HETATM    7  N3  UNL     1      -3.019   1.830   0.841  1.00  0.00    -0.201 N 
ATOM      8  H3  UNL     1      -3.665   2.500   1.258  1.00  0.00     0.183 HD
HETATM    9  C5  UNL     1      -2.794  -1.693   0.177  1.00  0.00     0.116 A 
HETATM   10  N5  UNL     1      -1.896  -2.517  -0.392  1.00  0.00    -0.319 N 
ATOM     11  H5  UNL     1      -2.115  -3.512  -0.445  1.00  0.00     0.170 HD
HETATM   12  C6  UNL     1      -0.704  -2.085  -0.903  1.00  0.00     0.181 A 
HETATM   13  S1  UNL     1       0.242  -3.232  -1.631  1.00  0.00    -0.040 SA
HETATM   14  N6  UNL     1      -0.336  -0.799  -0.873  1.00  0.00    -0.304 N 
ENDROOT
BRANCH  14  15
HETATM   15  C7  UNL     1       0.900  -0.356  -1.450  1.00  0.00     0.171 C 
BRANCH  15  16
HETATM   16  C8  UNL     1       2.025  -0.125  -0.555  1.00  0.00    -0.040 A 
HETATM   17  C9  UNL     1       2.779  -1.094   0.031  1.00  0.00     0.009 A 
HETATM   18  C10 UNL     1       3.867  -0.793   0.872  1.00  0.00     0.001 A 
HETATM   19  C11 UNL     1       4.197   0.508   1.123  1.00  0.00     0.000 A 
HETATM   20  C12 UNL     1       3.467   1.509   0.554  1.00  0.00     0.001 A 
HETATM   21  C13 UNL     1       2.418   1.194  -0.256  1.00  0.00     0.009 A 
ENDBRANCH  15  16
ENDBRANCH  14  15
BRANCH   1  22
HETATM   22  N1  UNL     1      -1.535   3.505   0.384  1.00  0.00    -0.234 N 
ATOM     23  H12 UNL     1      -0.643   3.819   0.001  1.00  0.00     0.174 HD
ATOM     24  H11 UNL     1      -2.177   4.179   0.801  1.00  0.00     0.174 HD
ENDBRANCH   1  22
BRANCH   9  25
HETATM   25  N4  UNL     1      -3.900  -2.163   0.640  1.00  0.00    -0.385 N 
ATOM     26  H42 UNL     1      -4.581  -1.538   1.071  1.00  0.00     0.157 HD
ATOM     27  H41 UNL     1      -4.158  -3.149   0.607  1.00  0.00     0.157 HD
ENDBRANCH   9  25
TORSDOF 4
