REMARK  1 active torsions:
REMARK  status: ('A' for Active; 'I' for Inactive)
REMARK    1  A    between atoms: C2_2  and  C3_4 
ROOT
HETATM    1  C3  UNL     1       0.062   0.778   0.506  1.00  0.00     0.172 C 
HETATM    2  N1  UNL     1      -0.236   2.208   0.411  1.00  0.00    -0.155 NA
HETATM    3  S1  UNL     1      -0.675   2.490  -1.300  1.00  0.00     0.009 SA
HETATM    4  S2  UNL     1      -1.656   0.564  -1.511  1.00  0.00    -0.073 SA
HETATM    5  C4  UNL     1      -1.202   0.050   0.199  1.00  0.00     0.083 C 
HETATM    6  C5  UNL     1      -1.088  -1.414   0.218  1.00  0.00     0.024 C 
ENDROOT
BRANCH   1   7
HETATM    7  C2  UNL     1       1.233   0.483  -0.293  1.00  0.00     0.144 C 
HETATM    8  C1  UNL     1       1.832  -0.864  -0.366  1.00  0.00     0.093 C 
HETATM    9  O1  UNL     1       1.778   1.356  -0.945  1.00  0.00    -0.297 OA
ENDBRANCH   1   7
TORSDOF 1
