REMARK  5 active torsions:
REMARK  status: ('A' for Active; 'I' for Inactive)
REMARK    1  A    between atoms: O1_1  and  N1_3 
REMARK    2  A    between atoms: N1_3  and  C1_4 
REMARK    3  A    between atoms: N1_3  and  C6_9 
REMARK    4  A    between atoms: C1_4  and  C2_5 
REMARK    5  A    between atoms: C6_9  and  C7_10 
ROOT
HETATM    1  C6  UNL     1      -0.208   1.321   0.657  1.00  0.00     0.127 C 
ENDROOT
BRANCH   1   2
HETATM    2  N1  UNL     1       1.092   1.196   0.008  1.00  0.00    -0.199 NA
BRANCH   2   3
HETATM    3  O1  UNL     1       1.584   2.443  -0.091  1.00  0.00    -0.313 OA
ATOM      4  H1  UNL     1       1.023   3.055  -0.554  1.00  0.00     0.237 HD
ENDBRANCH   2   3
BRANCH   2   5
HETATM    5  C1  UNL     1       1.927   0.285   0.697  1.00  0.00     0.124 C 
BRANCH   5   6
HETATM    6  C2  UNL     1       3.292   0.107   0.103  1.00  0.00     0.001 C 
HETATM    7  C3  UNL     1       4.185  -0.869   0.843  1.00  0.00     0.006 C 
HETATM    8  C4  UNL     1       4.807  -1.163  -0.533  1.00  0.00     0.001 C 
HETATM    9  C5  UNL     1       3.414  -0.808  -1.079  1.00  0.00     0.006 C 
ENDBRANCH   5   6
ENDBRANCH   2   5
ENDBRANCH   1   2
BRANCH   1  10
HETATM   10  C7  UNL     1      -1.053   0.099   0.566  1.00  0.00     0.033 C 
HETATM   11  C8  UNL     1      -1.373  -0.306  -0.856  1.00  0.00     0.278 C 
HETATM   12  N2  UNL     1      -2.782  -0.621  -1.010  1.00  0.00     0.088 N 
HETATM   13  C9  UNL     1      -3.284  -1.550  -0.048  1.00  0.00     0.272 C 
HETATM   14  C13 UNL     1      -3.524   0.613  -0.928  1.00  0.00     0.272 C 
HETATM   15  C10 UNL     1      -3.079  -1.017   1.343  1.00  0.00     0.035 C 
HETATM   16  C11 UNL     1      -2.371   0.344   1.261  1.00  0.00    -0.004 C 
HETATM   17  C12 UNL     1      -3.205   1.265   0.397  1.00  0.00     0.035 C 
ENDBRANCH   1  10
TORSDOF 5
