REMARK  4 active torsions:
REMARK  status: ('A' for Active; 'I' for Inactive)
REMARK    1  A    between atoms: C1_4  and  C2_5 
REMARK    2  A    between atoms: C2_5  and  C3_6 
REMARK    3  A    between atoms: C3_6  and  N2_7 
REMARK    4  A    between atoms: C6_10  and  N3_11 
ROOT
HETATM    1  N2  UNL     1       2.233   0.148   0.475  1.00  0.00    -0.412 N 
HETATM    2  C4  UNL     1       1.494   1.244  -0.046  1.00  0.00     0.119 C 
HETATM    3  C5  UNL     1       0.009   1.173   0.252  1.00  0.00     0.044 C 
HETATM    4  C6  UNL     1      -0.421  -0.256   0.053  1.00  0.00     0.082 C 
HETATM    5  C12 UNL     1       0.212  -1.104   1.103  1.00  0.00     0.044 C 
HETATM    6  C13 UNL     1       1.594  -0.618   1.495  1.00  0.00     0.119 C 
ENDROOT
BRANCH   1   7
HETATM    7  C3  UNL     1       2.913  -0.672  -0.461  1.00  0.00     0.122 C 
BRANCH   7   8
HETATM    8  C2  UNL     1       4.065   0.037  -1.148  1.00  0.00     0.063 C 
BRANCH   8   9
HETATM    9  C1  UNL     1       5.088   0.487  -0.178  1.00  0.00     0.054 C 
HETATM   10  N1  UNL     1       5.344  -0.203   0.858  1.00  0.00    -0.411 N 
ATOM     11  H12 UNL     1       4.831  -1.072   1.007  1.00  0.00     0.155 HD
ATOM     12  H11 UNL     1       6.049   0.107   1.527  1.00  0.00     0.155 HD
ENDBRANCH   8   9
ENDBRANCH   7   8
ENDBRANCH   1   7
BRANCH   4  13
HETATM   13  N3  UNL     1      -1.815  -0.464  -0.141  1.00  0.00    -0.408 N 
HETATM   14  C7  UNL     1      -2.330   0.091  -1.332  1.00  0.00     0.117 C 
HETATM   15  C8  UNL     1      -3.790   0.154  -1.510  1.00  0.00     0.019 C 
HETATM   16  C9  UNL     1      -4.453  -0.831  -0.574  1.00  0.00     0.003 C 
HETATM   17  C10 UNL     1      -4.074  -0.378   0.824  1.00  0.00     0.019 C 
HETATM   18  C11 UNL     1      -2.598  -0.365   1.038  1.00  0.00     0.117 C 
ENDBRANCH   4  13
TORSDOF 4
