REMARK  5 active torsions:
REMARK  status: ('A' for Active; 'I' for Inactive)
REMARK    1  A    between atoms: C1_2  and  C2_3 
REMARK       I    between atoms: C1_2  and  N1_7 
REMARK    2  A    between atoms: C4_9  and  C5_10 
REMARK    3  A    between atoms: C5_10  and  C6_11 
REMARK    4  A    between atoms: C6_11  and  N2_12 
REMARK    5  A    between atoms: N2_12  and  C7_14 
ROOT
HETATM    1  C5  UNL     1       0.280   0.025   1.107  1.00  0.00     0.034 C 
ENDROOT
BRANCH   1   2
HETATM    2  C4  UNL     1      -1.051   0.435   0.646  1.00  0.00     0.092 C 
HETATM    3  N1  UNL     1      -1.996  -0.436   0.737  1.00  0.00    -0.334 N 
HETATM    4  C1  UNL     1      -3.294  -0.065   0.299  1.00  0.00     0.250 C 
ATOM      5  H1  UNL     1      -1.816  -1.367   1.114  1.00  0.00     0.168 HD
HETATM    6  O1  UNL     1      -4.317  -0.470   0.917  1.00  0.00    -0.268 OA
BRANCH   4   7
HETATM    7  C2  UNL     1      -3.430   0.782  -0.864  1.00  0.00     0.148 C 
HETATM    8  C3  UNL     1      -4.614   1.135  -1.284  1.00  0.00     0.272 C 
HETATM    9  F1  UNL     1      -5.724   0.720  -0.649  1.00  0.00    -0.173 F 
HETATM   10  F2  UNL     1      -4.741   1.923  -2.366  1.00  0.00    -0.173 F 
ENDBRANCH   4   7
ENDBRANCH   1   2
BRANCH   1  11
HETATM   11  C6  UNL     1       1.266   0.894   1.026  1.00  0.00     0.091 C 
BRANCH  11  12
HETATM   12  N2  UNL     1       2.556   0.501   1.470  1.00  0.00    -0.345 N 
ATOM     13  H2  UNL     1       2.931   0.848   2.353  1.00  0.00     0.167 HD
BRANCH  12  14
HETATM   14  C7  UNL     1       3.255  -0.316   0.723  1.00  0.00     0.164 A 
HETATM   15  N3  UNL     1       2.910  -0.856  -0.452  1.00  0.00    -0.280 N 
HETATM   16  N4  UNL     1       3.729  -1.633  -1.032  1.00  0.00    -0.303 N 
ATOM     17  H3  UNL     1       2.005  -0.647  -0.874  1.00  0.00     0.189 HD
HETATM   18  C8  UNL     1       4.903  -1.899  -0.477  1.00  0.00     0.160 A 
ATOM     19  H4  UNL     1       3.483  -2.054  -1.928  1.00  0.00     0.186 HD
HETATM   20  S1  UNL     1       4.812  -0.976   0.958  1.00  0.00    -0.046 SA
ENDBRANCH  12  14
ENDBRANCH  11  12
ENDBRANCH   1  11
TORSDOF 5
