REMARK  11 active torsions:
REMARK  status: ('A' for Active; 'I' for Inactive)
REMARK    1  A    between atoms: C1_2  and  C2_4 
REMARK    2  A    between atoms: C2_4  and  N2_5 
REMARK    3  A    between atoms: C2_4  and  C6_28 
REMARK    4  A    between atoms: N2_5  and  N3_7 
REMARK    5  A    between atoms: N3_7  and  C3_9 
REMARK    6  A    between atoms: C3_9  and  O2_10 
REMARK    7  A    between atoms: N4_12  and  C4_14 
REMARK    8  A    between atoms: C5_19  and  S1_20 
REMARK    9  A    between atoms: S1_20  and  N7_21 
REMARK   10  A    between atoms: C6_28  and  N9_29 
REMARK   11  A    between atoms: C6_28  and  N10_33 
ROOT
HETATM    1  C3  UNL     1       0.498   1.419   0.421  1.00  0.00     0.250 C 
HETATM    2  N4  UNL     1       1.831   1.161   0.384  1.00  0.00    -0.152 N 
ATOM      3  H4  UNL     1       2.408   1.945   0.690  1.00  0.00     0.188 HD
ENDROOT
BRANCH   1   4
HETATM    4  N3  UNL     1      -0.468   0.484   0.838  1.00  0.00    -0.268 N 
ATOM      5  H3  UNL     1      -0.184  -0.456   1.113  1.00  0.00     0.190 HD
BRANCH   4   6
HETATM    6  N2  UNL     1      -1.789   0.840   0.874  1.00  0.00    -0.316 N 
ATOM      7  H2  UNL     1      -2.129   1.432   1.632  1.00  0.00     0.181 HD
BRANCH   6   8
HETATM    8  C2  UNL     1      -2.680   0.406  -0.111  1.00  0.00     0.246 C 
BRANCH   8   9
HETATM    9  C1  UNL     1      -2.817  -1.066  -0.209  1.00  0.00     0.259 C 
HETATM   10  N1  UNL     1      -3.769  -1.574  -1.147  1.00  0.00    -0.060 NA
HETATM   11  O1  UNL     1      -2.127  -1.865   0.502  1.00  0.00    -0.274 OA
ENDBRANCH   8   9
BRANCH   8  12
HETATM   12  C6  UNL     1      -4.042   1.064   0.161  1.00  0.00     0.410 C 
BRANCH  12  13
HETATM   13  N9  UNL     1      -4.961   0.774  -0.927  1.00  0.00    -0.048 N 
ATOM     14  H93 UNL     1      -4.579   1.046  -1.833  1.00  0.00     0.276 HD
ATOM     15  H92 UNL     1      -5.048  -0.228  -1.097  1.00  0.00     0.276 HD
ATOM     16  H91 UNL     1      -5.865   1.211  -0.746  1.00  0.00     0.276 HD
ENDBRANCH  12  13
BRANCH  12  17
HETATM   17  N10 UNL     1      -4.610   0.592   1.379  1.00  0.00    -0.048 N 
ATOM     18 3H10 UNL     1      -4.677  -0.426   1.392  1.00  0.00     0.276 HD
ATOM     19 2H10 UNL     1      -3.970   0.717   2.164  1.00  0.00     0.276 HD
ATOM     20 1H10 UNL     1      -5.514   1.029   1.560  1.00  0.00     0.276 HD
ENDBRANCH  12  17
ENDBRANCH   8  12
ENDBRANCH   6   8
ENDBRANCH   4   6
ENDBRANCH   1   4
BRANCH   1  21
HETATM   21  O2  UNL     1       0.086   2.599   0.056  1.00  0.00    -0.331 OA
ATOM     22  H2  UNL     1       0.738   3.230  -0.225  1.00  0.00     0.221 HD
ENDBRANCH   1  21
BRANCH   2  23
HETATM   23  C4  UNL     1       2.496   0.147   0.047  1.00  0.00     0.702 A 
HETATM   24  N5  UNL     1       2.167  -1.075  -0.408  1.00  0.00    -0.130 N 
HETATM   25  N6  UNL     1       3.276  -1.799  -0.612  1.00  0.00    -0.260 N 
ATOM     26  H5  UNL     1       1.215  -1.402  -0.573  1.00  0.00     0.205 HD
HETATM   27  C5  UNL     1       4.318  -1.057  -0.294  1.00  0.00     0.253 A 
ATOM     28  H6  UNL     1       3.308  -2.759  -0.954  1.00  0.00     0.190 HD
HETATM   29  N8  UNL     1       3.878   0.112   0.103  1.00  0.00    -0.162 N 
ATOM     30  H8  UNL     1       4.469   0.885   0.409  1.00  0.00     0.186 HD
BRANCH  27  31
HETATM   31  S1  UNL     1       6.038  -1.465  -0.358  1.00  0.00     0.290 S 
HETATM   32  O3  UNL     1       6.479  -1.757  -1.758  1.00  0.00    -0.198 OA
HETATM   33  O4  UNL     1       6.237  -2.620   0.580  1.00  0.00    -0.198 OA
BRANCH  31  34
HETATM   34  N7  UNL     1       6.984  -0.153   0.231  1.00  0.00    -0.322 N 
ATOM     35  H72 UNL     1       6.593   0.728   0.566  1.00  0.00     0.169 HD
ATOM     36  H71 UNL     1       7.976  -0.388   0.194  1.00  0.00     0.169 HD
ENDBRANCH  31  34
ENDBRANCH  27  31
ENDBRANCH   2  23
TORSDOF 11
