REMARK  10 active torsions:
REMARK  status: ('A' for Active; 'I' for Inactive)
REMARK    1  A    between atoms: N1_1  and  C1_5 
REMARK    2  A    between atoms: C1_5  and  C2_6 
REMARK    3  A    between atoms: C2_6  and  N2_7 
REMARK    4  A    between atoms: N2_7  and  C3_9 
REMARK    5  A    between atoms: C4_12  and  N4_13 
REMARK    6  A    between atoms: N4_13  and  C5_15 
REMARK    7  A    between atoms: C5_15  and  N5_16 
REMARK    8  A    between atoms: C5_15  and  O1_20 
REMARK    9  A    between atoms: C8_31  and  N9_32 
REMARK       I    between atoms: N9_32  and  C9_34 
REMARK       I    between atoms: C9_34  and  N10_36 
REMARK   10  A    between atoms: N10_36  and  N11_38 
ROOT
HETATM    1  C3  UNL     1      -0.013   0.698   0.260  1.00  0.00     0.134 A 
HETATM    2  N3  UNL     1       1.184   1.275   0.426  1.00  0.00    -0.176 N 
ATOM      3  H3  UNL     1       1.220   2.237   0.762  1.00  0.00     0.186 HD
HETATM    4  C4  UNL     1       2.351   0.633   0.166  1.00  0.00     0.684 A 
HETATM    5  N6  UNL     1       2.263  -0.633  -0.275  1.00  0.00    -0.175 N 
ATOM      6  H6  UNL     1       3.128  -1.135  -0.477  1.00  0.00     0.186 HD
HETATM    7  C6  UNL     1       1.104  -1.270  -0.463  1.00  0.00     0.142 A 
HETATM    8  N7  UNL     1       1.036  -2.549  -0.909  1.00  0.00    -0.293 N 
ATOM      9  H7  UNL     1       1.906  -3.043  -1.108  1.00  0.00     0.172 HD
HETATM   10  C7  UNL     1      -0.127  -3.194  -1.100  1.00  0.00     0.327 A 
HETATM   11  O2  UNL     1      -0.206  -4.379  -1.513  1.00  0.00    -0.247 OA
HETATM   12  N8  UNL     1      -1.278  -2.550  -0.840  1.00  0.00    -0.293 N 
ATOM     13  H8  UNL     1      -2.168  -3.028  -0.981  1.00  0.00     0.172 HD
HETATM   14  C8  UNL     1      -1.266  -1.272  -0.393  1.00  0.00     0.131 A 
HETATM   15  C10 UNL     1      -0.068  -0.623  -0.201  1.00  0.00     0.097 A 
ENDROOT
BRANCH   4  16
HETATM   16  N4  UNL     1       3.449   1.264   0.354  1.00  0.00    -0.174 N 
ATOM     17  H4  UNL     1       3.386   2.224   0.692  1.00  0.00     0.182 HD
BRANCH  16  18
HETATM   18  C5  UNL     1       4.755   0.733   0.129  1.00  0.00     0.438 C 
BRANCH  18  19
HETATM   19  N5  UNL     1       5.105  -0.357   1.014  1.00  0.00    -0.034 N 
ATOM     20  H53 UNL     1       4.994  -0.077   1.989  1.00  0.00     0.279 HD
ATOM     21  H52 UNL     1       4.404  -1.097   0.967  1.00  0.00     0.279 HD
ATOM     22  H51 UNL     1       6.038  -0.736   0.853  1.00  0.00     0.279 HD
ENDBRANCH  18  19
BRANCH  18  23
HETATM   23  O1  UNL     1       4.936   0.374  -1.213  1.00  0.00    -0.354 OA
ATOM     24  H1  UNL     1       5.805   0.021  -1.363  1.00  0.00     0.213 HD
ENDBRANCH  18  23
ENDBRANCH  16  18
ENDBRANCH   4  16
BRANCH   1  25
HETATM   25  N2  UNL     1      -1.149   1.248   0.487  1.00  0.00    -0.373 N 
ATOM     26  H2  UNL     1      -1.975   0.676   0.311  1.00  0.00     0.161 HD
BRANCH  25  27
HETATM   27  C2  UNL     1      -1.383   2.577   0.960  1.00  0.00     0.148 C 
BRANCH  27  28
HETATM   28  C1  UNL     1      -1.717   3.557  -0.146  1.00  0.00     0.249 C 
BRANCH  28  29
HETATM   29  N1  UNL     1      -0.683   3.683  -1.129  1.00  0.00    -0.078 N 
ATOM     30  H13 UNL     1       0.206   3.924  -0.690  1.00  0.00     0.274 HD
ATOM     31  H12 UNL     1      -0.440   2.771  -1.516  1.00  0.00     0.274 HD
ATOM     32  H11 UNL     1      -0.908   4.343  -1.874  1.00  0.00     0.274 HD
ENDBRANCH  28  29
ENDBRANCH  27  28
ENDBRANCH  25  27
ENDBRANCH   1  25
BRANCH  14  33
HETATM   33  N9  UNL     1      -2.360  -0.643  -0.139  1.00  0.00    -0.292 N 
HETATM   34  C9  UNL     1      -3.595  -1.313  -0.337  1.00  0.00     0.340 C 
HETATM   35  O3  UNL     1      -3.991  -1.467  -1.533  1.00  0.00    -0.245 OA
HETATM   36  N10 UNL     1      -4.359  -1.792   0.747  1.00  0.00    -0.258 N 
ATOM     37  H10 UNL     1      -4.003  -1.646   1.691  1.00  0.00     0.191 HD
ATOM     38  H9  UNL     1      -2.339   0.319   0.198  1.00  0.00     0.172 HD
BRANCH  36  39
HETATM   39  N11 UNL     1      -5.578  -2.456   0.595  1.00  0.00    -0.341 N 
ATOM     40 2H11 UNL     1      -5.919  -2.593  -0.356  1.00  0.00     0.177 HD
ATOM     41 1H11 UNL     1      -6.131  -2.803   1.379  1.00  0.00     0.177 HD
ENDBRANCH  36  39
ENDBRANCH  14  33
TORSDOF 10
