REMARK  14 active torsions:
REMARK  status: ('A' for Active; 'I' for Inactive)
REMARK    1  A    between atoms: N1_1  and  C1_4 
REMARK    2  A    between atoms: C7_17  and  N5_18 
REMARK    3  A    between atoms: N5_18  and  C8_19 
REMARK    4  A    between atoms: N5_18  and  C18_37 
REMARK    5  A    between atoms: C8_19  and  C9_20 
REMARK    6  A    between atoms: C9_20  and  C10_21 
REMARK    7  A    between atoms: C10_21  and  N6_22 
REMARK    8  A    between atoms: N6_22  and  C11_25 
REMARK    9  A    between atoms: C11_25  and  C12_26 
REMARK   10  A    between atoms: C12_26  and  O1_27 
REMARK   11  A    between atoms: C12_26  and  C13_29 
REMARK   12  A    between atoms: C15_32  and  C16_33 
REMARK   13  A    between atoms: C18_37  and  C19_38 
REMARK   14  A    between atoms: C22_41  and  C23_42 
ROOT
HETATM    1  N5  UNL     1      -1.166   0.651  -0.074  1.00  0.00    -0.388 N 
ENDROOT
BRANCH   1   2
HETATM    2  C7  UNL     1      -1.863  -0.549  -0.049  1.00  0.00     0.089 C 
HETATM    3  C6  UNL     1      -2.106  -1.281  -1.307  1.00  0.00     0.030 C 
HETATM    4  C5  UNL     1      -1.844  -2.761  -1.294  1.00  0.00     0.046 C 
HETATM    5  C3  UNL     1      -2.323  -3.335  -0.035  1.00  0.00     0.009 A 
HETATM    6  C2  UNL     1      -1.846  -2.713   1.125  1.00  0.00     0.038 A 
HETATM    7  C4  UNL     1      -3.149  -4.404   0.126  1.00  0.00     0.122 A 
HETATM    8  N2  UNL     1      -2.157  -3.113   2.357  1.00  0.00    -0.195 N 
HETATM    9  C26 UNL     1      -0.971  -1.530   0.818  1.00  0.00     0.083 C 
HETATM   10  C1  UNL     1      -2.983  -4.182   2.487  1.00  0.00     0.677 A 
ATOM     11  H2  UNL     1      -1.786  -2.631   3.176  1.00  0.00     0.184 HD
HETATM   12  N4  UNL     1      -3.456  -4.797   1.404  1.00  0.00    -0.177 N 
ATOM     13  H4  UNL     1      -4.075  -5.597   1.531  1.00  0.00     0.185 HD
HETATM   14  N3  UNL     1      -3.623  -5.019  -0.873  1.00  0.00    -0.385 N 
ATOM     15  H32 UNL     1      -3.395  -4.727  -1.823  1.00  0.00     0.157 HD
ATOM     16  H31 UNL     1      -4.242  -5.820  -0.752  1.00  0.00     0.157 HD
BRANCH  10  17
HETATM   17  N1  UNL     1      -3.285  -4.573   3.697  1.00  0.00    -0.234 N 
ATOM     18  H12 UNL     1      -2.923  -4.102   4.526  1.00  0.00     0.174 HD
ATOM     19  H11 UNL     1      -3.906  -5.376   3.795  1.00  0.00     0.174 HD
ENDBRANCH  10  17
ENDBRANCH   1   2
BRANCH   1  20
HETATM   20  C8  UNL     1       0.248   0.655  -0.320  1.00  0.00     0.124 C 
BRANCH  20  21
HETATM   21  C9  UNL     1       0.639   0.246  -1.699  1.00  0.00     0.047 C 
BRANCH  21  22
HETATM   22  C10 UNL     1       2.143   0.405  -1.919  1.00  0.00     0.234 C 
BRANCH  22  23
HETATM   23  N6  UNL     1       2.830  -0.417  -0.943  1.00  0.00    -0.072 N 
ATOM     24  H62 UNL     1       2.546  -0.225   0.018  1.00  0.00     0.277 HD
ATOM     25  H61 UNL     1       2.544  -1.396  -0.967  1.00  0.00     0.277 HD
BRANCH  23  26
HETATM   26  C11 UNL     1       4.268  -0.226  -1.172  1.00  0.00     0.268 C 
BRANCH  26  27
HETATM   27  C12 UNL     1       5.013  -0.940  -0.095  1.00  0.00     0.177 C 
BRANCH  27  28
HETATM   28  O1  UNL     1       4.778  -2.294  -0.084  1.00  0.00    -0.389 OA
ATOM     29  H1  UNL     1       5.253  -2.749   0.602  1.00  0.00     0.210 HD
ENDBRANCH  27  28
BRANCH  27  30
HETATM   30  C13 UNL     1       6.493  -0.603  -0.142  1.00  0.00    -0.020 A 
HETATM   31  C14 UNL     1       6.961   0.243  -1.116  1.00  0.00     0.060 A 
HETATM   32  S1  UNL     1       8.628   0.353  -0.748  1.00  0.00    -0.096 SA
HETATM   33  C15 UNL     1       8.673  -0.666   0.612  1.00  0.00     0.070 A 
HETATM   34  C17 UNL     1       7.373  -1.070   0.746  1.00  0.00     0.034 A 
BRANCH  33  35
HETATM   35  C16 UNL     1       9.837  -1.011   1.448  1.00  0.00     0.271 C 
HETATM   36  N7  UNL     1      11.072  -0.414   1.114  1.00  0.00    -0.057 NA
HETATM   37  O2  UNL     1       9.683  -1.794   2.389  1.00  0.00    -0.270 OA
ENDBRANCH  33  35
ENDBRANCH  27  30
ENDBRANCH  26  27
ENDBRANCH  23  26
ENDBRANCH  22  23
ENDBRANCH  21  22
ENDBRANCH  20  21
ENDBRANCH   1  20
BRANCH   1  38
HETATM   38  C18 UNL     1      -1.753   1.845  -0.541  1.00  0.00     0.063 C 
BRANCH  38  39
HETATM   39  C19 UNL     1      -2.821   2.568   0.157  1.00  0.00     0.024 C 
HETATM   40  C20 UNL     1      -3.065   3.846  -0.704  1.00  0.00     0.011 C 
HETATM   41  C21 UNL     1      -4.150   4.671  -0.099  1.00  0.00     0.016 C 
HETATM   42  C22 UNL     1      -5.490   3.974  -0.207  1.00  0.00     0.087 C 
HETATM   43  C24 UNL     1      -5.247   2.564  -0.605  1.00  0.00     0.016 C 
HETATM   44  C25 UNL     1      -4.170   1.952   0.283  1.00  0.00     0.011 C 
BRANCH  42  45
HETATM   45  C23 UNL     1      -6.295   4.121   1.030  1.00  0.00     0.177 C 
HETATM   46  O3  UNL     1      -6.674   3.129   1.693  1.00  0.00    -0.648 OA
HETATM   47  O4  UNL     1      -6.654   5.393   1.490  1.00  0.00    -0.648 OA
ENDBRANCH  42  45
ENDBRANCH  38  39
ENDBRANCH   1  38
TORSDOF 14
