REMARK  7 active torsions:
REMARK  status: ('A' for Active; 'I' for Inactive)
REMARK    1  A    between atoms: N1_1  and  N2_4 
REMARK    2  A    between atoms: N2_4  and  C1_6 
REMARK    3  A    between atoms: N5_10  and  O1_11 
REMARK    4  A    between atoms: C2_13  and  C3_14 
REMARK    5  A    between atoms: C4_15  and  C5_16 
REMARK    6  A    between atoms: C5_16  and  S1_17 
REMARK    7  A    between atoms: S1_17  and  N6_18 
ROOT
HETATM    1  C1  UNL     1      -2.040  -0.184   0.264  1.00  0.00     0.172 A 
HETATM    2  N3  UNL     1      -3.127  -0.915  -0.039  1.00  0.00    -0.264 N 
ATOM      3  H3  UNL     1      -3.957  -1.010   0.546  1.00  0.00     0.186 HD
HETATM    4  N4  UNL     1      -2.949  -1.491  -1.215  1.00  0.00     0.009 NA
HETATM    5  N5  UNL     1      -1.761  -1.161  -1.709  1.00  0.00    -0.135 N 
HETATM    6  C2  UNL     1      -1.181  -0.348  -0.802  1.00  0.00     0.178 A 
ENDROOT
BRANCH   6   7
HETATM    7  C3  UNL     1       0.111   0.272  -0.880  1.00  0.00    -0.040 C 
HETATM    8  C4  UNL     1       1.202   0.777  -0.936  1.00  0.00    -0.083 C 
BRANCH   8   9
HETATM    9  C5  UNL     1       2.534   1.369  -1.002  1.00  0.00     0.256 C 
BRANCH   9  10
HETATM   10  S1  UNL     1       3.462   0.871   0.417  1.00  0.00     0.234 S 
HETATM   11  O2  UNL     1       2.776   1.418   1.638  1.00  0.00    -0.205 OA
HETATM   12  O3  UNL     1       4.849   1.475   0.283  1.00  0.00    -0.205 OA
BRANCH  10  13
HETATM   13  N6  UNL     1       3.647  -0.823   0.532  1.00  0.00    -0.328 N 
ATOM     14  H62 UNL     1       3.256  -1.467  -0.156  1.00  0.00     0.168 HD
ATOM     15  H61 UNL     1       4.183  -1.110   1.351  1.00  0.00     0.168 HD
ENDBRANCH  10  13
ENDBRANCH   9  10
ENDBRANCH   8   9
ENDBRANCH   6   7
BRANCH   1  16
HETATM   16  N2  UNL     1      -1.836   0.533   1.343  1.00  0.00    -0.289 N 
ATOM     17  H2  UNL     1      -0.958   1.042   1.447  1.00  0.00     0.188 HD
BRANCH  16  18
HETATM   18  N1  UNL     1      -2.784   0.611   2.338  1.00  0.00    -0.344 N 
ATOM     19  H12 UNL     1      -3.656   0.095   2.218  1.00  0.00     0.176 HD
ATOM     20  H11 UNL     1      -2.625   1.169   3.177  1.00  0.00     0.176 HD
ENDBRANCH  16  18
ENDBRANCH   1  16
BRANCH   5  21
HETATM   21  O1  UNL     1      -1.207  -1.558  -2.910  1.00  0.00    -0.268 OA
ATOM     22  H1  UNL     1      -0.357  -1.322  -3.263  1.00  0.00     0.246 HD
ENDBRANCH   5  21
TORSDOF 7
