REMARK  2 active torsions:
REMARK  status: ('A' for Active; 'I' for Inactive)
REMARK    1  A    between atoms: C4_6  and  C5_7 
REMARK    2  A    between atoms: C7_14  and  O2_15 
ROOT
HETATM    1  C1  UNL     1      -2.728   1.446  -0.893  1.00  0.00     0.047 C 
HETATM    2  C2  UNL     1      -2.249   0.424  -0.200  1.00  0.00     0.080 A 
HETATM    3  N1  UNL     1      -0.941   0.141  -0.138  1.00  0.00    -0.340 N 
ATOM      4  H1  UNL     1      -0.292   0.741  -0.648  1.00  0.00     0.167 HD
HETATM    5  C3  UNL     1      -0.435  -0.899   0.566  1.00  0.00     0.110 A 
HETATM    6  C4  UNL     1       0.869  -1.140   0.597  1.00  0.00     0.082 C 
HETATM    7  N4  UNL     1      -1.284  -1.696   1.241  1.00  0.00    -0.306 N 
ATOM      8  H4  UNL     1      -0.905  -2.480   1.772  1.00  0.00     0.170 HD
HETATM    9  C8  UNL     1      -2.614  -1.496   1.241  1.00  0.00     0.299 A 
HETATM   10  O3  UNL     1      -3.389  -2.269   1.891  1.00  0.00    -0.264 OA
HETATM   11  C9  UNL     1      -3.092  -0.426   0.514  1.00  0.00     0.265 A 
HETATM   12  O4  UNL     1      -4.336  -0.247   0.520  1.00  0.00    -0.280 OA
ENDROOT
BRANCH   6  13
HETATM   13  C5  UNL     1       1.808  -0.291  -0.126  1.00  0.00     0.091 A 
HETATM   14  N2  UNL     1       2.425  -0.597  -1.278  1.00  0.00    -0.305 N 
HETATM   15  C6  UNL     1       3.217   0.425  -1.649  1.00  0.00     0.326 A 
ATOM     16  H2  UNL     1       2.311  -1.470  -1.793  1.00  0.00     0.171 HD
HETATM   17  O1  UNL     1       3.961   0.523  -2.671  1.00  0.00    -0.247 OA
HETATM   18  N3  UNL     1       3.110   1.400  -0.730  1.00  0.00    -0.287 N 
HETATM   19  C7  UNL     1       2.241   0.966   0.215  1.00  0.00     0.171 A 
ATOM     20  H3  UNL     1       3.593   2.299  -0.742  1.00  0.00     0.172 HD
BRANCH  19  21
HETATM   21  O2  UNL     1       1.851   1.688   1.354  1.00  0.00    -0.344 OA
ATOM     22  H2  UNL     1       2.151   2.558   1.590  1.00  0.00     0.219 HD
ENDBRANCH  19  21
ENDBRANCH   6  13
TORSDOF 2
