REMARK  3 active torsions:
REMARK  status: ('A' for Active; 'I' for Inactive)
REMARK    1  A    between atoms: C2_2  and  C3_3 
REMARK    2  A    between atoms: C12_13  and  O2_14 
REMARK    3  A    between atoms: C15_18  and  O3_19 
ROOT
HETATM    1  C3  UNL     1      -3.082  -0.176   0.057  1.00  0.00     0.078 C 
HETATM    2  C4  UNL     1      -4.153  -1.035   0.749  1.00  0.00     0.051 C 
HETATM    3  O1  UNL     1      -3.379  -0.180  -1.268  1.00  0.00    -0.376 OA
HETATM    4  C5  UNL     1      -2.327  -0.585  -2.016  1.00  0.00     0.174 C 
HETATM    5  C6  UNL     1      -1.143  -0.806  -1.151  1.00  0.00     0.022 C 
HETATM    6  C7  UNL     1      -1.700  -0.741   0.259  1.00  0.00     0.030 C 
HETATM    7  C8  UNL     1      -0.897  -0.117   1.293  1.00  0.00     0.009 C 
HETATM    8  C9  UNL     1       0.416   0.538   0.970  1.00  0.00     0.011 C 
HETATM    9  C10 UNL     1       0.941  -0.027  -0.289  1.00  0.00    -0.027 C 
HETATM   10  C11 UNL     1       1.287  -1.445  -0.051  1.00  0.00     0.046 C 
HETATM   11  C12 UNL     1       2.658  -1.525   0.574  1.00  0.00     0.149 C 
HETATM   12  C13 UNL     1       3.388  -0.276   0.750  1.00  0.00    -0.032 C 
HETATM   13  C14 UNL     1       4.381  -0.263   1.619  1.00  0.00     0.019 C 
HETATM   14  C15 UNL     1       3.098   1.003   0.017  1.00  0.00     0.153 C 
HETATM   15  C16 UNL     1       2.098   0.599  -0.961  1.00  0.00     0.028 C 
HETATM   16  C17 UNL     1       1.571   1.544  -1.985  1.00  0.00     0.009 C 
HETATM   17  C18 UNL     1       0.503   0.569  -2.569  1.00  0.00     0.006 C 
HETATM   18  C19 UNL     1      -0.166   0.252  -1.276  1.00  0.00     0.001 C 
ENDROOT
BRANCH   1  19
HETATM   19  C2  UNL     1      -3.253   1.186   0.584  1.00  0.00     0.001 C 
HETATM   20  C1  UNL     1      -4.046   1.489   1.607  1.00  0.00     0.010 C 
ENDBRANCH   1  19
BRANCH  11  21
HETATM   21  O2  UNL     1       2.582  -2.149   1.844  1.00  0.00    -0.391 OA
ATOM     22  H2  UNL     1       3.445  -2.199   2.238  1.00  0.00     0.210 HD
ENDBRANCH  11  21
BRANCH  14  23
HETATM   23  O3  UNL     1       2.761   2.034   0.866  1.00  0.00    -0.391 OA
ATOM     24  H3  UNL     1       2.578   2.843   0.403  1.00  0.00     0.210 HD
ENDBRANCH  14  23
TORSDOF 3
