REMARK  9 active torsions:
REMARK  status: ('A' for Active; 'I' for Inactive)
REMARK    1  A    between atoms: O1_2  and  C2_3 
REMARK    2  A    between atoms: C4_5  and  C5_6 
REMARK    3  A    between atoms: C5_6  and  O2_7 
REMARK    4  A    between atoms: C5_6  and  C6_9 
REMARK    5  A    between atoms: C6_9  and  C7_10 
REMARK    6  A    between atoms: C7_10  and  C8_11 
REMARK    7  A    between atoms: C14_20  and  C15_21 
REMARK    8  A    between atoms: C20_28  and  N3_29 
REMARK    9  A    between atoms: C21_34  and  N5_35 
ROOT
HETATM    1  C2  UNL     1      -1.803   1.756  -0.206  1.00  0.00     0.085 A 
HETATM    2  C3  UNL     1      -0.921   0.955   0.436  1.00  0.00     0.052 A 
HETATM    3  C4  UNL     1      -1.127  -0.409   0.742  1.00  0.00     0.005 A 
HETATM    4  C14 UNL     1      -2.359  -0.952   0.330  1.00  0.00    -0.009 A 
HETATM    5  C19 UNL     1      -3.289  -0.125  -0.333  1.00  0.00     0.073 A 
HETATM    6  N2  UNL     1      -4.493  -0.555  -0.702  1.00  0.00    -0.190 N 
ATOM      7  H2  UNL     1      -4.734  -1.528  -0.516  1.00  0.00     0.184 HD
HETATM    8  C20 UNL     1      -5.421   0.232  -1.314  1.00  0.00     0.677 A 
HETATM    9  N4  UNL     1      -5.122   1.506  -1.560  1.00  0.00    -0.176 N 
ATOM     10  H4  UNL     1      -5.810   2.103  -2.019  1.00  0.00     0.186 HD
HETATM   11  C21 UNL     1      -3.937   2.014  -1.215  1.00  0.00     0.130 A 
HETATM   12  C22 UNL     1      -3.005   1.215  -0.596  1.00  0.00     0.069 A 
ENDROOT
BRANCH   3  13
HETATM   13  C5  UNL     1      -0.128  -0.956   1.541  1.00  0.00     0.054 C 
BRANCH  13  14
HETATM   14  O2  UNL     1       0.272  -2.130   1.937  1.00  0.00    -0.364 OA
ATOM     15  H2  UNL     1       0.954  -2.504   2.483  1.00  0.00     0.217 HD
ENDBRANCH  13  14
BRANCH  13  16
HETATM   16  C6  UNL     1       1.265  -0.242   1.338  1.00  0.00     0.065 C 
BRANCH  16  17
HETATM   17  C7  UNL     1       1.745  -0.369  -0.054  1.00  0.00     0.011 C 
BRANCH  17  18
HETATM   18  C8  UNL     1       3.089   0.242  -0.308  1.00  0.00    -0.013 C 
HETATM   19  C9  UNL     1       4.176  -0.377   0.538  1.00  0.00     0.006 C 
HETATM   20  C10 UNL     1       5.483  -0.469  -0.229  1.00  0.00     0.028 C 
HETATM   21  C11 UNL     1       6.205   0.861  -0.226  1.00  0.00     0.232 C 
HETATM   22  N1  UNL     1       5.352   1.769  -1.008  1.00  0.00    -0.075 N 
HETATM   23  C12 UNL     1       4.408   2.359  -0.109  1.00  0.00     0.232 C 
ATOM     24  H12 UNL     1       5.886   2.461  -1.533  1.00  0.00     0.277 HD
ATOM     25  H11 UNL     1       4.909   1.310  -1.804  1.00  0.00     0.277 HD
HETATM   26  C13 UNL     1       3.025   1.724  -0.207  1.00  0.00     0.032 C 
ENDBRANCH  17  18
ENDBRANCH  16  17
ENDBRANCH  13  16
ENDBRANCH   3  13
BRANCH   4  27
HETATM   27  C15 UNL     1      -2.535  -2.345   0.517  1.00  0.00    -0.021 C 
HETATM   28  C16 UNL     1      -2.500  -2.882   1.942  1.00  0.00     0.019 C 
HETATM   29  C17 UNL     1      -1.318  -3.089  -0.218  1.00  0.00     0.019 C 
HETATM   30  C18 UNL     1      -3.611  -3.169  -0.121  1.00  0.00     0.019 C 
ENDBRANCH   4  27
BRANCH   1  31
HETATM   31  O1  UNL     1      -1.580   3.093  -0.500  1.00  0.00    -0.355 OA
HETATM   32  C1  UNL     1      -0.375   3.735  -0.135  1.00  0.00     0.210 C 
ENDBRANCH   1  31
BRANCH  11  33
HETATM   33  N5  UNL     1      -3.650   3.233  -1.450  1.00  0.00    -0.384 N 
ATOM     34  H52 UNL     1      -4.341   3.826  -1.909  1.00  0.00     0.157 HD
ATOM     35  H51 UNL     1      -2.744   3.621  -1.186  1.00  0.00     0.157 HD
ENDBRANCH  11  33
BRANCH   8  36
HETATM   36  N3  UNL     1      -6.539  -0.310  -1.627  1.00  0.00    -0.234 N 
ATOM     37  H32 UNL     1      -6.768  -1.286  -1.439  1.00  0.00     0.174 HD
ATOM     38  H31 UNL     1      -7.234   0.279  -2.085  1.00  0.00     0.174 HD
ENDBRANCH   8  36
TORSDOF 9
