REMARK  4 active torsions:
REMARK  status: ('A' for Active; 'I' for Inactive)
REMARK    1  A    between atoms: C3_3  and  C4_4 
REMARK    2  A    between atoms: C4_4  and  N1_5 
REMARK    3  A    between atoms: C7_12  and  N4_13 
REMARK    4  A    between atoms: C8_18  and  N6_19 
ROOT
HETATM    1  C1  UNL     1      -3.750   1.840   0.774  1.00  0.00     0.017 C 
HETATM    2  C2  UNL     1      -3.245   0.778   0.471  1.00  0.00    -0.051 C 
HETATM    3  C3  UNL     1      -2.605  -0.516   0.116  1.00  0.00     0.258 A 
HETATM    4  N7  UNL     1      -2.944  -1.695   0.708  1.00  0.00    -0.249 N 
ATOM      5  H7  UNL     1      -2.756  -2.362   1.456  1.00  0.00     0.192 HD
HETATM    6  O1  UNL     1      -3.686  -1.386  -0.352  1.00  0.00    -0.231 OA
ENDROOT
BRANCH   3   7
HETATM    7  C4  UNL     1      -1.513  -0.435  -0.963  1.00  0.00     0.210 C 
BRANCH   7   8
HETATM    8  N1  UNL     1      -0.440   0.404  -0.619  1.00  0.00    -0.331 N 
HETATM    9  C5  UNL     1      -0.408   1.730  -0.828  1.00  0.00     0.185 A 
HETATM   10  N2  UNL     1       0.739   2.245  -0.371  1.00  0.00    -0.336 N 
HETATM   11  C6  UNL     1       1.484   1.228   0.154  1.00  0.00     0.152 A 
ATOM     12  H2  UNL     1       1.010   3.228  -0.408  1.00  0.00     0.168 HD
HETATM   13  N3  UNL     1       2.695   1.205   0.728  1.00  0.00    -0.174 N 
HETATM   14  C9  UNL     1       0.706   0.073  -0.020  1.00  0.00     0.125 A 
HETATM   15  C7  UNL     1       3.184   0.034   1.152  1.00  0.00     0.679 A 
ATOM     16  H3  UNL     1       3.234   2.064   0.839  1.00  0.00     0.186 HD
HETATM   17  N5  UNL     1       2.499  -1.106   1.018  1.00  0.00    -0.175 N 
HETATM   18  C8  UNL     1       1.283  -1.091   0.443  1.00  0.00     0.145 A 
ATOM     19  H5  UNL     1       2.897  -1.984   1.351  1.00  0.00     0.186 HD
BRANCH  15  20
HETATM   20  N4  UNL     1       4.354  -0.006   1.710  1.00  0.00    -0.234 N 
ATOM     21  H42 UNL     1       4.877   0.864   1.812  1.00  0.00     0.174 HD
ATOM     22  H41 UNL     1       4.727  -0.899   2.033  1.00  0.00     0.174 HD
ENDBRANCH  15  20
BRANCH  18  23
HETATM   23  N6  UNL     1       0.631  -2.186   0.304  1.00  0.00    -0.383 N 
ATOM     24  H62 UNL     1       1.058  -3.047   0.646  1.00  0.00     0.157 HD
ATOM     25  H61 UNL     1      -0.291  -2.175  -0.132  1.00  0.00     0.157 HD
ENDBRANCH  18  23
ENDBRANCH   7   8
ENDBRANCH   3   7
TORSDOF 4
