REMARK  4 active torsions:
REMARK  status: ('A' for Active; 'I' for Inactive)
REMARK    1  A    between atoms: N1_2  and  C2_4 
REMARK    2  A    between atoms: C3_7  and  N3_8 
REMARK    3  A    between atoms: C5_17  and  O1_18 
REMARK    4  A    between atoms: C7_22  and  N8_23 
ROOT
HETATM    1  C2  UNL     1       2.260   0.554   0.517  1.00  0.00     0.706 A 
HETATM    2  N2  UNL     1       0.992   0.930   0.283  1.00  0.00    -0.019 N 
ATOM      3  H2  UNL     1       0.699   1.866   0.564  1.00  0.00     0.203 HD
HETATM    4  C3  UNL     1       0.099   0.126  -0.304  1.00  0.00     0.736 A 
HETATM    5  N7  UNL     1       0.485  -1.097  -0.670  1.00  0.00    -0.020 N 
ATOM      6  H7  UNL     1      -0.181  -1.726  -1.119  1.00  0.00     0.203 HD
HETATM    7  C7  UNL     1       1.749  -1.507  -0.450  1.00  0.00     0.705 A 
HETATM    8  N9  UNL     1       2.642  -0.670   0.150  1.00  0.00    -0.022 N 
ATOM      9  H9  UNL     1       3.600  -0.979   0.318  1.00  0.00     0.203 HD
ENDROOT
BRANCH   4  10
HETATM   10  N3  UNL     1      -1.233   0.556  -0.537  1.00  0.00    -0.031 N 
HETATM   11  N4  UNL     1      -1.592   1.536  -1.351  1.00  0.00    -0.108 N 
HETATM   12  C4  UNL     1      -2.936   1.676  -1.330  1.00  0.00     0.694 A 
ATOM     13  H4  UNL     1      -0.951   2.100  -1.909  1.00  0.00     0.207 HD
HETATM   14  N5  UNL     1      -3.658   2.538  -2.003  1.00  0.00    -0.233 N 
HETATM   15  N6  UNL     1      -3.364   0.738  -0.469  1.00  0.00    -0.152 N 
ATOM     16  H52 UNL     1      -3.333   3.250  -2.657  1.00  0.00     0.174 HD
ATOM     17  H51 UNL     1      -4.672   2.644  -1.987  1.00  0.00     0.174 HD
HETATM   18  C5  UNL     1      -2.334   0.034   0.034  1.00  0.00     0.276 A 
ATOM     19  H6  UNL     1      -4.342   0.580  -0.228  1.00  0.00     0.188 HD
BRANCH  18  20
HETATM   20  O1  UNL     1      -2.384  -1.023   0.959  1.00  0.00    -0.325 OA
HETATM   21  C6  UNL     1      -3.656  -1.417   1.437  1.00  0.00     0.213 C 
ENDBRANCH  18  20
ENDBRANCH   4  10
BRANCH   1  22
HETATM   22  N1  UNL     1       3.091   1.375   1.092  1.00  0.00    -0.229 N 
HETATM   23  C1  UNL     1       4.468   0.951   1.341  1.00  0.00     0.165 C 
ATOM     24  H1  UNL     1       2.783   2.308   1.367  1.00  0.00     0.177 HD
ENDBRANCH   1  22
BRANCH   7  25
HETATM   25  N8  UNL     1       2.158  -2.686  -0.791  1.00  0.00    -0.234 N 
ATOM     26  H82 UNL     1       1.490  -3.312  -1.240  1.00  0.00     0.174 HD
ATOM     27  H81 UNL     1       3.115  -2.996  -0.624  1.00  0.00     0.174 HD
ENDBRANCH   7  25
TORSDOF 4
