REMARK  4 active torsions:
REMARK  status: ('A' for Active; 'I' for Inactive)
REMARK    1  A    between atoms: C5_5  and  C7_7 
REMARK    2  A    between atoms: C7_7  and  C8_8 
REMARK    3  A    between atoms: C8_8  and  C9_9 
REMARK    4  A    between atoms: C9_9  and  O1_10 
ROOT
HETATM    1  C1  UNL     1      -2.471   0.086  -1.801  1.00  0.00     0.017 C 
HETATM    2  C2  UNL     1      -1.342   0.489  -0.835  1.00  0.00    -0.023 C 
HETATM    3  C3  UNL     1      -1.101   1.963  -1.153  1.00  0.00     0.017 C 
HETATM    4  C4  UNL     1      -0.133  -0.273  -1.298  1.00  0.00     0.022 C 
HETATM    5  C5  UNL     1       0.803  -0.677  -0.226  1.00  0.00    -0.019 C 
HETATM    6  C6  UNL     1       1.743  -1.739  -0.814  1.00  0.00     0.018 C 
HETATM    7  C10 UNL     1       0.044  -1.341   0.879  1.00  0.00     0.026 C 
HETATM    8  C11 UNL     1      -0.606  -2.622   0.451  1.00  0.00     0.038 C 
HETATM    9  C12 UNL     1       0.979  -1.760   2.026  1.00  0.00     0.038 C 
HETATM   10  N1  UNL     1      -0.912  -0.463   1.405  1.00  0.00    -0.404 N 
ATOM     11  H1  UNL     1      -0.991  -0.347   2.415  1.00  0.00     0.154 HD
HETATM   12  C13 UNL     1      -1.756   0.253   0.558  1.00  0.00     0.026 C 
HETATM   13  C14 UNL     1      -3.132  -0.438   0.577  1.00  0.00     0.038 C 
HETATM   14  C15 UNL     1      -2.049   1.591   1.269  1.00  0.00     0.038 C 
ENDROOT
BRANCH   5  15
HETATM   15  C7  UNL     1       1.656   0.441   0.239  1.00  0.00     0.014 C 
BRANCH  15  16
HETATM   16  C8  UNL     1       2.523   1.038  -0.848  1.00  0.00     0.027 C 
BRANCH  16  17
HETATM   17  C9  UNL     1       3.317   2.161  -0.161  1.00  0.00     0.164 C 
BRANCH  17  18
HETATM   18  O1  UNL     1       4.095   1.660   0.870  1.00  0.00    -0.401 OA
ATOM     19  H1  UNL     1       4.586   2.354   1.295  1.00  0.00     0.209 HD
ENDBRANCH  17  18
ENDBRANCH  16  17
ENDBRANCH  15  16
ENDBRANCH   5  15
TORSDOF 4
