REMARK  8 active torsions:
REMARK  status: ('A' for Active; 'I' for Inactive)
REMARK    1  A    between atoms: C2_2  and  C3_3 
REMARK    2  A    between atoms: C3_3  and  C4_4 
REMARK    3  A    between atoms: C4_4  and  O2_6 
REMARK    4  A    between atoms: O2_6  and  C5_7 
REMARK    5  A    between atoms: C6_8  and  O3_9 
REMARK    6  A    between atoms: C9_13  and  C10_14 
REMARK    7  A    between atoms: C10_14  and  O5_16 
REMARK    8  A    between atoms: C20_27  and  O7_28 
ROOT
HETATM    1  C5  UNL     1       1.143   0.290  -0.174  1.00  0.00     0.190 C 
HETATM    2  C6  UNL     1       0.615   1.672  -0.369  1.00  0.00     0.154 C 
HETATM    3  C7  UNL     1      -0.713   1.570  -1.098  1.00  0.00     0.027 C 
HETATM    4  C8  UNL     1      -0.893   2.917  -1.786  1.00  0.00     0.014 C 
HETATM    5  C9  UNL     1      -1.771   1.268  -0.096  1.00  0.00     0.100 C 
HETATM    6  C12 UNL     1      -2.115  -0.183   0.046  1.00  0.00    -0.024 C 
HETATM    7  C13 UNL     1      -2.902  -0.299   1.358  1.00  0.00     0.016 C 
HETATM    8  C14 UNL     1      -2.941  -0.734  -1.061  1.00  0.00     0.018 C 
HETATM    9  C15 UNL     1      -2.554  -2.118  -1.529  1.00  0.00     0.079 C 
HETATM   10  C16 UNL     1      -2.123  -2.987  -0.416  1.00  0.00     0.131 C 
HETATM   11  O6  UNL     1      -2.381  -4.162  -0.345  1.00  0.00    -0.298 OA
HETATM   12  C17 UNL     1      -1.309  -2.376   0.710  1.00  0.00     0.058 C 
HETATM   13  C18 UNL     1      -0.220  -3.367   0.982  1.00  0.00     0.018 C 
HETATM   14  C19 UNL     1      -0.861  -1.051   0.171  1.00  0.00     0.037 C 
HETATM   15  C20 UNL     1       0.259  -0.396   0.883  1.00  0.00     0.155 C 
ENDROOT
BRANCH   1  16
HETATM   16  O2  UNL     1       2.478   0.368   0.268  1.00  0.00    -0.311 OA
BRANCH  16  17
HETATM   17  C4  UNL     1       3.519  -0.246  -0.444  1.00  0.00     0.259 C 
HETATM   18  O1  UNL     1       3.183  -0.861  -1.486  1.00  0.00    -0.265 OA
BRANCH  17  19
HETATM   19  C3  UNL     1       4.928  -0.175   0.009  1.00  0.00     0.111 C 
BRANCH  19  20
HETATM   20  C2  UNL     1       5.375  -1.429   0.729  1.00  0.00     0.005 C 
HETATM   21  C1  UNL     1       6.838  -1.198   1.129  1.00  0.00     0.005 C 
ENDBRANCH  19  20
ENDBRANCH  17  19
ENDBRANCH  16  17
ENDBRANCH   1  16
BRANCH   2  22
HETATM   22  O3  UNL     1       0.468   2.254   0.884  1.00  0.00    -0.392 OA
ATOM     23  H3  UNL     1       0.132   3.134   0.760  1.00  0.00     0.210 HD
ENDBRANCH   2  22
BRANCH  15  24
HETATM   24  O7  UNL     1       1.125  -1.265   1.543  1.00  0.00    -0.392 OA
ATOM     25  H7  UNL     1       0.579  -1.688   2.195  1.00  0.00     0.210 HD
ENDBRANCH  15  24
BRANCH   5  26
HETATM   26  C10 UNL     1      -2.991   2.062  -0.340  1.00  0.00     0.263 C 
HETATM   27  O4  UNL     1      -4.088   1.552  -0.648  1.00  0.00    -0.265 OA
BRANCH  26  28
HETATM   28  O5  UNL     1      -3.016   3.468  -0.244  1.00  0.00    -0.326 OA
HETATM   29  C11 UNL     1      -4.201   4.200  -0.484  1.00  0.00     0.213 C 
ENDBRANCH  26  28
ENDBRANCH   5  26
TORSDOF 8
