REMARK  10 active torsions:
REMARK  status: ('A' for Active; 'I' for Inactive)
REMARK    1  A    between atoms: N2_4  and  S1_6 
REMARK    2  A    between atoms: S1_6  and  C3_9 
REMARK    3  A    between atoms: C6_12  and  N3_13 
REMARK       I    between atoms: N3_13  and  C7_15 
REMARK    4  A    between atoms: C7_15  and  C8_17 
REMARK    5  A    between atoms: C8_17  and  C9_18 
REMARK    6  A    between atoms: C8_17  and  N4_21 
REMARK       I    between atoms: N4_21  and  C12_22 
REMARK    7  A    between atoms: N4_21  and  C15_28 
REMARK    8  A    between atoms: C12_22  and  C13_24 
REMARK    9  A    between atoms: C13_24  and  S2_25 
REMARK   10  A    between atoms: C21_35  and  O6_36 
ROOT
HETATM    1  N3  UNL     1       0.407   0.720   0.521  1.00  0.00    -0.323 N 
ATOM      2  H3  UNL     1       0.270   1.695   0.786  1.00  0.00     0.169 HD
HETATM    3  C7  UNL     1      -0.772  -0.057   0.353  1.00  0.00     0.246 C 
HETATM    4  O3  UNL     1      -0.679  -1.246   0.027  1.00  0.00    -0.271 OA
ENDROOT
BRANCH   3   5
HETATM    5  C8  UNL     1      -2.122   0.593   0.577  1.00  0.00     0.188 C 
BRANCH   5   6
HETATM    6  C9  UNL     1      -2.193   1.135   1.982  1.00  0.00     0.010 C 
HETATM    7  C10 UNL     1      -2.010   0.151   3.071  1.00  0.00     0.012 C 
HETATM    8  C11 UNL     1      -3.402   2.002   2.232  1.00  0.00     0.012 C 
ENDBRANCH   5   6
BRANCH   5   9
HETATM    9  N4  UNL     1      -3.227  -0.153   0.099  1.00  0.00    -0.303 N 
HETATM   10  C12 UNL     1      -3.942   0.457  -1.012  1.00  0.00     0.236 C 
HETATM   11  O4  UNL     1      -4.905  -0.194  -1.481  1.00  0.00    -0.272 OA
BRANCH  10  12
HETATM   12  C13 UNL     1      -3.581   1.766  -1.579  1.00  0.00     0.211 C 
BRANCH  12  13
HETATM   13  S2  UNL     1      -4.654   2.142  -2.919  1.00  0.00     0.019 S 
HETATM   14  C14 UNL     1      -4.282   3.713  -3.657  1.00  0.00     0.127 C 
HETATM   15  O5  UNL     1      -6.267   1.985  -2.555  1.00  0.00    -0.258 OA
ENDBRANCH  12  13
ENDBRANCH  10  12
BRANCH   9  16
HETATM   16  C15 UNL     1      -3.738  -1.397   0.495  1.00  0.00     0.038 A 
HETATM   17  C16 UNL     1      -3.478  -2.572  -0.225  1.00  0.00     0.033 A 
HETATM   18  C17 UNL     1      -3.979  -3.801   0.141  1.00  0.00     0.044 A 
HETATM   19  C18 UNL     1      -4.775  -3.921   1.256  1.00  0.00     0.116 A 
HETATM   20  F1  UNL     1      -5.283  -5.136   1.638  1.00  0.00    -0.206 F 
HETATM   21  C19 UNL     1      -5.050  -2.788   1.981  1.00  0.00     0.044 A 
HETATM   22  C20 UNL     1      -4.533  -1.552   1.594  1.00  0.00     0.033 A 
ENDBRANCH   9  16
ENDBRANCH   5   9
ENDBRANCH   3   5
BRANCH   1  23
HETATM   23  C6  UNL     1       1.738   0.301   0.365  1.00  0.00     0.068 A 
HETATM   24  C5  UNL     1       2.174  -0.956   0.064  1.00  0.00     0.034 A 
HETATM   25  C4  UNL     1       3.513  -1.244  -0.055  1.00  0.00     0.028 A 
HETATM   26  C3  UNL     1       4.493  -0.293   0.120  1.00  0.00     0.082 A 
HETATM   27  C22 UNL     1       4.056   0.977   0.423  1.00  0.00     0.064 A 
HETATM   28  C21 UNL     1       2.721   1.286   0.547  1.00  0.00     0.093 A 
BRANCH  26  29
HETATM   29  S1  UNL     1       6.182  -0.717  -0.036  1.00  0.00     0.263 S 
HETATM   30  O1  UNL     1       6.296  -2.172   0.385  1.00  0.00    -0.200 OA
HETATM   31  O2  UNL     1       7.014   0.094   0.908  1.00  0.00    -0.200 OA
BRANCH  29  32
HETATM   32  N2  UNL     1       6.747  -0.581  -1.658  1.00  0.00    -0.272 N 
HETATM   33  C2  UNL     1       8.013  -0.667  -1.865  1.00  0.00     0.098 C 
HETATM   34  C1  UNL     1       9.001  -0.879  -0.763  1.00  0.00     0.086 C 
HETATM   35  N1  UNL     1       8.502  -0.560  -3.196  1.00  0.00    -0.087 NA
ATOM     36  H2  UNL     1       6.097  -0.437  -2.431  1.00  0.00     0.179 HD
ENDBRANCH  29  32
ENDBRANCH  26  29
BRANCH  28  37
HETATM   37  O6  UNL     1       2.402   2.600   0.856  1.00  0.00    -0.358 OA
ATOM     38  H6  UNL     1       3.067   3.267   0.979  1.00  0.00     0.217 HD
ENDBRANCH  28  37
ENDBRANCH   1  23
TORSDOF 10
