REMARK  6 active torsions:
REMARK  status: ('A' for Active; 'I' for Inactive)
REMARK    1  A    between atoms: C3_3  and  C4_4 
REMARK       I    between atoms: C4_4  and  N1_6 
REMARK    2  A    between atoms: N1_6  and  S1_8 
REMARK    3  A    between atoms: S1_8  and  C5_11 
REMARK    4  A    between atoms: C8_14  and  S2_15 
REMARK    5  A    between atoms: S2_15  and  N2_18 
REMARK    6  A    between atoms: N2_18  and  C10_20 
ROOT
HETATM    1  C1  UNL     1      -7.866   2.569  -1.348  1.00  0.00     0.012 C 
HETATM    2  C2  UNL     1      -7.358   1.821  -0.556  1.00  0.00    -0.108 C 
HETATM    3  C3  UNL     1      -6.757   0.909   0.402  1.00  0.00     0.196 C 
ENDROOT
BRANCH   3   4
HETATM    4  C4  UNL     1      -5.642   0.171  -0.281  1.00  0.00     0.242 C 
HETATM    5  O1  UNL     1      -5.403   0.369  -1.499  1.00  0.00    -0.272 OA
HETATM    6  N1  UNL     1      -4.854  -0.752   0.442  1.00  0.00    -0.249 N 
ATOM      7  H1  UNL     1      -5.045  -0.915   1.431  1.00  0.00     0.182 HD
BRANCH   6   8
HETATM    8  S1  UNL     1      -3.586  -1.595  -0.326  1.00  0.00     0.265 S 
HETATM    9  O2  UNL     1      -3.597  -3.073  -0.050  1.00  0.00    -0.200 OA
HETATM   10  O3  UNL     1      -3.730  -1.440  -1.833  1.00  0.00    -0.200 OA
BRANCH   8  11
HETATM   11  C5  UNL     1      -2.022  -0.983   0.177  1.00  0.00     0.080 A 
HETATM   12  C6  UNL     1      -1.380   0.011  -0.547  1.00  0.00     0.027 A 
HETATM   13  C7  UNL     1      -0.139   0.508  -0.162  1.00  0.00     0.027 A 
HETATM   14  C8  UNL     1       0.497   0.024   0.958  1.00  0.00     0.080 A 
HETATM   15  C16 UNL     1      -0.149  -0.962   1.669  1.00  0.00     0.027 A 
HETATM   16  C17 UNL     1      -1.381  -1.462   1.296  1.00  0.00     0.027 A 
BRANCH  14  17
HETATM   17  S2  UNL     1       2.082   0.602   1.490  1.00  0.00     0.264 S 
HETATM   18  O4  UNL     1       2.072   0.576   2.991  1.00  0.00    -0.200 OA
HETATM   19  O5  UNL     1       2.229   2.024   0.965  1.00  0.00    -0.200 OA
BRANCH  17  20
HETATM   20  N2  UNL     1       3.333  -0.378   0.871  1.00  0.00    -0.276 N 
HETATM   21  C9  UNL     1       3.335  -1.789   1.271  1.00  0.00     0.170 C 
BRANCH  20  22
HETATM   22  C10 UNL     1       4.342   0.108   0.012  1.00  0.00     0.046 A 
HETATM   23  C11 UNL     1       5.534   0.609   0.489  1.00  0.00     0.030 A 
HETATM   24  C12 UNL     1       6.533   1.078  -0.323  1.00  0.00     0.004 A 
HETATM   25  C13 UNL     1       6.355   1.055  -1.700  1.00  0.00     0.019 A 
HETATM   26  C14 UNL     1       5.176   0.560  -2.190  1.00  0.00     0.013 A 
HETATM   27 BR1  UNL     1       4.920   0.524  -4.083  1.00  0.00    -0.051 Br
HETATM   28  C15 UNL     1       4.188   0.096  -1.374  1.00  0.00     0.049 A 
ENDBRANCH  20  22
ENDBRANCH  17  20
ENDBRANCH  14  17
ENDBRANCH   8  11
ENDBRANCH   6   8
ENDBRANCH   3   4
TORSDOF 6
