REMARK  5 active torsions:
REMARK  status: ('A' for Active; 'I' for Inactive)
REMARK    1  A    between atoms: N2_6  and  C4_7 
REMARK    2  A    between atoms: C7_10  and  N3_11 
REMARK    3  A    between atoms: C7_10  and  C19_27 
REMARK       I    between atoms: N3_11  and  C8_13 
REMARK    4  A    between atoms: C8_13  and  C9_15 
REMARK       I    between atoms: C19_27  and  N4_29 
REMARK    5  A    between atoms: N4_29  and  C20_31 
ROOT
HETATM    1  C4  UNL     1       2.043   0.517  -1.796  1.00  0.00     0.083 C 
HETATM    2  C5  UNL     1       0.666   0.053  -2.212  1.00  0.00     0.028 C 
HETATM    3  C6  UNL     1      -0.454   0.746  -1.468  1.00  0.00     0.043 C 
HETATM    4  C7  UNL     1      -0.249   0.779   0.002  1.00  0.00     0.114 C 
HETATM    5  C24 UNL     1       1.010  -0.015   0.376  1.00  0.00     0.043 C 
HETATM    6  C25 UNL     1       2.187   0.614  -0.329  1.00  0.00     0.028 C 
ENDROOT
BRANCH   4   7
HETATM    7  N3  UNL     1      -1.386   0.230   0.754  1.00  0.00    -0.342 N 
HETATM    8  C8  UNL     1      -1.892  -1.077   0.606  1.00  0.00     0.233 C 
HETATM    9  O1  UNL     1      -1.378  -1.877  -0.214  1.00  0.00    -0.272 OA
ATOM     10  H3  UNL     1      -1.842   0.839   1.433  1.00  0.00     0.163 HD
BRANCH   8  11
HETATM   11  C9  UNL     1      -3.043  -1.560   1.404  1.00  0.00     0.107 C 
HETATM   12  C10 UNL     1      -3.296  -3.015   1.060  1.00  0.00     0.030 C 
HETATM   13  C11 UNL     1      -4.391  -3.632   1.862  1.00  0.00    -0.012 C 
HETATM   14  C12 UNL     1      -4.057  -3.482   3.327  1.00  0.00     0.009 C 
HETATM   15  C16 UNL     1      -5.681  -2.907   1.505  1.00  0.00     0.015 C 
HETATM   16  C13 UNL     1      -3.924  -2.015   3.663  1.00  0.00    -0.012 C 
HETATM   17  C14 UNL     1      -5.264  -1.361   3.339  1.00  0.00     0.015 C 
HETATM   18  C18 UNL     1      -2.822  -1.357   2.894  1.00  0.00     0.030 C 
HETATM   19  C15 UNL     1      -5.462  -1.460   1.838  1.00  0.00     0.060 C 
HETATM   20  C17 UNL     1      -4.338  -0.826   1.058  1.00  0.00     0.263 C 
HETATM   21  F2  UNL     1      -4.313   0.497   1.380  1.00  0.00    -0.205 F 
HETATM   22  F3  UNL     1      -4.654  -0.949  -0.276  1.00  0.00    -0.205 F 
ENDBRANCH   8  11
ENDBRANCH   4   7
BRANCH   4  23
HETATM   23  C19 UNL     1      -0.118   2.178   0.464  1.00  0.00     0.246 C 
HETATM   24  O2  UNL     1      -0.382   2.425   1.667  1.00  0.00    -0.271 OA
HETATM   25  N4  UNL     1       0.277   3.251  -0.346  1.00  0.00    -0.354 N 
ATOM     26  H4  UNL     1       0.490   3.063  -1.326  1.00  0.00     0.162 HD
BRANCH  25  27
HETATM   27  C20 UNL     1       0.400   4.618   0.134  1.00  0.00     0.084 C 
HETATM   28  C21 UNL     1      -0.364   5.629  -0.695  1.00  0.00     0.025 C 
HETATM   29  C22 UNL     1       0.905   6.362  -1.059  1.00  0.00     0.004 C 
HETATM   30  C23 UNL     1       1.677   5.229  -0.390  1.00  0.00     0.025 C 
ENDBRANCH  25  27
ENDBRANCH   4  23
BRANCH   1  31
HETATM   31  N2  UNL     1       3.009  -0.241  -2.507  1.00  0.00    -0.385 N 
HETATM   32  C3  UNL     1       3.082  -1.627  -2.332  1.00  0.00     0.089 C 
HETATM   33  C2  UNL     1       4.413  -2.255  -2.136  1.00  0.00     0.322 C 
HETATM   34  N1  UNL     1       5.554  -1.457  -2.449  1.00  0.00     0.085 N 
HETATM   35  C1  UNL     1       6.669  -1.955  -1.626  1.00  0.00     0.317 C 
HETATM   36  F1  UNL     1       5.899  -1.621  -3.760  1.00  0.00    -0.018 F 
HETATM   37  C27 UNL     1       5.421  -0.058  -2.154  1.00  0.00     0.298 C 
HETATM   38  C26 UNL     1       4.191   0.433  -2.885  1.00  0.00     0.153 C 
ENDBRANCH   1  31
TORSDOF 5
