REMARK  10 active torsions:
REMARK  status: ('A' for Active; 'I' for Inactive)
REMARK    1  A    between atoms: N1_2  and  C2_5 
REMARK    2  A    between atoms: N3_9  and  N4_11 
REMARK    3  A    between atoms: N4_11  and  N5_13 
REMARK    4  A    between atoms: C4_16  and  C5_17 
REMARK    5  A    between atoms: C5_17  and  N6_18 
REMARK    6  A    between atoms: N6_18  and  C6_20 
REMARK    7  A    between atoms: C6_20  and  C7_21 
REMARK    8  A    between atoms: C7_21  and  N7_22 
REMARK    9  A    between atoms: C10_27  and  O1_28 
REMARK   10  A    between atoms: C11_33  and  O2_34 
ROOT
HETATM    1  C2  UNL     1      -3.955   0.450  -0.034  1.00  0.00     0.331 C 
HETATM    2  N2  UNL     1      -2.730   0.870   0.579  1.00  0.00    -0.343 N 
ATOM      3  H2  UNL     1      -2.711   1.866   0.798  1.00  0.00     0.163 HD
HETATM    4  C3  UNL     1      -1.556   0.205   0.940  1.00  0.00     0.143 C 
HETATM    5  N3  UNL     1      -1.478  -0.077   2.223  1.00  0.00    -0.270 N 
ATOM      6  H3  UNL     1      -2.284   0.237   2.763  1.00  0.00     0.190 HD
HETATM    7  C4  UNL     1      -0.405  -0.212   0.140  1.00  0.00     0.075 C 
HETATM    8  N8  UNL     1      -0.456  -0.833  -0.974  1.00  0.00    -0.320 N 
ATOM      9  H8  UNL     1       0.464  -1.030  -1.368  1.00  0.00     0.169 HD
HETATM   10  C10 UNL     1      -1.508  -1.299  -1.766  1.00  0.00     0.233 C 
HETATM   11  N9  UNL     1      -2.568  -2.154  -1.343  1.00  0.00    -0.267 N 
ATOM     12  H9  UNL     1      -2.891  -2.923  -1.930  1.00  0.00     0.186 HD
HETATM   13  N10 UNL     1      -3.157  -1.900  -0.080  1.00  0.00    -0.102 NA
HETATM   14  C11 UNL     1      -4.205  -0.945  -0.350  1.00  0.00     0.281 C 
ENDROOT
BRANCH   7  15
HETATM   15  C5  UNL     1       1.023   0.091   0.597  1.00  0.00     0.175 C 
BRANCH  15  16
HETATM   16  N6  UNL     1       1.949  -0.945   0.344  1.00  0.00    -0.414 N 
ATOM     17  H6  UNL     1       1.746  -1.708  -0.302  1.00  0.00     0.153 HD
BRANCH  16  18
HETATM   18  C6  UNL     1       3.177  -0.859   1.043  1.00  0.00     0.144 C 
BRANCH  18  19
HETATM   19  C7  UNL     1       4.118   0.235   0.756  1.00  0.00     0.290 C 
BRANCH  19  20
HETATM   20  N7  UNL     1       4.648   0.355  -0.565  1.00  0.00     0.081 N 
HETATM   21  C8  UNL     1       5.552   1.532  -0.500  1.00  0.00     0.309 C 
HETATM   22  C9  UNL     1       5.503  -0.778  -0.945  1.00  0.00     0.309 C 
ENDBRANCH  19  20
ENDBRANCH  18  19
ENDBRANCH  16  18
ENDBRANCH  15  16
ENDBRANCH   7  15
BRANCH   5  23
HETATM   23  N4  UNL     1      -0.543  -0.697   2.957  1.00  0.00    -0.248 N 
ATOM     24  H4  UNL     1      -0.023  -1.478   2.557  1.00  0.00     0.207 HD
BRANCH  23  25
HETATM   25  N5  UNL     1      -0.295  -0.317   4.160  1.00  0.00    -0.331 N 
ATOM     26  H52 UNL     1      -0.824   0.466   4.545  1.00  0.00     0.178 HD
ATOM     27  H51 UNL     1       0.416  -0.789   4.718  1.00  0.00     0.178 HD
ENDBRANCH  23  25
ENDBRANCH   5  23
BRANCH  10  28
HETATM   28  O1  UNL     1      -1.602  -0.966  -3.020  1.00  0.00    -0.332 OA
ATOM     29  H1  UNL     1      -2.317  -1.283  -3.559  1.00  0.00     0.221 HD
ENDBRANCH  10  28
BRANCH   1  30
HETATM   30  N1  UNL     1      -4.191   1.350  -1.172  1.00  0.00    -0.054 N 
HETATM   31  C1  UNL     1      -4.696   2.622  -0.623  1.00  0.00     0.269 C 
ATOM     32  H12 UNL     1      -4.806   0.948  -1.879  1.00  0.00     0.279 HD
ATOM     33  H11 UNL     1      -3.370   1.469  -1.765  1.00  0.00     0.279 HD
ENDBRANCH   1  30
BRANCH  14  34
HETATM   34  O2  UNL     1      -4.653  -1.028  -1.694  1.00  0.00    -0.374 OA
ATOM     35  H2  UNL     1      -4.817  -1.941  -1.901  1.00  0.00     0.212 HD
ENDBRANCH  14  34
TORSDOF 10
