REMARK  5 active torsions:
REMARK  status: ('A' for Active; 'I' for Inactive)
REMARK    1  A    between atoms: N2_12  and  C11_13 
REMARK    2  A    between atoms: C13_17  and  C14_18 
REMARK    3  A    between atoms: C16_20  and  C17_21 
REMARK    4  A    between atoms: C22_31  and  N7_32 
REMARK    5  A    between atoms: N10_43  and  C26_44 
ROOT
HETATM    1  C11 UNL     1       0.302  -1.025   0.451  1.00  0.00     0.119 A 
HETATM    2  C12 UNL     1       1.315  -0.144   0.868  1.00  0.00     0.137 A 
HETATM    3  N3  UNL     1       2.604  -0.434   0.700  1.00  0.00    -0.360 N 
ATOM      4  H3  UNL     1       3.301   0.239   1.019  1.00  0.00     0.165 HD
HETATM    5  C13 UNL     1       3.034  -1.595   0.118  1.00  0.00     0.061 A 
HETATM    6  C23 UNL     1       2.064  -2.452  -0.290  1.00  0.00     0.120 A 
HETATM    7  N8  UNL     1       0.744  -2.140  -0.110  1.00  0.00    -0.349 N 
ATOM      8  H8  UNL     1       0.050  -2.815  -0.431  1.00  0.00     0.167 HD
ENDROOT
BRANCH   1   9
HETATM    9  N2  UNL     1      -1.058  -0.705   0.676  1.00  0.00    -0.356 N 
HETATM   10  C4  UNL     1      -2.211  -1.041  -0.096  1.00  0.00     0.040 C 
HETATM   11  C3  UNL     1      -2.040  -1.907  -1.284  1.00  0.00     0.050 C 
HETATM   12  C5  UNL     1      -3.206  -1.656   0.899  1.00  0.00     0.050 C 
HETATM   13  C7  UNL     1      -2.854   0.247  -0.581  1.00  0.00     0.072 C 
HETATM   14  C2  UNL     1      -2.363  -3.342  -1.112  1.00  0.00     0.118 C 
HETATM   15  N1  UNL     1      -3.573  -3.622  -0.399  1.00  0.00    -0.416 N 
HETATM   16  C1  UNL     1      -3.528  -4.796   0.416  1.00  0.00     0.143 C 
HETATM   17  C6  UNL     1      -4.225  -2.497   0.170  1.00  0.00     0.118 C 
HETATM   18  C8  UNL     1      -2.538   1.478   0.150  1.00  0.00     0.119 C 
HETATM   19  C9  UNL     1      -2.120   1.320   1.587  1.00  0.00     0.061 C 
HETATM   20  C24 UNL     1      -1.447   2.268  -0.560  1.00  0.00     0.247 C 
HETATM   21  N10 UNL     1      -3.589   2.459   0.122  1.00  0.00    -0.346 N 
HETATM   22  C10 UNL     1      -1.394   0.068   1.910  1.00  0.00     0.128 C 
HETATM   23  O1  UNL     1      -0.630   1.928  -1.410  1.00  0.00    -0.271 OA
HETATM   24  N9  UNL     1      -1.587   3.560   0.005  1.00  0.00    -0.343 N 
HETATM   25  C25 UNL     1      -2.948   3.749   0.448  1.00  0.00     0.250 C 
ATOM     26  H9  UNL     1      -0.841   4.251   0.086  1.00  0.00     0.164 HD
BRANCH  21  27
HETATM   27  C26 UNL     1      -4.976   2.395  -0.103  1.00  0.00     0.032 A 
HETATM   28  C27 UNL     1      -5.568   3.395  -0.884  1.00  0.00     0.029 A 
HETATM   29  C28 UNL     1      -6.913   3.446  -1.139  1.00  0.00     0.002 A 
HETATM   30  C29 UNL     1      -7.749   2.485  -0.620  1.00  0.00     0.000 A 
HETATM   31  C30 UNL     1      -7.203   1.490   0.150  1.00  0.00     0.002 A 
HETATM   32  C31 UNL     1      -5.828   1.454   0.401  1.00  0.00     0.029 A 
ENDBRANCH  21  27
ENDBRANCH   1   9
BRANCH   5  33
HETATM   33  C14 UNL     1       4.471  -1.720  -0.040  1.00  0.00     0.036 A 
HETATM   34  C15 UNL     1       5.244  -0.536  -0.111  1.00  0.00     0.032 A 
HETATM   35  C16 UNL     1       6.599  -0.549  -0.227  1.00  0.00     0.008 A 
HETATM   36  C21 UNL     1       7.193  -1.799  -0.273  1.00  0.00     0.103 A 
HETATM   37  N6  UNL     1       6.472  -2.915  -0.206  1.00  0.00    -0.351 N 
HETATM   38  C22 UNL     1       5.095  -2.939  -0.086  1.00  0.00     0.111 A 
ATOM     39  H6  UNL     1       6.965  -3.807  -0.246  1.00  0.00     0.166 HD
BRANCH  35  40
HETATM   40  C17 UNL     1       7.398   0.660  -0.301  1.00  0.00     0.061 A 
HETATM   41  C18 UNL     1       8.771   0.706  -0.419  1.00  0.00     0.050 A 
HETATM   42  C19 UNL     1       9.161   2.025  -0.458  1.00  0.00     0.112 A 
HETATM   43  N4  UNL     1       8.025   2.739  -0.363  1.00  0.00    -0.307 N 
HETATM   44  C20 UNL     1       8.023   4.209  -0.369  1.00  0.00     0.177 C 
HETATM   45  N5  UNL     1       6.988   1.926  -0.271  1.00  0.00    -0.299 N 
ATOM     46  H5  UNL     1       6.016   2.224  -0.189  1.00  0.00     0.187 HD
ENDBRANCH  35  40
BRANCH  38  47
HETATM   47  N7  UNL     1       4.600  -4.079   0.031  1.00  0.00    -0.385 N 
ATOM     48  H72 UNL     1       3.584  -4.097   0.120  1.00  0.00     0.157 HD
ATOM     49  H71 UNL     1       5.065  -4.986  -0.003  1.00  0.00     0.157 HD
ENDBRANCH  38  47
ENDBRANCH   5  33
TORSDOF 5
