REMARK  4 active torsions:
REMARK  status: ('A' for Active; 'I' for Inactive)
REMARK    1  A    between atoms: C1_4  and  C2_5 
REMARK    2  A    between atoms: C4_7  and  N2_8 
REMARK    3  A    between atoms: N3_13  and  C6_14 
REMARK    4  A    between atoms: C7_19  and  N6_20 
ROOT
HETATM    1  C2  UNL     1      -1.389  -0.780  -0.388  1.00  0.00     0.126 C 
HETATM    2  C3  UNL     1      -2.405   0.348  -0.503  1.00  0.00     0.065 C 
HETATM    3  C4  UNL     1      -2.415   0.858   0.926  1.00  0.00     0.203 C 
HETATM    4  C5  UNL     1      -1.010   0.604   1.417  1.00  0.00     0.158 C 
HETATM    5  N3  UNL     1      -0.340  -0.127   0.341  1.00  0.00    -0.350 N 
ENDROOT
BRANCH   5   6
HETATM    6  C6  UNL     1       1.068  -0.122   0.148  1.00  0.00     0.189 A 
HETATM    7  N4  UNL     1       1.741   1.024  -0.085  1.00  0.00    -0.267 N 
HETATM    8  N5  UNL     1       3.062   1.042  -0.267  1.00  0.00    -0.131 N 
ATOM      9  H4  UNL     1       1.224   1.903  -0.123  1.00  0.00     0.189 HD
HETATM   10  C7  UNL     1       3.776  -0.098  -0.225  1.00  0.00     0.693 A 
ATOM     11  H5  UNL     1       3.536   1.929  -0.440  1.00  0.00     0.205 HD
HETATM   12  N7  UNL     1       3.148  -1.248   0.002  1.00  0.00    -0.152 N 
HETATM   13  C8  UNL     1       1.817  -1.278   0.188  1.00  0.00     0.305 A 
ATOM     14  H7  UNL     1       3.682  -2.116   0.035  1.00  0.00     0.188 HD
HETATM   15  O1  UNL     1       1.277  -2.390   0.399  1.00  0.00    -0.263 OA
BRANCH  10  16
HETATM   16  N6  UNL     1       5.054  -0.046  -0.406  1.00  0.00    -0.233 N 
ATOM     17  H62 UNL     1       5.536   0.836  -0.580  1.00  0.00     0.174 HD
ATOM     18  H61 UNL     1       5.595  -0.910  -0.374  1.00  0.00     0.174 HD
ENDBRANCH  10  16
ENDBRANCH   5   6
BRANCH   1  19
HETATM   19  C1  UNL     1      -0.982  -1.317  -1.687  1.00  0.00     0.078 C 
HETATM   20  N1  UNL     1      -1.681  -2.270  -2.185  1.00  0.00    -0.409 N 
ATOM     21  H12 UNL     1      -2.491  -2.630  -1.680  1.00  0.00     0.155 HD
ATOM     22  H11 UNL     1      -1.397  -2.644  -3.090  1.00  0.00     0.155 HD
ENDBRANCH   1  19
BRANCH   3  23
HETATM   23  N2  UNL     1      -2.743   2.273   0.933  1.00  0.00    -0.073 N 
ATOM     24  H23 UNL     1      -2.121   2.816   0.334  1.00  0.00     0.274 HD
ATOM     25  H22 UNL     1      -3.619   2.468   0.448  1.00  0.00     0.274 HD
ATOM     26  H21 UNL     1      -2.750   2.616   1.894  1.00  0.00     0.274 HD
ENDBRANCH   3  23
TORSDOF 4
