REMARK  3 active torsions:
REMARK  status: ('A' for Active; 'I' for Inactive)
REMARK    1  A    between atoms: C2_2  and  C3_3 
REMARK    2  A    between atoms: C3_3  and  N1_4 
REMARK    3  A    between atoms: N1_4  and  C4_6 
ROOT
HETATM    1  C4  UNL     1       0.696   0.644  -0.311  1.00  0.00     0.210 C 
HETATM    2  C5  UNL     1       1.111   0.809   1.118  1.00  0.00     0.166 C 
HETATM    3  N2  UNL     1       2.377   0.151   1.377  1.00  0.00    -0.360 N 
ATOM      4  H2  UNL     1       2.731   0.128   2.334  1.00  0.00     0.162 HD
HETATM    5  C6  UNL     1       3.144  -0.463   0.352  1.00  0.00     0.200 C 
HETATM    6  N3  UNL     1       4.540  -0.593   0.515  1.00  0.00    -0.062 NA
HETATM    7  N4  UNL     1       2.508  -0.888  -0.712  1.00  0.00    -0.276 N 
ATOM      8  H4  UNL     1       3.001  -1.338  -1.483  1.00  0.00     0.185 HD
HETATM    9  N5  UNL     1       1.122  -0.697  -0.744  1.00  0.00    -0.112 NA
ENDROOT
BRANCH   1  10
HETATM   10  N1  UNL     1      -0.678   0.896  -0.570  1.00  0.00    -0.402 N 
ATOM     11  H1  UNL     1      -0.993   1.650  -1.181  1.00  0.00     0.154 HD
BRANCH  10  12
HETATM   12  C3  UNL     1      -1.585   0.012   0.092  1.00  0.00     0.115 C 
BRANCH  12  13
HETATM   13  C2  UNL     1      -3.036   0.370  -0.260  1.00  0.00     0.015 C 
HETATM   14  C1  UNL     1      -3.914  -0.613   0.481  1.00  0.00     0.006 C 
ENDBRANCH  12  13
ENDBRANCH  10  12
ENDBRANCH   1  10
TORSDOF 3
