REMARK  3 active torsions:
REMARK  status: ('A' for Active; 'I' for Inactive)
REMARK    1  A    between atoms: N3_4  and  C2_6 
REMARK    2  A    between atoms: C6_10  and  N4_11 
REMARK    3  A    between atoms: N4_11  and  C7_13 
ROOT
HETATM    1  C2  UNL     1      -1.946  -1.102   0.269  1.00  0.00     0.085 C 
HETATM    2  C3  UNL     1      -1.403  -1.398  -1.119  1.00  0.00     0.025 C 
HETATM    3  C4  UNL     1      -0.302  -2.413  -0.893  1.00  0.00     0.004 C 
HETATM    4  C5  UNL     1       0.841  -1.821  -0.098  1.00  0.00     0.025 C 
HETATM    5  C6  UNL     1       0.508  -0.596   0.690  1.00  0.00     0.078 C 
HETATM    6  C11 UNL     1      -0.929  -0.511   1.170  1.00  0.00     0.050 C 
ENDROOT
BRANCH   5   7
HETATM    7  N4  UNL     1       0.894   0.641   0.168  1.00  0.00    -0.413 N 
ATOM      8  H4  UNL     1       0.139   1.261  -0.124  1.00  0.00     0.154 HD
BRANCH   7   9
HETATM    9  C7  UNL     1       2.154   1.115   0.004  1.00  0.00     0.077 C 
HETATM   10  C8  UNL     1       3.237   0.528  -0.834  1.00  0.00     0.025 C 
HETATM   11  C9  UNL     1       4.154   1.525  -0.056  1.00  0.00     0.004 C 
HETATM   12  C10 UNL     1       3.181   1.196   1.110  1.00  0.00     0.025 C 
ENDBRANCH   7   9
ENDBRANCH   5   7
BRANCH   1  13
HETATM   13  N3  UNL     1      -3.199  -0.478   0.303  1.00  0.00    -0.362 N 
HETATM   14  C1  UNL     1      -3.646   0.664   0.115  1.00  0.00     0.197 C 
HETATM   15  N1  UNL     1      -5.035   0.903   0.251  1.00  0.00    -0.067 NA
HETATM   16  N2  UNL     1      -2.823   1.758  -0.233  1.00  0.00    -0.067 NA
ATOM     17  H3  UNL     1      -3.940  -1.136   0.547  1.00  0.00     0.162 HD
ENDBRANCH   1  13
TORSDOF 3
