REMARK  14 active torsions:
REMARK  status: ('A' for Active; 'I' for Inactive)
REMARK    1  A    between atoms: O1_1  and  C1_3 
REMARK    2  A    between atoms: C1_3  and  C2_4 
REMARK    3  A    between atoms: C2_4  and  O2_5 
REMARK    4  A    between atoms: O2_5  and  C3_6 
REMARK    5  A    between atoms: C3_6  and  C4_7 
REMARK    6  A    between atoms: C5_9  and  O4_10 
REMARK    7  A    between atoms: O4_10  and  C6_11 
REMARK    8  A    between atoms: C8_13  and  O5_14 
REMARK    9  A    between atoms: C9_16  and  O6_17 
REMARK   10  A    between atoms: C10_19  and  O7_20 
REMARK   11  A    between atoms: C11_22  and  O8_23 
REMARK   12  A    between atoms: O8_23  and  C12_24 
REMARK   13  A    between atoms: C20_32  and  O9_33 
REMARK   14  A    between atoms: C22_36  and  O10_37 
ROOT
HETATM    1  C6  UNL     1      -0.362  -0.399   1.895  1.00  0.00     0.158 C 
HETATM    2  C7  UNL     1       0.253  -1.433   2.874  1.00  0.00     0.069 C 
HETATM    3  C8  UNL     1       0.083  -2.759   2.173  1.00  0.00     0.152 C 
HETATM    4  C9  UNL     1      -1.354  -3.025   1.916  1.00  0.00     0.178 C 
HETATM    5  C10 UNL     1      -2.230  -1.958   2.478  1.00  0.00     0.180 C 
HETATM    6  C11 UNL     1      -1.856  -0.554   2.077  1.00  0.00     0.182 C 
ENDROOT
BRANCH   1   7
HETATM    7  O4  UNL     1       0.007  -0.823   0.655  1.00  0.00    -0.353 OA
BRANCH   7   8
HETATM    8  C5  UNL     1       0.816  -0.019  -0.088  1.00  0.00     0.266 C 
HETATM    9  O3  UNL     1       2.085  -0.595  -0.321  1.00  0.00    -0.350 OA
HETATM   10  C4  UNL     1       2.781   0.417  -1.023  1.00  0.00     0.183 C 
HETATM   11  C22 UNL     1       2.049   0.630  -2.298  1.00  0.00     0.099 C 
HETATM   12  C19 UNL     1       0.792   1.429  -2.153  1.00  0.00     0.062 C 
HETATM   13  C21 UNL     1       0.976  -0.364  -2.578  1.00  0.00     0.062 C 
HETATM   14  C18 UNL     1       0.226   0.244  -1.422  1.00  0.00     0.060 C 
HETATM   15  C20 UNL     1       0.311   0.718  -3.393  1.00  0.00     0.133 C 
BRANCH  10  16
HETATM   16  C3  UNL     1       4.212  -0.001  -1.289  1.00  0.00     0.202 C 
BRANCH  16  17
HETATM   17  O2  UNL     1       4.917  -0.251  -0.151  1.00  0.00    -0.386 OA
BRANCH  17  18
HETATM   18  C2  UNL     1       6.197  -0.663  -0.428  1.00  0.00     0.193 C 
BRANCH  18  19
HETATM   19  C1  UNL     1       6.973   0.361  -1.187  1.00  0.00     0.190 C 
BRANCH  19  20
HETATM   20  O1  UNL     1       8.291  -0.125  -1.427  1.00  0.00    -0.399 OA
ATOM     21  H1  UNL     1       8.785   0.527  -1.910  1.00  0.00     0.209 HD
ENDBRANCH  19  20
ENDBRANCH  18  19
ENDBRANCH  17  18
ENDBRANCH  16  17
ENDBRANCH  10  16
BRANCH  11  22
HETATM   22  O10 UNL     1       2.891   0.976  -3.321  1.00  0.00    -0.386 OA
ATOM     23  H10 UNL     1       2.423   1.112  -4.136  1.00  0.00     0.210 HD
ENDBRANCH  11  22
BRANCH  15  24
HETATM   24  O9  UNL     1       0.883   1.068  -4.581  1.00  0.00    -0.395 OA
ATOM     25  H9  UNL     1       0.580   0.620  -5.362  1.00  0.00     0.210 HD
ENDBRANCH  15  24
ENDBRANCH   7   8
ENDBRANCH   1   7
BRANCH   6  26
HETATM   26  O8  UNL     1      -2.578  -0.186   0.980  1.00  0.00    -0.375 OA
BRANCH  26  27
HETATM   27  C12 UNL     1      -3.472   0.846   1.178  1.00  0.00     0.122 C 
HETATM   28  C13 UNL     1      -4.899   0.558   0.909  1.00  0.00     0.032 C 
HETATM   29  C14 UNL     1      -5.656   1.896   0.901  1.00  0.00     0.002 C 
HETATM   30  C15 UNL     1      -5.247   2.756  -0.252  1.00  0.00     0.000 C 
HETATM   31  C16 UNL     1      -3.831   2.475  -0.708  1.00  0.00     0.002 C 
HETATM   32  C17 UNL     1      -2.948   2.058   0.446  1.00  0.00     0.032 C 
ENDBRANCH  26  27
ENDBRANCH   6  26
BRANCH   3  33
HETATM   33  O5  UNL     1       0.588  -3.798   2.953  1.00  0.00    -0.393 OA
ATOM     34  H5  UNL     1       0.481  -4.633   2.512  1.00  0.00     0.210 HD
ENDBRANCH   3  33
BRANCH   5  35
HETATM   35  O7  UNL     1      -3.528  -2.187   1.954  1.00  0.00    -0.390 OA
ATOM     36  H7  UNL     1      -4.086  -1.507   2.312  1.00  0.00     0.210 HD
ENDBRANCH   5  35
BRANCH   4  37
HETATM   37  O6  UNL     1      -1.624  -3.146   0.534  1.00  0.00    -0.390 OA
ATOM     38  H6  UNL     1      -2.544  -3.316   0.369  1.00  0.00     0.210 HD
ENDBRANCH   4  37
TORSDOF 14
