REMARK  1 active torsions:
REMARK  status: ('A' for Active; 'I' for Inactive)
REMARK    1  A    between atoms: N1_9  and  N2_10 
ROOT
HETATM    1  C1  UNL     1       1.871   1.254  -0.407  1.00  0.00     0.040 C 
HETATM    2  C2  UNL     1       0.596   0.537  -0.149  1.00  0.00     0.046 C 
HETATM    3  C3  UNL     1      -0.028   0.077  -1.449  1.00  0.00     0.032 C 
HETATM    4  C4  UNL     1      -1.402  -0.479  -1.218  1.00  0.00     0.004 C 
HETATM    5  C5  UNL     1      -1.564  -1.271   0.023  1.00  0.00     0.027 C 
HETATM    6  C6  UNL     1      -0.651  -0.873   1.147  1.00  0.00     0.104 C 
HETATM    7  C7  UNL     1      -1.095   0.526   1.588  1.00  0.00     0.029 C 
HETATM    8  C8  UNL     1      -0.351   1.420   0.637  1.00  0.00     0.034 C 
HETATM    9  N1  UNL     1       0.698  -0.603   0.703  1.00  0.00    -0.300 N 
ENDROOT
BRANCH   9  10
HETATM   10  N2  UNL     1       1.820  -1.309   1.043  1.00  0.00    -0.251 N 
HETATM   11  N3  UNL     1       2.646  -1.809   0.248  1.00  0.00    -0.331 N 
ATOM     12  H32 UNL     1       2.450  -1.668  -0.743  1.00  0.00     0.178 HD
ATOM     13  H31 UNL     1       3.482  -2.335   0.501  1.00  0.00     0.178 HD
ATOM     14  H2  UNL     1       2.000  -1.440   2.039  1.00  0.00     0.207 HD
ENDBRANCH   9  10
TORSDOF 1
