REMARK  0 active torsions:
REMARK  status: ('A' for Active; 'I' for Inactive)
ROOT
HETATM    1  N1  UNL     1       2.942   1.088   0.930  1.00  0.00    -0.389 N 
ATOM      2  H11 UNL     1       2.915   2.107   0.949  1.00  0.00     0.157 HD
ATOM      3  H12 UNL     1       3.661   0.601   1.465  1.00  0.00     0.157 HD
HETATM    4  C1  UNL     1       2.093   0.428   0.251  1.00  0.00     0.070 C 
HETATM    5  C2  UNL     1       2.132  -1.029   0.224  1.00  0.00     0.076 C 
HETATM    6  C3  UNL     1       0.809  -1.693   0.035  1.00  0.00     0.014 C 
HETATM    7  C4  UNL     1      -0.212  -0.977  -0.729  1.00  0.00     0.009 C 
HETATM    8  C5  UNL     1      -1.546  -1.088   0.030  1.00  0.00     0.007 C 
HETATM    9  C6  UNL     1      -1.555  -0.083   1.155  1.00  0.00     0.001 C 
HETATM   10  C7  UNL     1      -1.649   1.289   0.536  1.00  0.00     0.002 C 
HETATM   11  C8  UNL     1      -1.214   1.308  -0.903  1.00  0.00     0.025 C 
HETATM   12  C9  UNL     1       0.023   0.420  -1.127  1.00  0.00     0.086 C 
HETATM   13  N2  UNL     1       1.102   1.099  -0.486  1.00  0.00    -0.375 N 
ATOM     14  H2  UNL     1       1.156   2.114  -0.566  1.00  0.00     0.161 HD
ENDROOT
TORSDOF 0
