REMARK  9 active torsions:
REMARK  status: ('A' for Active; 'I' for Inactive)
REMARK    1  A    between atoms: C2_2  and  C3_3 
REMARK    2  A    between atoms: C3_3  and  C4_4 
REMARK    3  A    between atoms: C5_5  and  C6_6 
REMARK    4  A    between atoms: C6_6  and  C7_7 
REMARK    5  A    between atoms: C7_7  and  C10_11 
REMARK    6  A    between atoms: C8_8  and  C9_9 
REMARK    7  A    between atoms: C10_11  and  N1_12 
REMARK    8  A    between atoms: C12_15  and  C13_16 
REMARK    9  A    between atoms: C17_23  and  O3_24 
ROOT
HETATM    1  N1  UNL     1      -1.292  -1.067  -1.458  1.00  0.00    -0.312 N 
HETATM    2  C11 UNL     1      -1.485   0.342  -1.392  1.00  0.00     0.245 C 
HETATM    3  O1  UNL     1      -0.600   1.152  -1.749  1.00  0.00    -0.271 OA
HETATM    4  C12 UNL     1      -2.778   0.897  -0.886  1.00  0.00     0.180 C 
HETATM    5  N2  UNL     1      -3.449  -0.055  -0.027  1.00  0.00    -0.344 N 
ATOM      6  H2  UNL     1      -3.868   0.223   0.860  1.00  0.00     0.163 HD
HETATM    7  C16 UNL     1      -3.491  -1.393  -0.487  1.00  0.00     0.267 C 
HETATM    8  O2  UNL     1      -4.310  -2.226  -0.033  1.00  0.00    -0.269 OA
HETATM    9  C17 UNL     1      -2.542  -1.824  -1.535  1.00  0.00     0.317 C 
ENDROOT
BRANCH   1  10
HETATM   10  C10 UNL     1      -0.023  -1.696  -1.437  1.00  0.00     0.163 C 
BRANCH  10  11
HETATM   11  C7  UNL     1       0.486  -2.128  -0.118  1.00  0.00    -0.054 C 
HETATM   12  C8  UNL     1       0.703  -3.415   0.061  1.00  0.00    -0.011 C 
BRANCH  11  13
HETATM   13  C6  UNL     1       0.734  -1.154   0.952  1.00  0.00     0.129 C 
BRANCH  13  14
HETATM   14  C5  UNL     1       1.777  -0.177   0.529  1.00  0.00    -0.102 C 
HETATM   15  C4  UNL     1       2.624   0.612   0.193  1.00  0.00    -0.106 C 
BRANCH  15  16
HETATM   16  C3  UNL     1       3.634   1.578  -0.234  1.00  0.00     0.093 C 
BRANCH  16  17
HETATM   17  C2  UNL     1       4.762   1.628   0.797  1.00  0.00     0.007 C 
HETATM   18  C1  UNL     1       5.794   2.636   0.331  1.00  0.00     0.006 C 
ENDBRANCH  16  17
ENDBRANCH  15  16
ENDBRANCH  13  14
ENDBRANCH  11  13
BRANCH  12  19
HETATM   19  C9  UNL     1       1.202  -4.047   1.298  1.00  0.00     0.112 C 
HETATM   20 BR1  UNL     1       2.876  -4.955   0.914  1.00  0.00    -0.092 Br
ENDBRANCH  12  19
ENDBRANCH  10  11
ENDBRANCH   1  10
BRANCH   9  21
HETATM   21  O3  UNL     1      -2.232  -3.162  -1.369  1.00  0.00    -0.368 OA
ATOM     22  H3  UNL     1      -3.043  -3.653  -1.419  1.00  0.00     0.212 HD
ENDBRANCH   9  21
BRANCH   4  23
HETATM   23  C13 UNL     1      -2.640   2.191  -0.162  1.00  0.00     0.009 C 
HETATM   24  C14 UNL     1      -1.761   2.145   1.052  1.00  0.00     0.012 C 
HETATM   25  C15 UNL     1      -3.967   2.777   0.253  1.00  0.00     0.012 C 
ENDBRANCH   4  23
TORSDOF 9
