REMARK  7 active torsions:
REMARK  status: ('A' for Active; 'I' for Inactive)
REMARK    1  A    between atoms: C2_2  and  C3_3 
REMARK    2  A    between atoms: C3_3  and  N1_4 
REMARK    3  A    between atoms: C6_10  and  C7_11 
REMARK    4  A    between atoms: N4_21  and  C13_22 
REMARK    5  A    between atoms: C13_22  and  C14_23 
REMARK    6  A    between atoms: C14_23  and  C15_24 
REMARK    7  A    between atoms: C15_24  and  C16_25 
ROOT
HETATM    1  N1  UNL     1      -0.148   2.103   0.974  1.00  0.00    -0.223 N 
ATOM      2  H1  UNL     1       0.869   2.104   1.052  1.00  0.00     0.178 HD
HETATM    3  C4  UNL     1      -0.699   0.968   0.763  1.00  0.00     0.673 C 
HETATM    4  N2  UNL     1      -2.106   0.778   0.628  1.00  0.00    -0.219 N 
ATOM      5  H2  UNL     1      -2.775   1.503   0.887  1.00  0.00     0.178 HD
HETATM    6  C5  UNL     1      -2.526  -0.486   0.109  1.00  0.00     0.138 C 
HETATM    7  C6  UNL     1      -3.946  -0.855   0.412  1.00  0.00     0.113 C 
HETATM    8  C8  UNL     1      -3.854  -2.287   0.857  1.00  0.00     0.225 C 
HETATM    9  O1  UNL     1      -4.823  -2.987   1.304  1.00  0.00    -0.273 OA
HETATM   10  N3  UNL     1      -2.481  -2.698   0.681  1.00  0.00    -0.352 N 
ATOM     11  H3  UNL     1      -2.133  -3.628   0.448  1.00  0.00     0.163 HD
HETATM   12  C9  UNL     1      -1.725  -1.519   0.905  1.00  0.00     0.136 C 
HETATM   13  C10 UNL     1      -0.337  -1.487   0.320  1.00  0.00     0.065 C 
HETATM   14  C11 UNL     1      -0.437  -1.679  -1.177  1.00  0.00     0.041 C 
HETATM   15  C12 UNL     1       0.500  -2.616   0.877  1.00  0.00     0.041 C 
HETATM   16  N4  UNL     1       0.179  -0.177   0.651  1.00  0.00    -0.207 N 
ENDROOT
BRANCH   1  17
HETATM   17  C3  UNL     1      -0.793   3.367   1.113  1.00  0.00     0.164 C 
BRANCH  17  18
HETATM   18  C2  UNL     1      -0.597   4.204  -0.094  1.00  0.00    -0.017 C 
HETATM   19  C1  UNL     1      -1.621   4.622  -0.790  1.00  0.00     0.008 C 
ENDBRANCH  17  18
ENDBRANCH   1  17
BRANCH  16  20
HETATM   20  C13 UNL     1       1.578   0.011   0.869  1.00  0.00     0.142 C 
BRANCH  20  21
HETATM   21  C14 UNL     1       2.435  -0.127  -0.367  1.00  0.00     0.020 C 
BRANCH  21  22
HETATM   22  C15 UNL     1       3.857   0.110   0.092  1.00  0.00     0.001 C 
BRANCH  22  23
HETATM   23  C16 UNL     1       4.867   0.018  -1.004  1.00  0.00    -0.004 C 
HETATM   24  C17 UNL     1       6.229   0.286  -0.348  1.00  0.00     0.005 C 
ENDBRANCH  22  23
ENDBRANCH  21  22
ENDBRANCH  20  21
ENDBRANCH  16  20
BRANCH   7  25
HETATM   25  C7  UNL     1      -4.700  -0.898  -0.927  1.00  0.00     0.101 C 
HETATM   26 BR1  UNL     1      -6.550  -1.368  -0.648  1.00  0.00    -0.096 Br
ENDBRANCH   7  25
TORSDOF 7
