REMARK  10 active torsions:
REMARK  status: ('A' for Active; 'I' for Inactive)
REMARK    1  A    between atoms: C2_2  and  C4_4 
REMARK    2  A    between atoms: C4_4  and  C5_5 
REMARK    3  A    between atoms: C6_6  and  O1_7 
REMARK    4  A    between atoms: C7_9  and  O2_10 
REMARK    5  A    between atoms: C10_14  and  C11_15 
REMARK    6  A    between atoms: C11_15  and  O3_16 
REMARK    7  A    between atoms: C12_19  and  C14_21 
REMARK    8  A    between atoms: C14_21  and  C15_22 
REMARK    9  A    between atoms: C16_23  and  C18_25 
REMARK   10  A    between atoms: C18_25  and  C19_26 
ROOT
HETATM    1  C5  UNL     1      -2.951  -0.423  -0.980  1.00  0.00    -0.007 A 
HETATM    2  C6  UNL     1      -2.904  -1.752  -0.608  1.00  0.00     0.108 A 
HETATM    3  C7  UNL     1      -1.852  -2.255   0.179  1.00  0.00     0.129 A 
HETATM    4  C8  UNL     1      -0.831  -1.424   0.599  1.00  0.00     0.099 A 
HETATM    5  C9  UNL     1      -0.866  -0.107   0.235  1.00  0.00     0.108 A 
HETATM    6  C10 UNL     1      -1.907   0.360  -0.533  1.00  0.00     0.010 A 
HETATM    7  O4  UNL     1       0.141   0.727   0.645  1.00  0.00    -0.336 OA
HETATM    8  C12 UNL     1       1.172   0.439   1.540  1.00  0.00     0.083 C 
HETATM    9  C13 UNL     1       0.869   1.211   2.826  1.00  0.00     0.049 C 
HETATM   10  C20 UNL     1       1.306  -0.995   1.901  1.00  0.00     0.158 C 
HETATM   11  N1  UNL     1       0.262  -1.845   1.390  1.00  0.00    -0.382 N 
ATOM     12  H1  UNL     1       0.316  -2.838   1.619  1.00  0.00     0.160 HD
ENDROOT
BRANCH   8  13
HETATM   13  C14 UNL     1       2.476   1.036   0.992  1.00  0.00     0.067 C 
BRANCH  13  14
HETATM   14  C15 UNL     1       2.818   0.473  -0.321  1.00  0.00    -0.021 C 
HETATM   15  C16 UNL     1       3.915  -0.179  -0.615  1.00  0.00    -0.087 C 
HETATM   16  C17 UNL     1       4.115  -0.696  -2.020  1.00  0.00     0.043 C 
BRANCH  15  17
HETATM   17  C18 UNL     1       5.016  -0.465   0.326  1.00  0.00     0.044 C 
BRANCH  17  18
HETATM   18  C19 UNL     1       6.317   0.167  -0.188  1.00  0.00     0.090 C 
HETATM   19  S1  UNL     1       6.069   1.967  -0.323  1.00  0.00    -0.097 SA
ENDBRANCH  17  18
ENDBRANCH  15  17
ENDBRANCH  13  14
ENDBRANCH   8  13
BRANCH   6  20
HETATM   20  C11 UNL     1      -1.892   1.794  -0.900  1.00  0.00     0.206 C 
BRANCH  20  21
HETATM   21  O3  UNL     1      -0.763   2.443  -0.378  1.00  0.00    -0.396 OA
ATOM     22  H3  UNL     1      -0.753   3.363  -0.614  1.00  0.00     0.209 HD
ENDBRANCH  20  21
ENDBRANCH   6  20
BRANCH   3  23
HETATM   23  O2  UNL     1      -1.843  -3.594   0.532  1.00  0.00    -0.356 OA
ATOM     24  H2  UNL     1      -1.133  -3.934   1.063  1.00  0.00     0.218 HD
ENDBRANCH   3  23
BRANCH   1  25
HETATM   25  C4  UNL     1      -4.066   0.139  -1.758  1.00  0.00     0.075 C 
BRANCH  25  26
HETATM   26  C2  UNL     1      -5.257   0.543  -1.027  1.00  0.00    -0.089 C 
HETATM   27  C1  UNL     1      -5.712   1.794  -1.152  1.00  0.00     0.014 C 
HETATM   28  C3  UNL     1      -5.998  -0.355  -0.127  1.00  0.00     0.043 C 
ENDBRANCH  25  26
ENDBRANCH   1  25
BRANCH   2  29
HETATM   29  O1  UNL     1      -3.844  -2.692  -0.963  1.00  0.00    -0.357 OA
ATOM     30  H1  UNL     1      -3.812  -3.606  -0.707  1.00  0.00     0.217 HD
ENDBRANCH   2  29
TORSDOF 10
