REMARK  2 active torsions:
REMARK  status: ('A' for Active; 'I' for Inactive)
REMARK    1  A    between atoms: C5_5  and  N1_6 
REMARK    2  A    between atoms: N1_6  and  C6_8 
ROOT
HETATM    1  C1  UNL     1       4.891   0.388  -0.834  1.00  0.00     0.040 C 
HETATM    2  C2  UNL     1       3.958   0.004   0.306  1.00  0.00     0.182 C 
HETATM    3  C3  UNL     1       2.976   1.068   0.614  1.00  0.00     0.034 C 
HETATM    4  C4  UNL     1       1.597   0.446   0.837  1.00  0.00     0.028 C 
HETATM    5  C5  UNL     1       1.174  -0.263  -0.410  1.00  0.00     0.102 C 
HETATM    6  C13 UNL     1       2.291  -1.173  -0.936  1.00  0.00     0.257 C 
HETATM    7  N2  UNL     1       3.406  -1.274  -0.046  1.00  0.00    -0.069 N 
ATOM      8  H21 UNL     1       3.160  -1.807   0.788  1.00  0.00     0.277 HD
ATOM      9  H22 UNL     1       4.124  -1.888  -0.430  1.00  0.00     0.277 HD
ENDROOT
BRANCH   5  10
HETATM   10  N1  UNL     1      -0.044  -0.963  -0.373  1.00  0.00    -0.411 N 
ATOM     11  H1  UNL     1      -0.017  -1.982  -0.401  1.00  0.00     0.154 HD
BRANCH  10  12
HETATM   12  C6  UNL     1      -1.293  -0.333  -0.300  1.00  0.00     0.077 C 
HETATM   13  C7  UNL     1      -1.529   0.452   0.926  1.00  0.00     0.024 C 
HETATM   14  C8  UNL     1      -3.006   0.534   1.302  1.00  0.00     0.002 C 
HETATM   15  C9  UNL     1      -3.671   1.331   0.216  1.00  0.00     0.000 C 
HETATM   16  C10 UNL     1      -3.787   0.589  -1.075  1.00  0.00     0.000 C 
HETATM   17  C11 UNL     1      -3.661  -0.892  -0.958  1.00  0.00     0.002 C 
HETATM   18  C12 UNL     1      -2.355  -1.408  -0.506  1.00  0.00     0.024 C 
ENDBRANCH  10  12
ENDBRANCH   5  10
TORSDOF 2
