REMARK  8 active torsions:
REMARK  status: ('A' for Active; 'I' for Inactive)
REMARK    1  A    between atoms: S1_2  and  C2_3 
REMARK    2  A    between atoms: C3_8  and  C4_9 
REMARK    3  A    between atoms: C4_9  and  N3_10 
REMARK    4  A    between atoms: N3_10  and  C5_12 
REMARK    5  A    between atoms: C8_18  and  C9_19 
REMARK    6  A    between atoms: N8_26  and  C10_27 
REMARK    7  A    between atoms: C13_38  and  N13_39 
REMARK    8  A    between atoms: N14_43  and  N15_44 
ROOT
HETATM    1  C5  UNL     1       1.046  -0.945  -0.461  1.00  0.00     0.009 C 
HETATM    2  C6  UNL     1       0.182  -2.117  -0.708  1.00  0.00     0.284 C 
HETATM    3  N4  UNL     1      -1.170  -2.057  -0.260  1.00  0.00    -0.070 N 
ATOM      4  H41 UNL     1      -1.332  -2.735   0.485  1.00  0.00     0.277 HD
ATOM      5  H42 UNL     1      -1.800  -2.429  -0.970  1.00  0.00     0.277 HD
HETATM    6  C7  UNL     1      -1.601  -0.706   0.163  1.00  0.00     0.245 C 
HETATM    7  C8  UNL     1      -1.162   0.234  -0.895  1.00  0.00     0.087 C 
HETATM    8  C14 UNL     1       0.364   0.363  -0.623  1.00  0.00     0.068 C 
ENDROOT
BRANCH   7   9
HETATM    9  C9  UNL     1      -1.663   1.606  -0.847  1.00  0.00     0.127 A 
HETATM   10  N5  UNL     1      -0.884   2.752  -0.883  1.00  0.00    -0.271 N 
HETATM   11  N6  UNL     1      -1.628   3.803  -0.821  1.00  0.00    -0.226 N 
ATOM     12  H5  UNL     1       0.134   2.762  -0.949  1.00  0.00     0.190 HD
HETATM   13  N7  UNL     1      -2.885   3.424  -0.742  1.00  0.00    -0.219 N 
ATOM     14  H6  UNL     1      -1.297   4.768  -0.831  1.00  0.00     0.210 HD
HETATM   15  N8  UNL     1      -2.890   2.060  -0.759  1.00  0.00    -0.220 N 
ATOM     16  H7  UNL     1      -3.700   4.034  -0.680  1.00  0.00     0.210 HD
BRANCH  15  17
HETATM   17  C10 UNL     1      -4.128   1.399  -0.653  1.00  0.00     0.145 A 
HETATM   18  C11 UNL     1      -4.894   1.714   0.492  1.00  0.00     0.164 A 
HETATM   19  N9  UNL     1      -4.402   2.616   1.468  1.00  0.00    -0.080 NA
HETATM   20  N10 UNL     1      -6.092   1.174   0.707  1.00  0.00    -0.177 N 
HETATM   21  C12 UNL     1      -6.613   0.286  -0.200  1.00  0.00     0.678 A 
ATOM     22  H10 UNL     1      -6.621   1.420   1.544  1.00  0.00     0.185 HD
HETATM   23  N11 UNL     1      -7.737  -0.147   0.042  1.00  0.00    -0.234 N 
HETATM   24  N12 UNL     1      -5.864   0.001  -1.285  1.00  0.00    -0.175 N 
ATOM     25 2H11 UNL     1      -8.303   0.069   0.862  1.00  0.00     0.174 HD
ATOM     26 1H11 UNL     1      -8.124  -0.807  -0.632  1.00  0.00     0.174 HD
HETATM   27  C13 UNL     1      -4.652   0.518  -1.550  1.00  0.00     0.147 A 
ATOM     28  H12 UNL     1      -6.249  -0.661  -1.959  1.00  0.00     0.186 HD
BRANCH  27  29
HETATM   29  N13 UNL     1      -4.023   0.207  -2.632  1.00  0.00    -0.383 N 
ATOM     30 2H13 UNL     1      -3.103   0.599  -2.833  1.00  0.00     0.157 HD
ATOM     31 1H13 UNL     1      -4.415  -0.453  -3.304  1.00  0.00     0.157 HD
ENDBRANCH  27  29
ENDBRANCH  15  17
ENDBRANCH   7   9
BRANCH   1  32
HETATM   32  N3  UNL     1       1.916  -1.022   0.651  1.00  0.00    -0.388 N 
ATOM     33  H3  UNL     1       1.776  -0.450   1.484  1.00  0.00     0.159 HD
BRANCH  32  34
HETATM   34  C4  UNL     1       3.022  -1.962   0.543  1.00  0.00     0.199 C 
BRANCH  34  35
HETATM   35  C3  UNL     1       4.282  -1.179   0.566  1.00  0.00     0.137 A 
HETATM   36  N2  UNL     1       4.260   0.153   0.696  1.00  0.00    -0.284 N 
HETATM   37  N1  UNL     1       5.429   0.672   0.589  1.00  0.00    -0.277 N 
ATOM     38  H2  UNL     1       3.411   0.694   0.861  1.00  0.00     0.188 HD
HETATM   39  C2  UNL     1       6.282  -0.399   0.371  1.00  0.00     0.181 A 
ATOM     40  H1  UNL     1       5.677   1.659   0.651  1.00  0.00     0.189 HD
HETATM   41  N14 UNL     1       5.535  -1.512   0.370  1.00  0.00    -0.224 N 
BRANCH  39  42
HETATM   42  S1  UNL     1       8.021  -0.143   0.066  1.00  0.00    -0.095 SA
HETATM   43  C1  UNL     1       8.356   1.653  -0.028  1.00  0.00     0.099 C 
ENDBRANCH  39  42
BRANCH  41  44
HETATM   44  N15 UNL     1       6.077  -2.798   0.200  1.00  0.00    -0.335 N 
ATOM     45 2H15 UNL     1       7.052  -3.057   0.048  1.00  0.00     0.177 HD
ATOM     46 1H15 UNL     1       5.509  -3.645   0.199  1.00  0.00     0.177 HD
ENDBRANCH  41  44
ENDBRANCH  34  35
ENDBRANCH  32  34
ENDBRANCH   1  32
TORSDOF 8
