REMARK  10 active torsions:
REMARK  status: ('A' for Active; 'I' for Inactive)
REMARK    1  A    between atoms: C3_6  and  N3_7 
REMARK    2  A    between atoms: N3_7  and  C4_8 
REMARK    3  A    between atoms: C4_8  and  C5_9 
REMARK    4  A    between atoms: C5_9  and  N4_10 
REMARK    5  A    between atoms: N4_10  and  C6_12 
REMARK    6  A    between atoms: C11_19  and  C12_20 
REMARK    7  A    between atoms: C12_20  and  C13_21 
REMARK    8  A    between atoms: C13_21  and  C14_22 
REMARK    9  A    between atoms: C14_22  and  C15_23 
REMARK   10  A    between atoms: C15_23  and  N6_24 
ROOT
HETATM    1  C1  UNL     1       0.756  -5.043  -1.257  1.00  0.00     0.156 C 
HETATM    2  N1  UNL     1       1.143  -3.825  -0.584  1.00  0.00    -0.357 N 
HETATM    3  C2  UNL     1       2.432  -3.509  -0.353  1.00  0.00     0.184 A 
HETATM    4  N2  UNL     1       2.780  -2.383   0.269  1.00  0.00    -0.327 N 
ATOM      5  H2  UNL     1       3.771  -2.195   0.418  1.00  0.00     0.169 HD
HETATM    6  C3  UNL     1       1.860  -1.462   0.719  1.00  0.00     0.186 A 
HETATM    7  C11 UNL     1       0.512  -1.789   0.478  1.00  0.00     0.016 A 
HETATM    8  C23 UNL     1       0.218  -2.959  -0.163  1.00  0.00     0.103 A 
ENDROOT
BRANCH   7   9
HETATM    9  C12 UNL     1      -0.576  -0.865   0.908  1.00  0.00     0.045 C 
BRANCH   9  10
HETATM   10  C13 UNL     1      -0.726   0.308  -0.016  1.00  0.00     0.006 C 
BRANCH  10  11
HETATM   11  C14 UNL     1      -1.070  -0.039  -1.422  1.00  0.00     0.021 C 
BRANCH  11  12
HETATM   12  C15 UNL     1      -2.374  -0.708  -1.656  1.00  0.00     0.128 C 
BRANCH  12  13
HETATM   13  N6  UNL     1      -3.534   0.077  -1.294  1.00  0.00    -0.362 N 
HETATM   14  C16 UNL     1      -4.107   0.917  -2.211  1.00  0.00     0.119 A 
HETATM   15  C17 UNL     1      -5.215   1.659  -1.880  1.00  0.00     0.090 A 
HETATM   16  N7  UNL     1      -5.801   2.529  -2.844  1.00  0.00    -0.099 NA
HETATM   17  C18 UNL     1      -5.786   1.591  -0.628  1.00  0.00     0.087 A 
HETATM   18  N8  UNL     1      -6.834   2.161   0.003  1.00  0.00    -0.349 N 
HETATM   19  C21 UNL     1      -5.214   0.747   0.301  1.00  0.00     0.079 A 
HETATM   20  C19 UNL     1      -6.934   1.708   1.279  1.00  0.00     0.183 A 
ATOM     21  H8  UNL     1      -7.466   2.840  -0.421  1.00  0.00     0.167 HD
HETATM   22  N9  UNL     1      -5.927   0.840   1.436  1.00  0.00    -0.344 N 
HETATM   23  C20 UNL     1      -5.644   0.110   2.645  1.00  0.00     0.157 C 
HETATM   24  C22 UNL     1      -4.095   0.018  -0.085  1.00  0.00     0.122 A 
ENDBRANCH  12  13
ENDBRANCH  11  12
ENDBRANCH  10  11
ENDBRANCH   9  10
ENDBRANCH   7   9
BRANCH   6  25
HETATM   25  N3  UNL     1       2.204  -0.455   1.287  1.00  0.00    -0.402 NA
BRANCH  25  26
HETATM   26  C4  UNL     1       2.559   0.652   1.909  1.00  0.00     0.177 C 
BRANCH  26  27
HETATM   27  C5  UNL     1       3.734   1.444   1.310  1.00  0.00     0.180 C 
BRANCH  27  28
HETATM   28  N4  UNL     1       4.925   0.641   1.280  1.00  0.00    -0.371 N 
ATOM     29  H4  UNL     1       4.901  -0.334   1.579  1.00  0.00     0.161 HD
BRANCH  28  30
HETATM   30  C6  UNL     1       6.024   1.174   0.868  1.00  0.00     0.101 A 
HETATM   31  C7  UNL     1       6.090   2.489   0.456  1.00  0.00     0.048 A 
HETATM   32  C8  UNL     1       7.319   2.953   0.034  1.00  0.00     0.005 A 
HETATM   33  C9  UNL     1       8.452   2.156   0.015  1.00  0.00     0.017 A 
HETATM   34  C10 UNL     1       8.316   0.855   0.439  1.00  0.00     0.089 A 
HETATM   35  N5  UNL     1       7.121   0.403   0.850  1.00  0.00    -0.353 N 
ATOM     36  H5  UNL     1       7.044  -0.565   1.161  1.00  0.00     0.166 HD
ENDBRANCH  28  30
ENDBRANCH  27  28
ENDBRANCH  26  27
ENDBRANCH  25  26
ENDBRANCH   6  25
TORSDOF 10
