REMARK  10 active torsions:
REMARK  status: ('A' for Active; 'I' for Inactive)
REMARK    1  A    between atoms: C1_2  and  C2_4 
REMARK    2  A    between atoms: C2_4  and  C3_5 
REMARK    3  A    between atoms: C2_4  and  N5_13 
REMARK    4  A    between atoms: C4_6  and  C5_7 
REMARK    5  A    between atoms: C5_7  and  N2_8 
REMARK    6  A    between atoms: N5_13  and  C7_15 
REMARK    7  A    between atoms: C7_15  and  C8_16 
REMARK    8  A    between atoms: C8_16  and  C9_17 
REMARK    9  A    between atoms: C9_17  and  C10_18 
REMARK       I    between atoms: N6_24  and  C16_26 
REMARK   10  A    between atoms: C16_26  and  C17_28 
ROOT
HETATM    1  C7  UNL     1      -0.001  -0.513  -0.988  1.00  0.00     0.080 C 
HETATM    2  N6  UNL     1       0.141   0.684  -1.398  1.00  0.00    -0.317 N 
ATOM      3  H6  UNL     1       1.098   1.028  -1.471  1.00  0.00     0.170 HD
HETATM    4  C16 UNL     1      -0.877   1.583  -1.761  1.00  0.00     0.228 C 
HETATM    5  O2  UNL     1      -1.189   1.745  -2.972  1.00  0.00    -0.273 OA
ENDROOT
BRANCH   1   6
HETATM    6  N5  UNL     1       1.153  -1.268  -0.668  1.00  0.00    -0.363 N 
ATOM      7  H5  UNL     1       1.065  -2.232  -0.345  1.00  0.00     0.162 HD
BRANCH   6   8
HETATM    8  C2  UNL     1       2.526  -0.628  -0.810  1.00  0.00     0.195 C 
BRANCH   8   9
HETATM    9  C1  UNL     1       2.505   0.497   0.106  1.00  0.00     0.257 C 
HETATM   10  N1  UNL     1       2.942   1.795  -0.345  1.00  0.00    -0.060 NA
HETATM   11  O1  UNL     1       2.110   0.418   1.294  1.00  0.00    -0.274 OA
ENDBRANCH   8   9
BRANCH   8  12
HETATM   12  C3  UNL     1       3.431  -1.755  -0.681  1.00  0.00     0.008 C 
HETATM   13  C4  UNL     1       4.875  -1.791  -0.676  1.00  0.00     0.015 C 
BRANCH  13  14
HETATM   14  C5  UNL     1       5.674  -1.213   0.428  1.00  0.00     0.090 C 
BRANCH  14  15
HETATM   15  N2  UNL     1       5.635   0.147   0.726  1.00  0.00    -0.343 N 
HETATM   16  C6  UNL     1       6.591   0.996   0.740  1.00  0.00     0.200 C 
HETATM   17  N3  UNL     1       7.916   0.599   0.422  1.00  0.00    -0.067 NA
HETATM   18  N4  UNL     1       6.334   2.349   1.075  1.00  0.00    -0.067 NA
ATOM     19  H2  UNL     1       4.716   0.517   0.967  1.00  0.00     0.167 HD
ENDBRANCH  14  15
ENDBRANCH  13  14
ENDBRANCH   8  12
ENDBRANCH   6   8
ENDBRANCH   1   6
BRANCH   1  20
HETATM   20  C8  UNL     1      -1.354  -1.153  -0.835  1.00  0.00     0.076 C 
BRANCH  20  21
HETATM   21  C9  UNL     1      -1.568  -1.581   0.578  1.00  0.00     0.012 C 
BRANCH  21  22
HETATM   22  C10 UNL     1      -2.879  -2.225   0.841  1.00  0.00    -0.014 C 
HETATM   23  C11 UNL     1      -3.042  -3.466  -0.004  1.00  0.00     0.004 C 
HETATM   24  C12 UNL     1      -4.301  -4.209   0.366  1.00  0.00     0.000 C 
HETATM   25  C13 UNL     1      -5.479  -3.283   0.201  1.00  0.00     0.000 C 
HETATM   26  C14 UNL     1      -5.289  -2.114   1.147  1.00  0.00     0.000 C 
HETATM   27  C15 UNL     1      -4.064  -1.349   0.624  1.00  0.00     0.004 C 
ENDBRANCH  21  22
ENDBRANCH  20  21
ENDBRANCH   1  20
BRANCH   4  28
HETATM   28  C17 UNL     1      -1.592   2.346  -0.736  1.00  0.00     0.104 C 
HETATM   29  C18 UNL     1      -2.652   3.264  -1.357  1.00  0.00     0.017 C 
HETATM   30  C19 UNL     1      -3.446   3.853  -0.237  1.00  0.00     0.028 C 
HETATM   31  C20 UNL     1      -2.629   4.461   0.855  1.00  0.00     0.232 C 
HETATM   32  N7  UNL     1      -1.473   3.704   1.223  1.00  0.00    -0.074 N 
HETATM   33  C21 UNL     1      -0.691   3.244   0.091  1.00  0.00     0.246 C 
ATOM     34  H72 UNL     1      -0.890   4.231   1.872  1.00  0.00     0.277 HD
ATOM     35  H71 UNL     1      -1.732   2.921   1.823  1.00  0.00     0.277 HD
ENDBRANCH   4  28
TORSDOF 10
