REMARK  13 active torsions:
REMARK  status: ('A' for Active; 'I' for Inactive)
REMARK    1  A    between atoms: C2_2  and  C3_3 
REMARK    2  A    between atoms: C3_3  and  C4_4 
REMARK    3  A    between atoms: C6_6  and  C7_7 
REMARK    4  A    between atoms: C7_7  and  C8_8 
REMARK    5  A    between atoms: C8_8  and  C9_9 
REMARK    6  A    between atoms: C11_11  and  O1_12 
REMARK    7  A    between atoms: C12_14  and  O2_15 
REMARK    8  A    between atoms: C12_14  and  C13_17 
REMARK    9  A    between atoms: C13_17  and  C14_18 
REMARK   10  A    between atoms: C14_18  and  C15_19 
REMARK   11  A    between atoms: C15_19  and  O3_22 
REMARK   12  A    between atoms: C18_24  and  C19_25 
REMARK   13  A    between atoms: C19_25  and  O4_26 
ROOT
HETATM    1  C9  UNL     1       0.685   0.479   0.041  1.00  0.00     0.015 C 
HETATM    2  C10 UNL     1       1.476   1.208  -0.970  1.00  0.00     0.020 C 
HETATM    3  C11 UNL     1      -0.609  -0.018  -0.621  1.00  0.00     0.166 C 
HETATM    4  C12 UNL     1      -1.634   1.039  -0.360  1.00  0.00     0.120 C 
HETATM    5  C18 UNL     1      -1.328   1.424   1.062  1.00  0.00     0.142 A 
HETATM    6  O5  UNL     1      -0.748   0.566   1.957  1.00  0.00    -0.363 OA
HETATM    7  C20 UNL     1       0.116   1.400   1.120  1.00  0.00     0.173 A 
ENDROOT
BRANCH   1   8
HETATM    8  C8  UNL     1       1.333  -0.659   0.722  1.00  0.00     0.018 C 
BRANCH   8   9
HETATM    9  C7  UNL     1       2.532  -0.462   1.547  1.00  0.00     0.028 C 
BRANCH   9  10
HETATM   10  C6  UNL     1       3.683   0.081   0.824  1.00  0.00    -0.024 C 
HETATM   11  C4  UNL     1       4.813  -0.637   0.636  1.00  0.00    -0.084 C 
HETATM   12  C5  UNL     1       4.931  -2.012   1.161  1.00  0.00     0.043 C 
BRANCH  11  13
HETATM   13  C3  UNL     1       5.917   0.012  -0.112  1.00  0.00     0.059 C 
BRANCH  13  14
HETATM   14  C2  UNL     1       6.239  -0.783  -1.344  1.00  0.00    -0.033 C 
HETATM   15  C1  UNL     1       7.458  -1.266  -1.467  1.00  0.00     0.007 C 
ENDBRANCH  13  14
ENDBRANCH  11  13
ENDBRANCH   9  10
ENDBRANCH   8   9
ENDBRANCH   1   8
BRANCH   3  16
HETATM   16  O1  UNL     1      -0.948  -1.169   0.064  1.00  0.00    -0.392 OA
ATOM     17  H1  UNL     1      -1.748  -1.476  -0.345  1.00  0.00     0.210 HD
ENDBRANCH   3  16
BRANCH   4  18
HETATM   18  O2  UNL     1      -1.290   2.206  -1.116  1.00  0.00    -0.384 OA
ATOM     19  H2  UNL     1      -1.941   2.878  -0.950  1.00  0.00     0.210 HD
ENDBRANCH   4  18
BRANCH   4  20
HETATM   20  C13 UNL     1      -3.022   0.700  -0.662  1.00  0.00     0.047 C 
BRANCH  20  21
HETATM   21  C14 UNL     1      -3.690  -0.424   0.021  1.00  0.00     0.040 C 
BRANCH  21  22
HETATM   22  C15 UNL     1      -5.148  -0.578  -0.419  1.00  0.00     0.051 C 
HETATM   23  C16 UNL     1      -5.271  -0.832  -1.883  1.00  0.00     0.045 C 
HETATM   24  C17 UNL     1      -5.746  -1.767   0.312  1.00  0.00     0.045 C 
BRANCH  22  25
HETATM   25  O3  UNL     1      -5.893   0.559  -0.110  1.00  0.00    -0.391 OA
ATOM     26  H3  UNL     1      -6.798   0.463  -0.383  1.00  0.00     0.210 HD
ENDBRANCH  22  25
ENDBRANCH  21  22
ENDBRANCH  20  21
ENDBRANCH   4  20
BRANCH   5  27
HETATM   27  C19 UNL     1      -2.019   2.617   1.670  1.00  0.00     0.208 C 
BRANCH  27  28
HETATM   28  O4  UNL     1      -2.592   3.462   0.753  1.00  0.00    -0.398 OA
ATOM     29  H4  UNL     1      -3.028   4.214   1.136  1.00  0.00     0.209 HD
ENDBRANCH  27  28
ENDBRANCH   5  27
TORSDOF 13
