REMARK  10 active torsions:
REMARK  status: ('A' for Active; 'I' for Inactive)
REMARK    1  A    between atoms: C11_15  and  O3_16 
REMARK    2  A    between atoms: C12_18  and  N2_19 
REMARK    3  A    between atoms: N2_19  and  C13_21 
REMARK    4  A    between atoms: C13_21  and  C14_22 
REMARK    5  A    between atoms: C14_22  and  C15_23 
REMARK    6  A    between atoms: C15_23  and  C16_24 
REMARK    7  A    between atoms: C16_24  and  C17_25 
REMARK    8  A    between atoms: C17_25  and  C18_26 
REMARK    9  A    between atoms: C18_26  and  C19_27 
REMARK   10  A    between atoms: C19_27  and  N3_28 
ROOT
HETATM    1  C1  UNL     1      -3.118   0.379  -2.164  1.00  0.00     0.018 C 
HETATM    2  C2  UNL     1      -3.612   0.260  -0.738  1.00  0.00    -0.009 C 
HETATM    3  C3  UNL     1      -4.783   1.130  -0.515  1.00  0.00     0.018 C 
HETATM    4  C4  UNL     1      -3.746  -1.177  -0.358  1.00  0.00     0.003 C 
HETATM    5  C5  UNL     1      -4.566  -1.503   0.840  1.00  0.00     0.006 C 
HETATM    6  C6  UNL     1      -3.634  -1.999   1.907  1.00  0.00     0.001 C 
HETATM    7  C7  UNL     1      -2.280  -1.999   1.295  1.00  0.00     0.008 C 
HETATM    8  C8  UNL     1      -2.282  -1.098   0.082  1.00  0.00     0.029 C 
HETATM    9  C9  UNL     1      -2.467   0.360   0.296  1.00  0.00     0.107 C 
HETATM   10  O1  UNL     1      -3.056   0.581   1.567  1.00  0.00    -0.289 OA
HETATM   11  C10 UNL     1      -3.219   1.831   2.122  1.00  0.00     0.363 C 
HETATM   12  O2  UNL     1      -4.106   2.121   2.988  1.00  0.00    -0.238 OA
HETATM   13  N1  UNL     1      -2.311   2.821   1.658  1.00  0.00    -0.308 N 
ATOM     14  H1  UNL     1      -2.502   3.817   1.764  1.00  0.00     0.167 HD
HETATM   15  C11 UNL     1      -1.108   2.343   1.031  1.00  0.00     0.247 C 
HETATM   16  C12 UNL     1      -1.429   1.330  -0.087  1.00  0.00     0.162 C 
ENDROOT
BRANCH  16  17
HETATM   17  N2  UNL     1      -0.212   0.928  -0.624  1.00  0.00    -0.411 N 
ATOM     18  H2  UNL     1       0.002   1.203  -1.583  1.00  0.00     0.153 HD
BRANCH  17  19
HETATM   19  C13 UNL     1       0.729   0.176   0.064  1.00  0.00     0.114 C 
BRANCH  19  20
HETATM   20  C14 UNL     1       1.941  -0.017  -0.870  1.00  0.00     0.019 C 
BRANCH  20  21
HETATM   21  C15 UNL     1       2.987  -0.846  -0.139  1.00  0.00     0.002 C 
BRANCH  21  22
HETATM   22  C16 UNL     1       4.156  -1.013  -1.074  1.00  0.00     0.000 C 
BRANCH  22  23
HETATM   23  C17 UNL     1       5.286  -1.802  -0.516  1.00  0.00     0.002 C 
BRANCH  23  24
HETATM   24  C18 UNL     1       5.953  -1.311   0.706  1.00  0.00     0.027 C 
BRANCH  24  25
HETATM   25  C19 UNL     1       6.626   0.002   0.625  1.00  0.00     0.229 C 
BRANCH  25  26
HETATM   26  N3  UNL     1       5.782   1.100   0.324  1.00  0.00    -0.079 N 
ATOM     27  H33 UNL     1       5.265   0.918  -0.536  1.00  0.00     0.274 HD
ATOM     28  H32 UNL     1       5.012   1.142   0.991  1.00  0.00     0.274 HD
ATOM     29  H31 UNL     1       6.247   2.006   0.268  1.00  0.00     0.274 HD
ENDBRANCH  25  26
ENDBRANCH  24  25
ENDBRANCH  23  24
ENDBRANCH  22  23
ENDBRANCH  21  22
ENDBRANCH  20  21
ENDBRANCH  19  20
ENDBRANCH  17  19
ENDBRANCH  16  17
BRANCH  15  30
HETATM   30  O3  UNL     1      -0.399   3.393   0.416  1.00  0.00    -0.374 OA
ATOM     31  H3  UNL     1       0.396   3.077   0.002  1.00  0.00     0.212 HD
ENDBRANCH  15  30
TORSDOF 10
