REMARK  9 active torsions:
REMARK  status: ('A' for Active; 'I' for Inactive)
REMARK    1  A    between atoms: C1_2  and  N2_3 
REMARK    2  A    between atoms: C1_2  and  C2_7 
REMARK    3  A    between atoms: N2_3  and  O1_5 
REMARK    4  A    between atoms: C2_7  and  N3_8 
REMARK    5  A    between atoms: C2_7  and  C8_30 
REMARK    6  A    between atoms: N3_8  and  N4_10 
REMARK    7  A    between atoms: N4_10  and  C3_12 
REMARK    8  A    between atoms: C6_19  and  S1_20 
REMARK    9  A    between atoms: S1_20  and  N7_21 
ROOT
HETATM    1  N4  UNL     1      -0.186  -1.053   0.297  1.00  0.00    -0.286 N 
ATOM      2  H4  UNL     1      -0.215  -1.826  -0.367  1.00  0.00     0.188 HD
ENDROOT
BRANCH   1   3
HETATM    3  N3  UNL     1      -1.248  -0.883   1.187  1.00  0.00    -0.317 N 
ATOM      4  H3  UNL     1      -1.048  -0.744   2.178  1.00  0.00     0.181 HD
BRANCH   3   5
HETATM    5  C2  UNL     1      -2.626  -0.899   0.741  1.00  0.00     0.218 C 
BRANCH   5   6
HETATM    6  C1  UNL     1      -3.532  -0.698   1.879  1.00  0.00     0.143 C 
HETATM    7  N1  UNL     1      -3.454   0.501   2.666  1.00  0.00    -0.083 NA
BRANCH   6   8
HETATM    8  N2  UNL     1      -4.409  -1.582   2.195  1.00  0.00    -0.257 N 
ATOM      9  H2  UNL     1      -5.033  -1.429   2.988  1.00  0.00     0.195 HD
BRANCH   8  10
HETATM   10  O1  UNL     1      -4.499  -2.743   1.450  1.00  0.00    -0.289 OA
ATOM     11  H1  UNL     1      -5.148  -3.397   1.684  1.00  0.00     0.244 HD
ENDBRANCH   8  10
ENDBRANCH   6   8
ENDBRANCH   5   6
BRANCH   5  12
HETATM   12  C8  UNL     1      -2.862   0.176  -0.283  1.00  0.00     0.075 A 
HETATM   13  C9  UNL     1      -3.552   0.056  -1.483  1.00  0.00     0.137 A 
HETATM   14  N9  UNL     1      -3.540   1.249  -2.115  1.00  0.00    -0.296 N 
HETATM   15  N10 UNL     1      -2.866   2.073  -1.332  1.00  0.00    -0.243 N 
ATOM     16  H9  UNL     1      -3.965   1.470  -3.015  1.00  0.00     0.187 HD
HETATM   17  N11 UNL     1      -2.458   1.453  -0.244  1.00  0.00    -0.287 N 
ATOM     18  H10 UNL     1      -2.686   3.055  -1.542  1.00  0.00     0.208 HD
ATOM     19  H11 UNL     1      -1.919   1.878   0.510  1.00  0.00     0.188 HD
ENDBRANCH   5  12
ENDBRANCH   3   5
ENDBRANCH   1   3
BRANCH   1  20
HETATM   20  C3  UNL     1       0.828  -0.262   0.291  1.00  0.00     0.159 A 
HETATM   21  N5  UNL     1       0.895   0.782   1.168  1.00  0.00    -0.335 N 
HETATM   22  C4  UNL     1       1.951   1.614   1.169  1.00  0.00     0.182 A 
ATOM     23  H5  UNL     1       0.134   0.933   1.831  1.00  0.00     0.168 HD
HETATM   24  N6  UNL     1       2.959   1.428   0.302  1.00  0.00    -0.347 N 
HETATM   25  C5  UNL     1       2.960   0.416  -0.594  1.00  0.00     0.115 A 
ATOM     26  H6  UNL     1       3.750   2.072   0.320  1.00  0.00     0.167 HD
HETATM   27  C6  UNL     1       3.824  -0.015  -1.577  1.00  0.00     0.199 A 
HETATM   28  C7  UNL     1       1.875  -0.431  -0.588  1.00  0.00     0.173 A 
HETATM   29  N8  UNL     1       3.231  -1.093  -2.119  1.00  0.00    -0.246 N 
HETATM   30  O4  UNL     1       2.084  -1.316  -1.517  1.00  0.00    -0.231 OA
ATOM     31  H8  UNL     1       3.613  -1.653  -2.881  1.00  0.00     0.196 HD
BRANCH  27  32
HETATM   32  S1  UNL     1       5.355   0.709  -2.003  1.00  0.00     0.276 S 
HETATM   33  O2  UNL     1       5.323   2.199  -1.747  1.00  0.00    -0.199 OA
HETATM   34  O3  UNL     1       5.663   0.533  -3.464  1.00  0.00    -0.199 OA
BRANCH  32  35
HETATM   35  N7  UNL     1       6.658   0.045  -1.108  1.00  0.00    -0.323 N 
ATOM     36  H72 UNL     1       6.536  -0.689  -0.410  1.00  0.00     0.169 HD
ATOM     37  H71 UNL     1       7.552   0.468  -1.357  1.00  0.00     0.169 HD
ENDBRANCH  32  35
ENDBRANCH  27  32
ENDBRANCH   1  20
TORSDOF 9
