REMARK  6 active torsions:
REMARK  status: ('A' for Active; 'I' for Inactive)
REMARK       I    between atoms: N1_1  and  C1_5 
REMARK       I    between atoms: C1_5  and  N2_6 
REMARK       I    between atoms: C1_5  and  N3_10 
REMARK    1  A    between atoms: N3_10  and  C2_12 
REMARK    2  A    between atoms: C3_15  and  S1_16 
REMARK    3  A    between atoms: S1_16  and  N5_17 
REMARK    4  A    between atoms: C5_23  and  O3_24 
REMARK    5  A    between atoms: O3_24  and  S2_25 
REMARK    6  A    between atoms: C6_29  and  N6_30 
ROOT
HETATM    1  C2  UNL     1      -0.865  -0.284  -0.333  1.00  0.00     0.141 A 
HETATM    2  N4  UNL     1      -0.626   1.022  -0.236  1.00  0.00    -0.330 N 
ATOM      3  H4  UNL     1      -1.424   1.653  -0.165  1.00  0.00     0.168 HD
HETATM    4  C3  UNL     1       0.610   1.558  -0.226  1.00  0.00     0.153 A 
HETATM    5  C4  UNL     1       1.709   0.709  -0.322  1.00  0.00     0.084 A 
HETATM    6  C5  UNL     1       1.526  -0.636  -0.424  1.00  0.00     0.131 A 
HETATM    7  C6  UNL     1       0.246  -1.131  -0.429  1.00  0.00     0.181 A 
ENDROOT
BRANCH   1   8
HETATM    8  N3  UNL     1      -1.995  -0.845  -0.348  1.00  0.00    -0.325 N 
HETATM    9  C1  UNL     1      -3.279  -0.233  -0.264  1.00  0.00     0.481 C 
HETATM   10  N1  UNL     1      -4.102  -1.069   0.609  1.00  0.00    -0.033 N 
HETATM   11  N2  UNL     1      -3.904  -0.282  -1.575  1.00  0.00    -0.033 N 
ATOM     12  H13 UNL     1      -5.086  -0.802   0.618  1.00  0.00     0.278 HD
ATOM     13  H12 UNL     1      -4.234  -2.017   0.257  1.00  0.00     0.278 HD
ATOM     14  H11 UNL     1      -3.663  -1.035   1.529  1.00  0.00     0.278 HD
ATOM     15  H23 UNL     1      -4.036  -1.230  -1.927  1.00  0.00     0.278 HD
ATOM     16  H22 UNL     1      -4.888  -0.015  -1.566  1.00  0.00     0.278 HD
ATOM     17  H21 UNL     1      -3.330   0.301  -2.184  1.00  0.00     0.278 HD
ATOM     18  H3  UNL     1      -1.989  -1.862  -0.430  1.00  0.00     0.165 HD
ENDBRANCH   1   8
BRANCH   7  19
HETATM   19  N6  UNL     1       0.066  -2.536  -0.533  1.00  0.00    -0.109 N 
HETATM   20  O7  UNL     1      -0.307  -3.160   0.493  1.00  0.00    -0.532 OA
HETATM   21  O8  UNL     1       0.294  -3.164  -1.729  1.00  0.00    -0.532 OA
ENDBRANCH   7  19
BRANCH   4  22
HETATM   22  S1  UNL     1       0.857   3.265  -0.104  1.00  0.00     0.272 S 
HETATM   23  O1  UNL     1       2.167   3.642  -0.741  1.00  0.00    -0.199 OA
HETATM   24  O2  UNL     1      -0.229   4.017  -0.780  1.00  0.00    -0.199 OA
BRANCH  22  25
HETATM   25  N5  UNL     1       0.949   3.738   1.556  1.00  0.00    -0.323 N 
ATOM     26  H52 UNL     1       0.867   3.091   2.340  1.00  0.00     0.169 HD
ATOM     27  H51 UNL     1       1.095   4.745   1.628  1.00  0.00     0.169 HD
ENDBRANCH  22  25
ENDBRANCH   4  22
BRANCH   6  28
HETATM   28  O3  UNL     1       2.604  -1.498  -0.520  1.00  0.00    -0.211 OA
BRANCH  28  29
HETATM   29  S2  UNL     1       3.418  -2.203   0.767  1.00  0.00     0.257 S 
HETATM   30  O4  UNL     1       3.012  -3.642   0.991  1.00  0.00    -0.572 OA
HETATM   31  O5  UNL     1       3.222  -1.430   2.054  1.00  0.00    -0.572 OA
HETATM   32  O6  UNL     1       5.075  -2.204   0.398  1.00  0.00    -0.572 OA
ENDBRANCH  28  29
ENDBRANCH   6  28
TORSDOF 6
