REMARK  12 active torsions:
REMARK  status: ('A' for Active; 'I' for Inactive)
REMARK    1  A    between atoms: O1_2  and  C2_3 
REMARK    2  A    between atoms: C2_3  and  O2_4 
REMARK    3  A    between atoms: O2_4  and  C3_5 
REMARK    4  A    between atoms: C3_5  and  C4_6 
REMARK    5  A    between atoms: C4_6  and  O3_7 
REMARK    6  A    between atoms: O3_7  and  C5_8 
REMARK    7  A    between atoms: C5_8  and  C6_9 
REMARK    8  A    between atoms: C6_9  and  N1_10 
REMARK    9  A    between atoms: C8_15  and  N3_16 
REMARK   10  A    between atoms: N5_24  and  C11_25 
REMARK   11  A    between atoms: C11_25  and  C12_26 
REMARK   12  A    between atoms: C17_39  and  O8_40 
ROOT
HETATM    1  C2  UNL     1      -1.095   0.696  -0.923  1.00  0.00     0.206 C 
HETATM    2  C10 UNL     1      -1.753   0.788   0.444  1.00  0.00     0.188 C 
HETATM    3  N5  UNL     1      -3.163   0.563   0.363  1.00  0.00    -0.400 N 
HETATM    4  C15 UNL     1      -3.884   1.396  -0.537  1.00  0.00     0.120 C 
HETATM    5  C16 UNL     1      -3.238   1.328  -1.919  1.00  0.00     0.057 C 
HETATM    6  C17 UNL     1      -2.196   0.258  -1.901  1.00  0.00     0.183 C 
ENDROOT
BRANCH   1   7
HETATM    7  O1  UNL     1      -0.595   1.945  -1.220  1.00  0.00    -0.356 OA
HETATM    8  C1  UNL     1      -0.021   2.092  -2.453  1.00  0.00     0.205 C 
ENDBRANCH   1   7
BRANCH   1   9
HETATM    9  O2  UNL     1      -0.139  -0.296  -0.968  1.00  0.00    -0.349 OA
BRANCH   9  10
HETATM   10  C3  UNL     1       0.926  -0.156  -0.123  1.00  0.00     0.197 C 
BRANCH  10  11
HETATM   11  C4  UNL     1       1.841  -1.358  -0.352  1.00  0.00     0.194 C 
BRANCH  11  12
HETATM   12  O3  UNL     1       2.959  -1.297   0.474  1.00  0.00    -0.387 OA
BRANCH  12  13
HETATM   13  C5  UNL     1       3.782  -2.377   0.267  1.00  0.00     0.188 C 
BRANCH  13  14
HETATM   14  C6  UNL     1       5.006  -2.384   1.118  1.00  0.00     0.164 C 
BRANCH  14  15
HETATM   15  N1  UNL     1       5.850  -1.229   0.911  1.00  0.00    -0.248 N 
HETATM   16  C7  UNL     1       5.635  -0.143   1.668  1.00  0.00     0.344 A 
HETATM   17  O4  UNL     1       4.724  -0.123   2.538  1.00  0.00    -0.246 OA
HETATM   18  N2  UNL     1       6.414   0.944   1.487  1.00  0.00    -0.141 N 
HETATM   19  C8  UNL     1       7.392   0.951   0.567  1.00  0.00     0.683 A 
ATOM     20  H2  UNL     1       6.257   1.774   2.059  1.00  0.00     0.189 HD
HETATM   21  N4  UNL     1       7.617  -0.131  -0.197  1.00  0.00    -0.141 N 
HETATM   22  C9  UNL     1       6.829  -1.212  -0.005  1.00  0.00     0.344 A 
ATOM     23  H4  UNL     1       8.358  -0.136  -0.898  1.00  0.00     0.189 HD
HETATM   24  O5  UNL     1       7.062  -2.218  -0.737  1.00  0.00    -0.246 OA
BRANCH  19  25
HETATM   25  N3  UNL     1       8.122   2.018   0.423  1.00  0.00    -0.234 N 
ATOM     26  H32 UNL     1       7.951   2.839   1.003  1.00  0.00     0.174 HD
ATOM     27  H31 UNL     1       8.865   2.023  -0.276  1.00  0.00     0.174 HD
ENDBRANCH  19  25
ENDBRANCH  14  15
ENDBRANCH  13  14
ENDBRANCH  12  13
ENDBRANCH  11  12
ENDBRANCH  10  11
ENDBRANCH   9  10
ENDBRANCH   1   9
BRANCH   6  28
HETATM   28  O8  UNL     1      -1.719  -0.139  -3.117  1.00  0.00    -0.390 OA
ATOM     29  H8  UNL     1      -2.400  -0.410  -3.722  1.00  0.00     0.210 HD
ENDBRANCH   6  28
BRANCH   3  30
HETATM   30  C11 UNL     1      -3.785   0.269   1.605  1.00  0.00     0.193 C 
BRANCH  30  31
HETATM   31  C12 UNL     1      -5.240   0.060   1.414  1.00  0.00     0.106 A 
HETATM   32  N6  UNL     1      -6.140   1.050   1.596  1.00  0.00    -0.296 N 
HETATM   33  C13 UNL     1      -7.455   0.843   1.418  1.00  0.00     0.329 A 
ATOM     34  H6  UNL     1      -5.814   1.975   1.875  1.00  0.00     0.172 HD
HETATM   35  O6  UNL     1      -8.281   1.790   1.595  1.00  0.00    -0.246 OA
HETATM   36  N7  UNL     1      -7.931  -0.358   1.051  1.00  0.00    -0.260 N 
HETATM   37  C14 UNL     1      -7.049  -1.353   0.866  1.00  0.00     0.329 A 
ATOM     38  H7  UNL     1      -8.931  -0.509   0.917  1.00  0.00     0.175 HD
HETATM   39  O7  UNL     1      -7.439  -2.509   0.520  1.00  0.00    -0.246 OA
HETATM   40  N8  UNL     1      -5.736  -1.135   1.047  1.00  0.00    -0.296 N 
ATOM     41  H8  UNL     1      -5.088  -1.909   0.900  1.00  0.00     0.172 HD
ENDBRANCH  30  31
ENDBRANCH   3  30
TORSDOF 12
