REMARK  2 active torsions:
REMARK  status: ('A' for Active; 'I' for Inactive)
REMARK    1  A    between atoms: C3_6  and  N3_7 
REMARK    2  A    between atoms: N3_7  and  C4_9 
ROOT
HETATM    1  N1  UNL     1       6.602   0.715  -0.468  1.00  0.00    -0.190 NA
HETATM    2  C1  UNL     1       5.485   0.581  -0.123  1.00  0.00     0.120 C 
HETATM    3  C2  UNL     1       4.085   0.409   0.295  1.00  0.00     0.144 A 
HETATM    4  N2  UNL     1       3.378  -0.645   0.009  1.00  0.00    -0.326 N 
ATOM      5  H2  UNL     1       3.782  -1.411  -0.530  1.00  0.00     0.169 HD
HETATM    6  C3  UNL     1       2.115  -0.706   0.434  1.00  0.00     0.151 A 
HETATM    7  S2  UNL     1       1.914   0.766   1.264  1.00  0.00    -0.039 SA
HETATM    8  C10 UNL     1       3.482   1.402   1.024  1.00  0.00     0.115 A 
HETATM    9 CL1  UNL     1       4.159   2.948   1.573  1.00  0.00    -0.073 Cl
ENDROOT
BRANCH   6  10
HETATM   10  N3  UNL     1       1.238  -1.668   0.257  1.00  0.00    -0.345 N 
ATOM     11  H3  UNL     1       1.466  -2.516  -0.262  1.00  0.00     0.167 HD
BRANCH  10  12
HETATM   12  C4  UNL     1      -0.058  -1.459   0.834  1.00  0.00     0.112 C 
HETATM   13  C5  UNL     1      -0.996  -0.766   0.256  1.00  0.00     0.061 C 
HETATM   14  S1  UNL     1      -0.713  -0.019  -1.324  1.00  0.00    -0.125 SA
HETATM   15  C9  UNL     1      -2.278  -0.586   0.876  1.00  0.00     0.167 C 
HETATM   16  C6  UNL     1      -2.373   0.282  -1.997  1.00  0.00     0.080 C 
HETATM   17  C7  UNL     1      -3.322   0.750  -0.961  1.00  0.00     0.018 C 
HETATM   18  C8  UNL     1      -3.494  -0.151   0.216  1.00  0.00     0.085 C 
HETATM   19  O1  UNL     1      -2.337  -0.837   2.128  1.00  0.00    -0.292 OA
ENDBRANCH  10  12
ENDBRANCH   6  10
TORSDOF 2
