REMARK  4 active torsions:
REMARK  status: ('A' for Active; 'I' for Inactive)
REMARK    1  A    between atoms: C1_1  and  C9_9 
REMARK    2  A    between atoms: C2_2  and  C3_3 
REMARK    3  A    between atoms: C9_9  and  N1_10 
REMARK    4  A    between atoms: C14_17  and  C15_18 
ROOT
HETATM    1  N1  UNL     1       0.818  -1.370   1.420  1.00  0.00    -0.363 N 
HETATM    2  C10 UNL     1       0.335  -2.670   0.993  1.00  0.00     0.125 C 
HETATM    3  C11 UNL     1       1.348  -3.249   0.030  1.00  0.00     0.026 C 
HETATM    4  C12 UNL     1       2.759  -3.087   0.542  1.00  0.00     0.061 C 
HETATM    5  C13 UNL     1       3.100  -1.612   0.523  1.00  0.00     0.044 A 
HETATM    6  N2  UNL     1       4.194  -1.035   0.147  1.00  0.00    -0.350 N 
ATOM      7  H2  UNL     1       4.975  -1.595  -0.196  1.00  0.00     0.166 HD
HETATM    8  C14 UNL     1       4.300   0.282   0.207  1.00  0.00     0.095 A 
HETATM    9  S2  UNL     1       2.784   0.748   0.824  1.00  0.00    -0.051 SA
HETATM   10  C18 UNL     1       2.077  -0.820   0.976  1.00  0.00     0.097 A 
ENDROOT
BRANCH   1  11
HETATM   11  C9  UNL     1       0.065  -0.526   2.327  1.00  0.00     0.217 C 
BRANCH  11  12
HETATM   12  C1  UNL     1      -1.137  -0.067   1.613  1.00  0.00    -0.086 C 
HETATM   13  C2  UNL     1      -2.127   0.336   1.032  1.00  0.00    -0.100 C 
BRANCH  13  14
HETATM   14  C3  UNL     1      -3.309   0.847   0.339  1.00  0.00     0.065 C 
HETATM   15  C4  UNL     1      -4.042  -0.294  -0.282  1.00  0.00     0.017 C 
HETATM   16  C5  UNL     1      -5.319   0.226  -0.913  1.00  0.00     0.001 C 
HETATM   17  C6  UNL     1      -5.415   1.722  -0.832  1.00  0.00     0.000 C 
HETATM   18  C7  UNL     1      -4.169   2.380  -1.365  1.00  0.00     0.001 C 
HETATM   19  C8  UNL     1      -2.902   1.805  -0.771  1.00  0.00     0.017 C 
ENDBRANCH  13  14
ENDBRANCH  11  12
ENDBRANCH   1  11
BRANCH   8  20
HETATM   20  C15 UNL     1       5.497   1.029  -0.196  1.00  0.00     0.055 A 
HETATM   21  C16 UNL     1       5.692   2.392  -0.174  1.00  0.00     0.109 A 
HETATM   22  N3  UNL     1       6.837   2.836  -0.578  1.00  0.00    -0.368 N 
HETATM   23  C17 UNL     1       7.769   1.991  -0.992  1.00  0.00     0.138 A 
ATOM     24  H3  UNL     1       7.023   3.839  -0.578  1.00  0.00     0.165 HD
HETATM   25  S1  UNL     1       6.994   0.480  -0.805  1.00  0.00    -0.081 SA
ENDBRANCH   8  20
TORSDOF 4
