REMARK  10 active torsions:
REMARK  status: ('A' for Active; 'I' for Inactive)
REMARK    1  A    between atoms: C2_2  and  C3_3 
REMARK    2  A    between atoms: C3_3  and  C4_4 
REMARK    3  A    between atoms: C4_4  and  N1_5 
REMARK    4  A    between atoms: C4_4  and  C8_15 
REMARK    5  A    between atoms: N1_5  and  C5_8 
REMARK    6  A    between atoms: C5_8  and  C6_9 
REMARK    7  A    between atoms: C6_9  and  C7_10 
REMARK    8  A    between atoms: C7_10  and  N2_11 
REMARK    9  A    between atoms: C9_18  and  N4_19 
REMARK       I    between atoms: N4_19  and  C10_21 
REMARK       I    between atoms: C10_21  and  N5_22 
REMARK       I    between atoms: C10_21  and  N6_26 
REMARK   10  A    between atoms: C11_32  and  N8_33 
ROOT
HETATM    1  C8  UNL     1      -0.545  -0.692   0.253  1.00  0.00     0.144 A 
HETATM    2  N3  UNL     1      -1.231   0.312  -0.332  1.00  0.00    -0.177 N 
ATOM      3  H3  UNL     1      -0.732   0.921  -0.981  1.00  0.00     0.185 HD
HETATM    4  C9  UNL     1      -2.534   0.556  -0.109  1.00  0.00     0.697 A 
HETATM    5  N7  UNL     1      -3.194  -0.244   0.747  1.00  0.00    -0.022 N 
ATOM      6  H7  UNL     1      -4.183  -0.091   0.942  1.00  0.00     0.203 HD
HETATM    7  C11 UNL     1      -2.528  -1.248   1.340  1.00  0.00     0.691 A 
HETATM    8  N9  UNL     1      -1.219  -1.474   1.101  1.00  0.00    -0.178 N 
ATOM      9  H9  UNL     1      -0.743  -2.245   1.570  1.00  0.00     0.185 HD
ENDROOT
BRANCH   1  10
HETATM   10  C4  UNL     1       0.890  -0.807  -0.079  1.00  0.00     0.257 C 
BRANCH  10  11
HETATM   11  C3  UNL     1       1.564  -2.072   0.219  1.00  0.00     0.067 C 
BRANCH  11  12
HETATM   12  C2  UNL     1       1.009  -3.304  -0.327  1.00  0.00    -0.034 C 
HETATM   13  C1  UNL     1       1.698  -4.110  -1.132  1.00  0.00     0.007 C 
ENDBRANCH  11  12
ENDBRANCH  10  11
BRANCH  10  14
HETATM   14  N1  UNL     1       1.546   0.358   0.479  1.00  0.00    -0.064 N 
ATOM     15  H12 UNL     1       0.971   1.191   0.355  1.00  0.00     0.278 HD
ATOM     16  H11 UNL     1       1.559   0.313   1.498  1.00  0.00     0.278 HD
BRANCH  14  17
HETATM   17  C5  UNL     1       2.879   0.571  -0.043  1.00  0.00     0.235 C 
BRANCH  17  18
HETATM   18  C6  UNL     1       3.503   1.819   0.578  1.00  0.00     0.055 C 
BRANCH  18  19
HETATM   19  C7  UNL     1       4.903   1.968  -0.027  1.00  0.00     0.231 C 
BRANCH  19  20
HETATM   20  N2  UNL     1       4.719   2.105  -1.455  1.00  0.00    -0.079 N 
ATOM     21  H23 UNL     1       4.179   1.344  -1.868  1.00  0.00     0.274 HD
ATOM     22  H22 UNL     1       4.086   2.863  -1.710  1.00  0.00     0.274 HD
ATOM     23  H21 UNL     1       5.651   2.204  -1.858  1.00  0.00     0.274 HD
ENDBRANCH  19  20
ENDBRANCH  18  19
ENDBRANCH  17  18
ENDBRANCH  14  17
ENDBRANCH  10  14
ENDBRANCH   1  10
BRANCH   4  24
HETATM   24  N4  UNL     1      -3.152   1.509  -0.677  1.00  0.00    -0.173 N 
HETATM   25  C10 UNL     1      -4.509   1.899  -0.553  1.00  0.00     0.494 C 
HETATM   26  N5  UNL     1      -5.473   0.936  -1.022  1.00  0.00    -0.032 N 
HETATM   27  N6  UNL     1      -4.898   2.367   0.764  1.00  0.00    -0.032 N 
ATOM     28  H53 UNL     1      -5.270   0.679  -1.988  1.00  0.00     0.278 HD
ATOM     29  H52 UNL     1      -5.323   0.038  -0.562  1.00  0.00     0.278 HD
ATOM     30  H51 UNL     1      -6.450   1.217  -0.933  1.00  0.00     0.278 HD
ATOM     31  H63 UNL     1      -4.668   1.666   1.468  1.00  0.00     0.278 HD
ATOM     32  H62 UNL     1      -4.286   3.126   1.062  1.00  0.00     0.278 HD
ATOM     33  H61 UNL     1      -5.875   2.648   0.853  1.00  0.00     0.278 HD
ATOM     34  H4  UNL     1      -2.591   2.075  -1.314  1.00  0.00     0.181 HD
ENDBRANCH   4  24
BRANCH   7  35
HETATM   35  N8  UNL     1      -3.112  -2.052   2.174  1.00  0.00    -0.234 N 
ATOM     36  H82 UNL     1      -4.101  -1.881   2.355  1.00  0.00     0.174 HD
ATOM     37  H81 UNL     1      -2.606  -2.815   2.624  1.00  0.00     0.174 HD
ENDBRANCH   7  35
TORSDOF 10
