REMARK  11 active torsions:
REMARK  status: ('A' for Active; 'I' for Inactive)
REMARK    1  A    between atoms: N1_2  and  N2_3 
REMARK    2  A    between atoms: N1_2  and  C2_6 
REMARK    3  A    between atoms: N1_2  and  C5_13 
REMARK    4  A    between atoms: C2_6  and  C3_7 
REMARK    5  A    between atoms: C3_7  and  C4_8 
REMARK    6  A    between atoms: C4_8  and  N3_9 
REMARK    7  A    between atoms: C5_13  and  C6_14 
REMARK    8  A    between atoms: C6_14  and  N4_15 
REMARK    9  A    between atoms: C8_17  and  C9_18 
REMARK   10  A    between atoms: C9_18  and  N5_19 
REMARK   11  A    between atoms: C9_18  and  N6_23 
ROOT
HETATM    1  N4  UNL     1      -1.314  -1.269  -0.468  1.00  0.00    -0.307 N 
HETATM    2  C7  UNL     1      -1.906  -0.201  -1.092  1.00  0.00     0.110 A 
HETATM    3  C8  UNL     1      -3.095   0.349  -0.655  1.00  0.00     0.058 A 
HETATM    4  C10 UNL     1      -3.663  -0.235   0.449  1.00  0.00     0.114 A 
HETATM    5  N7  UNL     1      -4.770   0.161   0.922  1.00  0.00    -0.385 N 
ATOM      6  H71 UNL     1      -5.192  -0.273   1.743  1.00  0.00     0.157 HD
ATOM      7  H72 UNL     1      -5.232   0.954   0.477  1.00  0.00     0.157 HD
HETATM    8  N8  UNL     1      -3.041  -1.303   1.049  1.00  0.00    -0.294 N 
ATOM      9  H8  UNL     1      -3.477  -1.723   1.870  1.00  0.00     0.172 HD
HETATM   10  C11 UNL     1      -1.888  -1.817   0.604  1.00  0.00     0.328 A 
HETATM   11  O1  UNL     1      -1.392  -2.822   1.233  1.00  0.00    -0.246 OA
ENDROOT
BRANCH   1  12
HETATM   12  C6  UNL     1      -0.067  -1.746  -0.988  1.00  0.00     0.163 C 
BRANCH  12  13
HETATM   13  C5  UNL     1       1.187  -1.085  -0.647  1.00  0.00     0.284 C 
BRANCH  13  14
HETATM   14  N1  UNL     1       1.734  -0.981   0.633  1.00  0.00     0.004 N 
HETATM   15  C1  UNL     1       0.974  -0.128   1.512  1.00  0.00     0.302 C 
BRANCH  14  16
HETATM   16  N2  UNL     1       1.937  -2.204   1.319  1.00  0.00    -0.261 N 
ATOM     17  H22 UNL     1       1.602  -2.424   2.257  1.00  0.00     0.183 HD
ATOM     18  H21 UNL     1       2.475  -2.808   0.697  1.00  0.00     0.183 HD
ENDBRANCH  14  16
BRANCH  14  19
HETATM   19  C2  UNL     1       3.117  -0.439   0.559  1.00  0.00     0.265 C 
BRANCH  19  20
HETATM   20  C3  UNL     1       3.279   0.585  -0.506  1.00  0.00     0.057 C 
BRANCH  20  21
HETATM   21  C4  UNL     1       4.738   1.060  -0.461  1.00  0.00     0.231 C 
BRANCH  21  22
HETATM   22  N3  UNL     1       5.028   1.631   0.838  1.00  0.00    -0.079 N 
ATOM     23  H33 UNL     1       4.375   2.375   1.085  1.00  0.00     0.274 HD
ATOM     24  H32 UNL     1       4.811   0.986   1.598  1.00  0.00     0.274 HD
ATOM     25  H31 UNL     1       5.997   1.947   0.868  1.00  0.00     0.274 HD
ENDBRANCH  21  22
ENDBRANCH  20  21
ENDBRANCH  19  20
ENDBRANCH  14  19
ENDBRANCH  13  14
ENDBRANCH  12  13
ENDBRANCH   1  12
BRANCH   3  26
HETATM   26  C9  UNL     1      -3.680   1.531  -1.343  1.00  0.00     0.416 C 
BRANCH  26  27
HETATM   27  N5  UNL     1      -4.063   2.606  -0.490  1.00  0.00    -0.046 N 
ATOM     28  H53 UNL     1      -4.701   2.270   0.232  1.00  0.00     0.277 HD
ATOM     29  H52 UNL     1      -3.273   2.893   0.088  1.00  0.00     0.277 HD
ATOM     30  H51 UNL     1      -4.464   3.417  -0.962  1.00  0.00     0.277 HD
ENDBRANCH  26  27
BRANCH  26  31
HETATM   31  N6  UNL     1      -4.872   1.139  -2.112  1.00  0.00    -0.046 N 
ATOM     32  H63 UNL     1      -4.671   0.381  -2.764  1.00  0.00     0.277 HD
ATOM     33  H62 UNL     1      -5.559   0.660  -1.530  1.00  0.00     0.277 HD
ATOM     34  H61 UNL     1      -5.273   1.950  -2.584  1.00  0.00     0.277 HD
ENDBRANCH  26  31
ENDBRANCH   3  26
TORSDOF 11
