REMARK  4 active torsions:
REMARK  status: ('A' for Active; 'I' for Inactive)
REMARK    1  A    between atoms: C5_6  and  O2_7 
REMARK    2  A    between atoms: C10_14  and  O4_15 
REMARK    3  A    between atoms: O4_15  and  C11_16 
REMARK    4  A    between atoms: C11_16  and  C12_18 
ROOT
HETATM    1  C1  UNL     1      -0.147   2.193  -0.033  1.00  0.00     0.017 C 
HETATM    2  C2  UNL     1      -0.688   1.040  -0.373  1.00  0.00    -0.050 C 
HETATM    3  C3  UNL     1      -2.069   0.844  -0.797  1.00  0.00     0.051 C 
HETATM    4  C4  UNL     1      -2.978   1.997  -0.765  1.00  0.00     0.180 C 
HETATM    5  O1  UNL     1      -4.266   1.482  -0.501  1.00  0.00    -0.360 OA
HETATM    6  C5  UNL     1      -4.117   0.160  -0.092  1.00  0.00     0.264 C 
HETATM    7  C6  UNL     1      -2.711   0.023   0.343  1.00  0.00     0.083 C 
HETATM    8  C7  UNL     1      -2.100  -1.305   0.322  1.00  0.00     0.169 A 
HETATM    9  O3  UNL     1      -1.153  -1.439   1.469  1.00  0.00    -0.366 OA
HETATM   10  C8  UNL     1      -0.658  -1.404   0.183  1.00  0.00     0.115 A 
HETATM   11  C9  UNL     1      -0.095  -2.759  -0.266  1.00  0.00     0.052 C 
HETATM   12  C10 UNL     1       0.087  -0.249  -0.363  1.00  0.00     0.197 C 
ENDROOT
BRANCH  12  13
HETATM   13  O4  UNL     1       1.380  -0.074   0.146  1.00  0.00    -0.308 OA
BRANCH  13  14
HETATM   14  C11 UNL     1       2.536  -0.154  -0.580  1.00  0.00     0.263 C 
HETATM   15  O5  UNL     1       2.390  -0.410  -1.814  1.00  0.00    -0.265 OA
BRANCH  14  16
HETATM   16  C12 UNL     1       3.881   0.043   0.019  1.00  0.00     0.077 C 
HETATM   17  C13 UNL     1       4.185  -0.947   1.110  1.00  0.00     0.020 C 
HETATM   18  C14 UNL     1       4.098   1.471   0.475  1.00  0.00     0.020 C 
ENDBRANCH  14  16
ENDBRANCH  13  14
ENDBRANCH  12  13
BRANCH   6  19
HETATM   19  O2  UNL     1      -5.049  -0.176   0.883  1.00  0.00    -0.371 OA
ATOM     20  H2  UNL     1      -4.947  -1.078   1.162  1.00  0.00     0.212 HD
ENDBRANCH   6  19
TORSDOF 4
