REMARK  2 active torsions:
REMARK  status: ('A' for Active; 'I' for Inactive)
REMARK    1  A    between atoms: C5_5  and  O1_6 
REMARK    2  A    between atoms: C8_13  and  C10_15 
ROOT
HETATM    1  C1  UNL     1       5.490   0.423  -0.639  1.00  0.00     0.036 C 
HETATM    2  C2  UNL     1       4.601   0.827   0.476  1.00  0.00    -0.023 C 
HETATM    3  C3  UNL     1       3.382   0.414   0.568  1.00  0.00    -0.025 C 
HETATM    4  C4  UNL     1       2.477   0.796   1.660  1.00  0.00     0.073 C 
HETATM    5  C5  UNL     1       1.002   0.548   1.267  1.00  0.00     0.154 C 
HETATM    6  C6  UNL     1       0.756  -0.719   0.574  1.00  0.00     0.191 C 
HETATM    7  O2  UNL     1       1.998  -1.348   0.378  1.00  0.00    -0.344 OA
HETATM    8  C7  UNL     1       2.788  -0.494  -0.437  1.00  0.00     0.327 C 
HETATM    9  O3  UNL     1       2.068   0.286  -1.288  1.00  0.00    -0.202 OA
HETATM   10  O4  UNL     1       0.909  -0.050  -1.653  1.00  0.00    -0.224 OA
HETATM   11  C8  UNL     1       0.112  -0.742  -0.744  1.00  0.00     0.125 C 
HETATM   12  C9  UNL     1       0.246  -2.197  -1.255  1.00  0.00     0.052 C 
ENDROOT
BRANCH  11  13
HETATM   13  C10 UNL     1      -1.323  -0.397  -0.875  1.00  0.00     0.026 C 
HETATM   14  C11 UNL     1      -2.266  -1.276  -0.109  1.00  0.00     0.008 C 
HETATM   15  C12 UNL     1      -2.969  -0.590   1.045  1.00  0.00     0.000 C 
HETATM   16  C13 UNL     1      -4.287   0.023   0.636  1.00  0.00     0.000 C 
HETATM   17  C14 UNL     1      -4.091   1.331  -0.035  1.00  0.00     0.000 C 
HETATM   18  C15 UNL     1      -3.111   1.264  -1.194  1.00  0.00     0.000 C 
HETATM   19  C16 UNL     1      -1.686   1.032  -0.669  1.00  0.00     0.008 C 
ENDBRANCH  11  13
BRANCH   5  20
HETATM   20  O1  UNL     1       0.386   0.545   2.524  1.00  0.00    -0.393 OA
ATOM     21  H1  UNL     1      -0.520   0.393   2.283  1.00  0.00     0.210 HD
ENDBRANCH   5  20
TORSDOF 2
