REMARK  7 active torsions:
REMARK  status: ('A' for Active; 'I' for Inactive)
REMARK    1  A    between atoms: C9_9  and  N1_10 
REMARK    2  A    between atoms: N1_10  and  C10_12 
REMARK    3  A    between atoms: N2_15  and  O1_17 
REMARK    4  A    between atoms: O1_17  and  C13_18 
REMARK    5  A    between atoms: C13_18  and  C14_19 
REMARK    6  A    between atoms: C16_22  and  O2_23 
REMARK    7  A    between atoms: C19_27  and  C20_28 
ROOT
HETATM    1  N1  UNL     1       0.081  -0.248   0.081  1.00  0.00    -0.407 N 
ATOM      2  H1  UNL     1       0.250  -1.043   0.697  1.00  0.00     0.154 HD
ENDROOT
BRANCH   1   3
HETATM    3  C9  UNL     1      -1.200   0.139   0.151  1.00  0.00     0.034 C 
HETATM    4  C2  UNL     1      -1.618   1.494   0.549  1.00  0.00     0.014 C 
HETATM    5  C1  UNL     1      -0.622   2.599   0.319  1.00  0.00     0.012 C 
HETATM    6  C3  UNL     1      -2.805   1.866  -0.317  1.00  0.00    -0.008 C 
HETATM    7  C4  UNL     1      -4.097   1.318   0.207  1.00  0.00     0.010 C 
HETATM    8  C8  UNL     1      -2.389   1.202  -1.632  1.00  0.00     0.012 C 
HETATM    9  C5  UNL     1      -4.013  -0.188   0.397  1.00  0.00    -0.001 C 
HETATM   10  C6  UNL     1      -3.348  -0.831  -0.767  1.00  0.00     0.012 C 
HETATM   11  C19 UNL     1      -3.196  -0.441   1.622  1.00  0.00     0.100 C 
HETATM   12  C7  UNL     1      -2.003  -0.181  -1.066  1.00  0.00     0.014 C 
HETATM   13  C18 UNL     1      -1.811  -0.769   1.267  1.00  0.00     0.045 C 
BRANCH  11  14
HETATM   14  C20 UNL     1      -3.793  -1.667   2.329  1.00  0.00     0.391 C 
HETATM   15  F2  UNL     1      -5.096  -1.452   2.682  1.00  0.00    -0.171 F 
HETATM   16  F3  UNL     1      -3.613  -2.826   1.607  1.00  0.00    -0.171 F 
HETATM   17  F4  UNL     1      -3.108  -1.880   3.537  1.00  0.00    -0.171 F 
ENDBRANCH  11  14
ENDBRANCH   1   3
BRANCH   1  18
HETATM   18  C10 UNL     1       1.207   0.100  -0.559  1.00  0.00     0.085 C 
HETATM   19  C11 UNL     1       2.383  -0.562   0.215  1.00  0.00     0.079 C 
HETATM   20  C12 UNL     1       3.392  -1.003  -0.764  1.00  0.00     0.014 C 
HETATM   21  N2  UNL     1       4.521  -0.429  -0.909  1.00  0.00    -0.275 N 
HETATM   22  C15 UNL     1       2.995  -2.198  -1.597  1.00  0.00     0.086 C 
ATOM     23  H2  UNL     1       5.176  -0.783  -1.606  1.00  0.00     0.193 HD
HETATM   24  C16 UNL     1       1.577  -1.869  -2.086  1.00  0.00     0.125 C 
HETATM   25  C17 UNL     1       1.321  -0.392  -1.973  1.00  0.00     0.057 C 
BRANCH  21  26
HETATM   26  O1  UNL     1       4.870   0.651  -0.150  1.00  0.00    -0.278 OA
BRANCH  26  27
HETATM   27  C13 UNL     1       5.780   0.514   0.954  1.00  0.00     0.232 C 
BRANCH  27  28
HETATM   28  C14 UNL     1       5.982   1.872   1.611  1.00  0.00     0.250 C 
HETATM   29  F1  UNL     1       4.785   2.365   2.075  1.00  0.00    -0.253 F 
ENDBRANCH  27  28
ENDBRANCH  26  27
ENDBRANCH  21  26
BRANCH  24  30
HETATM   30  O2  UNL     1       0.632  -2.667  -1.507  1.00  0.00    -0.395 OA
ATOM     31  H2  UNL     1      -0.245  -2.463  -1.810  1.00  0.00     0.210 HD
ENDBRANCH  24  30
ENDBRANCH   1  18
TORSDOF 7
