REMARK  8 active torsions:
REMARK  status: ('A' for Active; 'I' for Inactive)
REMARK    1  A    between atoms: C2_2  and  C3_3 
REMARK    2  A    between atoms: C2_2  and  N1_11 
REMARK    3  A    between atoms: C3_3  and  O1_4 
REMARK    4  A    between atoms: O1_4  and  C4_5 
REMARK    5  A    between atoms: C4_5  and  C5_7 
REMARK       I    between atoms: N1_11  and  C6_13 
REMARK       I    between atoms: C6_13  and  N2_15 
REMARK    6  A    between atoms: N2_15  and  C7_16 
REMARK    7  A    between atoms: C9_21  and  C10_22 
REMARK    8  A    between atoms: C10_22  and  N4_23 
ROOT
HETATM    1  N1  UNL     1      -1.932   0.430   1.398  1.00  0.00    -0.325 N 
ATOM      2  H1  UNL     1      -2.097  -0.573   1.482  1.00  0.00     0.165 HD
HETATM    3  C6  UNL     1      -0.602   0.902   0.943  1.00  0.00     0.395 C 
HETATM    4  O3  UNL     1      -0.477   2.147   0.864  1.00  0.00    -0.230 OA
HETATM    5  N2  UNL     1       0.336  -0.072   0.662  1.00  0.00    -0.343 NA
ENDROOT
BRANCH   1   6
HETATM    6  C2  UNL     1      -2.985   1.330   1.721  1.00  0.00     0.107 C 
HETATM    7  C1  UNL     1      -3.180   1.427   3.239  1.00  0.00     0.034 C 
BRANCH   6   8
HETATM    8  C3  UNL     1      -4.281   0.813   1.158  1.00  0.00     0.203 C 
BRANCH   8   9
HETATM    9  O1  UNL     1      -4.163   0.702  -0.233  1.00  0.00    -0.316 OA
BRANCH   9  10
HETATM   10  C4  UNL     1      -5.202   0.235  -1.043  1.00  0.00     0.314 C 
HETATM   11  O2  UNL     1      -6.265  -0.086  -0.469  1.00  0.00    -0.260 OA
BRANCH  10  12
HETATM   12  C5  UNL     1      -4.956   0.163  -2.499  1.00  0.00     0.276 C 
HETATM   13 CL1  UNL     1      -6.388  -0.517  -3.317  1.00  0.00    -0.073 Cl
HETATM   14 CL2  UNL     1      -4.647   1.824  -3.099  1.00  0.00    -0.073 Cl
HETATM   15 CL3  UNL     1      -3.498  -0.788  -2.827  1.00  0.00    -0.073 Cl
ENDBRANCH  10  12
ENDBRANCH   9  10
ENDBRANCH   8   9
ENDBRANCH   6   8
ENDBRANCH   1   6
BRANCH   5  16
HETATM   16  C7  UNL     1       1.269  -0.993   0.383  1.00  0.00     0.179 A 
HETATM   17  S1  UNL     1       0.938  -2.759   0.479  1.00  0.00    -0.050 SA
HETATM   18  C8  UNL     1       2.445  -3.339   0.021  1.00  0.00     0.141 A 
HETATM   19  N3  UNL     1       3.120  -2.239  -0.180  1.00  0.00    -0.359 N 
HETATM   20  C9  UNL     1       2.583  -1.072  -0.014  1.00  0.00     0.075 A 
ATOM     21  H3  UNL     1       4.094  -2.300  -0.475  1.00  0.00     0.165 HD
BRANCH  20  22
HETATM   22  C10 UNL     1       3.433   0.186  -0.238  1.00  0.00     0.177 C 
BRANCH  22  23
HETATM   23  N4  UNL     1       4.742  -0.076  -0.643  1.00  0.00    -0.415 N 
HETATM   24  C11 UNL     1       5.590  -0.859   0.161  1.00  0.00     0.143 C 
HETATM   25  C12 UNL     1       5.092  -0.022  -2.008  1.00  0.00     0.143 C 
ENDBRANCH  22  23
ENDBRANCH  20  22
ENDBRANCH   5  16
TORSDOF 8
