REMARK  8 active torsions:
REMARK  status: ('A' for Active; 'I' for Inactive)
REMARK    1  A    between atoms: C2_2  and  C3_3 
REMARK    2  A    between atoms: C3_3  and  C4_4 
REMARK    3  A    between atoms: C4_4  and  N1_5 
REMARK    4  A    between atoms: N2_8  and  C7_9 
REMARK    5  A    between atoms: C10_12  and  O1_13 
REMARK    6  A    between atoms: C12_17  and  N4_18 
REMARK    7  A    between atoms: C14_24  and  N6_25 
REMARK    8  A    between atoms: N6_25  and  C15_27 
ROOT
HETATM    1  C7  UNL     1      -0.799  -0.437   0.044  1.00  0.00     0.072 A 
HETATM    2  C8  UNL     1      -1.730  -1.253  -0.578  1.00  0.00     0.051 A 
HETATM    3  C9  UNL     1      -3.065  -1.126  -0.393  1.00  0.00     0.047 A 
HETATM    4  C10 UNL     1      -3.950  -1.967  -1.033  1.00  0.00     0.169 A 
HETATM    5  N3  UNL     1      -5.254  -1.773  -0.789  1.00  0.00    -0.170 N 
ATOM      6  H3  UNL     1      -5.923  -2.386  -1.254  1.00  0.00     0.186 HD
HETATM    7  C12 UNL     1      -5.734  -0.823   0.028  1.00  0.00     0.678 A 
HETATM    8  N5  UNL     1      -4.873  -0.004   0.651  1.00  0.00    -0.189 N 
ATOM      9  H5  UNL     1      -5.227   0.722   1.274  1.00  0.00     0.184 HD
HETATM   10  C13 UNL     1      -3.548  -0.132   0.461  1.00  0.00     0.093 A 
HETATM   11  C14 UNL     1      -2.672   0.716   1.111  1.00  0.00     0.098 A 
HETATM   12  C17 UNL     1      -1.324   0.541   0.887  1.00  0.00     0.171 A 
HETATM   13  F1  UNL     1      -0.462   1.366   1.521  1.00  0.00    -0.201 F 
ENDROOT
BRANCH   1  14
HETATM   14  N2  UNL     1       0.558  -0.597  -0.173  1.00  0.00    -0.372 N 
HETATM   15  C6  UNL     1       1.454  -0.898   0.927  1.00  0.00     0.153 C 
HETATM   16  C5  UNL     1       2.637  -1.660   0.387  1.00  0.00     0.296 C 
HETATM   17  N1  UNL     1       3.386  -0.800  -0.501  1.00  0.00     0.131 N 
HETATM   18  C19 UNL     1       2.592   0.043  -1.331  1.00  0.00     0.327 C 
HETATM   19  C18 UNL     1       1.162  -0.467  -1.485  1.00  0.00     0.199 C 
HETATM   20 CL1  UNL     1       3.309   0.114  -2.947  1.00  0.00    -0.066 Cl
HETATM   21 CL2  UNL     1       2.449   1.719  -0.725  1.00  0.00    -0.066 Cl
BRANCH  17  22
HETATM   22  C4  UNL     1       4.449  -0.171   0.214  1.00  0.00     0.277 C 
BRANCH  22  23
HETATM   23  C3  UNL     1       5.407   0.635  -0.615  1.00  0.00     0.030 C 
BRANCH  23  24
HETATM   24  C2  UNL     1       6.434   1.220   0.352  1.00  0.00    -0.003 C 
HETATM   25  C1  UNL     1       7.179   0.136   1.094  1.00  0.00     0.005 C 
ENDBRANCH  23  24
ENDBRANCH  22  23
ENDBRANCH  17  22
ENDBRANCH   1  14
BRANCH  11  26
HETATM   26  N6  UNL     1      -3.147   1.750   1.984  1.00  0.00    -0.386 N 
ATOM     27  H6  UNL     1      -3.315   1.532   2.966  1.00  0.00     0.159 HD
BRANCH  26  28
HETATM   28  C15 UNL     1      -3.391   3.076   1.515  1.00  0.00     0.115 C 
HETATM   29  C16 UNL     1      -4.401   3.202   0.422  1.00  0.00     0.026 C 
ENDBRANCH  26  28
ENDBRANCH  11  26
BRANCH   4  30
HETATM   30  O1  UNL     1      -3.442  -2.939  -1.870  1.00  0.00    -0.340 OA
HETATM   31  C11 UNL     1      -3.395  -2.588  -3.262  1.00  0.00     0.211 C 
ENDBRANCH   4  30
BRANCH   7  32
HETATM   32  N4  UNL     1      -7.030  -0.704   0.209  1.00  0.00    -0.234 N 
ATOM     33  H42 UNL     1      -7.685  -1.327  -0.265  1.00  0.00     0.174 HD
ATOM     34  H41 UNL     1      -7.395   0.018   0.830  1.00  0.00     0.174 HD
ENDBRANCH   7  32
TORSDOF 8
