REMARK  1 active torsions:
REMARK  status: ('A' for Active; 'I' for Inactive)
REMARK    1  A    between atoms: C2_2  and  N1_3 
ROOT
HETATM    1  C1  UNL     1      -2.844   0.949  -0.800  1.00  0.00     0.081 C 
HETATM    2  C2  UNL     1      -2.090  -0.050   0.023  1.00  0.00     0.255 C 
HETATM    3  C3  UNL     1      -1.036  -0.690  -0.885  1.00  0.00     0.112 C 
HETATM    4  C4  UNL     1       0.228  -0.338  -0.146  1.00  0.00     0.101 C 
HETATM    5  C5  UNL     1       0.765   1.017  -0.492  1.00  0.00     0.041 C 
HETATM    6  C6  UNL     1       1.905   1.377   0.381  1.00  0.00     0.003 C 
HETATM    7  C7  UNL     1       2.886   0.305   0.662  1.00  0.00     0.000 C 
HETATM    8  C8  UNL     1       2.322  -1.061   0.827  1.00  0.00     0.003 C 
HETATM    9  C9  UNL     1       1.319  -1.339  -0.297  1.00  0.00     0.041 C 
HETATM   10  O1  UNL     1      -0.257  -0.257   1.178  1.00  0.00    -0.227 OA
HETATM   11  O2  UNL     1      -1.308   0.522   0.998  1.00  0.00    -0.200 OA
ENDROOT
BRANCH   2  12
HETATM   12  N1  UNL     1      -3.010  -1.005   0.552  1.00  0.00    -0.044 N 
ATOM     13  H13 UNL     1      -3.769  -0.566   1.073  1.00  0.00     0.278 HD
ATOM     14  H12 UNL     1      -3.573  -1.446  -0.175  1.00  0.00     0.278 HD
ATOM     15  H11 UNL     1      -2.497  -1.685   1.112  1.00  0.00     0.278 HD
ENDBRANCH   2  12
TORSDOF 1
