REMARK  10 active torsions:
REMARK  status: ('A' for Active; 'I' for Inactive)
REMARK    1  A    between atoms: N1_1  and  C1_5 
REMARK    2  A    between atoms: C1_5  and  C2_6 
REMARK    3  A    between atoms: C2_6  and  C3_7 
REMARK    4  A    between atoms: C3_7  and  C4_8 
REMARK    5  A    between atoms: C4_8  and  C5_9 
REMARK    6  A    between atoms: C5_9  and  C6_10 
REMARK    7  A    between atoms: C6_10  and  N2_11 
REMARK    8  A    between atoms: N2_11  and  C7_13 
REMARK    9  A    between atoms: C9_20  and  N5_21 
REMARK   10  A    between atoms: N5_21  and  C10_23 
ROOT
HETATM    1  C7  UNL     1      -0.513   0.588   0.695  1.00  0.00     0.696 A 
HETATM    2  N3  UNL     1      -0.086   0.241   1.918  1.00  0.00    -0.140 N 
ATOM      3  H3  UNL     1       0.838   0.524   2.244  1.00  0.00     0.189 HD
HETATM    4  C8  UNL     1      -0.910  -0.498   2.722  1.00  0.00     0.352 A 
HETATM    5  O1  UNL     1      -0.469  -0.803   3.868  1.00  0.00    -0.246 OA
HETATM    6  N4  UNL     1      -2.132  -0.879   2.309  1.00  0.00    -0.140 N 
ATOM      7  H4  UNL     1      -2.728  -1.430   2.927  1.00  0.00     0.189 HD
HETATM    8  C9  UNL     1      -2.571  -0.537   1.085  1.00  0.00     0.697 A 
HETATM    9  N6  UNL     1      -1.755   0.183   0.314  1.00  0.00    -0.022 N 
ATOM     10  H6  UNL     1      -2.081   0.446  -0.616  1.00  0.00     0.203 HD
ENDROOT
BRANCH   1  11
HETATM   11  N2  UNL     1       0.228   1.279  -0.090  1.00  0.00    -0.225 N 
ATOM     12  H2  UNL     1      -0.146   1.514  -1.010  1.00  0.00     0.177 HD
BRANCH  11  13
HETATM   13  C6  UNL     1       1.540   1.743   0.232  1.00  0.00     0.138 C 
BRANCH  13  14
HETATM   14  C5  UNL     1       2.546   0.605  -0.007  1.00  0.00     0.020 C 
BRANCH  14  15
HETATM   15  C4  UNL     1       3.920   1.106   0.337  1.00  0.00     0.002 C 
BRANCH  15  16
HETATM   16  C3  UNL     1       4.945   0.036   0.136  1.00  0.00     0.002 C 
BRANCH  16  17
HETATM   17  C2  UNL     1       4.953  -0.409  -1.287  1.00  0.00     0.027 C 
BRANCH  17  18
HETATM   18  C1  UNL     1       6.010  -1.500  -1.515  1.00  0.00     0.229 C 
BRANCH  18  19
HETATM   19  N1  UNL     1       7.320  -1.005  -1.191  1.00  0.00    -0.079 N 
ATOM     20  H13 UNL     1       7.540  -0.150  -1.702  1.00  0.00     0.274 HD
ATOM     21  H12 UNL     1       7.360  -0.629  -0.244  1.00  0.00     0.274 HD
ATOM     22  H11 UNL     1       8.022  -1.729  -1.342  1.00  0.00     0.274 HD
ENDBRANCH  18  19
ENDBRANCH  17  18
ENDBRANCH  16  17
ENDBRANCH  15  16
ENDBRANCH  14  15
ENDBRANCH  13  14
ENDBRANCH  11  13
ENDBRANCH   1  11
BRANCH   8  23
HETATM   23  N5  UNL     1      -3.758  -0.909   0.688  1.00  0.00    -0.221 N 
ATOM     24  H5  UNL     1      -4.349  -1.460   1.311  1.00  0.00     0.178 HD
BRANCH  23  25
HETATM   25  C10 UNL     1      -4.245  -0.548  -0.628  1.00  0.00     0.099 C 
HETATM   26  C11 UNL     1      -4.731   0.876  -0.616  1.00  0.00     0.026 C 
HETATM   27  C12 UNL     1      -6.111   0.714   0.034  1.00  0.00     0.002 C 
HETATM   28  C13 UNL     1      -6.666  -0.443  -0.759  1.00  0.00     0.002 C 
HETATM   29  C14 UNL     1      -5.506  -1.374  -0.883  1.00  0.00     0.026 C 
ENDBRANCH  23  25
ENDBRANCH   8  23
TORSDOF 10
