REMARK  7 active torsions:
REMARK  status: ('A' for Active; 'I' for Inactive)
REMARK    1  A    between atoms: C2_2  and  N1_4 
REMARK       I    between atoms: N1_4  and  C4_6 
REMARK    2  A    between atoms: C4_6  and  C5_8 
REMARK    3  A    between atoms: C5_8  and  C6_9 
REMARK    4  A    between atoms: C5_8  and  O3_11 
REMARK    5  A    between atoms: O3_11  and  C7_12 
REMARK    6  A    between atoms: C7_12  and  C8_14 
REMARK    7  A    between atoms: C8_14  and  C9_15 
ROOT
HETATM    1  O3  UNL     1       1.140  -0.171  -1.221  1.00  0.00    -0.299 OA
ENDROOT
BRANCH   1   2
HETATM    2  C5  UNL     1       2.044  -1.097  -0.642  1.00  0.00     0.284 C 
BRANCH   2   3
HETATM    3  C4  UNL     1       3.242  -0.410  -0.103  1.00  0.00     0.254 C 
HETATM    4  N1  UNL     1       4.262  -1.115   0.572  1.00  0.00    -0.355 N 
ATOM      5  H1  UNL     1       4.153  -2.123   0.683  1.00  0.00     0.162 HD
HETATM    6  O1  UNL     1       3.382   0.841  -0.236  1.00  0.00    -0.270 OA
BRANCH   4   7
HETATM    7  C2  UNL     1       5.444  -0.504   1.113  1.00  0.00     0.076 C 
HETATM    8  C1  UNL     1       5.523  -0.670   2.601  1.00  0.00     0.032 C 
HETATM    9  C3  UNL     1       6.708  -0.979   0.436  1.00  0.00     0.032 C 
ENDBRANCH   4   7
ENDBRANCH   2   3
BRANCH   2  10
HETATM   10  C6  UNL     1       2.454  -2.122  -1.653  1.00  0.00     0.273 C 
HETATM   11  O2  UNL     1       3.217  -3.013  -1.357  1.00  0.00    -0.304 OA
ENDBRANCH   2  10
ENDBRANCH   1   2
BRANCH   1  12
HETATM   12  C7  UNL     1      -0.132  -0.023  -0.693  1.00  0.00     0.260 C 
HETATM   13  O4  UNL     1      -0.420  -0.738   0.297  1.00  0.00    -0.265 OA
BRANCH  12  14
HETATM   14  C8  UNL     1      -1.127   0.907  -1.227  1.00  0.00     0.115 C 
BRANCH  14  15
HETATM   15  C9  UNL     1      -2.466   0.861  -0.504  1.00  0.00    -0.005 C 
HETATM   16  C10 UNL     1      -3.056  -0.511  -0.619  1.00  0.00     0.005 C 
HETATM   17  C11 UNL     1      -4.538  -0.484  -0.781  1.00  0.00     0.000 C 
HETATM   18  C12 UNL     1      -5.217   0.114   0.433  1.00  0.00     0.000 C 
HETATM   19  C13 UNL     1      -5.565   1.568   0.217  1.00  0.00     0.000 C 
HETATM   20  C14 UNL     1      -4.408   2.424  -0.119  1.00  0.00     0.000 C 
HETATM   21  C15 UNL     1      -3.420   1.866  -1.093  1.00  0.00     0.005 C 
ENDBRANCH  14  15
ENDBRANCH  12  14
ENDBRANCH   1  12
TORSDOF 7
