REMARK  11 active torsions:
REMARK  status: ('A' for Active; 'I' for Inactive)
REMARK    1  A    between atoms: C2_2  and  C12_28 
REMARK    2  A    between atoms: N1_3  and  N2_5 
REMARK       I    between atoms: N2_5  and  C3_7 
REMARK       I    between atoms: C3_7  and  N3_9 
REMARK    3  A    between atoms: N3_9  and  C4_11 
REMARK    4  A    between atoms: C4_11  and  C5_12 
REMARK    5  A    between atoms: C4_11  and  C10_19 
REMARK    6  A    between atoms: C12_28  and  N10_33 
REMARK    7  A    between atoms: N9_29  and  O2_31 
REMARK    8  A    between atoms: N10_33  and  C13_35 
REMARK    9  A    between atoms: C14_38  and  N12_39 
REMARK   10  A    between atoms: C14_38  and  N13_42 
REMARK   11  A    between atoms: N12_39  and  O3_40 
ROOT
HETATM    1  C1  UNL     1       1.439  -1.136   1.883  1.00  0.00     0.074 C 
HETATM    2  C2  UNL     1       1.846  -0.184   0.832  1.00  0.00     0.068 C 
HETATM    3  N1  UNL     1       0.975   0.236  -0.006  1.00  0.00    -0.298 N 
ATOM      4  H1  UNL     1       1.263   0.894  -0.730  1.00  0.00     0.187 HD
ENDROOT
BRANCH   3   5
HETATM    5  N2  UNL     1      -0.353  -0.178   0.041  1.00  0.00    -0.251 N 
HETATM    6  C3  UNL     1      -1.448   0.683  -0.201  1.00  0.00     0.335 C 
HETATM    7  O1  UNL     1      -1.244   1.913  -0.479  1.00  0.00    -0.246 OA
HETATM    8  N3  UNL     1      -2.780   0.201  -0.138  1.00  0.00    -0.325 N 
ATOM      9  H3  UNL     1      -2.927  -0.783   0.087  1.00  0.00     0.165 HD
ATOM     10  H2  UNL     1      -0.547  -1.155   0.262  1.00  0.00     0.191 HD
BRANCH   8  11
HETATM   11  C4  UNL     1      -3.941   1.029  -0.375  1.00  0.00     0.207 C 
BRANCH  11  12
HETATM   12  C5  UNL     1      -4.716   0.655  -1.575  1.00  0.00     0.039 A 
HETATM   13  C6  UNL     1      -4.956  -0.662  -1.847  1.00  0.00     0.027 A 
HETATM   14  C7  UNL     1      -5.673  -1.043  -2.950  1.00  0.00     0.003 A 
HETATM   15  C8  UNL     1      -6.158  -0.073  -3.798  1.00  0.00     0.017 A 
HETATM   16  C9  UNL     1      -5.913   1.253  -3.518  1.00  0.00     0.088 A 
HETATM   17  N4  UNL     1      -5.205   1.593  -2.426  1.00  0.00    -0.367 N 
ATOM     18  H4  UNL     1      -5.031   2.579  -2.233  1.00  0.00     0.165 HD
ENDBRANCH  11  12
BRANCH  11  19
HETATM   19  C10 UNL     1      -4.762   1.287   0.828  1.00  0.00     0.144 A 
HETATM   20  N5  UNL     1      -5.343   2.481   1.150  1.00  0.00    -0.270 N 
HETATM   21  N6  UNL     1      -5.998   2.382   2.287  1.00  0.00    -0.227 N 
ATOM     22  H5  UNL     1      -5.278   3.330   0.588  1.00  0.00     0.190 HD
HETATM   23  N7  UNL     1      -5.853   1.156   2.703  1.00  0.00    -0.225 N 
ATOM     24  H6  UNL     1      -6.520   3.124   2.754  1.00  0.00     0.210 HD
HETATM   25  N8  UNL     1      -5.103   0.464   1.833  1.00  0.00    -0.266 N 
ATOM     26  H7  UNL     1      -6.251   0.778   3.563  1.00  0.00     0.210 HD
HETATM   27  C11 UNL     1      -4.750  -0.908   2.000  1.00  0.00     0.181 C 
ENDBRANCH  11  19
ENDBRANCH   8  11
ENDBRANCH   3   5
BRANCH   2  28
HETATM   28  C12 UNL     1       3.222   0.260   0.766  1.00  0.00     0.151 C 
HETATM   29  N9  UNL     1       3.646   1.095  -0.132  1.00  0.00    -0.251 N 
ATOM     30  H9  UNL     1       4.628   1.370  -0.127  1.00  0.00     0.196 HD
BRANCH  29  31
HETATM   31  O2  UNL     1       2.814   1.620  -1.089  1.00  0.00    -0.288 OA
ATOM     32  H2  UNL     1       3.124   2.231  -1.747  1.00  0.00     0.244 HD
ENDBRANCH  29  31
BRANCH  28  33
HETATM   33  N10 UNL     1       4.192  -0.205   1.697  1.00  0.00    -0.311 N 
ATOM     34  H10 UNL     1       3.946  -0.361   2.674  1.00  0.00     0.170 HD
BRANCH  33  35
HETATM   35  C13 UNL     1       5.529  -0.450   1.226  1.00  0.00     0.185 A 
HETATM   36  N11 UNL     1       6.355  -1.396   1.359  1.00  0.00    -0.301 N 
HETATM   37  C14 UNL     1       7.356  -0.765   0.573  1.00  0.00     0.306 A 
ATOM     38  H11 UNL     1       6.317  -2.288   1.852  1.00  0.00     0.168 HD
HETATM   39  N15 UNL     1       6.421   0.275   0.439  1.00  0.00    -0.301 N 
ATOM     40  H15 UNL     1       6.403   1.178  -0.034  1.00  0.00     0.168 HD
BRANCH  37  41
HETATM   41  N12 UNL     1       7.605  -1.490  -0.667  1.00  0.00    -0.024 NA
BRANCH  41  42
HETATM   42  O3  UNL     1       8.565  -0.864  -1.393  1.00  0.00    -0.291 OA
ATOM     43  H3  UNL     1       8.727  -1.336  -2.201  1.00  0.00     0.239 HD
ENDBRANCH  41  42
ENDBRANCH  37  41
BRANCH  37  44
HETATM   44  N13 UNL     1       8.562  -0.460   1.299  1.00  0.00    -0.280 N 
HETATM   45  N14 UNL     1       9.277   0.468   0.899  1.00  0.00    -0.345 N 
ATOM     46 2H14 UNL     1       9.003   0.996   0.070  1.00  0.00     0.176 HD
ATOM     47 1H14 UNL     1      10.131   0.684   1.413  1.00  0.00     0.176 HD
ATOM     48  H13 UNL     1       8.822  -0.998   2.126  1.00  0.00     0.185 HD
ENDBRANCH  37  44
ENDBRANCH  33  35
ENDBRANCH  28  33
ENDBRANCH   2  28
TORSDOF 11
