REMARK  9 active torsions:
REMARK  status: ('A' for Active; 'I' for Inactive)
REMARK    1  A    between atoms: N1_2  and  C2_3 
REMARK    2  A    between atoms: N1_2  and  C5_10 
REMARK    3  A    between atoms: C2_3  and  C3_4 
REMARK    4  A    between atoms: C3_4  and  C4_5 
REMARK    5  A    between atoms: C4_5  and  N2_6 
REMARK    6  A    between atoms: C5_10  and  C6_11 
REMARK    7  A    between atoms: C6_11  and  N3_12 
REMARK    8  A    between atoms: N3_12  and  C7_14 
REMARK    9  A    between atoms: C10_19  and  N5_20 
ROOT
HETATM    1  N3  UNL     1       1.400  -1.190  -0.180  1.00  0.00    -0.374 N 
ATOM      2  H3  UNL     1       1.302  -2.089  -0.651  1.00  0.00     0.161 HD
ENDROOT
BRANCH   1   3
HETATM    3  C6  UNL     1       0.225  -0.603   0.398  1.00  0.00     0.151 C 
BRANCH   3   4
HETATM    4  C5  UNL     1      -0.559   0.267  -0.533  1.00  0.00     0.291 C 
BRANCH   4   5
HETATM    5  N1  UNL     1      -1.724   0.850   0.110  1.00  0.00     0.085 N 
HETATM    6  C1  UNL     1      -1.328   1.817   1.122  1.00  0.00     0.309 C 
BRANCH   5   7
HETATM    7  C2  UNL     1      -2.555  -0.149   0.746  1.00  0.00     0.273 C 
BRANCH   7   8
HETATM    8  C3  UNL     1      -3.123  -1.156  -0.184  1.00  0.00     0.057 C 
BRANCH   8   9
HETATM    9  C4  UNL     1      -4.013  -0.574  -1.250  1.00  0.00     0.231 C 
BRANCH   9  10
HETATM   10  N2  UNL     1      -5.153   0.123  -0.713  1.00  0.00    -0.079 N 
ATOM     11  H23 UNL     1      -5.684  -0.479  -0.084  1.00  0.00     0.274 HD
ATOM     12  H22 UNL     1      -4.861   0.841  -0.050  1.00  0.00     0.274 HD
ATOM     13  H21 UNL     1      -5.756   0.517  -1.435  1.00  0.00     0.274 HD
ENDBRANCH   9  10
ENDBRANCH   8   9
ENDBRANCH   7   8
ENDBRANCH   5   7
ENDBRANCH   4   5
ENDBRANCH   3   4
ENDBRANCH   1   3
BRANCH   1  14
HETATM   14  C7  UNL     1       2.578  -0.650  -0.141  1.00  0.00     0.118 A 
HETATM   15  C8  UNL     1       2.736   0.559   0.485  1.00  0.00     0.066 A 
HETATM   16  C9  UNL     1       4.009   1.105   0.545  1.00  0.00     0.110 A 
HETATM   17  N4  UNL     1       5.049   0.480   0.012  1.00  0.00    -0.202 N 
HETATM   18  C10 UNL     1       4.869  -0.701  -0.596  1.00  0.00     0.677 A 
ATOM     19  H4  UNL     1       5.980   0.895   0.064  1.00  0.00     0.183 HD
HETATM   20  N6  UNL     1       3.655  -1.243  -0.666  1.00  0.00    -0.177 N 
ATOM     21  H6  UNL     1       3.543  -2.141  -1.136  1.00  0.00     0.185 HD
BRANCH  18  22
HETATM   22  N5  UNL     1       5.885  -1.332  -1.119  1.00  0.00    -0.234 N 
ATOM     23  H52 UNL     1       6.815  -0.917  -1.065  1.00  0.00     0.174 HD
ATOM     24  H51 UNL     1       5.748  -2.231  -1.582  1.00  0.00     0.174 HD
ENDBRANCH  18  22
ENDBRANCH   1  14
TORSDOF 9
