REMARK  6 active torsions:
REMARK  status: ('A' for Active; 'I' for Inactive)
REMARK    1  A    between atoms: C3_3  and  C4_4 
REMARK    2  A    between atoms: C4_4  and  S1_5 
REMARK    3  A    between atoms: S1_5  and  C5_6 
REMARK    4  A    between atoms: C6_8  and  C7_9 
REMARK    5  A    between atoms: C13_20  and  N2_21 
REMARK    6  A    between atoms: N2_21  and  O2_23 
ROOT
HETATM    1  C1  UNL     1       7.029  -0.821  -0.688  1.00  0.00     0.112 C 
HETATM    2  C2  UNL     1       5.626  -0.603  -0.324  1.00  0.00    -0.110 C 
HETATM    3  C3  UNL     1       4.470  -0.445  -0.020  1.00  0.00    -0.097 C 
ENDROOT
BRANCH   3   4
HETATM    4  C4  UNL     1       3.068  -0.278   0.357  1.00  0.00     0.175 C 
BRANCH   4   5
HETATM    5  S1  UNL     1       2.221   0.919  -0.725  1.00  0.00    -0.089 SA
BRANCH   5   6
HETATM    6  C5  UNL     1       0.527   1.033  -0.166  1.00  0.00     0.161 A 
HETATM    7  O1  UNL     1      -0.502   0.293  -0.568  1.00  0.00    -0.282 OA
HETATM    8  C6  UNL     1      -1.593   0.638   0.041  1.00  0.00     0.162 A 
HETATM    9  N1  UNL     1      -1.265   1.643   0.875  1.00  0.00    -0.318 N 
HETATM   10  C13 UNL     1       0.049   1.920   0.776  1.00  0.00     0.168 A 
ATOM     11  H1  UNL     1      -1.918   2.125   1.493  1.00  0.00     0.169 HD
BRANCH   8  12
HETATM   12  C7  UNL     1      -2.937   0.084  -0.107  1.00  0.00     0.039 A 
HETATM   13  C8  UNL     1      -3.196  -0.945  -0.980  1.00  0.00     0.043 A 
HETATM   14  C9  UNL     1      -4.458  -1.489  -1.140  1.00  0.00     0.056 A 
HETATM   15 CL1  UNL     1      -4.753  -2.801  -2.263  1.00  0.00    -0.083 Cl
HETATM   16  C10 UNL     1      -5.517  -0.979  -0.389  1.00  0.00     0.057 A 
HETATM   17 CL2  UNL     1      -7.120  -1.679  -0.600  1.00  0.00    -0.082 Cl
HETATM   18  C11 UNL     1      -5.277   0.053   0.492  1.00  0.00     0.050 A 
HETATM   19  C12 UNL     1      -3.996   0.575   0.628  1.00  0.00     0.050 A 
HETATM   20 CL3  UNL     1      -3.698   1.887   1.750  1.00  0.00    -0.083 Cl
ENDBRANCH   8  12
BRANCH  10  21
HETATM   21  N2  UNL     1       0.836   2.891   1.455  1.00  0.00    -0.250 N 
ATOM     22  H2  UNL     1       1.161   3.704   0.931  1.00  0.00     0.196 HD
BRANCH  21  23
HETATM   23  O2  UNL     1       1.150   2.799   2.662  1.00  0.00    -0.288 OA
ATOM     24  H2  UNL     1       1.676   3.448   3.115  1.00  0.00     0.244 HD
ENDBRANCH  21  23
ENDBRANCH  10  21
ENDBRANCH   5   6
ENDBRANCH   4   5
ENDBRANCH   3   4
TORSDOF 6
