REMARK  14 active torsions:
REMARK  status: ('A' for Active; 'I' for Inactive)
REMARK    1  A    between atoms: C2_2  and  C3_3 
REMARK    2  A    between atoms: C3_3  and  C4_4 
REMARK    3  A    between atoms: C4_4  and  C5_5 
REMARK    4  A    between atoms: C7_10  and  C8_11 
REMARK    5  A    between atoms: C8_11  and  C9_12 
REMARK    6  A    between atoms: C13_16  and  O2_17 
REMARK    7  A    between atoms: C15_20  and  C16_21 
REMARK    8  A    between atoms: C19_24  and  C20_25 
REMARK    9  A    between atoms: C20_25  and  C21_26 
REMARK   10  A    between atoms: C21_26  and  C22_27 
REMARK   11  A    between atoms: C22_27  and  C23_28 
REMARK   12  A    between atoms: C23_28  and  N2_29 
REMARK   13  A    between atoms: N2_29  and  C24_31 
REMARK   14  A    between atoms: C26_38  and  O3_39 
ROOT
HETATM    1  C5  UNL     1      -3.482  -1.193  -0.720  1.00  0.00     0.177 C 
HETATM    2  N1  UNL     1      -2.636  -1.105   0.410  1.00  0.00    -0.344 N 
ATOM      3  H1  UNL     1      -3.141  -1.109   1.296  1.00  0.00     0.163 HD
HETATM    4  C6  UNL     1      -1.246  -1.013   0.562  1.00  0.00     0.246 C 
HETATM    5  O1  UNL     1      -0.765  -1.836   1.425  1.00  0.00    -0.268 OA
HETATM    6  C7  UNL     1      -0.285  -0.088  -0.142  1.00  0.00     0.014 C 
HETATM    7  C19 UNL     1       0.383  -0.608  -1.287  1.00  0.00     0.118 C 
HETATM    8  N4  UNL     1       0.396  -2.011  -1.645  1.00  0.00    -0.361 N 
ATOM      9  H4  UNL     1       1.081  -2.157  -2.387  1.00  0.00     0.162 HD
HETATM   10  C26 UNL     1      -0.183  -3.198  -1.340  1.00  0.00     0.159 C 
HETATM   11  C27 UNL     1      -1.492  -3.850  -1.607  1.00  0.00     0.059 C 
HETATM   12  C28 UNL     1      -1.969  -4.706  -0.440  1.00  0.00     0.072 C 
HETATM   13  N5  UNL     1      -2.494  -3.062  -2.220  1.00  0.00    -0.325 N 
ATOM     14  H5  UNL     1      -2.968  -3.522  -2.997  1.00  0.00     0.168 HD
HETATM   15  C29 UNL     1      -2.953  -1.772  -1.958  1.00  0.00     0.244 C 
HETATM   16  O4  UNL     1      -2.901  -0.973  -2.973  1.00  0.00    -0.271 OA
ENDROOT
BRANCH   6  17
HETATM   17  C8  UNL     1      -0.890   1.302  -0.066  1.00  0.00     0.082 C 
BRANCH  17  18
HETATM   18  C9  UNL     1      -0.197   2.453  -0.593  1.00  0.00    -0.037 A 
HETATM   19  C10 UNL     1      -0.362   2.818  -1.920  1.00  0.00    -0.052 A 
HETATM   20  C11 UNL     1      -1.457   2.285  -2.813  1.00  0.00     0.049 C 
HETATM   21  C12 UNL     1       0.446   3.812  -2.471  1.00  0.00     0.043 A 
HETATM   22  C13 UNL     1       1.395   4.426  -1.702  1.00  0.00     0.067 A 
HETATM   23  C14 UNL     1       1.531   4.058  -0.407  1.00  0.00     0.048 A 
HETATM   24  C15 UNL     1       0.744   3.054   0.231  1.00  0.00    -0.025 A 
BRANCH  22  25
HETATM   25  O2  UNL     1       2.175   5.414  -2.309  1.00  0.00    -0.361 OA
ATOM     26  H2  UNL     1       2.834   5.841  -1.775  1.00  0.00     0.217 HD
ENDBRANCH  22  25
BRANCH  24  27
HETATM   27  C16 UNL     1       0.941   2.959   1.667  1.00  0.00    -0.077 C 
HETATM   28  C17 UNL     1       2.366   3.223   2.138  1.00  0.00     0.044 C 
HETATM   29  C18 UNL     1       0.091   2.281   2.632  1.00  0.00     0.044 C 
ENDBRANCH  24  27
ENDBRANCH  17  18
ENDBRANCH   6  17
BRANCH   7  30
HETATM   30  C20 UNL     1       1.861  -0.150  -1.375  1.00  0.00     0.030 C 
BRANCH  30  31
HETATM   31  C21 UNL     1       2.695  -0.589  -0.208  1.00  0.00     0.004 C 
BRANCH  31  32
HETATM   32  C22 UNL     1       4.135  -0.103  -0.377  1.00  0.00     0.020 C 
BRANCH  32  33
HETATM   33  C23 UNL     1       4.965  -0.549   0.801  1.00  0.00     0.121 C 
BRANCH  33  34
HETATM   34  N2  UNL     1       6.320  -0.073   0.655  1.00  0.00    -0.380 N 
ATOM     35  H2  UNL     1       6.530   0.505  -0.159  1.00  0.00     0.160 HD
BRANCH  34  36
HETATM   36  C24 UNL     1       7.374  -0.344   1.547  1.00  0.00     0.066 C 
HETATM   37  C25 UNL     1       7.202  -1.050   2.836  1.00  0.00     0.088 C 
HETATM   38  N3  UNL     1       8.587   0.036   1.252  1.00  0.00    -0.389 N 
ATOM     39  H32 UNL     1       8.706   0.523   0.363  1.00  0.00     0.157 HD
ATOM     40  H31 UNL     1       9.351  -0.160   1.899  1.00  0.00     0.157 HD
ENDBRANCH  34  36
ENDBRANCH  33  34
ENDBRANCH  32  33
ENDBRANCH  31  32
ENDBRANCH  30  31
ENDBRANCH   7  30
BRANCH   1  41
HETATM   41  C4  UNL     1      -4.839  -1.836  -0.360  1.00  0.00     0.035 C 
BRANCH  41  42
HETATM   42  C3  UNL     1      -5.609  -1.070   0.662  1.00  0.00     0.002 C 
BRANCH  42  43
HETATM   43  C2  UNL     1      -6.938  -1.733   0.962  1.00  0.00    -0.004 C 
HETATM   44  C1  UNL     1      -7.667  -0.887   2.015  1.00  0.00     0.005 C 
ENDBRANCH  42  43
ENDBRANCH  41  42
ENDBRANCH   1  41
BRANCH  10  45
HETATM   45  O3  UNL     1       0.544  -4.026  -0.641  1.00  0.00    -0.345 OA
ATOM     46  H3  UNL     1       0.138  -4.858  -0.427  1.00  0.00     0.219 HD
ENDBRANCH  10  45
TORSDOF 14
