REMARK  2 active torsions:
REMARK  status: ('A' for Active; 'I' for Inactive)
REMARK    1  A    between atoms: C1_2  and  C2_4 
REMARK    2  A    between atoms: C2_4  and  C3_5 
ROOT
HETATM    1  C2  UNL     1      -0.048   0.002   0.034  1.00  0.00     0.206 C 
HETATM    2  C6  UNL     1      -1.235   0.312  -0.893  1.00  0.00     0.050 C 
HETATM    3  C7  UNL     1      -2.335   0.404   0.176  1.00  0.00     0.030 C 
HETATM    4  C8  UNL     1      -2.010  -0.852   0.956  1.00  0.00     0.234 C 
HETATM    5  N2  UNL     1      -0.561  -0.934   0.973  1.00  0.00    -0.057 N 
ATOM      6  H21 UNL     1      -0.172  -0.806   1.907  1.00  0.00     0.278 HD
ATOM      7  H22 UNL     1      -0.220  -1.881   0.809  1.00  0.00     0.278 HD
ENDROOT
BRANCH   1   8
HETATM    8  C1  UNL     1       0.267   1.330   0.680  1.00  0.00     0.268 C 
HETATM    9  N1  UNL     1       0.785   2.324  -0.197  1.00  0.00    -0.060 NA
HETATM   10  O1  UNL     1       0.082   1.535   1.898  1.00  0.00    -0.274 OA
ENDBRANCH   1   8
BRANCH   1  11
HETATM   11  C3  UNL     1       1.160  -0.400  -0.729  1.00  0.00     0.031 A 
HETATM   12  C4  UNL     1       2.424  -0.556   0.144  1.00  0.00     0.008 A 
HETATM   13  C5  UNL     1       1.865  -1.670  -0.629  1.00  0.00     0.008 A 
ENDBRANCH   1  11
TORSDOF 2
