REMARK  3 active torsions:
REMARK  status: ('A' for Active; 'I' for Inactive)
REMARK    1  A    between atoms: C2_2  and  N1_3 
REMARK    2  A    between atoms: C2_2  and  C4_8 
REMARK       I    between atoms: N1_3  and  C3_5 
REMARK    3  A    between atoms: C4_8  and  C6_10 
ROOT
HETATM    1  C4  UNL     1       0.404  -0.720   0.954  1.00  0.00     0.013 C 
HETATM    2  C5  UNL     1      -0.022  -2.194   0.998  1.00  0.00     0.012 C 
ENDROOT
BRANCH   1   3
HETATM    3  C2  UNL     1       1.648  -0.705   0.144  1.00  0.00     0.086 C 
HETATM    4  C1  UNL     1       2.676  -1.633   0.867  1.00  0.00     0.032 C 
BRANCH   3   5
HETATM    5  N1  UNL     1       2.361   0.580   0.165  1.00  0.00    -0.341 N 
HETATM    6  C3  UNL     1       3.118   0.973  -0.970  1.00  0.00     0.329 C 
HETATM    7  N2  UNL     1       3.798   2.212  -0.935  1.00  0.00    -0.040 NA
HETATM    8  O1  UNL     1       3.209   0.268  -2.003  1.00  0.00    -0.251 OA
ATOM      9  H1  UNL     1       2.312   1.183   0.986  1.00  0.00     0.164 HD
ENDBRANCH   3   5
ENDBRANCH   1   3
BRANCH   1  10
HETATM   10  C6  UNL     1      -0.726   0.111   0.515  1.00  0.00    -0.030 C 
HETATM   11  C7  UNL     1      -1.929   0.004   1.455  1.00  0.00     0.015 C 
HETATM   12  C8  UNL     1      -3.079  -0.000   0.509  1.00  0.00    -0.013 C 
HETATM   13  C9  UNL     1      -3.079   1.345  -0.191  1.00  0.00     0.010 C 
HETATM   14  C13 UNL     1      -2.533  -0.882  -0.625  1.00  0.00     0.010 C 
HETATM   15  C10 UNL     1      -1.724   1.304  -0.863  1.00  0.00    -0.009 C 
HETATM   16  C11 UNL     1      -0.568   1.533   0.137  1.00  0.00     0.015 C 
HETATM   17  C12 UNL     1      -1.266  -0.137  -0.870  1.00  0.00    -0.001 C 
ENDBRANCH   1  10
TORSDOF 3
