REMARK  5 active torsions:
REMARK  status: ('A' for Active; 'I' for Inactive)
REMARK    1  A    between atoms: N1_1  and  C1_5 
REMARK    2  A    between atoms: C1_5  and  N2_6 
REMARK    3  A    between atoms: C1_5  and  C2_10 
REMARK    4  A    between atoms: C2_10  and  S1_11 
REMARK    5  A    between atoms: S1_11  and  C3_12 
ROOT
HETATM    1  C1  UNL     1      -1.930   0.128   0.525  1.00  0.00     0.387 C 
ENDROOT
BRANCH   1   2
HETATM    2  N1  UNL     1      -2.253   0.832  -0.709  1.00  0.00    -0.050 N 
ATOM      3  H13 UNL     1      -2.314   0.190  -1.500  1.00  0.00     0.276 HD
ATOM      4  H12 UNL     1      -3.215   1.170  -0.705  1.00  0.00     0.276 HD
ATOM      5  H11 UNL     1      -1.593   1.588  -0.892  1.00  0.00     0.276 HD
ENDBRANCH   1   2
BRANCH   1   6
HETATM    6  N2  UNL     1      -2.872  -0.950   0.786  1.00  0.00    -0.050 N 
ATOM      7  H23 UNL     1      -3.834  -0.612   0.790  1.00  0.00     0.276 HD
ATOM      8  H22 UNL     1      -2.933  -1.592  -0.005  1.00  0.00     0.276 HD
ATOM      9  H21 UNL     1      -2.646  -1.443   1.650  1.00  0.00     0.276 HD
ENDBRANCH   1   6
BRANCH   1  10
HETATM   10  C2  UNL     1      -0.563  -0.540   0.326  1.00  0.00     0.144 C 
BRANCH  10  11
HETATM   11  S1  UNL     1       0.630   0.778  -0.021  1.00  0.00    -0.088 SA
BRANCH  11  12
HETATM   12  C3  UNL     1       2.264   0.163  -0.275  1.00  0.00     0.170 A 
HETATM   13  N3  UNL     1       2.763  -0.211  -1.477  1.00  0.00    -0.265 N 
HETATM   14  N4  UNL     1       4.010  -0.625  -1.333  1.00  0.00    -0.007 NA
ATOM     15  H3  UNL     1       2.254  -0.178  -2.360  1.00  0.00     0.186 HD
HETATM   16  N5  UNL     1       4.337  -0.529  -0.053  1.00  0.00    -0.007 NA
HETATM   17  N6  UNL     1       3.274  -0.049   0.591  1.00  0.00    -0.265 N 
ATOM     18  H6  UNL     1       3.231   0.132   1.594  1.00  0.00     0.186 HD
ENDBRANCH  11  12
ENDBRANCH  10  11
ENDBRANCH   1  10
TORSDOF 5
