REMARK  4 active torsions:
REMARK  status: ('A' for Active; 'I' for Inactive)
REMARK    1  A    between atoms: N1_1  and  C1_4 
REMARK    2  A    between atoms: C2_7  and  C3_8 
REMARK       I    between atoms: C3_8  and  N3_10 
REMARK       I    between atoms: N3_10  and  C4_12 
REMARK       I    between atoms: C4_12  and  N4_13 
REMARK       I    between atoms: C4_12  and  N5_17 
REMARK    3  A    between atoms: C5_21  and  C6_22 
REMARK    4  A    between atoms: C7_27  and  N7_28 
ROOT
HETATM    1  C1  UNL     1       2.045  -1.321   0.818  1.00  0.00     0.151 A 
HETATM    2  N2  UNL     1       0.785  -1.091   0.435  1.00  0.00    -0.333 N 
ATOM      3  H2  UNL     1       0.071  -1.787   0.648  1.00  0.00     0.168 HD
HETATM    4  C2  UNL     1       0.422   0.043  -0.231  1.00  0.00     0.136 A 
HETATM    5  C5  UNL     1       1.325   0.983  -0.530  1.00  0.00     0.144 A 
HETATM    6  N6  UNL     1       2.623   0.750  -0.141  1.00  0.00    -0.327 N 
ATOM      7  H6  UNL     1       3.335   1.448  -0.358  1.00  0.00     0.168 HD
HETATM    8  C7  UNL     1       2.987  -0.368   0.517  1.00  0.00     0.218 A 
ENDROOT
BRANCH   4   9
HETATM    9  C3  UNL     1      -0.989   0.092  -0.561  1.00  0.00     0.273 C 
HETATM   10  O1  UNL     1      -1.402   0.677  -1.561  1.00  0.00    -0.266 OA
HETATM   11  N3  UNL     1      -1.929  -0.549   0.288  1.00  0.00    -0.306 N 
HETATM   12  C4  UNL     1      -3.368  -0.517  -0.022  1.00  0.00     0.483 C 
ATOM     13  H3  UNL     1      -1.604  -1.037   1.122  1.00  0.00     0.166 HD
HETATM   14  N4  UNL     1      -3.867  -1.833  -0.261  1.00  0.00    -0.033 N 
HETATM   15  N5  UNL     1      -4.050   0.205   1.020  1.00  0.00    -0.033 N 
ATOM     16  H43 UNL     1      -3.335  -2.311  -0.988  1.00  0.00     0.278 HD
ATOM     17  H42 UNL     1      -3.663  -2.460   0.517  1.00  0.00     0.278 HD
ATOM     18  H41 UNL     1      -4.864  -1.811  -0.476  1.00  0.00     0.278 HD
ATOM     19  H53 UNL     1      -3.859  -0.175   1.947  1.00  0.00     0.278 HD
ATOM     20  H52 UNL     1      -3.662   1.137   1.167  1.00  0.00     0.278 HD
ATOM     21  H51 UNL     1      -5.047   0.227   0.805  1.00  0.00     0.278 HD
ENDBRANCH   4   9
BRANCH   5  22
HETATM   22  C6  UNL     1       1.105   2.279  -1.146  1.00  0.00     0.229 C 
HETATM   23  O2  UNL     1       2.012   2.501  -2.226  1.00  0.00    -0.643 OA
HETATM   24  O3  UNL     1      -0.117   2.791  -1.318  1.00  0.00    -0.643 OA
ENDBRANCH   5  22
BRANCH   1  25
HETATM   25  N1  UNL     1       2.313  -2.424   1.432  1.00  0.00    -0.382 N 
ATOM     26  H12 UNL     1       1.613  -3.132   1.656  1.00  0.00     0.157 HD
ATOM     27  H11 UNL     1       3.274  -2.599   1.724  1.00  0.00     0.157 HD
ENDBRANCH   1  25
BRANCH   8  28
HETATM   28  N7  UNL     1       4.358  -0.528   0.877  1.00  0.00    -0.094 N 
HETATM   29  O4  UNL     1       4.732  -1.078   1.897  1.00  0.00    -0.530 OA
HETATM   30  O5  UNL     1       5.306   0.011   0.012  1.00  0.00    -0.530 OA
ENDBRANCH   8  28
TORSDOF 4
