REMARK  3 active torsions:
REMARK  status: ('A' for Active; 'I' for Inactive)
REMARK    1  A    between atoms: O1_2  and  C2_3 
REMARK    2  A    between atoms: C2_3  and  C4_5 
REMARK    3  A    between atoms: C8_11  and  N2_12 
ROOT
HETATM    1  C4  UNL     1       0.036  -0.318   0.308  1.00  0.00     0.135 C 
HETATM    2  N1  UNL     1       0.353  -1.557  -0.323  1.00  0.00    -0.413 N 
ATOM      3  H1  UNL     1      -0.356  -2.265  -0.513  1.00  0.00     0.153 HD
HETATM    4  C5  UNL     1       1.723  -1.744  -0.672  1.00  0.00     0.114 C 
HETATM    5  C6  UNL     1       2.633  -0.634  -0.283  1.00  0.00     0.021 C 
HETATM    6  C7  UNL     1       2.100   0.718  -0.674  1.00  0.00     0.036 C 
HETATM    7  C8  UNL     1       0.641   0.888  -0.333  1.00  0.00     0.208 C 
ENDROOT
BRANCH   1   8
HETATM    8  C2  UNL     1      -1.482  -0.195   0.310  1.00  0.00     0.141 C 
HETATM    9  C3  UNL     1      -2.029  -1.438   1.004  1.00  0.00     0.041 C 
BRANCH   8  10
HETATM   10  O1  UNL     1      -1.929   0.963   0.894  1.00  0.00    -0.389 OA
HETATM   11  C1  UNL     1      -2.730   1.673   0.019  1.00  0.00     0.202 C 
ENDBRANCH   8  10
ENDBRANCH   1   8
BRANCH   7  12
HETATM   12  N2  UNL     1       0.540   2.036   0.549  1.00  0.00    -0.073 N 
ATOM     13  H23 UNL     1      -0.422   2.205   0.843  1.00  0.00     0.274 HD
ATOM     14  H22 UNL     1       0.948   1.848   1.465  1.00  0.00     0.274 HD
ATOM     15  H21 UNL     1       0.953   2.860   0.111  1.00  0.00     0.274 HD
ENDBRANCH   7  12
TORSDOF 3
