REMARK  14 active torsions:
REMARK  status: ('A' for Active; 'I' for Inactive)
REMARK    1  A    between atoms: N2_4  and  N3_6 
REMARK    2  A    between atoms: N3_6  and  C1_8 
REMARK    3  A    between atoms: C1_8  and  C2_9 
REMARK    4  A    between atoms: C2_9  and  N4_10 
REMARK    5  A    between atoms: C3_12  and  C4_14 
REMARK    6  A    between atoms: C4_14  and  N6_15 
REMARK    7  A    between atoms: C4_14  and  C5_19 
REMARK    8  A    between atoms: C5_19  and  C6_20 
REMARK    9  A    between atoms: C5_19  and  N8_25 
REMARK   10  A    between atoms: C6_20  and  N7_21 
REMARK   11  A    between atoms: N8_25  and  C7_27 
REMARK   12  A    between atoms: C7_27  and  C8_28 
REMARK   13  A    between atoms: C8_28  and  N9_29 
REMARK   14  A    between atoms: C8_28  and  C9_33 
ROOT
HETATM    1  C4  UNL     1       0.297  -1.972   0.283  1.00  0.00     0.294 C 
ENDROOT
BRANCH   1   2
HETATM    2  C3  UNL     1       1.494  -1.232  -0.163  1.00  0.00     0.125 C 
HETATM    3  N4  UNL     1       2.058  -0.426   0.652  1.00  0.00    -0.378 N 
ATOM      4  H4  UNL     1       1.655  -0.321   1.583  1.00  0.00     0.160 HD
HETATM    5  N5  UNL     1       2.026  -1.398  -1.460  1.00  0.00    -0.085 NA
BRANCH   3   6
HETATM    6  C2  UNL     1       3.238   0.347   0.325  1.00  0.00     0.141 C 
BRANCH   6   7
HETATM    7  C1  UNL     1       2.910   1.805   0.498  1.00  0.00     0.160 C 
BRANCH   7   8
HETATM    8  N3  UNL     1       4.040   2.640   0.188  1.00  0.00    -0.321 N 
ATOM      9  H3  UNL     1       4.926   2.230  -0.107  1.00  0.00     0.181 HD
BRANCH   8  10
HETATM   10  N2  UNL     1       3.897   4.015   0.299  1.00  0.00    -0.254 N 
HETATM   11  N1  UNL     1       3.871   4.723  -0.740  1.00  0.00    -0.331 N 
ATOM     12  H12 UNL     1       3.956   4.273  -1.651  1.00  0.00     0.178 HD
ATOM     13  H11 UNL     1       3.766   5.734  -0.658  1.00  0.00     0.178 HD
ATOM     14  H2  UNL     1       3.813   4.449   1.218  1.00  0.00     0.207 HD
ENDBRANCH   8  10
ENDBRANCH   7   8
ENDBRANCH   6   7
ENDBRANCH   3   6
ENDBRANCH   1   2
BRANCH   1  15
HETATM   15  N6  UNL     1       0.657  -3.376   0.211  1.00  0.00    -0.063 N 
ATOM     16  H63 UNL     1       0.999  -3.665  -0.706  1.00  0.00     0.275 HD
ATOM     17  H62 UNL     1       1.501  -3.610   0.734  1.00  0.00     0.275 HD
ATOM     18  H61 UNL     1      -0.170  -3.887   0.519  1.00  0.00     0.275 HD
ENDBRANCH   1  15
BRANCH   1  19
HETATM   19  C5  UNL     1      -0.886  -1.748  -0.613  1.00  0.00     0.049 C 
BRANCH  19  20
HETATM   20  C6  UNL     1      -2.076  -2.521  -0.120  1.00  0.00     0.284 C 
BRANCH  20  21
HETATM   21  N7  UNL     1      -1.770  -3.968  -0.155  1.00  0.00    -0.074 N 
ATOM     22  H73 UNL     1      -1.465  -4.276  -1.078  1.00  0.00     0.274 HD
ATOM     23  H72 UNL     1      -0.921  -4.196   0.362  1.00  0.00     0.274 HD
ATOM     24  H71 UNL     1      -2.578  -4.493   0.180  1.00  0.00     0.274 HD
ENDBRANCH  20  21
ENDBRANCH  19  20
BRANCH  19  25
HETATM   25  N8  UNL     1      -1.140  -0.549  -1.170  1.00  0.00    -0.370 N 
ATOM     26  H8  UNL     1      -1.112  -0.601  -2.188  1.00  0.00     0.164 HD
BRANCH  25  27
HETATM   27  C7  UNL     1      -1.421   0.702  -0.753  1.00  0.00     0.102 C 
BRANCH  27  28
HETATM   28  C8  UNL     1      -2.749   1.053  -0.134  1.00  0.00     0.310 C 
BRANCH  28  29
HETATM   29  N9  UNL     1      -3.091   0.376   1.063  1.00  0.00    -0.062 N 
ATOM     30  H93 UNL     1      -3.039  -0.632   0.913  1.00  0.00     0.275 HD
ATOM     31  H92 UNL     1      -2.349   0.501   1.751  1.00  0.00     0.275 HD
ATOM     32  H91 UNL     1      -3.990   0.614   1.482  1.00  0.00     0.275 HD
ENDBRANCH  28  29
BRANCH  28  33
HETATM   33  C9  UNL     1      -2.817   2.515   0.129  1.00  0.00     0.266 C 
HETATM   34  N10 UNL     1      -3.243   2.983   1.383  1.00  0.00    -0.060 NA
HETATM   35  O1  UNL     1      -2.497   3.310  -0.768  1.00  0.00    -0.274 OA
ENDBRANCH  28  33
ENDBRANCH  27  28
ENDBRANCH  25  27
ENDBRANCH  19  25
ENDBRANCH   1  19
TORSDOF 14
