REMARK  4 active torsions:
REMARK  status: ('A' for Active; 'I' for Inactive)
REMARK    1  A    between atoms: N1_1  and  C1_5 
REMARK    2  A    between atoms: C3_7  and  N2_8 
REMARK    3  A    between atoms: C4_12  and  N3_13 
REMARK    4  A    between atoms: N3_13  and  C5_15 
ROOT
HETATM    1  C1  UNL     1      -1.634  -1.083  -0.595  1.00  0.00     0.210 C 
HETATM    2  C2  UNL     1      -2.167   0.353  -0.647  1.00  0.00     0.070 C 
HETATM    3  C3  UNL     1      -0.856   0.763   0.038  1.00  0.00     0.210 C 
HETATM    4  C4  UNL     1      -0.268  -0.478  -0.593  1.00  0.00     0.160 C 
ENDROOT
BRANCH   4   5
HETATM    5  N3  UNL     1       0.749  -1.154   0.120  1.00  0.00    -0.215 N 
ATOM      6  H3  UNL     1       0.552  -2.024   0.614  1.00  0.00     0.178 HD
BRANCH   5   7
HETATM    7  C5  UNL     1       2.068  -0.581   0.129  1.00  0.00     0.707 A 
HETATM    8  N4  UNL     1       3.167  -1.062   0.742  1.00  0.00    -0.114 N 
HETATM    9  N5  UNL     1       4.189  -0.256   0.520  1.00  0.00     0.009 NA
ATOM     10  H4  UNL     1       3.204  -1.919   1.294  1.00  0.00     0.203 HD
HETATM   11  N6  UNL     1       3.760   0.745  -0.232  1.00  0.00    -0.212 N 
HETATM   12  N7  UNL     1       2.479   0.555  -0.473  1.00  0.00    -0.118 N 
ATOM     13  H6  UNL     1       4.323   1.527  -0.567  1.00  0.00     0.206 HD
ATOM     14  H7  UNL     1       1.888   1.172  -1.030  1.00  0.00     0.207 HD
ENDBRANCH   5   7
ENDBRANCH   4   5
BRANCH   1  15
HETATM   15  N1  UNL     1      -2.054  -1.705   0.638  1.00  0.00    -0.073 N 
ATOM     16  H13 UNL     1      -1.781  -1.162   1.457  1.00  0.00     0.274 HD
ATOM     17  H12 UNL     1      -3.065  -1.663   0.767  1.00  0.00     0.274 HD
ATOM     18  H11 UNL     1      -1.699  -2.661   0.673  1.00  0.00     0.274 HD
ENDBRANCH   1  15
BRANCH   3  19
HETATM   19  N2  UNL     1      -0.391   2.012  -0.469  1.00  0.00    -0.073 N 
ATOM     20  H23 UNL     1      -0.298   1.997  -1.485  1.00  0.00     0.274 HD
ATOM     21  H22 UNL     1      -1.102   2.740  -0.391  1.00  0.00     0.274 HD
ATOM     22  H21 UNL     1       0.480   2.284  -0.014  1.00  0.00     0.274 HD
ENDBRANCH   3  19
TORSDOF 4
