REMARK  3 active torsions:
REMARK  status: ('A' for Active; 'I' for Inactive)
REMARK    1  A    between atoms: C2_2  and  C3_3 
REMARK    2  A    between atoms: N1_5  and  N2_7 
REMARK    3  A    between atoms: C6_13  and  N4_14 
ROOT
HETATM    1  N2  UNL     1       2.079  -0.081  -1.004  1.00  0.00    -0.130 N 
ATOM      2  H2  UNL     1       2.267   0.656  -1.683  1.00  0.00     0.205 HD
HETATM    3  C4  UNL     1       0.874  -0.102  -0.613  1.00  0.00     0.716 A 
HETATM    4  N3  UNL     1       0.003   0.831  -1.129  1.00  0.00    -0.169 N 
ATOM      5  H3  UNL     1       0.234   1.555  -1.809  1.00  0.00     0.186 HD
HETATM    6  C5  UNL     1      -1.184   0.625  -0.589  1.00  0.00     0.196 A 
HETATM    7  C6  UNL     1      -2.362   1.336  -0.824  1.00  0.00     0.172 A 
HETATM    8  C7  UNL     1      -3.471   0.930  -0.140  1.00  0.00     0.059 A 
HETATM    9  C8  UNL     1      -4.762   1.662  -0.357  1.00  0.00     0.071 C 
HETATM   10  N5  UNL     1      -3.410  -0.094   0.703  1.00  0.00    -0.192 N 
ATOM     11  H5  UNL     1      -4.249  -0.383   1.206  1.00  0.00     0.184 HD
HETATM   12  C9  UNL     1      -2.241  -0.764   0.905  1.00  0.00     0.700 A 
HETATM   13  N6  UNL     1      -2.275  -1.718   1.719  1.00  0.00    -0.233 N 
ATOM     14  H61 UNL     1      -1.400  -2.220   1.870  1.00  0.00     0.174 HD
ATOM     15  H62 UNL     1      -3.133  -1.981   2.204  1.00  0.00     0.174 HD
HETATM   16  N7  UNL     1      -1.105  -0.416   0.262  1.00  0.00    -0.051 N 
HETATM   17  N8  UNL     1       0.164  -0.856   0.240  1.00  0.00    -0.104 N 
HETATM   18  C10 UNL     1       0.671  -1.945   1.002  1.00  0.00     0.199 C 
ENDROOT
BRANCH   1  19
HETATM   19  N1  UNL     1       3.157  -0.819  -0.716  1.00  0.00    -0.288 N 
HETATM   20  C2  UNL     1       4.245  -0.421  -0.153  1.00  0.00     0.060 C 
HETATM   21  C1  UNL     1       5.299  -1.451   0.056  1.00  0.00     0.073 C 
ATOM     22  H1  UNL     1       3.112  -1.806  -0.970  1.00  0.00     0.187 HD
BRANCH  20  23
HETATM   23  C3  UNL     1       4.380   0.955   0.231  1.00  0.00     0.284 C 
HETATM   24  O1  UNL     1       5.410   1.428   0.787  1.00  0.00    -0.300 OA
ENDBRANCH  20  23
ENDBRANCH   1  19
BRANCH   7  25
HETATM   25  N4  UNL     1      -2.396   2.420  -1.725  1.00  0.00    -0.110 N 
HETATM   26  O2  UNL     1      -2.349   2.200  -2.956  1.00  0.00    -0.532 OA
HETATM   27  O3  UNL     1      -2.479   3.731  -1.294  1.00  0.00    -0.532 OA
ENDBRANCH   7  25
TORSDOF 3
