REMARK  10 active torsions:
REMARK  status: ('A' for Active; 'I' for Inactive)
REMARK    1  A    between atoms: N2_3  and  S1_5 
REMARK    2  A    between atoms: S1_5  and  C2_8 
REMARK    3  A    between atoms: C3_9  and  C4_10 
REMARK    4  A    between atoms: C4_10  and  O3_11 
REMARK    5  A    between atoms: O3_11  and  C5_12 
REMARK    6  A    between atoms: C6_14  and  C7_15 
REMARK    7  A    between atoms: C8_18  and  O7_19 
REMARK    8  A    between atoms: C9_21  and  O8_22 
REMARK    9  A    between atoms: C10_24  and  O9_25 
REMARK   10  A    between atoms: C15_31  and  C16_32 
ROOT
HETATM    1  N1  UNL     1       6.787  -3.032  -1.998  1.00  0.00    -0.171 NA
HETATM    2  C1  UNL     1       5.708  -2.842  -1.601  1.00  0.00     0.192 C 
HETATM    3  N2  UNL     1       4.394  -2.627  -1.138  1.00  0.00    -0.217 N 
ATOM      4  H2  UNL     1       3.581  -3.046  -1.590  1.00  0.00     0.191 HD
ENDROOT
BRANCH   3   5
HETATM    5  S1  UNL     1       4.267  -1.692   0.131  1.00  0.00     0.260 S 
HETATM    6  O1  UNL     1       5.310  -0.616  -0.049  1.00  0.00    -0.200 OA
HETATM    7  O2  UNL     1       4.677  -2.594   1.464  1.00  0.00    -0.200 OA
BRANCH   5   8
HETATM    8  C2  UNL     1       2.662  -1.034   0.286  1.00  0.00     0.131 C 
HETATM    9  C3  UNL     1       2.201  -0.040  -0.449  1.00  0.00     0.025 C 
BRANCH   9  10
HETATM   10  C4  UNL     1       0.807   0.429  -0.215  1.00  0.00     0.096 C 
HETATM   11  C11 UNL     1       0.849   1.263   1.054  1.00  0.00     0.043 C 
HETATM   12  C12 UNL     1       1.678   2.518   0.863  1.00  0.00     0.003 C 
HETATM   13  C13 UNL     1       1.459   3.081  -0.532  1.00  0.00     0.001 C 
HETATM   14  C14 UNL     1       0.137   2.599  -1.096  1.00  0.00     0.019 C 
HETATM   15  C15 UNL     1       0.215   1.121  -1.384  1.00  0.00     0.125 C 
BRANCH  10  16
HETATM   16  O3  UNL     1       0.068  -0.703   0.091  1.00  0.00    -0.343 OA
BRANCH  16  17
HETATM   17  C5  UNL     1      -1.252  -0.534   0.347  1.00  0.00     0.293 C 
HETATM   18  O4  UNL     1      -2.079  -1.340  -0.441  1.00  0.00    -0.340 OA
HETATM   19  C6  UNL     1      -3.381  -1.366  -0.025  1.00  0.00     0.256 C 
HETATM   20  C8  UNL     1      -3.692  -0.269   0.990  1.00  0.00     0.189 C 
HETATM   21  C9  UNL     1      -2.833  -0.398   2.210  1.00  0.00     0.183 C 
HETATM   22  C10 UNL     1      -1.499  -0.960   1.781  1.00  0.00     0.204 C 
BRANCH  19  23
HETATM   23  C7  UNL     1      -4.339  -1.168  -1.160  1.00  0.00     0.206 C 
HETATM   24  O5  UNL     1      -5.577  -1.159  -0.995  1.00  0.00    -0.646 OA
HETATM   25  O6  UNL     1      -3.843  -0.989  -2.441  1.00  0.00    -0.646 OA
ENDBRANCH  19  23
BRANCH  20  26
HETATM   26  O7  UNL     1      -5.022  -0.460   1.388  1.00  0.00    -0.390 OA
ATOM     27  H7  UNL     1      -5.216   0.223   2.020  1.00  0.00     0.210 HD
ENDBRANCH  20  26
BRANCH  21  28
HETATM   28  O8  UNL     1      -2.605   0.863   2.755  1.00  0.00    -0.390 OA
ATOM     29  H8  UNL     1      -2.060   0.781   3.529  1.00  0.00     0.210 HD
ENDBRANCH  21  28
BRANCH  22  30
HETATM   30  O9  UNL     1      -1.443  -2.343   1.919  1.00  0.00    -0.388 OA
ATOM     31  H9  UNL     1      -1.598  -2.610   2.818  1.00  0.00     0.210 HD
ENDBRANCH  22  30
ENDBRANCH  16  17
ENDBRANCH  10  16
BRANCH  15  32
HETATM   32  C16 UNL     1       0.954   0.890  -2.649  1.00  0.00     0.180 C 
HETATM   33  O10 UNL     1       1.422   1.880  -3.254  1.00  0.00    -0.648 OA
HETATM   34  O11 UNL     1       1.153  -0.364  -3.197  1.00  0.00    -0.648 OA
ENDBRANCH  15  32
ENDBRANCH   9  10
ENDBRANCH   5   8
ENDBRANCH   3   5
TORSDOF 10
