REMARK  17 active torsions:
REMARK  status: ('A' for Active; 'I' for Inactive)
REMARK    1  A    between atoms: C2_2  and  C3_3 
REMARK    2  A    between atoms: C3_3  and  C5_5 
REMARK    3  A    between atoms: C5_5  and  C6_6 
REMARK    4  A    between atoms: C6_6  and  C7_7 
REMARK    5  A    between atoms: C7_7  and  C8_8 
REMARK    6  A    between atoms: C8_8  and  C9_9 
REMARK    7  A    between atoms: C8_8  and  C13_15 
REMARK    8  A    between atoms: C9_9  and  C10_10 
REMARK    9  A    between atoms: C10_10  and  C11_11 
REMARK   10  A    between atoms: C11_11  and  C12_12 
REMARK   11  A    between atoms: C12_12  and  O1_13 
REMARK   12  A    between atoms: N1_19  and  O2_21 
REMARK   13  A    between atoms: C19_26  and  O3_27 
REMARK   14  A    between atoms: C21_30  and  C23_32 
REMARK   15  A    between atoms: C23_32  and  O4_33 
REMARK   16  A    between atoms: C23_32  and  N2_35 
REMARK   17  A    between atoms: N2_35  and  C24_37 
ROOT
HETATM    1  C13 UNL     1      -2.223  -0.156   0.032  1.00  0.00    -0.010 C 
HETATM    2  C14 UNL     1      -2.408  -0.633   1.263  1.00  0.00     0.148 C 
HETATM    3  F1  UNL     1      -3.544  -1.224   1.747  1.00  0.00    -0.203 F 
HETATM    4  C15 UNL     1      -1.226  -0.432   2.113  1.00  0.00     0.080 C 
HETATM    5  N1  UNL     1      -1.289  -0.650   3.368  1.00  0.00    -0.270 N 
ATOM      6  H1  UNL     1      -2.223  -0.960   3.635  1.00  0.00     0.194 HD
HETATM    7  C16 UNL     1      -0.152   0.048   1.220  1.00  0.00     0.079 C 
HETATM    8  C17 UNL     1      -0.894   0.442  -0.010  1.00  0.00    -0.057 C 
HETATM    9  C18 UNL     1      -0.100   0.508  -1.232  1.00  0.00     0.067 C 
HETATM   10  C19 UNL     1       1.042  -0.484  -1.310  1.00  0.00     0.128 C 
HETATM   11  C20 UNL     1       1.896  -0.516  -0.106  1.00  0.00     0.040 C 
HETATM   12  C21 UNL     1       3.095  -1.373  -0.269  1.00  0.00     0.028 C 
HETATM   13  C22 UNL     1       2.882  -2.360  -1.455  1.00  0.00     0.025 C 
HETATM   14  C29 UNL     1       3.454  -2.248   0.903  1.00  0.00     0.018 C 
HETATM   15  C30 UNL     1       2.326  -2.838   1.637  1.00  0.00     0.002 C 
HETATM   16  C31 UNL     1       0.988  -2.192   1.429  1.00  0.00     0.011 C 
HETATM   17  C32 UNL     1       1.096  -0.710   1.164  1.00  0.00    -0.024 C 
HETATM   18  C33 UNL     1       1.921  -0.162   2.360  1.00  0.00     0.016 C 
ENDROOT
BRANCH   1  19
HETATM   19  C8  UNL     1      -3.344  -0.245  -0.958  1.00  0.00     0.022 C 
BRANCH  19  20
HETATM   20  C7  UNL     1      -3.611   1.114  -1.577  1.00  0.00     0.009 C 
BRANCH  20  21
HETATM   21  C6  UNL     1      -4.009   2.129  -0.551  1.00  0.00     0.001 C 
BRANCH  21  22
HETATM   22  C5  UNL     1      -5.297   1.749   0.121  1.00  0.00     0.004 C 
BRANCH  22  23
HETATM   23  C3  UNL     1      -5.622   2.814   1.155  1.00  0.00    -0.019 C 
HETATM   24  C4  UNL     1      -6.888   2.323   1.843  1.00  0.00     0.010 C 
BRANCH  23  25
HETATM   25  C2  UNL     1      -5.789   4.182   0.584  1.00  0.00    -0.000 C 
HETATM   26  C1  UNL     1      -6.882   4.243  -0.452  1.00  0.00     0.005 C 
ENDBRANCH  23  25
ENDBRANCH  22  23
ENDBRANCH  21  22
ENDBRANCH  20  21
ENDBRANCH  19  20
BRANCH  19  27
HETATM   27  C9  UNL     1      -3.020  -1.239  -2.084  1.00  0.00     0.009 C 
BRANCH  27  28
HETATM   28  C10 UNL     1      -2.805  -2.608  -1.415  1.00  0.00     0.003 C 
BRANCH  28  29
HETATM   29  C11 UNL     1      -2.478  -3.659  -2.431  1.00  0.00     0.026 C 
BRANCH  29  30
HETATM   30  C12 UNL     1      -2.287  -4.965  -1.660  1.00  0.00     0.164 C 
BRANCH  30  31
HETATM   31  O1  UNL     1      -1.254  -4.774  -0.772  1.00  0.00    -0.401 OA
ATOM     32  H1  UNL     1      -1.135  -5.586  -0.293  1.00  0.00     0.209 HD
ENDBRANCH  30  31
ENDBRANCH  29  30
ENDBRANCH  28  29
ENDBRANCH  27  28
ENDBRANCH  19  27
ENDBRANCH   1  19
BRANCH   5  33
HETATM   33  O2  UNL     1      -0.511  -0.592   4.404  1.00  0.00    -0.290 OA
ATOM     34  H2  UNL     1      -0.558  -0.754   5.339  1.00  0.00     0.244 HD
ENDBRANCH   5  33
BRANCH  10  35
HETATM   35  O3  UNL     1       0.527  -1.648  -1.781  1.00  0.00    -0.395 OA
ATOM     36  H3  UNL     1       1.243  -2.270  -1.830  1.00  0.00     0.210 HD
ENDBRANCH  10  35
BRANCH  12  37
HETATM   37  C23 UNL     1       4.259  -0.584  -0.763  1.00  0.00     0.120 C 
BRANCH  37  38
HETATM   38  O4  UNL     1       4.636  -0.720  -2.000  1.00  0.00    -0.349 OA
ATOM     39  H4  UNL     1       5.378  -0.217  -2.315  1.00  0.00     0.219 HD
ENDBRANCH  37  38
BRANCH  37  40
HETATM   40  N2  UNL     1       5.035   0.327  -0.045  1.00  0.00    -0.369 N 
ATOM     41  H2  UNL     1       4.797   0.482   0.935  1.00  0.00     0.161 HD
BRANCH  40  42
HETATM   42  C24 UNL     1       6.156   1.070  -0.590  1.00  0.00     0.087 C 
HETATM   43  C25 UNL     1       7.398   0.545   0.103  1.00  0.00     0.051 C 
HETATM   44  C26 UNL     1       8.485   1.583   0.053  1.00  0.00     0.169 C 
HETATM   45  O5  UNL     1       8.116   2.806   0.582  1.00  0.00    -0.391 OA
HETATM   46  C27 UNL     1       6.756   2.906   0.873  1.00  0.00     0.169 C 
HETATM   47  C28 UNL     1       6.020   2.553  -0.417  1.00  0.00     0.051 C 
ENDBRANCH  40  42
ENDBRANCH  37  40
ENDBRANCH  12  37
TORSDOF 17
