REMARK  13 active torsions:
REMARK  status: ('A' for Active; 'I' for Inactive)
REMARK    1  A    between atoms: C1_4  and  N2_5 
REMARK    2  A    between atoms: C1_4  and  C7_16 
REMARK    3  A    between atoms: N2_5  and  C2_7 
REMARK    4  A    between atoms: N4_18  and  C9_19 
REMARK    5  A    between atoms: C9_19  and  C10_20 
REMARK    6  A    between atoms: C10_20  and  C11_21 
REMARK    7  A    between atoms: C11_21  and  C12_22 
REMARK    8  A    between atoms: C12_22  and  C13_23 
REMARK    9  A    between atoms: C13_23  and  C14_24 
REMARK   10  A    between atoms: C14_24  and  C15_25 
REMARK   11  A    between atoms: C15_25  and  N5_26 
REMARK   12  A    between atoms: N5_26  and  C16_27 
REMARK   13  A    between atoms: N5_26  and  C20_35 
ROOT
HETATM    1  C9  UNL     1       2.898  -0.582  -0.731  1.00  0.00     0.272 C 
ENDROOT
BRANCH   1   2
HETATM    2  N4  UNL     1       4.179  -0.976  -0.232  1.00  0.00     0.090 N 
HETATM    3  C8  UNL     1       4.600  -0.430   1.016  1.00  0.00     0.286 C 
HETATM    4  C7  UNL     1       5.325  -1.731   1.283  1.00  0.00     0.109 C 
HETATM    5  C25 UNL     1       4.308  -2.287   0.307  1.00  0.00     0.286 C 
BRANCH   4   6
HETATM    6  C1  UNL     1       6.708  -1.814   0.770  1.00  0.00     0.082 C 
HETATM    7  N1  UNL     1       6.968  -2.740  -0.085  1.00  0.00    -0.388 N 
ATOM      8  H12 UNL     1       7.923  -2.797  -0.439  1.00  0.00     0.157 HD
ATOM      9  H11 UNL     1       6.260  -3.399  -0.409  1.00  0.00     0.157 HD
BRANCH   6  10
HETATM   10  N2  UNL     1       7.693  -0.898   1.220  1.00  0.00    -0.345 N 
ATOM     11  H2  UNL     1       7.947  -0.897   2.208  1.00  0.00     0.167 HD
BRANCH  10  12
HETATM   12  C2  UNL     1       8.335   0.011   0.354  1.00  0.00     0.050 A 
HETATM   13  C3  UNL     1       8.063   0.111  -0.994  1.00  0.00     0.121 A 
HETATM   14  N3  UNL     1       8.719   1.007  -1.774  1.00  0.00    -0.330 N 
HETATM   15  C4  UNL     1       9.650   1.819  -1.252  1.00  0.00     0.267 A 
ATOM     16  H3  UNL     1       8.501   1.064  -2.769  1.00  0.00     0.168 HD
HETATM   17  O1  UNL     1      10.248   2.642  -1.986  1.00  0.00    -0.266 OA
HETATM   18  C5  UNL     1       9.970   1.771   0.085  1.00  0.00     0.104 A 
HETATM   19 CL1  UNL     1      11.168   2.798   0.816  1.00  0.00    -0.078 Cl
HETATM   20  C6  UNL     1       9.295   0.856   0.863  1.00  0.00     0.060 A 
ENDBRANCH  10  12
ENDBRANCH   6  10
ENDBRANCH   4   6
ENDBRANCH   1   2
BRANCH   1  21
HETATM   21  C10 UNL     1       1.737  -1.081   0.054  1.00  0.00     0.030 C 
BRANCH  21  22
HETATM   22  C11 UNL     1       0.474  -0.552  -0.640  1.00  0.00     0.002 C 
BRANCH  22  23
HETATM   23  C12 UNL     1      -0.714  -1.035   0.123  1.00  0.00     0.000 C 
BRANCH  23  24
HETATM   24  C13 UNL     1      -2.024  -0.604  -0.432  1.00  0.00     0.002 C 
BRANCH  24  25
HETATM   25  C14 UNL     1      -2.182   0.872  -0.480  1.00  0.00     0.020 C 
BRANCH  25  26
HETATM   26  C15 UNL     1      -3.466   1.383  -1.021  1.00  0.00     0.141 C 
BRANCH  26  27
HETATM   27  N5  UNL     1      -4.647   0.941  -0.274  1.00  0.00    -0.213 N 
BRANCH  27  28
HETATM   28  C16 UNL     1      -5.572   0.105  -0.921  1.00  0.00     0.672 C 
HETATM   29  N6  UNL     1      -6.873   0.207  -0.818  1.00  0.00    -0.226 N 
HETATM   30  C17 UNL     1      -7.689  -0.734  -1.550  1.00  0.00     0.139 C 
ATOM     31  H6  UNL     1      -7.298   0.930  -0.238  1.00  0.00     0.177 HD
HETATM   32  C18 UNL     1      -7.191  -2.154  -1.398  1.00  0.00     0.040 C 
HETATM   33  C19 UNL     1      -5.722  -2.273  -1.743  1.00  0.00     0.139 C 
HETATM   34  N7  UNL     1      -5.131  -0.951  -1.784  1.00  0.00    -0.226 N 
ATOM     35  H7  UNL     1      -4.378  -0.766  -2.447  1.00  0.00     0.177 HD
ENDBRANCH  27  28
BRANCH  27  36
HETATM   36  C20 UNL     1      -4.734   1.457   1.067  1.00  0.00     0.102 C 
HETATM   37  C21 UNL     1      -5.833   0.944   1.913  1.00  0.00     0.026 C 
HETATM   38  C22 UNL     1      -6.813   2.085   2.128  1.00  0.00     0.002 C 
HETATM   39  C23 UNL     1      -5.992   3.349   1.953  1.00  0.00     0.002 C 
HETATM   40  C24 UNL     1      -4.851   2.967   1.032  1.00  0.00     0.026 C 
ENDBRANCH  27  36
ENDBRANCH  26  27
ENDBRANCH  25  26
ENDBRANCH  24  25
ENDBRANCH  23  24
ENDBRANCH  22  23
ENDBRANCH  21  22
ENDBRANCH   1  21
TORSDOF 13
