REMARK  15 active torsions:
REMARK  status: ('A' for Active; 'I' for Inactive)
REMARK    1  A    between atoms: N1_1  and  S1_4 
REMARK    2  A    between atoms: S1_4  and  C1_7 
REMARK    3  A    between atoms: C1_7  and  C2_8 
REMARK    4  A    between atoms: C2_8  and  C3_9 
REMARK    5  A    between atoms: C3_9  and  C4_10 
REMARK    6  A    between atoms: C4_10  and  C5_11 
REMARK    7  A    between atoms: C5_11  and  C6_12 
REMARK    8  A    between atoms: C6_12  and  S2_13 
REMARK    9  A    between atoms: S2_13  and  C7_14 
REMARK       I    between atoms: C7_14  and  N2_16 
REMARK   10  A    between atoms: N2_16  and  C8_18 
REMARK   11  A    between atoms: C8_18  and  C9_19 
REMARK   12  A    between atoms: C9_19  and  C10_20 
REMARK   13  A    between atoms: C10_20  and  C11_21 
REMARK   14  A    between atoms: C11_21  and  C12_22 
REMARK   15  A    between atoms: C17_28  and  O4_29 
ROOT
HETATM    1  C8  UNL     1       0.805  -2.125   0.177  1.00  0.00     0.123 C 
ENDROOT
BRANCH   1   2
HETATM    2  N2  UNL     1      -0.363  -1.459  -0.387  1.00  0.00    -0.352 N 
HETATM    3  C7  UNL     1      -0.435  -1.077  -1.746  1.00  0.00     0.279 C 
HETATM    4  O3  UNL     1       0.481  -1.275  -2.582  1.00  0.00    -0.260 OA
ATOM      5  H2  UNL     1      -1.157  -1.261   0.222  1.00  0.00     0.163 HD
BRANCH   3   6
HETATM    6  S2  UNL     1      -1.912  -0.260  -2.337  1.00  0.00    -0.069 SA
BRANCH   6   7
HETATM    7  C6  UNL     1      -3.124  -0.056  -1.005  1.00  0.00     0.084 C 
BRANCH   7   8
HETATM    8  C5  UNL     1      -4.326   0.631  -1.574  1.00  0.00     0.010 C 
BRANCH   8   9
HETATM    9  C4  UNL     1      -5.412   0.862  -0.569  1.00  0.00     0.001 C 
BRANCH   9  10
HETATM   10  C3  UNL     1      -5.923  -0.431   0.038  1.00  0.00     0.001 C 
BRANCH  10  11
HETATM   11  C2  UNL     1      -6.997  -0.099   1.021  1.00  0.00     0.017 C 
BRANCH  11  12
HETATM   12  C1  UNL     1      -8.162   0.627   0.448  1.00  0.00     0.163 C 
BRANCH  12  13
HETATM   13  S1  UNL     1      -9.016  -0.237  -0.816  1.00  0.00     0.224 S 
HETATM   14  O1  UNL     1      -9.527  -1.541  -0.317  1.00  0.00    -0.206 OA
HETATM   15  O2  UNL     1      -8.158  -0.518  -2.032  1.00  0.00    -0.206 OA
BRANCH  13  16
HETATM   16  N1  UNL     1     -10.347   0.769  -1.343  1.00  0.00    -0.328 N 
ATOM     17  H12 UNL     1     -11.327   0.487  -1.307  1.00  0.00     0.168 HD
ATOM     18  H11 UNL     1      -9.996   1.664  -1.685  1.00  0.00     0.168 HD
ENDBRANCH  13  16
ENDBRANCH  12  13
ENDBRANCH  11  12
ENDBRANCH  10  11
ENDBRANCH   9  10
ENDBRANCH   8   9
ENDBRANCH   7   8
ENDBRANCH   6   7
ENDBRANCH   3   6
ENDBRANCH   1   2
BRANCH   1  19
HETATM   19  C9  UNL     1       2.066  -1.238   0.061  1.00  0.00     0.020 C 
BRANCH  19  20
HETATM   20  C10 UNL     1       1.871   0.044   0.777  1.00  0.00     0.002 C 
BRANCH  20  21
HETATM   21  C11 UNL     1       2.955   1.024   0.654  1.00  0.00     0.014 C 
BRANCH  21  22
HETATM   22  C12 UNL     1       4.313   0.669   1.140  1.00  0.00     0.082 C 
HETATM   23  C13 UNL     1       5.041  -0.437   0.508  1.00  0.00     0.055 C 
HETATM   24  C14 UNL     1       6.506  -0.200   0.285  1.00  0.00    -0.029 A 
HETATM   25  C15 UNL     1       7.226  -1.281  -0.190  1.00  0.00     0.036 A 
HETATM   26  C19 UNL     1       7.160   0.961   0.506  1.00  0.00     0.043 A 
HETATM   27  C16 UNL     1       8.590  -1.197  -0.440  1.00  0.00     0.067 A 
HETATM   28 CL1  UNL     1       9.497  -2.560  -1.038  1.00  0.00    -0.081 Cl
HETATM   29  C17 UNL     1       9.262  -0.019  -0.217  1.00  0.00     0.089 A 
HETATM   30  C18 UNL     1       8.529   1.042   0.254  1.00  0.00     0.068 A 
HETATM   31  N3  UNL     1       6.445   2.064   0.987  1.00  0.00    -0.326 N 
HETATM   32  C20 UNL     1       5.071   1.961   1.234  1.00  0.00     0.226 C 
ATOM     33  H3  UNL     1       6.927   2.946   1.158  1.00  0.00     0.169 HD
HETATM   34  O5  UNL     1       4.424   2.982   1.549  1.00  0.00    -0.273 OA
BRANCH  29  35
HETATM   35  O4  UNL     1      10.638   0.104  -0.457  1.00  0.00    -0.359 OA
ATOM     36  H4  UNL     1      11.102   0.918  -0.303  1.00  0.00     0.217 HD
ENDBRANCH  29  35
ENDBRANCH  21  22
ENDBRANCH  20  21
ENDBRANCH  19  20
ENDBRANCH   1  19
TORSDOF 15
