REMARK  13 active torsions:
REMARK  status: ('A' for Active; 'I' for Inactive)
REMARK    1  A    between atoms: C2_2  and  C3_3 
REMARK    2  A    between atoms: C3_3  and  C4_4 
REMARK    3  A    between atoms: C4_4  and  C5_5 
REMARK    4  A    between atoms: C7_10  and  C8_11 
REMARK    5  A    between atoms: C8_11  and  C9_12 
REMARK    6  A    between atoms: C9_12  and  N2_13 
REMARK       I    between atoms: N2_13  and  C10_15 
REMARK    7  A    between atoms: C10_15  and  C11_17 
REMARK    8  A    between atoms: C14_20  and  C15_21 
REMARK    9  A    between atoms: C15_21  and  N3_22 
REMARK   10  A    between atoms: N3_22  and  C16_25 
REMARK   11  A    between atoms: C16_25  and  C17_26 
REMARK   12  A    between atoms: C22_33  and  C23_34 
REMARK   13  A    between atoms: C23_34  and  O2_35 
ROOT
HETATM    1  C11 UNL     1      -0.981  -0.791   0.663  1.00  0.00     0.078 C 
HETATM    2  C12 UNL     1      -1.452  -2.217   0.765  1.00  0.00     0.014 C 
HETATM    3  C13 UNL     1      -2.684  -2.475  -0.062  1.00  0.00     0.007 C 
HETATM    4  C14 UNL     1      -3.723  -1.381   0.123  1.00  0.00     0.011 C 
HETATM    5  C24 UNL     1      -3.176  -0.044  -0.331  1.00  0.00     0.007 C 
HETATM    6  C25 UNL     1      -1.671  -0.065  -0.459  1.00  0.00     0.014 C 
ENDROOT
BRANCH   1   7
HETATM    7  C10 UNL     1       0.481  -0.771   0.409  1.00  0.00     0.221 C 
HETATM    8  N2  UNL     1       1.204   0.439   0.232  1.00  0.00    -0.361 N 
ATOM      9  H2  UNL     1       0.728   1.340   0.274  1.00  0.00     0.162 HD
HETATM   10  O1  UNL     1       1.089  -1.865   0.350  1.00  0.00    -0.273 OA
BRANCH   8  11
HETATM   11  C9  UNL     1       2.629   0.369  -0.009  1.00  0.00     0.125 C 
BRANCH  11  12
HETATM   12  C8  UNL     1       3.237   1.744  -0.183  1.00  0.00     0.055 C 
BRANCH  12  13
HETATM   13  C7  UNL     1       4.706   1.687  -0.427  1.00  0.00     0.211 C 
HETATM   14  N1  UNL     1       5.444   1.061   0.651  1.00  0.00    -0.066 N 
HETATM   15  C6  UNL     1       6.194  -0.041   0.097  1.00  0.00     0.264 C 
ATOM     16  H12 UNL     1       4.846   0.780   1.428  1.00  0.00     0.277 HD
ATOM     17  H11 UNL     1       6.031   1.720   1.162  1.00  0.00     0.277 HD
HETATM   18  C5  UNL     1       7.118   0.459  -0.971  1.00  0.00     0.147 C 
HETATM   19  O3  UNL     1       6.371   0.984  -2.027  1.00  0.00    -0.382 OA
HETATM   20  C26 UNL     1       5.015   1.064  -1.749  1.00  0.00     0.201 C 
BRANCH  18  21
HETATM   21  C4  UNL     1       8.036   1.526  -0.424  1.00  0.00     0.034 C 
BRANCH  21  22
HETATM   22  C3  UNL     1       8.883   1.018   0.709  1.00  0.00     0.002 C 
BRANCH  22  23
HETATM   23  C2  UNL     1       9.761  -0.148   0.273  1.00  0.00    -0.004 C 
HETATM   24  C1  UNL     1      10.577  -0.597   1.466  1.00  0.00     0.005 C 
ENDBRANCH  22  23
ENDBRANCH  21  22
ENDBRANCH  18  21
ENDBRANCH  12  13
ENDBRANCH  11  12
ENDBRANCH   8  11
ENDBRANCH   1   7
BRANCH   4  25
HETATM   25  C15 UNL     1      -4.868  -1.744  -0.777  1.00  0.00     0.237 C 
BRANCH  25  26
HETATM   26  N3  UNL     1      -5.988  -0.783  -0.712  1.00  0.00    -0.071 N 
ATOM     27  H32 UNL     1      -5.696   0.171  -0.926  1.00  0.00     0.277 HD
ATOM     28  H31 UNL     1      -6.650  -0.904  -1.479  1.00  0.00     0.277 HD
BRANCH  26  29
HETATM   29  C16 UNL     1      -6.607  -0.887   0.557  1.00  0.00     0.273 C 
BRANCH  29  30
HETATM   30  C17 UNL     1      -7.856  -0.178   0.807  1.00  0.00    -0.003 A 
HETATM   31  C18 UNL     1      -8.355  -0.303   2.115  1.00  0.00     0.044 A 
HETATM   32 CL1  UNL     1      -7.398  -1.205   3.260  1.00  0.00    -0.084 Cl
HETATM   33  C19 UNL     1      -9.542   0.275   2.431  1.00  0.00     0.048 A 
HETATM   34  C20 UNL     1     -10.243   0.976   1.467  1.00  0.00     0.036 A 
HETATM   35 CL2  UNL     1     -11.771   1.695   1.952  1.00  0.00    -0.084 Cl
HETATM   36  C21 UNL     1      -9.762   1.101   0.190  1.00  0.00     0.033 A 
HETATM   37  C22 UNL     1      -8.538   0.508  -0.144  1.00  0.00    -0.024 A 
BRANCH  37  38
HETATM   38  C23 UNL     1      -8.116   0.712  -1.539  1.00  0.00     0.203 C 
BRANCH  38  39
HETATM   39  O2  UNL     1      -9.109   1.443  -2.259  1.00  0.00    -0.396 OA
ATOM     40  H2  UNL     1      -8.837   1.575  -3.160  1.00  0.00     0.209 HD
ENDBRANCH  38  39
ENDBRANCH  37  38
ENDBRANCH  29  30
ENDBRANCH  26  29
ENDBRANCH  25  26
ENDBRANCH   4  25
TORSDOF 13
