REMARK  12 active torsions:
REMARK  status: ('A' for Active; 'I' for Inactive)
REMARK    1  A    between atoms: C2_2  and  C4_4 
REMARK    2  A    between atoms: C11_12  and  O2_13 
REMARK    3  A    between atoms: C13_16  and  C14_17 
REMARK    4  A    between atoms: C13_16  and  C24_29 
REMARK    5  A    between atoms: C14_17  and  C15_18 
REMARK    6  A    between atoms: C15_18  and  C16_19 
REMARK    7  A    between atoms: C16_19  and  C18_21 
REMARK    8  A    between atoms: C20_23  and  C22_25 
REMARK    9  A    between atoms: C22_25  and  O3_27 
REMARK   10  A    between atoms: C24_29  and  O4_30 
REMARK   11  A    between atoms: C24_29  and  C25_32 
REMARK   12  A    between atoms: C25_32  and  N1_33 
ROOT
HETATM    1  C4  UNL     1      -4.393  -1.781  -0.909  1.00  0.00     0.024 C 
HETATM    2  C5  UNL     1      -2.995  -2.056  -0.295  1.00  0.00     0.022 C 
HETATM    3  C6  UNL     1      -2.856  -1.011   0.704  1.00  0.00    -0.006 C 
HETATM    4  C7  UNL     1      -3.452  -1.515   2.017  1.00  0.00     0.019 C 
HETATM    5  C8  UNL     1      -3.755   0.151   0.256  1.00  0.00     0.140 C 
HETATM    6  O1  UNL     1      -2.893   1.204  -0.002  1.00  0.00    -0.370 OA
HETATM    7  C9  UNL     1      -1.980   1.091   1.078  1.00  0.00     0.096 C 
HETATM    8  C10 UNL     1      -2.619   1.560   2.299  1.00  0.00     0.050 C 
HETATM    9  C11 UNL     1      -0.685   1.875   0.747  1.00  0.00     0.182 C 
HETATM   10  C12 UNL     1      -0.278   1.170  -0.466  1.00  0.00    -0.039 C 
HETATM   11  C13 UNL     1       0.874   1.508  -1.275  1.00  0.00    -0.022 C 
HETATM   12  C27 UNL     1      -0.585  -0.281  -0.194  1.00  0.00     0.050 C 
HETATM   13  C28 UNL     1      -1.565  -0.324   0.939  1.00  0.00     0.003 C 
HETATM   14  C29 UNL     1      -0.818  -0.872   2.152  1.00  0.00     0.019 C 
HETATM   15  C30 UNL     1      -4.510  -0.340  -0.958  1.00  0.00    -0.013 C 
HETATM   16  C31 UNL     1      -3.795   0.144  -2.247  1.00  0.00     0.018 C 
HETATM   17  C32 UNL     1      -5.829   0.327  -0.992  1.00  0.00     0.018 C 
ENDROOT
BRANCH   9  18
HETATM   18  O2  UNL     1      -1.137   3.169   0.658  1.00  0.00    -0.388 OA
ATOM     19  H2  UNL     1      -0.343   3.650   0.455  1.00  0.00     0.210 HD
ENDBRANCH   9  18
BRANCH  11  20
HETATM   20  C14 UNL     1       2.241   1.597  -0.693  1.00  0.00     0.042 C 
BRANCH  20  21
HETATM   21  C15 UNL     1       2.762   0.335  -0.039  1.00  0.00     0.013 C 
BRANCH  21  22
HETATM   22  C16 UNL     1       4.144   0.405   0.439  1.00  0.00     0.011 C 
HETATM   23  C17 UNL     1       4.378   1.496   1.481  1.00  0.00     0.015 C 
BRANCH  22  24
HETATM   24  C18 UNL     1       4.739  -0.880   0.882  1.00  0.00    -0.075 C 
HETATM   25  C19 UNL     1       6.159  -0.595   1.318  1.00  0.00     0.044 C 
HETATM   26  C20 UNL     1       4.473  -2.115   0.210  1.00  0.00    -0.053 C 
HETATM   27  C21 UNL     1       3.071  -2.663   0.221  1.00  0.00     0.046 C 
BRANCH  26  28
HETATM   28  C22 UNL     1       5.388  -3.297   0.374  1.00  0.00     0.143 C 
HETATM   29  C23 UNL     1       6.791  -3.113  -0.078  1.00  0.00     0.044 C 
BRANCH  28  30
HETATM   30  O3  UNL     1       5.303  -3.842   1.668  1.00  0.00    -0.392 OA
ATOM     31  H3  UNL     1       5.881  -4.589   1.772  1.00  0.00     0.210 HD
ENDBRANCH  28  30
ENDBRANCH  26  28
ENDBRANCH  22  24
ENDBRANCH  21  22
ENDBRANCH  20  21
ENDBRANCH  11  20
BRANCH  11  32
HETATM   32  C24 UNL     1       0.659   2.479  -2.387  1.00  0.00     0.075 C 
BRANCH  32  33
HETATM   33  O4  UNL     1      -0.268   2.100  -3.325  1.00  0.00    -0.363 OA
ATOM     34  H4  UNL     1      -0.405   2.718  -4.033  1.00  0.00     0.217 HD
ENDBRANCH  32  33
BRANCH  32  35
HETATM   35  C25 UNL     1       0.687   3.939  -2.051  1.00  0.00     0.296 C 
BRANCH  35  36
HETATM   36  N1  UNL     1       1.043   4.715  -3.274  1.00  0.00    -0.073 N 
HETATM   37  C26 UNL     1       1.070   6.120  -2.952  1.00  0.00     0.267 C 
ATOM     38  H12 UNL     1       1.916   4.397  -3.694  1.00  0.00     0.277 HD
ATOM     39  H11 UNL     1       0.423   4.509  -4.058  1.00  0.00     0.277 HD
ENDBRANCH  35  36
ENDBRANCH  32  35
ENDBRANCH  11  32
BRANCH   1  40
HETATM   40  C2  UNL     1      -5.381  -2.640  -0.286  1.00  0.00    -0.088 C 
HETATM   41  C1  UNL     1      -6.490  -2.387   0.336  1.00  0.00     0.014 C 
HETATM   42  C3  UNL     1      -5.046  -4.133  -0.406  1.00  0.00     0.043 C 
ENDBRANCH   1  40
TORSDOF 12
