REMARK  7 active torsions:
REMARK  status: ('A' for Active; 'I' for Inactive)
REMARK    1  A    between atoms: O1_2  and  C2_3 
REMARK    2  A    between atoms: C3_4  and  O2_5 
REMARK    3  A    between atoms: C8_11  and  O3_12 
REMARK    4  A    between atoms: C11_16  and  C12_17 
REMARK    5  A    between atoms: C12_17  and  C13_18 
REMARK    6  A    between atoms: C13_18  and  N1_19 
REMARK    7  A    between atoms: C16_25  and  N2_26 
ROOT
HETATM    1  C2  UNL     1       2.659  -0.239  -0.686  1.00  0.00     0.136 A 
HETATM    2  C3  UNL     1       2.766   1.017  -0.084  1.00  0.00     0.110 A 
HETATM    3  C4  UNL     1       1.652   1.583   0.484  1.00  0.00     0.009 A 
HETATM    4  C5  UNL     1       1.781   2.929   1.125  1.00  0.00     0.054 C 
HETATM    5  C6  UNL     1       0.432   0.920   0.464  1.00  0.00     0.094 A 
HETATM    6  C7  UNL     1       0.279  -0.318  -0.118  1.00  0.00     0.023 A 
HETATM    7  C8  UNL     1       1.442  -0.852  -0.683  1.00  0.00     0.111 A 
HETATM    8  C9  UNL     1      -0.939  -0.975  -0.153  1.00  0.00     0.086 A 
HETATM    9  C10 UNL     1      -2.007  -0.202   0.527  1.00  0.00    -0.035 A 
HETATM   10  C11 UNL     1      -1.848   0.969   1.077  1.00  0.00     0.088 A 
HETATM   11  O4  UNL     1      -0.613   1.602   1.076  1.00  0.00    -0.309 OA
HETATM   12  C14 UNL     1      -3.261  -1.072   0.463  1.00  0.00     0.040 C 
HETATM   13  C15 UNL     1      -2.730  -2.465   0.177  1.00  0.00     0.038 C 
HETATM   14  C16 UNL     1      -1.275  -2.278   0.423  1.00  0.00     0.196 C 
ENDROOT
BRANCH  10  15
HETATM   15  C12 UNL     1      -3.023   1.575   1.695  1.00  0.00     0.111 C 
BRANCH  15  16
HETATM   16  C13 UNL     1      -3.624   2.569   1.084  1.00  0.00    -0.046 C 
BRANCH  16  17
HETATM   17  N1  UNL     1      -4.038   3.731   0.735  1.00  0.00    -0.366 N 
ATOM     18  H12 UNL     1      -3.517   4.215   1.467  1.00  0.00     0.165 HD
ATOM     19  H11 UNL     1      -4.505   4.504   0.260  1.00  0.00     0.165 HD
ENDBRANCH  16  17
ENDBRANCH  15  16
ENDBRANCH  10  15
BRANCH  14  20
HETATM   20  N2  UNL     1      -0.787  -2.612   1.701  1.00  0.00    -0.074 N 
ATOM     21  H23 UNL     1       0.227  -2.506   1.701  1.00  0.00     0.274 HD
ATOM     22  H22 UNL     1      -1.065  -1.883   2.358  1.00  0.00     0.274 HD
ATOM     23  H21 UNL     1      -1.021  -3.520   2.102  1.00  0.00     0.274 HD
ENDBRANCH  14  20
BRANCH   7  24
HETATM   24  O3  UNL     1       1.282  -2.080  -1.257  1.00  0.00    -0.357 OA
ATOM     25  H3  UNL     1       0.434  -2.507  -1.255  1.00  0.00     0.217 HD
ENDBRANCH   7  24
BRANCH   2  26
HETATM   26  O2  UNL     1       4.016   1.631  -0.097  1.00  0.00    -0.357 OA
ATOM     27  H2  UNL     1       4.089   2.485   0.312  1.00  0.00     0.217 HD
ENDBRANCH   2  26
BRANCH   1  28
HETATM   28  O1  UNL     1       3.779  -0.819  -1.264  1.00  0.00    -0.351 OA
HETATM   29  C1  UNL     1       4.160  -0.646  -2.599  1.00  0.00     0.210 C 
ENDBRANCH   1  28
TORSDOF 7
