REMARK  2 active torsions:
REMARK  status: ('A' for Active; 'I' for Inactive)
REMARK    1  A    between atoms: C1_2  and  C2_4 
REMARK    2  A    between atoms: C3_5  and  O3_6 
ROOT
HETATM    1  C2  UNL     1      -1.051   0.233   0.104  1.00  0.00     0.112 A 
HETATM    2  C3  UNL     1      -1.152  -1.085  -0.275  1.00  0.00     0.160 A 
HETATM    3  N1  UNL     1       0.075  -1.538  -0.558  1.00  0.00    -0.321 N 
ATOM      4  H1  UNL     1       0.277  -2.490  -0.865  1.00  0.00     0.169 HD
HETATM    5  C4  UNL     1       1.025  -0.571  -0.386  1.00  0.00     0.127 A 
HETATM    6  N2  UNL     1       2.319  -0.447  -0.505  1.00  0.00    -0.326 N 
ATOM      7  H2  UNL     1       2.893  -1.234  -0.808  1.00  0.00     0.169 HD
HETATM    8  C5  UNL     1       2.875   0.733  -0.222  1.00  0.00     0.145 A 
HETATM    9  S1  UNL     1       4.479   1.144  -0.294  1.00  0.00    -0.052 SA
HETATM   10  S2  UNL     1       1.534   1.691   0.225  1.00  0.00    -0.056 SA
HETATM   11  C6  UNL     1       0.312   0.520   0.025  1.00  0.00     0.073 A 
ENDROOT
BRANCH   1  12
HETATM   12  C1  UNL     1      -2.102   1.151   0.504  1.00  0.00     0.215 C 
HETATM   13  O1  UNL     1      -3.293   0.691   0.511  1.00  0.00    -0.644 OA
HETATM   14  O2  UNL     1      -1.879   2.460   0.865  1.00  0.00    -0.644 OA
ENDBRANCH   1  12
BRANCH   2  15
HETATM   15  O3  UNL     1      -2.357  -1.815  -0.346  1.00  0.00    -0.345 OA
ATOM     16  H3  UNL     1      -2.427  -2.726  -0.608  1.00  0.00     0.219 HD
ENDBRANCH   2  15
TORSDOF 2
