REMARK  8 active torsions:
REMARK  status: ('A' for Active; 'I' for Inactive)
REMARK    1  A    between atoms: C2_2  and  C3_3 
REMARK    2  A    between atoms: C3_3  and  N1_4 
REMARK    3  A    between atoms: C3_3  and  C4_8 
REMARK    4  A    between atoms: C7_11  and  C8_12 
REMARK    5  A    between atoms: C8_12  and  C9_13 
REMARK    6  A    between atoms: C11_18  and  C12_19 
REMARK    7  A    between atoms: C12_19  and  C13_20 
REMARK    8  A    between atoms: C17_24  and  O2_25 
ROOT
HETATM    1  C9  UNL     1       0.550  -1.654   0.154  1.00  0.00     0.046 A 
HETATM    2  C10 UNL     1      -0.142  -0.522  -0.262  1.00  0.00     0.257 A 
HETATM    3  O1  UNL     1       0.478   0.550  -0.530  1.00  0.00    -0.267 OA
HETATM    4  N2  UNL     1      -1.489  -0.538  -0.390  1.00  0.00    -0.322 N 
ATOM      5  H2  UNL     1      -1.964   0.311  -0.697  1.00  0.00     0.169 HD
HETATM    6  C11 UNL     1      -2.232  -1.644  -0.124  1.00  0.00     0.047 A 
HETATM    7  C20 UNL     1      -1.572  -2.754   0.283  1.00  0.00     0.005 A 
HETATM    8  C21 UNL     1      -2.259  -3.915   0.572  1.00  0.00     0.056 A 
HETATM    9  C22 UNL     1      -1.647  -5.084   0.991  1.00  0.00     0.117 A 
HETATM   10  F1  UNL     1      -2.427  -6.163   1.246  1.00  0.00    -0.206 F 
HETATM   11  C23 UNL     1      -0.291  -5.095   1.129  1.00  0.00     0.043 A 
HETATM   12  C24 UNL     1       0.463  -3.950   0.851  1.00  0.00     0.016 A 
HETATM   13  C25 UNL     1      -0.177  -2.807   0.437  1.00  0.00    -0.008 A 
ENDROOT
BRANCH   1  14
HETATM   14  C8  UNL     1       1.842  -1.621   0.272  1.00  0.00     0.055 C 
BRANCH  14  15
HETATM   15  C7  UNL     1       2.705  -0.469   0.003  1.00  0.00     0.076 A 
HETATM   16  C6  UNL     1       3.346  -0.221  -1.212  1.00  0.00     0.040 A 
HETATM   17  C5  UNL     1       4.059   0.936  -1.068  1.00  0.00     0.038 A 
HETATM   18  C4  UNL     1       3.833   1.357   0.224  1.00  0.00     0.084 A 
HETATM   19  O3  UNL     1       3.034   0.503   0.811  1.00  0.00    -0.313 OA
BRANCH  18  20
HETATM   20  C3  UNL     1       4.396   2.570   0.847  1.00  0.00     0.240 C 
BRANCH  20  21
HETATM   21  C2  UNL     1       5.829   2.295   1.218  1.00  0.00     0.035 C 
HETATM   22  C1  UNL     1       6.699   1.946   0.055  1.00  0.00     0.007 C 
ENDBRANCH  20  21
BRANCH  20  23
HETATM   23  N1  UNL     1       4.276   3.678  -0.079  1.00  0.00    -0.069 N 
ATOM     24  H13 UNL     1       4.731   4.515   0.285  1.00  0.00     0.275 HD
ATOM     25  H12 UNL     1       4.851   3.530  -0.909  1.00  0.00     0.275 HD
ATOM     26  H11 UNL     1       3.305   3.864  -0.330  1.00  0.00     0.275 HD
ENDBRANCH  20  23
ENDBRANCH  18  20
ENDBRANCH  14  15
ENDBRANCH   1  14
BRANCH   6  27
HETATM   27  C12 UNL     1      -3.536  -1.561  -0.278  1.00  0.00     0.042 C 
BRANCH  27  28
HETATM   28  C13 UNL     1      -4.166  -0.305  -0.727  1.00  0.00    -0.031 A 
HETATM   29  C14 UNL     1      -4.372   0.014  -2.035  1.00  0.00     0.011 A 
HETATM   30  C15 UNL     1      -4.970   1.216  -2.355  1.00  0.00     0.004 A 
HETATM   31  C16 UNL     1      -5.361   2.097  -1.350  1.00  0.00     0.037 A 
HETATM   32  C17 UNL     1      -5.157   1.785  -0.026  1.00  0.00     0.069 A 
HETATM   33  C19 UNL     1      -4.559   0.581   0.261  1.00  0.00     0.048 A 
BRANCH  32  34
HETATM   34  O2  UNL     1      -5.536   2.642   0.996  1.00  0.00    -0.356 OA
HETATM   35  C18 UNL     1      -5.304   2.274   2.344  1.00  0.00     0.210 C 
ENDBRANCH  32  34
ENDBRANCH  27  28
ENDBRANCH   6  27
TORSDOF 8
