REMARK  11 active torsions:
REMARK  status: ('A' for Active; 'I' for Inactive)
REMARK    1  A    between atoms: O1_2  and  C2_3 
REMARK    2  A    between atoms: C3_6  and  N2_7 
REMARK    3  A    between atoms: N3_10  and  C6_11 
REMARK    4  A    between atoms: C8_13  and  N4_14 
REMARK    5  A    between atoms: N4_14  and  C9_16 
REMARK    6  A    between atoms: C9_16  and  C10_17 
REMARK    7  A    between atoms: C10_17  and  O2_19 
REMARK    8  A    between atoms: C12_23  and  N6_24 
REMARK    9  A    between atoms: C14_26  and  N7_27 
REMARK   10  A    between atoms: C16_32  and  N8_33 
REMARK   11  A    between atoms: C19_43  and  N11_44 
ROOT
HETATM    1  C6  UNL     1      -0.068   0.748   0.572  1.00  0.00     0.124 A 
HETATM    2  C7  UNL     1      -0.483   1.993   0.100  1.00  0.00     0.097 A 
HETATM    3  C8  UNL     1      -1.620   2.092  -0.672  1.00  0.00     0.120 A 
HETATM    4  N5  UNL     1      -2.273   0.944  -0.926  1.00  0.00    -0.177 N 
ATOM      5  H5  UNL     1      -3.118   0.991  -1.495  1.00  0.00     0.185 HD
HETATM    6  C12 UNL     1      -1.880  -0.267  -0.475  1.00  0.00     0.683 A 
HETATM    7  N9  UNL     1      -0.767  -0.343   0.278  1.00  0.00    -0.177 N 
ATOM      8  H9  UNL     1      -0.456  -1.250   0.627  1.00  0.00     0.186 HD
ENDROOT
BRANCH   1   9
HETATM    9  N3  UNL     1       1.104   0.649   1.386  1.00  0.00    -0.348 N 
HETATM   10  C5  UNL     1       1.146   0.530   2.810  1.00  0.00     0.146 C 
HETATM   11  C4  UNL     1       2.559   0.135   3.122  1.00  0.00     0.163 C 
HETATM   12  N2  UNL     1       3.242  -0.005   1.870  1.00  0.00    -0.199 N 
HETATM   13  C18 UNL     1       2.440   0.673   0.873  1.00  0.00     0.269 C 
BRANCH  12  14
HETATM   14  C3  UNL     1       4.451  -0.669   1.621  1.00  0.00     0.699 A 
HETATM   15  N1  UNL     1       5.070  -0.678   0.433  1.00  0.00    -0.154 N 
HETATM   16  C2  UNL     1       6.218  -1.313   0.180  1.00  0.00     0.252 A 
ATOM     17  H1  UNL     1       4.634  -0.164  -0.332  1.00  0.00     0.188 HD
HETATM   18  N12 UNL     1       6.818  -1.998   1.158  1.00  0.00    -0.154 N 
HETATM   19  C19 UNL     1       6.239  -2.026   2.383  1.00  0.00     0.693 A 
ATOM     20  H12 UNL     1       7.695  -2.490   0.986  1.00  0.00     0.188 HD
HETATM   21  N10 UNL     1       5.083  -1.374   2.604  1.00  0.00    -0.022 N 
ATOM     22  H10 UNL     1       4.666  -1.408   3.534  1.00  0.00     0.203 HD
BRANCH  16  23
HETATM   23  O1  UNL     1       6.846  -1.307  -1.068  1.00  0.00    -0.326 OA
HETATM   24  C1  UNL     1       6.196  -0.572  -2.109  1.00  0.00     0.213 C 
ENDBRANCH  16  23
BRANCH  19  25
HETATM   25  N11 UNL     1       6.798  -2.676   3.351  1.00  0.00    -0.234 N 
ATOM     26 2H11 UNL     1       6.362  -2.697   4.273  1.00  0.00     0.174 HD
ATOM     27 1H11 UNL     1       7.674  -3.170   3.183  1.00  0.00     0.174 HD
ENDBRANCH  19  25
ENDBRANCH  12  14
ENDBRANCH   1   9
BRANCH   3  28
HETATM   28  N4  UNL     1      -1.981   3.229  -1.097  1.00  0.00    -0.373 N 
ATOM     29  H4  UNL     1      -2.826   3.277  -1.666  1.00  0.00     0.161 HD
BRANCH  28  30
HETATM   30  C9  UNL     1      -1.289   4.445  -0.836  1.00  0.00     0.152 C 
BRANCH  30  31
HETATM   31  C10 UNL     1      -2.187   5.645  -1.053  1.00  0.00     0.132 C 
HETATM   32  C11 UNL     1      -2.602   5.657  -2.515  1.00  0.00     0.041 C 
BRANCH  31  33
HETATM   33  O2  UNL     1      -3.298   5.617  -0.214  1.00  0.00    -0.394 OA
ATOM     34  H2  UNL     1      -3.861   6.370  -0.350  1.00  0.00     0.210 HD
ENDBRANCH  31  33
ENDBRANCH  30  31
ENDBRANCH  28  30
ENDBRANCH   3  28
BRANCH   6  35
HETATM   35  N6  UNL     1      -2.605  -1.432  -0.768  1.00  0.00    -0.214 N 
HETATM   36  C13 UNL     1      -3.817  -1.357  -1.593  1.00  0.00     0.174 C 
HETATM   37  C14 UNL     1      -4.907  -2.008  -0.734  1.00  0.00     0.204 C 
HETATM   38  C15 UNL     1      -4.597  -3.473  -0.535  1.00  0.00     0.069 C 
HETATM   39  C16 UNL     1      -3.152  -3.816  -0.687  1.00  0.00     0.204 C 
HETATM   40  C17 UNL     1      -2.207  -2.716  -0.282  1.00  0.00     0.174 C 
BRANCH  37  41
HETATM   41  N7  UNL     1      -4.799  -1.379   0.587  1.00  0.00    -0.073 N 
ATOM     42  H73 UNL     1      -3.866  -1.441   0.994  1.00  0.00     0.274 HD
ATOM     43  H72 UNL     1      -4.853  -0.361   0.561  1.00  0.00     0.274 HD
ATOM     44  H71 UNL     1      -5.524  -1.812   1.159  1.00  0.00     0.274 HD
ENDBRANCH  37  41
BRANCH  39  45
HETATM   45  N8  UNL     1      -2.797  -4.249  -2.030  1.00  0.00    -0.073 N 
ATOM     46  H83 UNL     1      -3.386  -5.027  -2.326  1.00  0.00     0.274 HD
ATOM     47  H82 UNL     1      -3.077  -3.552  -2.720  1.00  0.00     0.274 HD
ATOM     48  H81 UNL     1      -1.810  -4.483  -2.134  1.00  0.00     0.274 HD
ENDBRANCH  39  45
ENDBRANCH   6  35
TORSDOF 11
