REMARK  13 active torsions:
REMARK  status: ('A' for Active; 'I' for Inactive)
REMARK    1  A    between atoms: C3_9  and  C4_10 
REMARK       I    between atoms: C4_10  and  N3_12 
REMARK    2  A    between atoms: N3_12  and  N4_14 
REMARK    3  A    between atoms: N6_19  and  C5_20 
REMARK    4  A    between atoms: C5_20  and  O3_21 
REMARK    5  A    between atoms: C5_20  and  C6_23 
REMARK    6  A    between atoms: C6_23  and  C7_24 
REMARK    7  A    between atoms: C6_23  and  N7_27 
REMARK    8  A    between atoms: C7_24  and  O4_25 
REMARK       I    between atoms: N7_27  and  C8_29 
REMARK    9  A    between atoms: C8_29  and  C9_31 
REMARK   10  A    between atoms: C13_35  and  N8_36 
REMARK   11  A    between atoms: N8_36  and  S1_38 
REMARK   12  A    between atoms: S1_38  and  C14_41 
REMARK   13  A    between atoms: C17_44  and  O8_45 
ROOT
HETATM    1  C6  UNL     1       2.439   1.194   1.895  1.00  0.00     0.185 C 
ENDROOT
BRANCH   1   2
HETATM    2  C5  UNL     1       3.458   1.055   0.864  1.00  0.00     0.180 C 
BRANCH   2   3
HETATM    3  N6  UNL     1       4.838   0.781   0.941  1.00  0.00    -0.065 N 
HETATM    4  C1  UNL     1       5.450   0.473   2.076  1.00  0.00     0.702 A 
HETATM    5  N1  UNL     1       4.829   0.303   3.200  1.00  0.00    -0.233 N 
HETATM    6  N2  UNL     1       6.803   0.280   2.060  1.00  0.00    -0.152 N 
ATOM      7  H12 UNL     1       5.300   0.066   4.073  1.00  0.00     0.174 HD
ATOM      8  H11 UNL     1       3.819   0.447   3.212  1.00  0.00     0.174 HD
HETATM    9  C2  UNL     1       7.512   0.395   0.935  1.00  0.00     0.293 A 
ATOM     10  H2  UNL     1       7.282   0.042   2.928  1.00  0.00     0.187 HD
HETATM   11  O1  UNL     1       8.760   0.217   0.926  1.00  0.00    -0.265 OA
HETATM   12  C3  UNL     1       6.879   0.713  -0.244  1.00  0.00     0.187 A 
HETATM   13  N5  UNL     1       5.563   0.894  -0.193  1.00  0.00    -0.268 N 
ATOM     14  H5  UNL     1       5.075   1.131  -1.057  1.00  0.00     0.188 HD
BRANCH  12  15
HETATM   15  C4  UNL     1       7.648   0.844  -1.480  1.00  0.00     0.293 C 
HETATM   16  O2  UNL     1       8.902   0.707  -1.423  1.00  0.00    -0.264 OA
HETATM   17  N3  UNL     1       7.050   1.113  -2.728  1.00  0.00    -0.271 N 
ATOM     18  H3  UNL     1       6.036   1.222  -2.763  1.00  0.00     0.189 HD
BRANCH  17  19
HETATM   19  N4  UNL     1       7.767   1.238  -3.915  1.00  0.00    -0.342 N 
ATOM     20  H42 UNL     1       8.779   1.126  -3.861  1.00  0.00     0.176 HD
ATOM     21  H41 UNL     1       7.334   1.433  -4.818  1.00  0.00     0.176 HD
ENDBRANCH  17  19
ENDBRANCH  12  15
ENDBRANCH   2   3
BRANCH   2  22
HETATM   22  O3  UNL     1       3.035   1.209  -0.368  1.00  0.00    -0.346 OA
ATOM     23  H3  UNL     1       2.105   1.394  -0.420  1.00  0.00     0.219 HD
ENDBRANCH   2  22
ENDBRANCH   1   2
BRANCH   1  24
HETATM   24  C7  UNL     1       2.475   2.585   2.561  1.00  0.00     0.197 C 
BRANCH  24  25
HETATM   25  O4  UNL     1       2.276   3.564   1.572  1.00  0.00    -0.398 OA
ATOM     26  H4  UNL     1       2.298   4.421   1.982  1.00  0.00     0.209 HD
ENDBRANCH  24  25
ENDBRANCH   1  24
BRANCH   1  27
HETATM   27  N7  UNL     1       1.088   1.102   1.272  1.00  0.00    -0.343 N 
HETATM   28  C8  UNL     1       0.201   0.038   1.538  1.00  0.00     0.252 C 
HETATM   29  O5  UNL     1       0.537  -0.866   2.314  1.00  0.00    -0.268 OA
ATOM     30  H7  UNL     1       0.794   1.837   0.629  1.00  0.00     0.163 HD
BRANCH  28  31
HETATM   31  C9  UNL     1      -1.130  -0.012   0.899  1.00  0.00     0.034 A 
HETATM   32  C10 UNL     1      -1.743   1.136   0.448  1.00  0.00     0.017 A 
HETATM   33  C11 UNL     1      -2.971   1.073  -0.155  1.00  0.00     0.003 A 
HETATM   34  C12 UNL     1      -3.623  -0.156  -0.323  1.00  0.00     0.030 A 
HETATM   35  C13 UNL     1      -3.036  -1.318   0.117  1.00  0.00     0.043 A 
HETATM   36  C20 UNL     1      -1.783  -1.213   0.728  1.00  0.00     0.047 A 
BRANCH  35  37
HETATM   37  N8  UNL     1      -3.571  -2.600  -0.017  1.00  0.00    -0.281 N 
ATOM     38  H8  UNL     1      -2.942  -3.293  -0.423  1.00  0.00     0.179 HD
BRANCH  37  39
HETATM   39  S1  UNL     1      -5.108  -3.176   0.394  1.00  0.00     0.263 S 
HETATM   40  O6  UNL     1      -5.303  -2.931   1.892  1.00  0.00    -0.200 OA
HETATM   41  O7  UNL     1      -5.143  -4.698   0.271  1.00  0.00    -0.200 OA
BRANCH  39  42
HETATM   42  C14 UNL     1      -6.439  -2.448  -0.415  1.00  0.00     0.080 A 
HETATM   43  C15 UNL     1      -7.173  -1.469   0.224  1.00  0.00     0.028 A 
HETATM   44  C16 UNL     1      -8.243  -0.864  -0.395  1.00  0.00     0.038 A 
HETATM   45  C17 UNL     1      -8.642  -1.202  -1.686  1.00  0.00     0.065 A 
HETATM   46  C18 UNL     1      -7.905  -2.177  -2.312  1.00  0.00     0.038 A 
HETATM   47  C19 UNL     1      -6.834  -2.788  -1.704  1.00  0.00     0.028 A 
BRANCH  45  48
HETATM   48  O8  UNL     1      -9.729  -0.559  -2.260  1.00  0.00    -0.361 OA
ATOM     49  H8  UNL     1     -10.001  -0.790  -3.141  1.00  0.00     0.217 HD
ENDBRANCH  45  48
ENDBRANCH  39  42
ENDBRANCH  37  39
ENDBRANCH  35  37
ENDBRANCH  28  31
ENDBRANCH   1  27
TORSDOF 13
