REMARK  13 active torsions:
REMARK  status: ('A' for Active; 'I' for Inactive)
REMARK    1  A    between atoms: C2_2  and  C4_4 
REMARK    2  A    between atoms: C4_4  and  C5_5 
REMARK    3  A    between atoms: C6_6  and  C7_7 
REMARK    4  A    between atoms: C9_12  and  C10_13 
REMARK    5  A    between atoms: C10_13  and  C11_14 
REMARK    6  A    between atoms: C15_21  and  C16_22 
REMARK    7  A    between atoms: C16_22  and  C17_23 
REMARK    8  A    between atoms: C21_30  and  C22_31 
REMARK    9  A    between atoms: C26_38  and  C27_39 
REMARK   10  A    between atoms: C27_39  and  C28_40 
REMARK   11  A    between atoms: C31_43  and  O5_44 
REMARK   12  A    between atoms: C32_48  and  C33_49 
REMARK   13  A    between atoms: C33_49  and  C34_50 
ROOT
HETATM    1  C7  UNL     1       2.173  -0.852  -0.038  1.00  0.00     0.172 C 
HETATM    2  C8  UNL     1       2.139  -1.030  -1.487  1.00  0.00     0.233 C 
HETATM    3  O1  UNL     1       3.124  -0.552  -2.145  1.00  0.00    -0.272 OA
HETATM    4  N1  UNL     1       1.162  -1.668  -2.271  1.00  0.00    -0.347 N 
ATOM      5  H1  UNL     1       1.066  -1.337  -3.231  1.00  0.00     0.163 HD
HETATM    6  C9  UNL     1       0.280  -2.736  -1.873  1.00  0.00     0.177 C 
HETATM    7  C14 UNL     1      -1.113  -2.221  -2.013  1.00  0.00     0.241 C 
HETATM    8  O2  UNL     1      -1.606  -2.488  -3.183  1.00  0.00    -0.271 OA
HETATM    9  N2  UNL     1      -1.906  -1.537  -1.127  1.00  0.00    -0.346 N 
ATOM     10  H2  UNL     1      -2.119  -0.585  -1.424  1.00  0.00     0.163 HD
HETATM   11  C15 UNL     1      -2.507  -1.893   0.153  1.00  0.00     0.177 C 
HETATM   12  C20 UNL     1      -3.994  -1.619   0.038  1.00  0.00     0.241 C 
HETATM   13  O3  UNL     1      -4.759  -2.588   0.271  1.00  0.00    -0.271 OA
HETATM   14  N3  UNL     1      -4.578  -0.411  -0.301  1.00  0.00    -0.346 N 
ATOM     15  H3  UNL     1      -5.331  -0.501  -0.983  1.00  0.00     0.163 HD
HETATM   16  C21 UNL     1      -4.341   0.941   0.111  1.00  0.00     0.180 C 
HETATM   17  C25 UNL     1      -3.222   1.227   0.969  1.00  0.00     0.241 C 
HETATM   18  O4  UNL     1      -3.313   0.995   2.226  1.00  0.00    -0.271 OA
HETATM   19  N4  UNL     1      -1.941   1.771   0.577  1.00  0.00    -0.347 N 
ATOM     20  H4  UNL     1      -1.108   1.442   1.065  1.00  0.00     0.163 HD
HETATM   21  C26 UNL     1      -1.775   2.755  -0.468  1.00  0.00     0.159 C 
HETATM   22  C31 UNL     1      -0.552   2.601  -1.272  1.00  0.00     0.135 C 
HETATM   23  N5  UNL     1       0.627   1.886  -1.064  1.00  0.00    -0.361 N 
ATOM     24  H5  UNL     1       0.916   1.349  -1.882  1.00  0.00     0.162 HD
HETATM   25  C32 UNL     1       1.517   1.740   0.038  1.00  0.00     0.162 C 
HETATM   26  C35 UNL     1       1.703   0.374   0.556  1.00  0.00     0.166 C 
HETATM   27  O7  UNL     1       1.383   0.252   1.779  1.00  0.00    -0.294 OA
ENDROOT
BRANCH   1  28
HETATM   28  C6  UNL     1       3.488  -1.262   0.538  1.00  0.00    -0.009 C 
HETATM   29  C5  UNL     1       4.104  -0.592   1.440  1.00  0.00    -0.029 C 
BRANCH  29  30
HETATM   30  C4  UNL     1       5.432  -1.093   1.958  1.00  0.00     0.030 C 
BRANCH  30  31
HETATM   31  C2  UNL     1       6.501  -0.053   1.690  1.00  0.00    -0.019 C 
HETATM   32  C1  UNL     1       6.659   0.246   0.234  1.00  0.00     0.010 C 
HETATM   33  C3  UNL     1       7.802  -0.540   2.251  1.00  0.00     0.010 C 
ENDBRANCH  30  31
ENDBRANCH  29  30
ENDBRANCH   1  28
BRANCH  25  34
HETATM   34  C33 UNL     1       2.818   2.446  -0.239  1.00  0.00     0.132 C 
BRANCH  34  35
HETATM   35  C34 UNL     1       2.695   3.899  -0.436  1.00  0.00     0.233 C 
HETATM   36  N6  UNL     1       3.856   4.639  -0.825  1.00  0.00    -0.062 NA
HETATM   37  O6  UNL     1       1.648   4.538  -0.287  1.00  0.00    -0.277 OA
ENDBRANCH  34  35
ENDBRANCH  25  34
BRANCH   6  38
HETATM   38  C10 UNL     1       0.363  -3.990  -2.672  1.00  0.00     0.038 C 
BRANCH  38  39
HETATM   39  C11 UNL     1       1.627  -4.732  -2.729  1.00  0.00    -0.020 C 
HETATM   40  C12 UNL     1       2.783  -3.972  -3.317  1.00  0.00     0.009 C 
HETATM   41  C13 UNL     1       2.013  -5.404  -1.426  1.00  0.00     0.009 C 
ENDBRANCH  38  39
ENDBRANCH   6  38
BRANCH  22  42
HETATM   42  O5  UNL     1      -0.607   3.275  -2.395  1.00  0.00    -0.348 OA
ATOM     43  H5  UNL     1       0.182   3.176  -2.914  1.00  0.00     0.219 HD
ENDBRANCH  22  42
BRANCH  21  44
HETATM   44  C27 UNL     1      -1.912   4.111   0.202  1.00  0.00     0.037 C 
BRANCH  44  45
HETATM   45  C28 UNL     1      -1.833   5.280  -0.717  1.00  0.00    -0.020 C 
HETATM   46  C29 UNL     1      -1.971   6.522   0.200  1.00  0.00     0.009 C 
HETATM   47  C30 UNL     1      -3.035   5.376  -1.640  1.00  0.00     0.009 C 
ENDBRANCH  44  45
ENDBRANCH  21  44
BRANCH  11  48
HETATM   48  C16 UNL     1      -2.201  -3.275   0.601  1.00  0.00     0.038 C 
BRANCH  48  49
HETATM   49  C17 UNL     1      -2.768  -3.659   1.913  1.00  0.00    -0.020 C 
HETATM   50  C18 UNL     1      -2.250  -2.738   3.033  1.00  0.00     0.009 C 
HETATM   51  C19 UNL     1      -2.120  -5.024   2.266  1.00  0.00     0.009 C 
ENDBRANCH  48  49
ENDBRANCH  11  48
BRANCH  16  52
HETATM   52  C22 UNL     1      -5.675   1.424   0.692  1.00  0.00     0.009 C 
HETATM   53  C23 UNL     1      -6.138   0.621   1.857  1.00  0.00     0.012 C 
HETATM   54  C24 UNL     1      -5.719   2.884   0.963  1.00  0.00     0.012 C 
ENDBRANCH  16  52
TORSDOF 13
