REMARK  6 active torsions:
REMARK  status: ('A' for Active; 'I' for Inactive)
REMARK    1  A    between atoms: O1_2  and  C2_3 
REMARK    2  A    between atoms: C2_3  and  C3_4 
REMARK    3  A    between atoms: C3_4  and  N1_6 
REMARK    4  A    between atoms: N1_6  and  C5_8 
REMARK    5  A    between atoms: C5_8  and  C7_10 
REMARK    6  A    between atoms: C7_10  and  C8_11 
ROOT
HETATM    1  N1  UNL     1       0.679  -0.672  -1.374  1.00  0.00    -0.412 N 
ATOM      2  H1  UNL     1       0.791  -1.230  -2.221  1.00  0.00     0.154 HD
ENDROOT
BRANCH   1   3
HETATM    3  C3  UNL     1       1.658   0.258  -1.083  1.00  0.00     0.096 C 
HETATM    4  C4  UNL     1       2.681   0.280  -2.242  1.00  0.00     0.034 C 
BRANCH   3   5
HETATM    5  C2  UNL     1       2.479   0.091   0.159  1.00  0.00     0.191 C 
BRANCH   5   6
HETATM    6  O1  UNL     1       3.451   1.128   0.242  1.00  0.00    -0.394 OA
HETATM    7  C1  UNL     1       4.212   0.965   1.402  1.00  0.00     0.201 C 
ENDBRANCH   5   6
ENDBRANCH   3   5
ENDBRANCH   1   3
BRANCH   1   8
HETATM    8  C5  UNL     1      -0.470  -0.905  -0.578  1.00  0.00     0.073 C 
HETATM    9  C6  UNL     1      -0.125  -1.446   0.731  1.00  0.00     0.032 C 
BRANCH   8  10
HETATM   10  C7  UNL     1      -1.342   0.283  -0.677  1.00  0.00     0.029 C 
BRANCH  10  11
HETATM   11  C8  UNL     1      -2.604   0.451  -0.041  1.00  0.00    -0.013 C 
HETATM   12  C9  UNL     1      -2.748   0.402   1.468  1.00  0.00     0.005 C 
HETATM   13  C10 UNL     1      -4.258   0.327   1.131  1.00  0.00     0.001 C 
HETATM   14  C11 UNL     1      -3.736  -0.505  -0.069  1.00  0.00     0.005 C 
ENDBRANCH  10  11
ENDBRANCH   8  10
ENDBRANCH   1   8
TORSDOF 6
