REMARK  4 active torsions:
REMARK  status: ('A' for Active; 'I' for Inactive)
REMARK    1  A    between atoms: C1_2  and  C2_4 
REMARK    2  A    between atoms: C3_5  and  C4_6 
REMARK    3  A    between atoms: C5_7  and  C6_8 
REMARK    4  A    between atoms: C6_8  and  C7_9 
REMARK       I    between atoms: C7_9  and  N1_11 
ROOT
HETATM    1  C6  UNL     1      -0.065  -0.749   0.205  1.00  0.00     0.130 C 
ENDROOT
BRANCH   1   2
HETATM    2  C5  UNL     1       1.329  -0.781  -0.322  1.00  0.00    -0.018 C 
HETATM    3  C4  UNL     1       2.306  -0.291   0.417  1.00  0.00    -0.003 C 
BRANCH   3   4
HETATM    4  C3  UNL     1       3.683  -0.304  -0.063  1.00  0.00     0.007 C 
HETATM    5  C2  UNL     1       4.684   0.179   0.653  1.00  0.00     0.084 C 
BRANCH   5   6
HETATM    6  C1  UNL     1       6.048   0.153   0.149  1.00  0.00     0.198 C 
HETATM    7  O1  UNL     1       7.008   0.610   0.823  1.00  0.00    -0.645 OA
HETATM    8  O2  UNL     1       6.279  -0.391  -1.105  1.00  0.00    -0.645 OA
ENDBRANCH   5   6
ENDBRANCH   3   4
ENDBRANCH   1   2
BRANCH   1   9
HETATM    9  C7  UNL     1      -0.963   0.035  -0.676  1.00  0.00     0.223 C 
HETATM   10  O3  UNL     1      -0.473   0.547  -1.697  1.00  0.00    -0.273 OA
HETATM   11  N1  UNL     1      -2.322   0.164  -0.319  1.00  0.00    -0.352 N 
HETATM   12  C8  UNL     1      -2.941  -0.408   0.853  1.00  0.00     0.126 C 
HETATM   13  C11 UNL     1      -3.281   0.909  -1.111  1.00  0.00     0.126 C 
HETATM   14  C9  UNL     1      -4.155   0.515   1.020  1.00  0.00     0.021 C 
HETATM   15  C10 UNL     1      -4.617   0.607  -0.420  1.00  0.00     0.021 C 
ENDBRANCH   1   9
TORSDOF 4
