REMARK  6 active torsions:
REMARK  status: ('A' for Active; 'I' for Inactive)
REMARK    1  A    between atoms: C2_2  and  N1_3 
REMARK    2  A    between atoms: C2_2  and  C11_26 
REMARK    3  A    between atoms: C4_8  and  N3_9 
REMARK    4  A    between atoms: C7_12  and  N4_13 
REMARK    5  A    between atoms: C10_20  and  N5_21 
REMARK    6  A    between atoms: C13_29  and  O1_30 
ROOT
HETATM    1  N1  UNL     1      -1.304  -0.498  -0.007  1.00  0.00    -0.216 N 
ATOM      2  H1  UNL     1      -1.245   0.500  -0.209  1.00  0.00     0.178 HD
HETATM    3  C3  UNL     1      -0.184  -1.044   0.116  1.00  0.00     0.682 A 
HETATM    4  N2  UNL     1       0.913  -0.231  -0.028  1.00  0.00    -0.174 N 
ATOM      5  H2  UNL     1       0.768   0.759  -0.225  1.00  0.00     0.186 HD
HETATM    6  C4  UNL     1       2.166  -0.689   0.081  1.00  0.00     0.162 A 
HETATM    7  C9  UNL     1       2.402  -2.031   0.348  1.00  0.00     0.204 A 
HETATM    8  F1  UNL     1       3.693  -2.438   0.447  1.00  0.00    -0.198 F 
HETATM    9  C10 UNL     1       1.309  -2.852   0.492  1.00  0.00     0.157 A 
HETATM   10  N6  UNL     1       0.052  -2.332   0.374  1.00  0.00    -0.174 N 
ATOM     11  H6  UNL     1      -0.745  -2.958   0.489  1.00  0.00     0.186 HD
ENDROOT
BRANCH   1  12
HETATM   12  C2  UNL     1      -2.622  -0.969   0.074  1.00  0.00     0.147 C 
HETATM   13  C1  UNL     1      -2.886  -2.158  -0.759  1.00  0.00     0.039 C 
BRANCH  12  14
HETATM   14  C11 UNL     1      -3.600   0.150  -0.042  1.00  0.00     0.061 A 
HETATM   15  C12 UNL     1      -3.240   1.491   0.197  1.00  0.00     0.105 A 
HETATM   16  N7  UNL     1      -1.941   2.017   0.481  1.00  0.00    -0.097 NA
HETATM   17  C13 UNL     1      -4.382   2.254   0.086  1.00  0.00     0.107 A 
HETATM   18  C14 UNL     1      -5.388   1.368  -0.212  1.00  0.00     0.129 A 
HETATM   19  N8  UNL     1      -4.911   0.117  -0.285  1.00  0.00    -0.358 N 
HETATM   20  C15 UNL     1      -5.727  -1.062  -0.537  1.00  0.00     0.155 C 
BRANCH  17  21
HETATM   21  O1  UNL     1      -4.529   3.647   0.237  1.00  0.00    -0.357 OA
ATOM     22  H1  UNL     1      -5.316   4.173   0.160  1.00  0.00     0.217 HD
ENDBRANCH  17  21
ENDBRANCH  12  14
ENDBRANCH   1  12
BRANCH   6  23
HETATM   23  N3  UNL     1       3.260   0.205  -0.041  1.00  0.00    -0.362 N 
HETATM   24  C5  UNL     1       3.458   1.257   0.962  1.00  0.00     0.127 C 
HETATM   25  C6  UNL     1       4.599   2.098   0.508  1.00  0.00     0.054 C 
HETATM   26  C7  UNL     1       5.010   1.576  -0.842  1.00  0.00     0.203 C 
HETATM   27  C8  UNL     1       4.303   0.277  -1.023  1.00  0.00     0.157 C 
BRANCH  26  28
HETATM   28  N4  UNL     1       6.472   1.409  -0.860  1.00  0.00    -0.073 N 
ATOM     29  H43 UNL     1       6.965   2.265  -0.606  1.00  0.00     0.274 HD
ATOM     30  H42 UNL     1       6.807   0.821  -0.096  1.00  0.00     0.274 HD
ATOM     31  H41 UNL     1       6.751   1.055  -1.775  1.00  0.00     0.274 HD
ENDBRANCH  26  28
ENDBRANCH   6  23
BRANCH   9  32
HETATM   32  N5  UNL     1       1.508  -4.102   0.721  1.00  0.00    -0.382 N 
ATOM     33  H52 UNL     1       2.447  -4.490   0.809  1.00  0.00     0.157 HD
ATOM     34  H51 UNL     1       0.697  -4.711   0.828  1.00  0.00     0.157 HD
ENDBRANCH   9  32
TORSDOF 6
