REMARK  5 active torsions:
REMARK  status: ('A' for Active; 'I' for Inactive)
REMARK    1  A    between atoms: N1_3  and  S1_5 
REMARK    2  A    between atoms: S1_5  and  N2_6 
REMARK    3  A    between atoms: S1_5  and  C3_10 
REMARK       I    between atoms: N5_16  and  C5_18 
REMARK    4  A    between atoms: C5_18  and  C6_20 
REMARK    5  A    between atoms: C6_20  and  N6_21 
REMARK       I    between atoms: N6_21  and  C7_23 
ROOT
HETATM    1  C1  UNL     1       6.411   0.219   1.382  1.00  0.00     0.037 C 
HETATM    2  C2  UNL     1       5.740  -0.505   0.701  1.00  0.00     0.008 C 
HETATM    3  N1  UNL     1       4.956  -1.338  -0.115  1.00  0.00    -0.255 N 
ATOM      4  H1  UNL     1       5.055  -2.349  -0.028  1.00  0.00     0.188 HD
ENDROOT
BRANCH   3   5
HETATM    5  S1  UNL     1       3.937  -0.764  -1.152  1.00  0.00     0.168 S 
HETATM    6  O1  UNL     1       4.495   0.585  -1.588  1.00  0.00    -0.221 OA
BRANCH   5   7
HETATM    7  N2  UNL     1       3.873  -1.723  -2.574  1.00  0.00    -0.339 N 
ATOM      8  H22 UNL     1       4.437  -2.562  -2.710  1.00  0.00     0.167 HD
ATOM      9  H21 UNL     1       3.208  -1.348  -3.251  1.00  0.00     0.167 HD
ENDBRANCH   5   7
BRANCH   5  10
HETATM   10  C3  UNL     1       2.359  -0.518  -0.442  1.00  0.00     0.188 A 
HETATM   11  N3  UNL     1       1.800  -1.304   0.467  1.00  0.00    -0.282 N 
HETATM   12  N4  UNL     1       0.648  -1.040   0.922  1.00  0.00    -0.278 N 
ATOM     13  H3  UNL     1       2.301  -2.127   0.802  1.00  0.00     0.188 HD
HETATM   14  C4  UNL     1       0.005   0.039   0.477  1.00  0.00     0.168 A 
ATOM     15  H4  UNL     1       0.218  -1.646   1.621  1.00  0.00     0.189 HD
HETATM   16  N5  UNL     1      -1.179   0.470   0.824  1.00  0.00    -0.305 N 
HETATM   17  S2  UNL     1       1.147   0.667  -0.644  1.00  0.00    -0.021 SA
HETATM   18  C5  UNL     1      -1.668   1.653   0.213  1.00  0.00     0.241 C 
ATOM     19  H5  UNL     1      -1.737  -0.031   1.516  1.00  0.00     0.171 HD
HETATM   20  O2  UNL     1      -0.829   2.538  -0.093  1.00  0.00    -0.271 OA
BRANCH  18  21
HETATM   21  C6  UNL     1      -3.117   1.793  -0.034  1.00  0.00     0.227 C 
BRANCH  21  22
HETATM   22  N6  UNL     1      -3.793   0.606   0.433  1.00  0.00    -0.337 N 
HETATM   23  C7  UNL     1      -5.206   0.524   0.294  1.00  0.00     0.329 C 
HETATM   24  N7  UNL     1      -5.861  -0.633   0.749  1.00  0.00    -0.040 NA
HETATM   25  O3  UNL     1      -5.859   1.460  -0.223  1.00  0.00    -0.251 OA
ATOM     26  H6  UNL     1      -3.267  -0.159   0.855  1.00  0.00     0.164 HD
ENDBRANCH  21  22
ENDBRANCH  18  21
ENDBRANCH   5  10
ENDBRANCH   3   5
TORSDOF 5
