REMARK  17 active torsions:
REMARK  status: ('A' for Active; 'I' for Inactive)
REMARK    1  A    between atoms: C3_6  and  C4_7 
REMARK    2  A    between atoms: C6_10  and  C7_11 
REMARK    3  A    between atoms: C7_11  and  C8_12 
REMARK    4  A    between atoms: C7_11  and  C19_30 
REMARK    5  A    between atoms: C8_12  and  C9_13 
REMARK    6  A    between atoms: C9_13  and  C10_14 
REMARK    7  A    between atoms: C10_14  and  C11_15 
REMARK    8  A    between atoms: C11_15  and  C12_16 
REMARK    9  A    between atoms: C12_16  and  N2_17 
REMARK   10  A    between atoms: C13_18  and  C14_19 
REMARK   11  A    between atoms: C15_26  and  C16_27 
REMARK   12  A    between atoms: C19_30  and  S1_31 
REMARK   13  A    between atoms: S1_31  and  C20_32 
REMARK   14  A    between atoms: C23_40  and  N8_41 
REMARK   15  A    between atoms: C25_47  and  N10_48 
REMARK   16  A    between atoms: C26_55  and  O4_56 
REMARK   17  A    between atoms: C27_58  and  O5_59 
ROOT
HETATM    1  C7  UNL     1      -1.259  -0.232  -0.850  1.00  0.00     0.071 C 
ENDROOT
BRANCH   1   2
HETATM    2  C6  UNL     1      -1.537   1.220  -0.714  1.00  0.00     0.128 A 
HETATM    3  O1  UNL     1      -1.351   2.073  -1.708  1.00  0.00    -0.307 OA
HETATM    4  C5  UNL     1      -1.678   3.275  -1.295  1.00  0.00     0.171 A 
HETATM    5  C4  UNL     1      -2.090   3.195   0.016  1.00  0.00     0.067 A 
HETATM    6  N12 UNL     1      -1.997   1.914   0.362  1.00  0.00    -0.340 N 
ATOM      7  H12 UNL     1      -2.230   1.521   1.274  1.00  0.00     0.167 HD
BRANCH   5   8
HETATM    8  C3  UNL     1      -2.538   4.360   0.815  1.00  0.00     0.268 C 
HETATM    9  N1  UNL     1      -3.443   5.176   0.028  1.00  0.00    -0.056 N 
HETATM   10  C2  UNL     1      -3.523   6.396   0.813  1.00  0.00     0.214 C 
ATOM     11  H12 UNL     1      -4.341   4.741  -0.183  1.00  0.00     0.278 HD
ATOM     12  H11 UNL     1      -3.167   5.308  -0.945  1.00  0.00     0.278 HD
HETATM   13  C1  UNL     1      -4.054   7.547  -0.014  1.00  0.00     0.043 C 
HETATM   14  C27 UNL     1      -2.106   6.621   1.256  1.00  0.00     0.179 C 
HETATM   15  C26 UNL     1      -1.401   5.298   1.085  1.00  0.00     0.185 C 
BRANCH  14  16
HETATM   16  O5  UNL     1      -1.439   7.566   0.479  1.00  0.00    -0.391 OA
ATOM     17  H5  UNL     1      -0.543   7.708   0.759  1.00  0.00     0.210 HD
ENDBRANCH  14  16
BRANCH  15  18
HETATM   18  O4  UNL     1      -0.563   5.295  -0.034  1.00  0.00    -0.390 OA
ATOM     19  H4  UNL     1       0.158   5.890   0.137  1.00  0.00     0.210 HD
ENDBRANCH  15  18
ENDBRANCH   5   8
ENDBRANCH   1   2
BRANCH   1  20
HETATM   20  C8  UNL     1       0.205  -0.539  -0.995  1.00  0.00     0.013 C 
BRANCH  20  21
HETATM   21  C9  UNL     1       0.888   0.067  -2.161  1.00  0.00     0.001 C 
BRANCH  21  22
HETATM   22  C10 UNL     1       2.341  -0.347  -2.178  1.00  0.00     0.002 C 
BRANCH  22  23
HETATM   23  C11 UNL     1       3.097   0.072  -0.946  1.00  0.00     0.020 C 
BRANCH  23  24
HETATM   24  C12 UNL     1       4.560  -0.375  -1.036  1.00  0.00     0.132 C 
BRANCH  24  25
HETATM   25  N2  UNL     1       5.299   0.010   0.134  1.00  0.00    -0.315 N 
HETATM   26  C13 UNL     1       5.967   1.168   0.318  1.00  0.00     0.202 A 
HETATM   27  N3  UNL     1       6.508   1.069   1.571  1.00  0.00    -0.278 N 
HETATM   28  N4  UNL     1       6.181  -0.087   2.107  1.00  0.00    -0.287 N 
ATOM     29  H3  UNL     1       7.079   1.784   2.022  1.00  0.00     0.189 HD
HETATM   30  C15 UNL     1       5.431  -0.772   1.246  1.00  0.00     0.104 A 
ATOM     31  H4  UNL     1       6.458  -0.408   3.035  1.00  0.00     0.188 HD
BRANCH  26  32
HETATM   32  C14 UNL     1       6.105   2.303  -0.586  1.00  0.00     0.246 C 
HETATM   33  O2  UNL     1       5.574   2.320  -1.716  1.00  0.00    -0.642 OA
HETATM   34  O3  UNL     1       6.847   3.402  -0.189  1.00  0.00    -0.642 OA
ENDBRANCH  26  32
BRANCH  30  35
HETATM   35  C16 UNL     1       4.836  -2.128   1.436  1.00  0.00     0.055 A 
HETATM   36  C17 UNL     1       4.614  -2.640   2.810  1.00  0.00     0.013 A 
HETATM   37  C18 UNL     1       5.807  -3.105   2.091  1.00  0.00     0.013 A 
ENDBRANCH  30  35
ENDBRANCH  24  25
ENDBRANCH  23  24
ENDBRANCH  22  23
ENDBRANCH  21  22
ENDBRANCH  20  21
ENDBRANCH   1  20
BRANCH   1  38
HETATM   38  C19 UNL     1      -2.103  -0.750  -1.958  1.00  0.00     0.095 C 
BRANCH  38  39
HETATM   39  S1  UNL     1      -1.893  -2.509  -2.258  1.00  0.00    -0.093 SA
BRANCH  39  40
HETATM   40  C20 UNL     1      -2.568  -3.529  -0.968  1.00  0.00     0.146 A 
HETATM   41  N5  UNL     1      -2.384  -4.867  -0.988  1.00  0.00    -0.332 N 
HETATM   42  C21 UNL     1      -2.833  -5.717  -0.070  1.00  0.00     0.107 A 
ATOM     43  H5  UNL     1      -1.858  -5.256  -1.770  1.00  0.00     0.168 HD
HETATM   44  C22 UNL     1      -2.612  -7.069  -0.148  1.00  0.00     0.161 A 
HETATM   45  C24 UNL     1      -3.553  -5.167   0.998  1.00  0.00     0.122 A 
HETATM   46  N6  UNL     1      -1.883  -7.608  -1.233  1.00  0.00    -0.080 NA
HETATM   47  N7  UNL     1      -3.087  -7.873   0.804  1.00  0.00    -0.177 N 
HETATM   48  C23 UNL     1      -3.784  -7.348   1.841  1.00  0.00     0.677 A 
ATOM     49  H7  UNL     1      -2.926  -8.879   0.752  1.00  0.00     0.185 HD
HETATM   50  N9  UNL     1      -4.005  -6.026   1.925  1.00  0.00    -0.186 N 
ATOM     51  H9  UNL     1      -4.533  -5.663   2.719  1.00  0.00     0.184 HD
HETATM   52  C25 UNL     1      -3.762  -3.817   1.057  1.00  0.00     0.131 A 
HETATM   53  N11 UNL     1      -3.261  -3.037   0.068  1.00  0.00    -0.321 N 
ATOM     54  H11 UNL     1      -3.419  -2.030   0.115  1.00  0.00     0.169 HD
BRANCH  48  55
HETATM   55  N8  UNL     1      -4.215  -8.188   2.728  1.00  0.00    -0.234 N 
ATOM     56  H82 UNL     1      -4.047  -9.192   2.664  1.00  0.00     0.174 HD
ATOM     57  H81 UNL     1      -4.740  -7.793   3.508  1.00  0.00     0.174 HD
ENDBRANCH  48  55
BRANCH  52  58
HETATM   58  N10 UNL     1      -4.425  -3.332   2.048  1.00  0.00    -0.383 N 
ATOM     59 2H10 UNL     1      -4.802  -3.919   2.792  1.00  0.00     0.157 HD
ATOM     60 1H10 UNL     1      -4.581  -2.325   2.092  1.00  0.00     0.157 HD
ENDBRANCH  52  58
ENDBRANCH  39  40
ENDBRANCH  38  39
ENDBRANCH   1  38
TORSDOF 17
