REMARK  6 active torsions:
REMARK  status: ('A' for Active; 'I' for Inactive)
REMARK    1  A    between atoms: C2_2  and  C3_3 
REMARK    2  A    between atoms: C2_2  and  C13_20 
REMARK    3  A    between atoms: C3_3  and  N1_4 
REMARK       I    between atoms: C4_6  and  N3_8 
REMARK       I    between atoms: N3_8  and  C5_10 
REMARK    4  A    between atoms: C5_10  and  C6_12 
REMARK    5  A    between atoms: C6_12  and  N4_13 
REMARK    6  A    between atoms: C13_20  and  C14_21 
ROOT
HETATM    1  N1  UNL     1       0.254   0.032  -1.142  1.00  0.00    -0.364 N 
ATOM      2  H1  UNL     1       0.147   0.602  -0.303  1.00  0.00     0.162 HD
HETATM    3  C4  UNL     1      -0.784  -0.495  -1.638  1.00  0.00     0.191 C 
HETATM    4  N2  UNL     1      -0.676  -1.297  -2.803  1.00  0.00    -0.063 NA
HETATM    5  N3  UNL     1      -2.043  -0.298  -1.045  1.00  0.00    -0.297 N 
ATOM      6  H3  UNL     1      -2.115   0.273  -0.203  1.00  0.00     0.171 HD
HETATM    7  C5  UNL     1      -3.204  -0.872  -1.588  1.00  0.00     0.263 C 
HETATM    8  O1  UNL     1      -3.073  -1.582  -2.661  1.00  0.00    -0.267 OA
ENDROOT
BRANCH   1   9
HETATM    9  C3  UNL     1       1.573  -0.124  -1.688  1.00  0.00     0.126 C 
BRANCH   9  10
HETATM   10  C2  UNL     1       2.578   0.146  -0.557  1.00  0.00    -0.000 C 
HETATM   11  C1  UNL     1       2.354  -0.835   0.565  1.00  0.00     0.011 C 
BRANCH  10  12
HETATM   12  C13 UNL     1       3.934   0.123  -1.160  1.00  0.00     0.010 C 
BRANCH  12  13
HETATM   13  C14 UNL     1       5.084   0.436  -0.282  1.00  0.00    -0.014 C 
HETATM   14  C15 UNL     1       5.044   1.812   0.354  1.00  0.00     0.005 C 
HETATM   15  C16 UNL     1       6.501   2.114   0.736  1.00  0.00     0.000 C 
HETATM   16  C17 UNL     1       6.959   1.067   1.715  1.00  0.00     0.000 C 
HETATM   17  C18 UNL     1       6.914  -0.330   1.096  1.00  0.00     0.000 C 
HETATM   18  C19 UNL     1       5.462  -0.626   0.712  1.00  0.00     0.005 C 
ENDBRANCH  12  13
ENDBRANCH  10  12
ENDBRANCH   9  10
ENDBRANCH   1   9
BRANCH   7  19
HETATM   19  C6  UNL     1      -4.567  -0.712  -1.010  1.00  0.00     0.161 C 
BRANCH  19  20
HETATM   20  N4  UNL     1      -4.540   0.026   0.181  1.00  0.00    -0.381 N 
HETATM   21  C7  UNL     1      -3.968  -0.617   1.325  1.00  0.00     0.123 C 
HETATM   22  C8  UNL     1      -4.983  -1.351   2.165  1.00  0.00     0.020 C 
HETATM   23  C9  UNL     1      -6.404  -0.972   1.898  1.00  0.00     0.004 C 
HETATM   24  C10 UNL     1      -6.539   0.479   1.511  1.00  0.00     0.025 C 
HETATM   25  C11 UNL     1      -5.590   0.934   0.457  1.00  0.00     0.079 C 
HETATM   26  C12 UNL     1      -6.389   1.335  -0.761  1.00  0.00     0.032 C 
ENDBRANCH  19  20
ENDBRANCH   7  19
TORSDOF 6
