REMARK  9 active torsions:
REMARK  status: ('A' for Active; 'I' for Inactive)
REMARK    1  A    between atoms: N1_2  and  C3_4 
REMARK    2  A    between atoms: C3_4  and  C4_5 
REMARK    3  A    between atoms: C4_5  and  C5_6 
REMARK    4  A    between atoms: C5_6  and  O1_7 
REMARK    5  A    between atoms: C5_6  and  C6_9 
REMARK    6  A    between atoms: C6_9  and  O2_10 
REMARK    7  A    between atoms: O2_10  and  C7_11 
REMARK    8  A    between atoms: C27_32  and  C28_33 
REMARK    9  A    between atoms: C28_33  and  O4_34 
ROOT
HETATM    1  C7  UNL     1       2.163   0.370   0.159  1.00  0.00     0.144 C 
HETATM    2  C8  UNL     1       1.120   1.259  -0.404  1.00  0.00     0.008 C 
HETATM    3  C9  UNL     1      -0.070   0.896  -0.834  1.00  0.00    -0.072 C 
HETATM    4  C10 UNL     1      -0.993   1.905  -1.366  1.00  0.00     0.035 C 
HETATM    5  C11 UNL     1      -2.455   1.673  -1.014  1.00  0.00     0.010 C 
HETATM    6  C12 UNL     1      -2.560   0.496  -0.059  1.00  0.00     0.001 C 
HETATM    7  C13 UNL     1      -3.817   0.232   0.608  1.00  0.00     0.013 C 
HETATM    8  C14 UNL     1      -4.397  -1.167   0.533  1.00  0.00    -0.005 C 
HETATM    9  C15 UNL     1      -3.721  -2.144  -0.311  1.00  0.00     0.006 C 
HETATM   10  C16 UNL     1      -2.215  -1.981  -0.090  1.00  0.00     0.011 C 
HETATM   11  C17 UNL     1      -1.903  -0.670  -0.803  1.00  0.00    -0.029 C 
HETATM   12  C18 UNL     1      -2.324  -0.767  -2.226  1.00  0.00     0.016 C 
HETATM   13  C19 UNL     1      -0.395  -0.557  -0.749  1.00  0.00    -0.013 C 
HETATM   14  C20 UNL     1       0.299  -1.363  -1.794  1.00  0.00     0.021 C 
HETATM   15  C21 UNL     1       0.121  -1.022   0.597  1.00  0.00     0.017 C 
HETATM   16  C22 UNL     1       1.623  -0.957   0.613  1.00  0.00     0.037 C 
HETATM   17  C23 UNL     1      -5.889  -0.972   0.253  1.00  0.00    -0.008 C 
HETATM   18  C24 UNL     1      -6.247  -0.786  -1.146  1.00  0.00     0.012 C 
HETATM   19  C25 UNL     1      -6.393   0.645  -1.513  1.00  0.00     0.079 C 
HETATM   20  C26 UNL     1      -5.579   1.560  -0.688  1.00  0.00     0.138 C 
HETATM   21  O3  UNL     1      -5.465   2.674  -1.131  1.00  0.00    -0.297 OA
HETATM   22  C27 UNL     1      -4.979   1.141   0.542  1.00  0.00     0.046 C 
HETATM   23  C29 UNL     1      -6.087   0.223   1.161  1.00  0.00     0.025 C 
ENDROOT
BRANCH   1  24
HETATM   24  O2  UNL     1       2.778   1.070   1.196  1.00  0.00    -0.380 OA
BRANCH  24  25
HETATM   25  C6  UNL     1       4.099   1.337   0.981  1.00  0.00     0.200 C 
BRANCH  25  26
HETATM   26  C5  UNL     1       4.950   0.104   0.799  1.00  0.00     0.143 C 
BRANCH  26  27
HETATM   27  C4  UNL     1       6.422   0.534   0.740  1.00  0.00     0.064 C 
BRANCH  27  28
HETATM   28  C3  UNL     1       7.219  -0.774   0.705  1.00  0.00     0.274 C 
BRANCH  28  29
HETATM   29  N1  UNL     1       8.606  -0.429   0.650  1.00  0.00     0.080 N 
HETATM   30  C1  UNL     1       9.482  -1.561   0.612  1.00  0.00     0.309 C 
HETATM   31  C2  UNL     1       8.858   0.548  -0.367  1.00  0.00     0.309 C 
ENDBRANCH  28  29
ENDBRANCH  27  28
ENDBRANCH  26  27
BRANCH  26  32
HETATM   32  O1  UNL     1       4.831  -0.649   1.970  1.00  0.00    -0.393 OA
ATOM     33  H1  UNL     1       3.920  -0.915   2.007  1.00  0.00     0.210 HD
ENDBRANCH  26  32
ENDBRANCH  25  26
ENDBRANCH  24  25
ENDBRANCH   1  24
BRANCH  22  34
HETATM   34  C28 UNL     1      -4.926   2.269   1.595  1.00  0.00     0.181 C 
BRANCH  34  35
HETATM   35  O4  UNL     1      -6.081   3.064   1.438  1.00  0.00    -0.400 OA
ATOM     36  H4  UNL     1      -6.048   3.758   2.086  1.00  0.00     0.209 HD
ENDBRANCH  34  35
ENDBRANCH  22  34
TORSDOF 9
