REMARK  8 active torsions:
REMARK  status: ('A' for Active; 'I' for Inactive)
REMARK    1  A    between atoms: C2_2  and  O1_4 
REMARK    2  A    between atoms: C2_2  and  C4_6 
REMARK    3  A    between atoms: C4_6  and  C5_7 
REMARK    4  A    between atoms: C5_7  and  C6_8 
REMARK    5  A    between atoms: C6_8  and  O3_10 
REMARK    6  A    between atoms: O3_10  and  C7_11 
REMARK    7  A    between atoms: C7_11  and  C8_12 
REMARK    8  A    between atoms: C8_12  and  O4_13 
ROOT
HETATM    1  C8  UNL     1      -1.253   0.529  -0.722  1.00  0.00     0.205 C 
HETATM    2  O5  UNL     1      -1.151   0.894   0.588  1.00  0.00    -0.319 OA
HETATM    3  C9  UNL     1      -2.420   0.746   1.104  1.00  0.00     0.297 C 
HETATM    4  O6  UNL     1      -3.409   1.466   0.476  1.00  0.00    -0.323 OA
HETATM    5  C10 UNL     1      -4.542   0.670   0.536  1.00  0.00     0.160 C 
HETATM    6  C11 UNL     1      -5.422   1.164   1.683  1.00  0.00     0.078 C 
HETATM    7  C12 UNL     1      -5.403   0.759  -0.710  1.00  0.00     0.078 C 
HETATM    8  O7  UNL     1      -4.138  -0.632   0.686  1.00  0.00    -0.344 OA
HETATM    9  C13 UNL     1      -2.752  -0.678   0.627  1.00  0.00     0.203 C 
HETATM   10  C14 UNL     1      -2.208  -0.624  -0.778  1.00  0.00     0.191 C 
HETATM   11  C15 UNL     1      -1.603  -1.866  -1.183  1.00  0.00     0.072 C 
HETATM   12  N1  UNL     1      -1.134  -2.866  -1.512  1.00  0.00    -0.197 NA
ENDROOT
BRANCH   1  13
HETATM   13  C7  UNL     1      -0.020   0.363  -1.511  1.00  0.00     0.248 C 
BRANCH  13  14
HETATM   14  O3  UNL     1       0.885  -0.612  -1.233  1.00  0.00    -0.316 OA
BRANCH  14  15
HETATM   15  C6  UNL     1       1.647  -0.718  -0.100  1.00  0.00     0.259 C 
HETATM   16  O2  UNL     1       1.503   0.177   0.772  1.00  0.00    -0.265 OA
BRANCH  15  17
HETATM   17  C5  UNL     1       2.613  -1.839   0.109  1.00  0.00     0.114 C 
BRANCH  17  18
HETATM   18  C4  UNL     1       3.917  -1.400   0.628  1.00  0.00     0.046 C 
BRANCH  18  19
HETATM   19  C2  UNL     1       4.742  -0.494  -0.211  1.00  0.00     0.051 C 
HETATM   20  C1  UNL     1       4.175   0.843  -0.557  1.00  0.00     0.045 C 
HETATM   21  C3  UNL     1       6.084  -0.220   0.495  1.00  0.00     0.045 C 
BRANCH  19  22
HETATM   22  O1  UNL     1       5.088  -1.112  -1.442  1.00  0.00    -0.391 OA
ATOM     23  H1  UNL     1       5.449  -1.963  -1.222  1.00  0.00     0.210 HD
ENDBRANCH  19  22
ENDBRANCH  18  19
ENDBRANCH  17  18
ENDBRANCH  15  17
ENDBRANCH  14  15
ENDBRANCH  13  14
ENDBRANCH   1  13
BRANCH   1  24
HETATM   24  O4  UNL     1      -1.912   1.639  -1.347  1.00  0.00    -0.362 OA
ATOM     25  H4  UNL     1      -2.707   1.746  -0.838  1.00  0.00     0.213 HD
ENDBRANCH   1  24
TORSDOF 8
