REMARK  6 active torsions:
REMARK  status: ('A' for Active; 'I' for Inactive)
REMARK    1  A    between atoms: C3_3  and  N1_4 
REMARK    2  A    between atoms: N1_4  and  C5_6 
REMARK    3  A    between atoms: C10_14  and  C11_15 
REMARK    4  A    between atoms: C11_15  and  O2_17 
REMARK    5  A    between atoms: O2_17  and  C12_18 
REMARK    6  A    between atoms: C16_24  and  O5_25 
ROOT
HETATM    1  C1  UNL     1      -2.104   3.570   2.258  1.00  0.00     0.013 C 
HETATM    2  C2  UNL     1      -2.361   2.728   1.431  1.00  0.00    -0.087 C 
HETATM    3  C3  UNL     1      -2.702   1.704   0.413  1.00  0.00     0.365 C 
ENDROOT
BRANCH   3   4
HETATM    4  N1  UNL     1      -1.569   0.800   0.264  1.00  0.00     0.102 N 
HETATM    5  C4  UNL     1      -1.479   0.057   1.504  1.00  0.00     0.311 C 
BRANCH   4   6
HETATM    6  C5  UNL     1      -1.873  -0.059  -0.873  1.00  0.00     0.266 C 
HETATM    7  C6  UNL     1      -3.066  -0.923  -0.649  1.00  0.00     0.076 C 
HETATM    8  C7  UNL     1      -2.668  -2.306  -1.075  1.00  0.00     0.121 C 
HETATM    9  C8  UNL     1      -3.155  -2.656  -2.476  1.00  0.00     0.046 C 
HETATM   10  C9  UNL     1      -3.275  -3.295  -0.094  1.00  0.00     0.046 C 
HETATM   11  N2  UNL     1      -1.234  -2.351  -1.091  1.00  0.00    -0.051 N 
HETATM   12  C10 UNL     1      -0.772  -0.984  -1.233  1.00  0.00     0.318 C 
ATOM     13  H22 UNL     1      -0.838  -2.827  -0.280  1.00  0.00     0.279 HD
ATOM     14  H21 UNL     1      -0.860  -2.977  -1.804  1.00  0.00     0.279 HD
BRANCH  12  15
HETATM   15  C11 UNL     1       0.464  -0.840  -0.429  1.00  0.00     0.294 C 
HETATM   16  O1  UNL     1       0.915  -1.825   0.186  1.00  0.00    -0.263 OA
BRANCH  15  17
HETATM   17  O2  UNL     1       1.176   0.343  -0.307  1.00  0.00    -0.283 OA
BRANCH  17  18
HETATM   18  C12 UNL     1       2.350   0.468   0.460  1.00  0.00     0.327 C 
HETATM   19  O3  UNL     1       3.375   0.802  -0.445  1.00  0.00    -0.321 OA
HETATM   20  C13 UNL     1       4.332   1.469   0.281  1.00  0.00     0.163 C 
HETATM   21  C14 UNL     1       5.382   0.421   0.679  1.00  0.00     0.078 C 
HETATM   22  C15 UNL     1       5.022   2.577  -0.476  1.00  0.00     0.078 C 
HETATM   23  O4  UNL     1       3.736   2.026   1.390  1.00  0.00    -0.321 OA
HETATM   24  C16 UNL     1       2.381   1.628   1.389  1.00  0.00     0.316 C 
BRANCH  24  25
HETATM   25  O5  UNL     1       2.109   1.282   2.718  1.00  0.00    -0.367 OA
ATOM     26  H5  UNL     1       2.129   2.023   3.312  1.00  0.00     0.212 HD
ENDBRANCH  24  25
ENDBRANCH  17  18
ENDBRANCH  15  17
ENDBRANCH  12  15
ENDBRANCH   4   6
ENDBRANCH   3   4
TORSDOF 6
