REMARK  16 active torsions:
REMARK  status: ('A' for Active; 'I' for Inactive)
REMARK    1  A    between atoms: C2_2  and  C3_3 
REMARK    2  A    between atoms: C3_3  and  C4_4 
REMARK    3  A    between atoms: C4_4  and  C5_5 
REMARK    4  A    between atoms: C5_5  and  C7_7 
REMARK    5  A    between atoms: C9_11  and  C10_12 
REMARK    6  A    between atoms: C14_19  and  C15_20 
REMARK    7  A    between atoms: C15_20  and  C17_22 
REMARK    8  A    between atoms: C20_28  and  C21_29 
REMARK    9  A    between atoms: C21_29  and  C22_30 
REMARK   10  A    between atoms: C25_33  and  O5_34 
REMARK   11  A    between atoms: C27_36  and  C28_37 
REMARK   12  A    between atoms: C28_37  and  C29_38 
REMARK   13  A    between atoms: C29_38  and  C30_39 
REMARK   14  A    between atoms: C30_39  and  C31_40 
REMARK   15  A    between atoms: C31_40  and  N3_41 
REMARK   16  A    between atoms: C33_48  and  O6_49 
ROOT
HETATM    1  C7  UNL     1      -1.299   2.327   0.783  1.00  0.00     0.209 C 
HETATM    2  O1  UNL     1      -1.744   1.078   1.043  1.00  0.00    -0.306 OA
HETATM    3  C8  UNL     1      -2.104   0.180   1.932  1.00  0.00     0.282 C 
HETATM    4  O2  UNL     1      -1.646  -0.077   3.116  1.00  0.00    -0.263 OA
HETATM    5  C9  UNL     1      -3.222  -0.748   1.610  1.00  0.00     0.187 C 
HETATM    6  N1  UNL     1      -3.151  -1.063   0.201  1.00  0.00    -0.345 N 
ATOM      7  H1  UNL     1      -3.406  -0.306  -0.433  1.00  0.00     0.163 HD
HETATM    8  C13 UNL     1      -2.781  -2.264  -0.411  1.00  0.00     0.241 C 
HETATM    9  O3  UNL     1      -3.555  -2.630  -1.382  1.00  0.00    -0.271 OA
HETATM   10  C14 UNL     1      -1.663  -3.176  -0.135  1.00  0.00     0.180 C 
HETATM   11  N2  UNL     1      -0.762  -2.831   0.900  1.00  0.00    -0.347 N 
ATOM     12  H2  UNL     1      -1.160  -2.806   1.839  1.00  0.00     0.163 HD
HETATM   13  C19 UNL     1       0.621  -2.515   0.812  1.00  0.00     0.225 C 
HETATM   14  O4  UNL     1       1.404  -3.052   1.659  1.00  0.00    -0.273 OA
HETATM   15  C20 UNL     1       1.256  -1.621  -0.167  1.00  0.00     0.109 C 
HETATM   16  C25 UNL     1       1.612  -0.321   0.534  1.00  0.00     0.156 C 
HETATM   17  C27 UNL     1       1.864   0.805  -0.433  1.00  0.00     0.113 C 
HETATM   18  N6  UNL     1       1.065   1.972  -0.357  1.00  0.00    -0.365 N 
ATOM     19  H6  UNL     1       1.200   2.567  -1.175  1.00  0.00     0.161 HD
HETATM   20  C33 UNL     1       0.144   2.531   0.530  1.00  0.00     0.142 C 
ENDROOT
BRANCH  17  21
HETATM   21  C28 UNL     1       3.374   1.186  -0.370  1.00  0.00     0.028 C 
BRANCH  21  22
HETATM   22  C29 UNL     1       3.711   2.289  -1.304  1.00  0.00     0.004 C 
BRANCH  22  23
HETATM   23  C30 UNL     1       5.127   2.711  -1.390  1.00  0.00     0.020 C 
BRANCH  23  24
HETATM   24  C31 UNL     1       5.697   3.200  -0.114  1.00  0.00     0.122 C 
BRANCH  24  25
HETATM   25  N3  UNL     1       5.758   2.287   0.973  1.00  0.00    -0.367 N 
HETATM   26  C32 UNL     1       6.666   1.383   1.122  1.00  0.00     0.196 C 
HETATM   27  N4  UNL     1       7.708   1.211   0.197  1.00  0.00    -0.067 NA
HETATM   28  N5  UNL     1       6.564   0.559   2.283  1.00  0.00    -0.067 NA
ATOM     29  H3  UNL     1       5.032   2.351   1.686  1.00  0.00     0.161 HD
ENDBRANCH  24  25
ENDBRANCH  23  24
ENDBRANCH  22  23
ENDBRANCH  21  22
ENDBRANCH  17  21
BRANCH  16  30
HETATM   30  O5  UNL     1       2.794  -0.517   1.243  1.00  0.00    -0.388 OA
HETATM   31  C26 UNL     1       2.646  -0.198   2.583  1.00  0.00     0.202 C 
ENDBRANCH  16  30
BRANCH  15  32
HETATM   32  C21 UNL     1       2.479  -2.131  -0.814  1.00  0.00     0.020 C 
BRANCH  32  33
HETATM   33  C22 UNL     1       2.489  -3.339  -1.634  1.00  0.00    -0.022 C 
HETATM   34  C23 UNL     1       2.076  -4.594  -0.931  1.00  0.00     0.009 C 
HETATM   35  C24 UNL     1       1.721  -3.246  -2.929  1.00  0.00     0.009 C 
ENDBRANCH  32  33
ENDBRANCH  15  32
BRANCH  20  36
HETATM   36  O6  UNL     1       0.609   3.452   1.345  1.00  0.00    -0.348 OA
ATOM     37  H6  UNL     1       1.536   3.583   1.183  1.00  0.00     0.219 HD
ENDBRANCH  20  36
BRANCH   1  38
HETATM   38  C5  UNL     1      -2.136   2.930  -0.370  1.00  0.00     0.019 C 
HETATM   39  C6  UNL     1      -2.041   2.188  -1.643  1.00  0.00     0.013 C 
BRANCH  38  40
HETATM   40  C4  UNL     1      -1.649   4.354  -0.654  1.00  0.00     0.007 C 
BRANCH  40  41
HETATM   41  C3  UNL     1      -2.575   4.930  -1.701  1.00  0.00     0.000 C 
BRANCH  41  42
HETATM   42  C2  UNL     1      -2.190   6.353  -2.061  1.00  0.00    -0.005 C 
HETATM   43  C1  UNL     1      -2.263   7.224  -0.831  1.00  0.00     0.005 C 
ENDBRANCH  41  42
ENDBRANCH  40  41
ENDBRANCH  38  40
ENDBRANCH   1  38
BRANCH  10  44
HETATM   44  C15 UNL     1      -2.162  -4.631   0.010  1.00  0.00     0.013 C 
HETATM   45  C16 UNL     1      -2.836  -5.122  -1.248  1.00  0.00     0.012 C 
BRANCH  44  46
HETATM   46  C17 UNL     1      -3.040  -4.802   1.219  1.00  0.00     0.002 C 
HETATM   47  C18 UNL     1      -3.464  -6.270   1.255  1.00  0.00     0.005 C 
ENDBRANCH  44  46
ENDBRANCH  10  44
BRANCH   5  48
HETATM   48  C10 UNL     1      -4.579  -0.243   2.035  1.00  0.00     0.010 C 
HETATM   49  C11 UNL     1      -5.024   1.031   1.438  1.00  0.00     0.012 C 
HETATM   50  C12 UNL     1      -5.660  -1.280   1.738  1.00  0.00     0.012 C 
ENDBRANCH   5  48
TORSDOF 16
