REMARK  8 active torsions:
REMARK  status: ('A' for Active; 'I' for Inactive)
REMARK    1  A    between atoms: O1_2  and  C2_3 
REMARK    2  A    between atoms: C2_3  and  C3_5 
REMARK    3  A    between atoms: C5_8  and  O4_9 
REMARK    4  A    between atoms: C8_13  and  O5_14 
REMARK    5  A    between atoms: O5_14  and  C9_15 
REMARK    6  A    between atoms: C11_18  and  C12_19 
REMARK    7  A    between atoms: C12_19  and  C13_20 
REMARK    8  A    between atoms: C13_20  and  O7_22 
ROOT
HETATM    1  C3  UNL     1       1.619   0.658   0.260  1.00  0.00     0.119 C 
HETATM    2  C4  UNL     1       2.455   0.962   1.513  1.00  0.00     0.186 C 
HETATM    3  O3  UNL     1       2.256  -0.087   2.380  1.00  0.00    -0.354 OA
HETATM    4  C5  UNL     1       0.982  -0.591   2.122  1.00  0.00     0.166 C 
HETATM    5  C6  UNL     1      -0.019   0.368   2.654  1.00  0.00     0.071 C 
HETATM    6  C7  UNL     1      -1.402   0.227   2.131  1.00  0.00     0.038 C 
HETATM    7  C8  UNL     1      -1.445   0.036   0.610  1.00  0.00     0.136 C 
HETATM    8  C11 UNL     1      -0.393  -0.903   0.152  1.00  0.00     0.028 C 
HETATM    9  C15 UNL     1       0.997  -0.628   0.604  1.00  0.00     0.070 C 
ENDROOT
BRANCH   8  10
HETATM   10  C12 UNL     1      -0.555  -1.243  -1.288  1.00  0.00     0.039 C 
BRANCH  10  11
HETATM   11  C13 UNL     1      -1.834  -1.917  -1.657  1.00  0.00     0.114 C 
HETATM   12  C14 UNL     1      -2.030  -3.236  -0.939  1.00  0.00     0.039 C 
BRANCH  11  13
HETATM   13  O7  UNL     1      -1.853  -2.214  -3.026  1.00  0.00    -0.396 OA
ATOM     14  H7  UNL     1      -2.667  -2.643  -3.261  1.00  0.00     0.210 HD
ENDBRANCH  11  13
ENDBRANCH  10  11
ENDBRANCH   8  10
BRANCH   7  15
HETATM   15  O5  UNL     1      -1.449   1.305   0.015  1.00  0.00    -0.316 OA
BRANCH  15  16
HETATM   16  C9  UNL     1      -2.587   1.814  -0.567  1.00  0.00     0.255 C 
HETATM   17  C10 UNL     1      -2.604   3.163  -1.212  1.00  0.00     0.126 C 
HETATM   18  O6  UNL     1      -3.683   1.196  -0.600  1.00  0.00    -0.266 OA
ENDBRANCH  15  16
ENDBRANCH   7  15
BRANCH   1  19
HETATM   19  C2  UNL     1       2.598   0.619  -0.859  1.00  0.00     0.265 C 
HETATM   20  O2  UNL     1       2.744  -0.435  -1.502  1.00  0.00    -0.265 OA
BRANCH  19  21
HETATM   21  O1  UNL     1       3.325   1.729  -1.172  1.00  0.00    -0.326 OA
HETATM   22  C1  UNL     1       4.281   1.776  -2.226  1.00  0.00     0.213 C 
ENDBRANCH  19  21
ENDBRANCH   1  19
BRANCH   4  23
HETATM   23  O4  UNL     1       0.835  -1.875   2.623  1.00  0.00    -0.365 OA
ATOM     24  H4  UNL     1      -0.033  -2.218   2.447  1.00  0.00     0.213 HD
ENDBRANCH   4  23
TORSDOF 8
