REMARK  8 active torsions:
REMARK  status: ('A' for Active; 'I' for Inactive)
REMARK    1  A    between atoms: C2_2  and  C5_5 
REMARK       I    between atoms: C5_5  and  N1_7 
REMARK    2  A    between atoms: C6_9  and  C7_10 
REMARK    3  A    between atoms: C6_9  and  N4_22 
REMARK    4  A    between atoms: C7_10  and  C8_11 
REMARK    5  A    between atoms: C8_11  and  C9_12 
REMARK    6  A    between atoms: C9_12  and  N2_13 
REMARK       I    between atoms: N2_13  and  C10_15 
REMARK    7  A    between atoms: C10_15  and  C11_17 
REMARK    8  A    between atoms: C11_17  and  N3_18 
ROOT
HETATM    1  C5  UNL     1      -2.317   0.856  -1.020  1.00  0.00     0.230 C 
HETATM    2  O1  UNL     1      -2.443   0.235  -2.120  1.00  0.00    -0.272 OA
HETATM    3  N1  UNL     1      -1.108   1.202  -0.412  1.00  0.00    -0.316 N 
ATOM      4  H1  UNL     1      -1.112   2.084   0.100  1.00  0.00     0.170 HD
HETATM    5  C6  UNL     1       0.016   0.563  -0.406  1.00  0.00     0.085 C 
ENDROOT
BRANCH   5   6
HETATM    6  C7  UNL     1       1.109   1.216   0.339  1.00  0.00     0.078 C 
BRANCH   6   7
HETATM    7  C8  UNL     1       1.546   0.652   1.626  1.00  0.00     0.027 C 
BRANCH   7   8
HETATM    8  C9  UNL     1       2.103  -0.735   1.589  1.00  0.00     0.123 C 
BRANCH   8   9
HETATM    9  N2  UNL     1       3.243  -0.894   0.712  1.00  0.00    -0.360 N 
HETATM   10  C10 UNL     1       4.456  -0.217   0.854  1.00  0.00     0.243 C 
HETATM   11  O2  UNL     1       4.642   0.595   1.783  1.00  0.00    -0.272 OA
ATOM     12  H2  UNL     1       3.154  -1.548  -0.066  1.00  0.00     0.162 HD
BRANCH  10  13
HETATM   13  C11 UNL     1       5.571  -0.465  -0.128  1.00  0.00     0.331 C 
BRANCH  13  14
HETATM   14  N3  UNL     1       5.167  -1.434  -1.127  1.00  0.00    -0.071 N 
ATOM     15  H33 UNL     1       4.838  -2.301  -0.702  1.00  0.00     0.274 HD
ATOM     16  H32 UNL     1       4.305  -1.157  -1.596  1.00  0.00     0.274 HD
ATOM     17  H31 UNL     1       5.922  -1.602  -1.792  1.00  0.00     0.274 HD
ENDBRANCH  13  14
ENDBRANCH  10  13
ENDBRANCH   8   9
ENDBRANCH   7   8
ENDBRANCH   6   7
ENDBRANCH   5   6
BRANCH   5  18
HETATM   18  N4  UNL     1       0.069  -0.641  -1.110  1.00  0.00    -0.323 N 
HETATM   19  C12 UNL     1      -0.438  -1.765  -0.946  1.00  0.00     0.202 C 
HETATM   20  N5  UNL     1      -0.122  -2.774  -1.939  1.00  0.00    -0.066 NA
HETATM   21  N6  UNL     1      -1.281  -2.210   0.097  1.00  0.00    -0.066 NA
ATOM     22  H4  UNL     1       0.653  -0.587  -1.944  1.00  0.00     0.169 HD
ENDBRANCH   5  18
BRANCH   1  23
HETATM   23  C2  UNL     1      -3.555   1.285  -0.265  1.00  0.00     0.030 C 
HETATM   24  C1  UNL     1      -3.483   0.673   1.099  1.00  0.00     0.025 C 
HETATM   25  C3  UNL     1      -3.501   2.782  -0.186  1.00  0.00     0.025 C 
HETATM   26  C4  UNL     1      -4.798   0.873  -1.017  1.00  0.00     0.025 C 
ENDBRANCH   1  23
TORSDOF 8
