REMARK  10 active torsions:
REMARK  status: ('A' for Active; 'I' for Inactive)
REMARK    1  A    between atoms: C2_2  and  O1_3 
REMARK    2  A    between atoms: O1_3  and  C3_4 
REMARK    3  A    between atoms: C6_7  and  N1_8 
REMARK       I    between atoms: N1_8  and  C7_10 
REMARK    4  A    between atoms: C7_10  and  C8_12 
REMARK    5  A    between atoms: C8_12  and  C9_13 
REMARK    6  A    between atoms: C8_12  and  N3_23 
REMARK    7  A    between atoms: C9_13  and  N2_14 
REMARK       I    between atoms: N2_14  and  C10_16 
REMARK    8  A    between atoms: C10_16  and  O4_18 
REMARK    9  A    between atoms: O4_18  and  C11_19 
REMARK       I    between atoms: N3_23  and  C15_25 
REMARK   10  A    between atoms: C15_25  and  C16_27 
ROOT
HETATM    1  C8  UNL     1      -1.216   2.076   1.296  1.00  0.00     0.194 C 
ENDROOT
BRANCH   1   2
HETATM    2  C7  UNL     1       0.087   1.724   0.688  1.00  0.00     0.242 C 
HETATM    3  N1  UNL     1       0.857   0.625   1.149  1.00  0.00    -0.355 N 
ATOM      4  H1  UNL     1       0.511   0.055   1.921  1.00  0.00     0.162 HD
HETATM    5  O2  UNL     1       0.527   2.414  -0.262  1.00  0.00    -0.271 OA
BRANCH   3   6
HETATM    6  C6  UNL     1       2.115   0.308   0.542  1.00  0.00     0.084 C 
HETATM    7  C5  UNL     1       3.220   0.442   1.550  1.00  0.00     0.028 C 
HETATM    8  C4  UNL     1       4.538  -0.060   0.998  1.00  0.00     0.034 C 
HETATM    9  C3  UNL     1       4.483  -1.519   0.610  1.00  0.00     0.121 C 
HETATM   10  C19 UNL     1       3.036  -1.958   0.807  1.00  0.00     0.034 C 
HETATM   11  C18 UNL     1       2.091  -1.097   0.029  1.00  0.00     0.028 C 
BRANCH   9  12
HETATM   12  O1  UNL     1       5.254  -2.257   1.459  1.00  0.00    -0.386 OA
BRANCH  12  13
HETATM   13  C2  UNL     1       6.176  -3.088   0.893  1.00  0.00     0.163 C 
HETATM   14  C1  UNL     1       7.211  -2.466   0.043  1.00  0.00     0.033 C 
ENDBRANCH  12  13
ENDBRANCH   9  12
ENDBRANCH   3   6
ENDBRANCH   1   2
BRANCH   1  15
HETATM   15  C9  UNL     1      -2.144   0.875   1.255  1.00  0.00     0.159 C 
BRANCH  15  16
HETATM   16  N2  UNL     1      -2.377   0.438  -0.106  1.00  0.00    -0.334 N 
HETATM   17  C10 UNL     1      -3.211  -0.668  -0.419  1.00  0.00     0.361 C 
HETATM   18  O3  UNL     1      -3.767  -1.290   0.546  1.00  0.00    -0.238 OA
ATOM     19  H2  UNL     1      -1.925   0.943  -0.868  1.00  0.00     0.164 HD
BRANCH  17  20
HETATM   20  O4  UNL     1      -3.451  -1.105  -1.693  1.00  0.00    -0.294 OA
BRANCH  20  21
HETATM   21  C11 UNL     1      -4.275  -2.201  -2.034  1.00  0.00     0.061 C 
HETATM   22  C12 UNL     1      -5.698  -1.995  -1.559  1.00  0.00     0.046 C 
HETATM   23  C13 UNL     1      -3.738  -3.504  -1.481  1.00  0.00     0.046 C 
HETATM   24  C14 UNL     1      -4.309  -2.313  -3.541  1.00  0.00     0.046 C 
ENDBRANCH  20  21
ENDBRANCH  17  20
ENDBRANCH  15  16
ENDBRANCH   1  15
BRANCH   1  25
HETATM   25  N3  UNL     1      -1.766   3.217   0.638  1.00  0.00    -0.345 N 
HETATM   26  C15 UNL     1      -2.063   4.445   1.250  1.00  0.00     0.236 C 
HETATM   27  O5  UNL     1      -1.838   4.586   2.477  1.00  0.00    -0.272 OA
ATOM     28  H3  UNL     1      -1.959   3.133  -0.360  1.00  0.00     0.163 HD
BRANCH  26  29
HETATM   29  C16 UNL     1      -2.633   5.591   0.506  1.00  0.00     0.170 C 
HETATM   30  C17 UNL     1      -1.726   6.044  -0.618  1.00  0.00     0.036 C 
HETATM   31 CL1  UNL     1      -4.224   5.177  -0.179  1.00  0.00    -0.115 Cl
ENDBRANCH  26  29
ENDBRANCH   1  25
TORSDOF 10
