REMARK  2 active torsions:
REMARK  status: ('A' for Active; 'I' for Inactive)
REMARK    1  A    between atoms: C2_2  and  C3_3 
REMARK    2  A    between atoms: N1_13  and  N2_14 
ROOT
HETATM    1  C3  UNL     1       2.065   0.385  -0.402  1.00  0.00     0.101 C 
HETATM    2  C4  UNL     1       1.190   1.563  -0.112  1.00  0.00     0.025 C 
HETATM    3  C5  UNL     1       0.256   1.374   1.035  1.00  0.00     0.002 C 
HETATM    4  C6  UNL     1      -1.057   2.137   0.826  1.00  0.00     0.000 C 
HETATM    5  C7  UNL     1      -2.251   1.295   1.180  1.00  0.00     0.000 C 
HETATM    6  C8  UNL     1      -2.842   0.606  -0.048  1.00  0.00     0.000 C 
HETATM    7  C9  UNL     1      -2.816  -0.901   0.105  1.00  0.00     0.000 C 
HETATM    8  C10 UNL     1      -2.088  -1.568  -1.035  1.00  0.00     0.001 C 
HETATM    9  C11 UNL     1      -0.705  -2.001  -0.663  1.00  0.00     0.016 C 
HETATM   10  C12 UNL     1       0.328  -0.990  -1.134  1.00  0.00     0.114 C 
HETATM   11  N1  UNL     1       1.426  -0.883  -0.187  1.00  0.00    -0.230 NA
ENDROOT
BRANCH  11  12
HETATM   12  N2  UNL     1       2.359  -1.876  -0.588  1.00  0.00    -0.363 NA
ATOM     13  H22 UNL     1       3.129  -1.801   0.076  1.00  0.00     0.171 HD
ATOM     14  H21 UNL     1       1.905  -2.777  -0.435  1.00  0.00     0.171 HD
ENDBRANCH  11  12
BRANCH   1  15
HETATM   15  C2  UNL     1       3.348   0.531   0.320  1.00  0.00    -0.016 C 
HETATM   16  C1  UNL     1       3.724  -0.185   1.345  1.00  0.00     0.008 C 
ENDBRANCH   1  15
TORSDOF 2
