REMARK  4 active torsions:
REMARK  status: ('A' for Active; 'I' for Inactive)
REMARK    1  A    between atoms: N1_1  and  C1_5 
REMARK    2  A    between atoms: C1_5  and  C2_6 
REMARK    3  A    between atoms: C2_6  and  N2_7 
REMARK    4  A    between atoms: N3_10  and  C5_11 
ROOT
HETATM    1  N2  UNL     1      -0.627   0.103   0.618  1.00  0.00     0.109 N 
HETATM    2  C3  UNL     1       0.057  -0.616   1.655  1.00  0.00     0.294 C 
HETATM    3  C4  UNL     1       1.209  -1.241   0.891  1.00  0.00     0.157 C 
HETATM    4  N3  UNL     1       1.609  -0.135   0.051  1.00  0.00    -0.333 N 
HETATM    5  C6  UNL     1       0.352   0.486  -0.363  1.00  0.00     0.399 C 
ENDROOT
BRANCH   1   6
HETATM    6  C2  UNL     1      -1.678  -0.715   0.061  1.00  0.00     0.301 C 
BRANCH   6   7
HETATM    7  C1  UNL     1      -2.422   0.015  -1.032  1.00  0.00     0.260 C 
BRANCH   7   8
HETATM    8  N1  UNL     1      -2.993   1.213  -0.428  1.00  0.00    -0.078 N 
ATOM      9  H13 UNL     1      -3.572   1.014   0.388  1.00  0.00     0.274 HD
ATOM     10  H12 UNL     1      -2.300   1.794   0.043  1.00  0.00     0.274 HD
ATOM     11  H11 UNL     1      -3.495   1.706  -1.166  1.00  0.00     0.274 HD
ENDBRANCH   7   8
ENDBRANCH   6   7
ENDBRANCH   1   6
BRANCH   4  12
HETATM   12  C5  UNL     1       2.934   0.232  -0.274  1.00  0.00     0.184 C 
HETATM   13  N4  UNL     1       3.205   1.344  -1.114  1.00  0.00    -0.070 NA
HETATM   14  S1  UNL     1       4.159  -0.651   0.336  1.00  0.00    -0.044 SA
ENDBRANCH   4  12
TORSDOF 4
