REMARK  2 active torsions:
REMARK  status: ('A' for Active; 'I' for Inactive)
REMARK    1  A    between atoms: N3_4  and  N4_6 
REMARK    2  A    between atoms: C2_8  and  N5_9 
ROOT
HETATM    1  N5  UNL     1      -0.007   0.498  -0.510  1.00  0.00    -0.284 N 
HETATM    2  C3  UNL     1      -0.736   0.552  -1.731  1.00  0.00     0.189 C 
HETATM    3  C4  UNL     1      -2.181   0.169  -1.627  1.00  0.00     0.076 C 
HETATM    4  N6  UNL     1      -2.887   0.727  -0.545  1.00  0.00    -0.399 N 
ATOM      5  H6  UNL     1      -2.821   1.722  -0.330  1.00  0.00     0.158 HD
HETATM    6  C5  UNL     1      -3.692  -0.137   0.235  1.00  0.00     0.146 C 
HETATM    7  C6  UNL     1      -2.929  -1.137   1.062  1.00  0.00     0.253 C 
HETATM    8  N7  UNL     1      -2.047  -0.523   2.016  1.00  0.00    -0.059 N 
ATOM      9  H71 UNL     1      -2.055  -1.016   2.909  1.00  0.00     0.278 HD
ATOM     10  H72 UNL     1      -2.404   0.378   2.334  1.00  0.00     0.278 HD
HETATM   11  C7  UNL     1      -0.695  -0.407   1.476  1.00  0.00     0.366 C 
HETATM   12  N8  UNL     1      -0.523   0.828   0.750  1.00  0.00    -0.110 NA
ENDROOT
BRANCH   1  13
HETATM   13  C2  UNL     1       1.349   0.083  -0.547  1.00  0.00     0.213 C 
HETATM   14  N4  UNL     1       2.207   0.567  -1.364  1.00  0.00    -0.293 N 
ATOM     15  H4  UNL     1       1.919   1.287  -2.027  1.00  0.00     0.187 HD
BRANCH  14  16
HETATM   16  N3  UNL     1       3.529   0.125  -1.361  1.00  0.00    -0.275 N 
HETATM   17  C1  UNL     1       4.272   0.086  -0.309  1.00  0.00     0.215 C 
HETATM   18  N1  UNL     1       5.604  -0.394  -0.477  1.00  0.00    -0.065 NA
HETATM   19  N2  UNL     1       3.849   0.485   0.972  1.00  0.00    -0.065 NA
ATOM     20  H3  UNL     1       3.932  -0.186  -2.245  1.00  0.00     0.189 HD
ENDBRANCH  14  16
ENDBRANCH   1  13
TORSDOF 2
