REMARK  13 active torsions:
REMARK  status: ('A' for Active; 'I' for Inactive)
REMARK    1  A    between atoms: N1_2  and  C2_5 
REMARK    2  A    between atoms: C2_5  and  C3_6 
REMARK    3  A    between atoms: C3_6  and  N2_7 
REMARK    4  A    between atoms: N2_7  and  C4_10 
REMARK    5  A    between atoms: C4_10  and  C5_11 
REMARK    6  A    between atoms: C5_11  and  O1_12 
REMARK    7  A    between atoms: O1_12  and  N3_13 
REMARK    8  A    between atoms: N3_13  and  C6_15 
REMARK    9  A    between atoms: C6_15  and  C7_21 
REMARK   10  A    between atoms: N4_16  and  N5_18 
REMARK   11  A    between atoms: C8_24  and  N7_25 
REMARK   12  A    between atoms: C9_30  and  N9_31 
REMARK   13  A    between atoms: C10_34  and  N10_35 
ROOT
HETATM    1  C6  UNL     1      -2.506  -0.688  -0.087  1.00  0.00     0.170 C 
HETATM    2  N4  UNL     1      -2.441  -1.817   0.577  1.00  0.00    -0.289 N 
ATOM      3  H4  UNL     1      -3.245  -2.116   1.130  1.00  0.00     0.188 HD
ENDROOT
BRANCH   1   4
HETATM    4  N3  UNL     1      -1.366  -0.313  -0.843  1.00  0.00    -0.247 N 
ATOM      5  H3  UNL     1      -1.464   0.056  -1.789  1.00  0.00     0.196 HD
BRANCH   4   6
HETATM    6  O1  UNL     1      -0.162  -0.456  -0.285  1.00  0.00    -0.277 OA
BRANCH   6   7
HETATM    7  C5  UNL     1       0.858  -0.788  -1.148  1.00  0.00     0.228 C 
BRANCH   7   8
HETATM    8  C4  UNL     1       2.120  -0.886  -0.273  1.00  0.00     0.261 C 
BRANCH   8   9
HETATM    9  N2  UNL     1       3.252  -1.228  -1.071  1.00  0.00    -0.071 N 
ATOM     10  H22 UNL     1       3.376  -0.559  -1.831  1.00  0.00     0.277 HD
ATOM     11  H21 UNL     1       3.070  -2.070  -1.617  1.00  0.00     0.277 HD
BRANCH   9  12
HETATM   12  C3  UNL     1       4.458  -1.365  -0.312  1.00  0.00     0.259 C 
BRANCH  12  13
HETATM   13  C2  UNL     1       4.902  -0.030   0.222  1.00  0.00     0.259 C 
BRANCH  13  14
HETATM   14  N1  UNL     1       6.131  -0.158   0.995  1.00  0.00    -0.077 N 
HETATM   15  C1  UNL     1       6.546   1.128   1.503  1.00  0.00     0.267 C 
ATOM     16  H12 UNL     1       6.871  -0.610   0.458  1.00  0.00     0.276 HD
ATOM     17  H11 UNL     1       6.040  -0.848   1.740  1.00  0.00     0.276 HD
ENDBRANCH  13  14
ENDBRANCH  12  13
ENDBRANCH   9  12
ENDBRANCH   8   9
ENDBRANCH   7   8
ENDBRANCH   6   7
ENDBRANCH   4   6
ENDBRANCH   1   4
BRANCH   1  18
HETATM   18  C7  UNL     1      -3.731   0.059   0.005  1.00  0.00     0.133 A 
HETATM   19  N6  UNL     1      -4.933  -0.574   0.097  1.00  0.00    -0.186 N 
HETATM   20  C8  UNL     1      -6.069   0.126   0.184  1.00  0.00     0.678 A 
ATOM     21  H6  UNL     1      -4.967  -1.593   0.100  1.00  0.00     0.184 HD
HETATM   22  N8  UNL     1      -6.052   1.483   0.185  1.00  0.00    -0.175 N 
HETATM   23  C9  UNL     1      -4.902   2.172   0.098  1.00  0.00     0.150 A 
ATOM     24  H8  UNL     1      -6.933   1.992   0.253  1.00  0.00     0.186 HD
HETATM   25  C10 UNL     1      -3.715   1.428   0.006  1.00  0.00     0.177 A 
BRANCH  20  26
HETATM   26  N7  UNL     1      -7.179  -0.481   0.266  1.00  0.00    -0.234 N 
ATOM     27  H72 UNL     1      -7.192  -1.501   0.265  1.00  0.00     0.174 HD
ATOM     28  H71 UNL     1      -8.046   0.053   0.332  1.00  0.00     0.174 HD
ENDBRANCH  20  26
BRANCH  23  29
HETATM   29  N9  UNL     1      -4.866   3.464   0.100  1.00  0.00    -0.383 N 
ATOM     30  H92 UNL     1      -5.728   4.005   0.167  1.00  0.00     0.157 HD
ATOM     31  H91 UNL     1      -3.993   3.987   0.034  1.00  0.00     0.157 HD
ENDBRANCH  23  29
BRANCH  25  32
HETATM   32  N10 UNL     1      -2.520   2.178  -0.092  1.00  0.00    -0.109 N 
HETATM   33  O2  UNL     1      -1.765   2.279   0.879  1.00  0.00    -0.532 OA
HETATM   34  O3  UNL     1      -2.212   2.796  -1.270  1.00  0.00    -0.532 OA
ENDBRANCH  25  32
ENDBRANCH   1  18
BRANCH   2  35
HETATM   35  N5  UNL     1      -1.308  -2.615   0.547  1.00  0.00    -0.344 N 
ATOM     36  H52 UNL     1      -0.513  -2.302  -0.011  1.00  0.00     0.176 HD
ATOM     37  H51 UNL     1      -1.257  -3.493   1.063  1.00  0.00     0.176 HD
ENDBRANCH   2  35
TORSDOF 13
