REMARK  8 active torsions:
REMARK  status: ('A' for Active; 'I' for Inactive)
REMARK    1  A    between atoms: C2_3  and  C3_4 
REMARK    2  A    between atoms: N2_5  and  C4_6 
REMARK    3  A    between atoms: N2_5  and  N3_9 
REMARK    4  A    between atoms: C4_6  and  C5_7 
REMARK       I    between atoms: N3_9  and  C6_10 
REMARK    5  A    between atoms: C6_10  and  C7_12 
REMARK    6  A    between atoms: C12_18  and  S1_19 
REMARK    7  A    between atoms: S1_19  and  C13_22 
REMARK    8  A    between atoms: C18_29  and  C19_30 
ROOT
HETATM    1  N1  UNL     1       6.269  -3.181  -2.117  1.00  0.00    -0.197 NA
HETATM    2  C1  UNL     1       5.781  -2.665  -1.207  1.00  0.00     0.064 C 
HETATM    3  C2  UNL     1       5.144  -1.947  -0.116  1.00  0.00     0.171 C 
ENDROOT
BRANCH   3   4
HETATM    4  C3  UNL     1       4.343  -0.788  -0.727  1.00  0.00     0.111 C 
HETATM    5  N2  UNL     1       3.762   0.075   0.132  1.00  0.00    -0.237 N 
BRANCH   5   6
HETATM    6  C4  UNL     1       4.673   0.989   0.842  1.00  0.00     0.177 C 
BRANCH   6   7
HETATM    7  C5  UNL     1       5.326   2.035  -0.082  1.00  0.00     0.137 C 
HETATM    8 CL1  UNL     1       6.333   3.143   0.906  1.00  0.00    -0.129 Cl
ENDBRANCH   6   7
ENDBRANCH   5   6
BRANCH   5   9
HETATM    9  N3  UNL     1       2.586   0.238   0.610  1.00  0.00    -0.280 NA
HETATM   10  C6  UNL     1       1.294   0.406   1.166  1.00  0.00     0.347 C 
HETATM   11  O1  UNL     1       0.909   0.153   2.266  1.00  0.00    -0.249 OA
BRANCH  10  12
HETATM   12  C7  UNL     1       0.301   0.997   0.204  1.00  0.00     0.070 A 
HETATM   13  C8  UNL     1       0.385   2.419   0.232  1.00  0.00     0.021 A 
HETATM   14  C9  UNL     1      -0.322   3.121  -0.741  1.00  0.00     0.025 A 
HETATM   15  C10 UNL     1      -1.066   2.487  -1.673  1.00  0.00     0.035 A 
HETATM   16 CL2  UNL     1      -1.930   3.446  -2.865  1.00  0.00    -0.084 Cl
HETATM   17  C11 UNL     1      -1.173   1.085  -1.709  1.00  0.00     0.048 A 
HETATM   18  C12 UNL     1      -0.463   0.368  -0.748  1.00  0.00     0.082 A 
BRANCH  18  19
HETATM   19  S1  UNL     1      -0.894  -1.360  -0.609  1.00  0.00     0.208 S 
HETATM   20  O2  UNL     1       0.407  -2.100  -0.382  1.00  0.00    -0.217 OA
HETATM   21  O3  UNL     1      -1.488  -1.817  -1.859  1.00  0.00    -0.217 OA
BRANCH  19  22
HETATM   22  C13 UNL     1      -1.914  -1.634   0.784  1.00  0.00     0.077 A 
HETATM   23  C14 UNL     1      -1.443  -2.505   1.803  1.00  0.00     0.050 A 
HETATM   24  C15 UNL     1      -2.164  -2.727   2.930  1.00  0.00     0.057 A 
HETATM   25 CL3  UNL     1      -1.602  -3.896   4.159  1.00  0.00    -0.083 Cl
HETATM   26  C16 UNL     1      -3.350  -2.130   3.124  1.00  0.00     0.056 A 
HETATM   27 CL4  UNL     1      -4.339  -2.415   4.518  1.00  0.00    -0.083 Cl
HETATM   28  C17 UNL     1      -3.833  -1.298   2.182  1.00  0.00     0.039 A 
HETATM   29  C18 UNL     1      -3.096  -1.058   0.999  1.00  0.00     0.001 A 
BRANCH  29  30
HETATM   30  C19 UNL     1      -3.893  -0.267   0.033  1.00  0.00     0.014 A 
HETATM   31  C20 UNL     1      -4.464  -0.847  -1.085  1.00  0.00     0.017 A 
HETATM   32  C21 UNL     1      -5.308  -0.068  -1.853  1.00  0.00     0.025 A 
HETATM   33  C22 UNL     1      -5.663   1.224  -1.593  1.00  0.00     0.037 A 
HETATM   34 CL5  UNL     1      -6.749   2.171  -2.573  1.00  0.00    -0.084 Cl
HETATM   35  C23 UNL     1      -5.058   1.814  -0.436  1.00  0.00     0.066 A 
HETATM   36  C24 UNL     1      -4.225   1.052   0.301  1.00  0.00     0.129 A 
HETATM   37  F1  UNL     1      -3.622   1.584   1.417  1.00  0.00    -0.205 F 
ENDBRANCH  29  30
ENDBRANCH  19  22
ENDBRANCH  18  19
ENDBRANCH  10  12
ENDBRANCH   5   9
ENDBRANCH   3   4
TORSDOF 8
