REMARK  11 active torsions:
REMARK  status: ('A' for Active; 'I' for Inactive)
REMARK    1  A    between atoms: C5_5  and  N1_6 
REMARK    2  A    between atoms: N1_6  and  C6_8 
REMARK    3  A    between atoms: C7_9  and  N2_10 
REMARK       I    between atoms: N2_10  and  C8_12 
REMARK    4  A    between atoms: C8_12  and  C9_14 
REMARK    5  A    between atoms: C12_17  and  S1_18 
REMARK    6  A    between atoms: S1_18  and  N3_21 
REMARK       I    between atoms: N3_21  and  C13_23 
REMARK    7  A    between atoms: C13_23  and  C14_25 
REMARK    8  A    between atoms: C14_25  and  N4_26 
REMARK    9  A    between atoms: C16_28  and  C17_29 
REMARK   10  A    between atoms: C17_29  and  O5_30 
REMARK   11  A    between atoms: O5_30  and  C18_31 
ROOT
HETATM    1  S1  UNL     1      -0.879   0.669   1.549  1.00  0.00     0.281 S 
HETATM    2  O2  UNL     1      -1.206   0.323   2.989  1.00  0.00    -0.199 OA
HETATM    3  O3  UNL     1      -1.058   2.138   1.392  1.00  0.00    -0.199 OA
ENDROOT
BRANCH   1   4
HETATM    4  C12 UNL     1       0.762   0.213   1.158  1.00  0.00     0.149 A 
HETATM    5  C11 UNL     1       1.611   1.173   0.652  1.00  0.00     0.045 A 
HETATM    6  C10 UNL     1       2.899   0.791   0.344  1.00  0.00     0.021 A 
HETATM    7  C9  UNL     1       3.350  -0.502   0.526  1.00  0.00     0.047 A 
HETATM    8  C28 UNL     1       2.434  -1.395   1.036  1.00  0.00     0.106 A 
HETATM    9  N7  UNL     1       1.173  -1.049   1.345  1.00  0.00    -0.354 N 
ATOM     10  H7  UNL     1       0.530  -1.745   1.721  1.00  0.00     0.166 HD
BRANCH   7  11
HETATM   11  C8  UNL     1       4.734  -0.909   0.179  1.00  0.00     0.257 C 
HETATM   12  N2  UNL     1       5.308  -1.985   0.830  1.00  0.00    -0.317 N 
ATOM     13  H2  UNL     1       4.754  -2.470   1.536  1.00  0.00     0.169 HD
HETATM   14  O1  UNL     1       5.292  -0.236  -0.693  1.00  0.00    -0.267 OA
BRANCH  12  15
HETATM   15  C7  UNL     1       6.623  -2.455   0.575  1.00  0.00     0.121 A 
HETATM   16  C6  UNL     1       7.722  -2.163  -0.181  1.00  0.00     0.119 A 
HETATM   17  C30 UNL     1       8.409  -3.260   0.319  1.00  0.00     0.253 A 
HETATM   18  C29 UNL     1       7.336  -3.574   1.080  1.00  0.00     0.253 A 
HETATM   19  O7  UNL     1       9.582  -3.707   0.088  1.00  0.00    -0.281 OA
HETATM   20  O6  UNL     1       7.058  -4.488   1.913  1.00  0.00    -0.281 OA
BRANCH  16  21
HETATM   21  N1  UNL     1       8.075  -1.129  -1.112  1.00  0.00    -0.351 N 
ATOM     22  H1  UNL     1       7.803  -1.206  -2.092  1.00  0.00     0.166 HD
BRANCH  21  23
HETATM   23  C5  UNL     1       8.814   0.016  -0.654  1.00  0.00     0.032 A 
HETATM   24  C4  UNL     1       9.216   0.139   0.659  1.00  0.00     0.030 A 
HETATM   25  C3  UNL     1       9.930   1.253   1.084  1.00  0.00     0.009 A 
HETATM   26  C2  UNL     1      10.256   2.268   0.202  1.00  0.00    -0.062 A 
HETATM   27  C1  UNL     1      11.016   3.479   0.600  1.00  0.00     0.048 C 
HETATM   28  C32 UNL     1       9.852   2.139  -1.110  1.00  0.00     0.009 A 
HETATM   29  C31 UNL     1       9.145   1.031  -1.522  1.00  0.00     0.030 A 
ENDBRANCH  21  23
ENDBRANCH  16  21
ENDBRANCH  12  15
ENDBRANCH   7  11
ENDBRANCH   1   4
BRANCH   1  30
HETATM   30  N3  UNL     1      -1.935  -0.245   0.563  1.00  0.00    -0.248 N 
HETATM   31  C13 UNL     1      -2.110  -1.622   0.799  1.00  0.00     0.251 C 
HETATM   32  O4  UNL     1      -1.536  -2.272   1.710  1.00  0.00    -0.271 OA
ATOM     33  H3  UNL     1      -2.440   0.209  -0.199  1.00  0.00     0.182 HD
BRANCH  31  34
HETATM   34  C14 UNL     1      -3.037  -2.452  -0.061  1.00  0.00     0.253 C 
BRANCH  34  35
HETATM   35  N4  UNL     1      -3.668  -1.613  -1.060  1.00  0.00    -0.278 N 
HETATM   36  C15 UNL     1      -4.833  -0.972  -0.887  1.00  0.00     0.140 A 
HETATM   37  C16 UNL     1      -5.075  -0.286  -2.059  1.00  0.00     0.068 A 
HETATM   38  N5  UNL     1      -4.033  -0.564  -2.860  1.00  0.00    -0.287 N 
HETATM   39  N6  UNL     1      -3.197  -1.362  -2.247  1.00  0.00    -0.240 N 
ATOM     40  H5  UNL     1      -3.911  -0.205  -3.807  1.00  0.00     0.188 HD
ATOM     41  H6  UNL     1      -2.326  -1.725  -2.633  1.00  0.00     0.208 HD
BRANCH  37  42
HETATM   42  C17 UNL     1      -6.269   0.581  -2.341  1.00  0.00     0.235 C 
BRANCH  42  43
HETATM   43  O5  UNL     1      -7.206   0.391  -1.321  1.00  0.00    -0.344 OA
BRANCH  43  44
HETATM   44  C18 UNL     1      -8.422   1.003  -1.206  1.00  0.00     0.080 A 
HETATM   45  C19 UNL     1      -8.873   1.923  -2.131  1.00  0.00     0.037 A 
HETATM   46  C20 UNL     1     -10.103   2.531  -1.998  1.00  0.00     0.004 A 
HETATM   47  C21 UNL     1     -10.920   2.234  -0.930  1.00  0.00     0.012 A 
HETATM   48  C22 UNL     1     -10.484   1.320  -0.001  1.00  0.00    -0.023 A 
HETATM   49  C23 UNL     1     -11.264   0.988   1.086  1.00  0.00     0.012 A 
HETATM   50  C27 UNL     1      -9.242   0.710  -0.142  1.00  0.00     0.007 A 
HETATM   51  C24 UNL     1     -10.824   0.074   2.012  1.00  0.00     0.001 A 
HETATM   52  C25 UNL     1      -9.595  -0.524   1.865  1.00  0.00     0.001 A 
HETATM   53  C26 UNL     1      -8.794  -0.205   0.778  1.00  0.00     0.015 A 
ENDBRANCH  43  44
ENDBRANCH  42  43
ENDBRANCH  37  42
ENDBRANCH  34  35
ENDBRANCH  31  34
ENDBRANCH   1  30
TORSDOF 11
