REMARK  5 active torsions:
REMARK  status: ('A' for Active; 'I' for Inactive)
REMARK    1  A    between atoms: C2_2  and  C3_3 
REMARK    2  A    between atoms: C3_3  and  C4_4 
REMARK    3  A    between atoms: C9_9  and  N1_10 
REMARK    4  A    between atoms: C11_14  and  N2_15 
REMARK    5  A    between atoms: C15_21  and  O5_22 
ROOT
HETATM    1  C4  UNL     1       1.609   0.331  -0.046  1.00  0.00     0.086 C 
HETATM    2  C5  UNL     1       1.558  -0.611   1.083  1.00  0.00     0.026 C 
HETATM    3  C6  UNL     1       0.248  -1.240   1.437  1.00  0.00     0.007 C 
HETATM    4  C7  UNL     1      -0.538  -1.819   0.328  1.00  0.00     0.001 C 
HETATM    5  C8  UNL     1       0.198  -1.767  -1.008  1.00  0.00     0.066 C 
HETATM    6  C9  UNL     1      -0.055  -0.391  -1.577  1.00  0.00     0.172 C 
HETATM    7  C10 UNL     1      -1.482  -0.356  -2.024  1.00  0.00     0.092 C 
HETATM    8  C11 UNL     1      -2.441  -1.141  -1.183  1.00  0.00     0.169 C 
HETATM    9  C12 UNL     1      -1.961  -1.315   0.238  1.00  0.00     0.054 C 
HETATM   10  C13 UNL     1      -2.120   0.029   0.857  1.00  0.00    -0.019 A 
HETATM   11  C14 UNL     1      -3.045   0.228   1.851  1.00  0.00     0.065 A 
HETATM   12  C15 UNL     1      -2.991   1.553   2.238  1.00  0.00     0.140 A 
HETATM   13  N3  UNL     1      -2.055   2.144   1.495  1.00  0.00    -0.336 N 
ATOM     14  H3  UNL     1      -1.786   3.126   1.552  1.00  0.00     0.168 HD
HETATM   15  C16 UNL     1      -1.530   1.249   0.671  1.00  0.00     0.056 A 
HETATM   16  C17 UNL     1      -0.430   1.643  -0.291  1.00  0.00     0.118 C 
HETATM   17  N4  UNL     1       0.365   0.547  -0.639  1.00  0.00    -0.352 N 
ENDROOT
BRANCH   1  18
HETATM   18  C3  UNL     1       2.419   1.588   0.196  1.00  0.00     0.025 C 
BRANCH  18  19
HETATM   19  C2  UNL     1       3.866   1.327   0.510  1.00  0.00    -0.002 C 
HETATM   20  C1  UNL     1       4.587   0.597  -0.593  1.00  0.00     0.005 C 
ENDBRANCH  18  19
ENDBRANCH   1  18
BRANCH   6  21
HETATM   21  N1  UNL     1       0.756  -0.262  -2.783  1.00  0.00    -0.124 N 
HETATM   22  O1  UNL     1       1.559   0.672  -2.941  1.00  0.00    -0.534 OA
HETATM   23  O2  UNL     1       0.661  -1.160  -3.819  1.00  0.00    -0.534 OA
ENDBRANCH   6  21
BRANCH   8  24
HETATM   24  N2  UNL     1      -2.961  -2.329  -1.794  1.00  0.00    -0.150 N 
HETATM   25  O3  UNL     1      -2.625  -2.575  -2.976  1.00  0.00    -0.536 OA
HETATM   26  O4  UNL     1      -3.798  -3.212  -1.206  1.00  0.00    -0.536 OA
ENDBRANCH   8  24
BRANCH  12  27
HETATM   27  O5  UNL     1      -3.787   2.163   3.240  1.00  0.00    -0.346 OA
ATOM     28  H5  UNL     1      -3.750   3.074   3.506  1.00  0.00     0.219 HD
ENDBRANCH  12  27
TORSDOF 5
