REMARK  7 active torsions:
REMARK  status: ('A' for Active; 'I' for Inactive)
REMARK    1  A    between atoms: C15_18  and  O2_19 
REMARK    2  A    between atoms: C16_21  and  O3_22 
REMARK    3  A    between atoms: C17_26  and  C18_27 
REMARK    4  A    between atoms: C18_27  and  O4_28 
REMARK    5  A    between atoms: C18_27  and  C22_33 
REMARK    6  A    between atoms: O4_28  and  C19_29 
REMARK    7  A    between atoms: C19_29  and  C20_31 
ROOT
HETATM    1  C1  UNL     1      -3.419  -0.644  -2.294  1.00  0.00     0.015 C 
HETATM    2  C2  UNL     1      -3.941  -0.758  -1.109  1.00  0.00    -0.080 C 
HETATM    3  C3  UNL     1      -5.422  -0.905  -0.998  1.00  0.00     0.034 C 
HETATM    4  C4  UNL     1      -5.638  -2.253  -0.344  1.00  0.00     0.004 C 
HETATM    5  C5  UNL     1      -4.713  -2.530   0.788  1.00  0.00     0.001 C 
HETATM    6  C6  UNL     1      -3.247  -2.215   0.526  1.00  0.00     0.014 C 
HETATM    7  C7  UNL     1      -3.087  -0.791   0.101  1.00  0.00    -0.013 C 
HETATM    8  C8  UNL     1      -3.909  -0.056   1.189  1.00  0.00     0.015 C 
HETATM    9  C9  UNL     1      -3.698   1.326   0.761  1.00  0.00     0.010 C 
HETATM   10  C10 UNL     1      -2.160   1.351   0.533  1.00  0.00    -0.038 C 
HETATM   11  C11 UNL     1      -1.686   1.672   1.873  1.00  0.00     0.015 C 
HETATM   12  C12 UNL     1      -2.010   2.422  -0.502  1.00  0.00     0.018 C 
HETATM   13  C13 UNL     1      -1.003   3.504  -0.236  1.00  0.00     0.104 C 
HETATM   14  C14 UNL     1      -0.321   3.765  -1.554  1.00  0.00     0.223 C 
HETATM   15  O1  UNL     1      -1.142   3.772  -2.547  1.00  0.00    -0.273 OA
HETATM   16  N1  UNL     1       1.044   3.991  -1.812  1.00  0.00    -0.304 N 
ATOM     17  H1  UNL     1       1.231   4.928  -2.169  1.00  0.00     0.171 HD
HETATM   18  C15 UNL     1       2.194   3.219  -1.688  1.00  0.00     0.194 C 
HETATM   19  C16 UNL     1       2.638   1.893  -2.058  1.00  0.00     0.188 C 
HETATM   20  N2  UNL     1       2.148   0.602  -1.868  1.00  0.00    -0.360 N 
ATOM     21  H2  UNL     1       1.972   0.095  -2.736  1.00  0.00     0.162 HD
HETATM   22  C17 UNL     1       1.835  -0.171  -0.651  1.00  0.00     0.114 C 
HETATM   23  C25 UNL     1       0.556   0.301  -0.147  1.00  0.00     0.037 C 
HETATM   24  C26 UNL     1      -0.516  -0.574   0.432  1.00  0.00    -0.033 A 
HETATM   25  C27 UNL     1      -0.169  -1.972   0.635  1.00  0.00     0.011 A 
HETATM   26  C28 UNL     1      -0.381  -1.146   1.797  1.00  0.00     0.011 A 
HETATM   27  C29 UNL     1      -1.876  -0.074   0.012  1.00  0.00     0.015 C 
ENDROOT
BRANCH  22  28
HETATM   28  C18 UNL     1       3.013  -0.364   0.217  1.00  0.00     0.158 C 
BRANCH  28  29
HETATM   29  O4  UNL     1       3.955  -1.045  -0.607  1.00  0.00    -0.314 OA
BRANCH  29  30
HETATM   30  C19 UNL     1       4.485  -2.282  -0.358  1.00  0.00     0.258 C 
HETATM   31  O5  UNL     1       4.127  -2.890   0.685  1.00  0.00    -0.265 OA
BRANCH  30  32
HETATM   32  C20 UNL     1       5.474  -2.909  -1.299  1.00  0.00     0.106 C 
HETATM   33  C21 UNL     1       6.732  -3.305  -0.578  1.00  0.00     0.015 C 
ENDBRANCH  30  32
ENDBRANCH  29  30
ENDBRANCH  28  29
BRANCH  28  34
HETATM   34  C22 UNL     1       3.729   0.737   0.864  1.00  0.00     0.009 C 
HETATM   35  C23 UNL     1       2.984   1.590   1.840  1.00  0.00     0.012 C 
HETATM   36  C24 UNL     1       4.845   0.079   1.702  1.00  0.00     0.012 C 
ENDBRANCH  28  34
ENDBRANCH  22  28
BRANCH  19  37
HETATM   37  O3  UNL     1       3.782   1.804  -2.748  1.00  0.00    -0.343 OA
ATOM     38  H3  UNL     1       4.074   0.933  -2.991  1.00  0.00     0.219 HD
ENDBRANCH  19  37
BRANCH  18  39
HETATM   39  O2  UNL     1       3.146   3.871  -1.065  1.00  0.00    -0.343 OA
ATOM     40  H2  UNL     1       3.932   3.344  -0.980  1.00  0.00     0.219 HD
ENDBRANCH  18  39
TORSDOF 7
