REMARK  5 active torsions:
REMARK  status: ('A' for Active; 'I' for Inactive)
REMARK    1  A    between atoms: C5_5  and  O1_6 
REMARK    2  A    between atoms: O1_6  and  C6_7 
REMARK    3  A    between atoms: C17_18  and  C18_19 
REMARK    4  A    between atoms: C18_19  and  C19_20 
REMARK    5  A    between atoms: C28_33  and  C29_34 
ROOT
HETATM    1  C6  UNL     1       1.617   0.718  -0.475  1.00  0.00     0.122 C 
HETATM    2  C7  UNL     1       0.619  -0.065  -1.271  1.00  0.00     0.033 C 
HETATM    3  C8  UNL     1      -0.326  -0.890  -0.493  1.00  0.00     0.012 C 
HETATM    4  C9  UNL     1      -0.749  -0.345   0.821  1.00  0.00    -0.036 C 
HETATM    5  C10 UNL     1      -0.001  -1.147   1.901  1.00  0.00     0.016 C 
HETATM    6  C11 UNL     1      -0.381   1.091   1.021  1.00  0.00    -0.004 C 
HETATM    7  C12 UNL     1      -1.205   2.054   0.213  1.00  0.00     0.006 C 
HETATM    8  C13 UNL     1      -2.447   1.475  -0.372  1.00  0.00     0.006 C 
HETATM    9  C14 UNL     1      -3.116   0.462   0.490  1.00  0.00    -0.003 C 
HETATM   10  C15 UNL     1      -4.121  -0.299  -0.337  1.00  0.00     0.027 C 
HETATM   11  C16 UNL     1      -5.181   0.541  -0.958  1.00  0.00     0.040 C 
HETATM   12  C17 UNL     1      -6.430  -0.323  -0.748  1.00  0.00     0.133 C 
HETATM   13  O4  UNL     1      -5.995  -1.497  -0.129  1.00  0.00    -0.374 OA
HETATM   14  C20 UNL     1      -4.961  -1.093   0.678  1.00  0.00     0.062 C 
HETATM   15  C21 UNL     1      -5.497  -0.173   1.752  1.00  0.00     0.046 C 
HETATM   16  C22 UNL     1      -4.089  -2.165   1.214  1.00  0.00     0.038 C 
HETATM   17  C23 UNL     1      -2.637  -1.975   0.923  1.00  0.00     0.009 C 
HETATM   18  C24 UNL     1      -2.209  -0.522   1.137  1.00  0.00    -0.001 C 
HETATM   19  C25 UNL     1       1.062   1.378   0.746  1.00  0.00     0.037 C 
ENDROOT
BRANCH   1  20
HETATM   20  O1  UNL     1       2.719  -0.090  -0.201  1.00  0.00    -0.380 OA
BRANCH  20  21
HETATM   21  C5  UNL     1       3.891   0.338  -0.818  1.00  0.00     0.129 C 
HETATM   22  C4  UNL     1       4.841   0.784   0.238  1.00  0.00     0.042 C 
HETATM   23  C2  UNL     1       5.920  -0.234   0.534  1.00  0.00    -0.027 C 
HETATM   24  C1  UNL     1       6.723   0.263   1.712  1.00  0.00     0.016 C 
HETATM   25  C3  UNL     1       5.360  -1.589   0.819  1.00  0.00     0.016 C 
HETATM   26  C28 UNL     1       6.763  -0.322  -0.722  1.00  0.00     0.152 C 
HETATM   27  C27 UNL     1       5.874  -0.855  -1.789  1.00  0.00     0.142 C 
HETATM   28  C26 UNL     1       4.432  -0.633  -1.803  1.00  0.00     0.111 C 
HETATM   29  O5  UNL     1       6.383  -1.494  -2.672  1.00  0.00    -0.297 OA
BRANCH  26  30
HETATM   30  C29 UNL     1       7.218   1.042  -1.156  1.00  0.00     0.243 C 
HETATM   31  N1  UNL     1       8.016   1.865  -0.312  1.00  0.00    -0.061 NA
HETATM   32  O6  UNL     1       6.910   1.511  -2.286  1.00  0.00    -0.276 OA
ENDBRANCH  26  30
ENDBRANCH  20  21
ENDBRANCH   1  20
BRANCH  12  33
HETATM   33  C18 UNL     1      -6.974  -0.682  -2.105  1.00  0.00     0.145 C 
BRANCH  33  34
HETATM   34  C19 UNL     1      -7.321   0.550  -2.841  1.00  0.00     0.175 C 
HETATM   35  O2  UNL     1      -7.794   0.471  -4.002  1.00  0.00    -0.648 OA
HETATM   36  O3  UNL     1      -7.147   1.815  -2.300  1.00  0.00    -0.648 OA
ENDBRANCH  33  34
ENDBRANCH  12  33
TORSDOF 5
