REMARK  17 active torsions:
REMARK  status: ('A' for Active; 'I' for Inactive)
REMARK    1  A    between atoms: C2_2  and  O1_3 
REMARK    2  A    between atoms: O1_3  and  C3_4 
REMARK    3  A    between atoms: C3_4  and  C4_6 
REMARK    4  A    between atoms: C5_7  and  C6_8 
REMARK    5  A    between atoms: C6_8  and  C7_9 
REMARK    6  A    between atoms: C7_9  and  C8_10 
REMARK       I    between atoms: C8_10  and  N1_12 
REMARK    7  A    between atoms: N1_12  and  C9_13 
REMARK    8  A    between atoms: N1_12  and  C11_15 
REMARK    9  A    between atoms: N2_20  and  C15_21 
REMARK   10  A    between atoms: C15_21  and  C16_22 
REMARK   11  A    between atoms: C16_22  and  C17_23 
REMARK   12  A    between atoms: C17_23  and  C18_24 
REMARK   13  A    between atoms: C19_25  and  S2_26 
REMARK       I    between atoms: N3_30  and  C22_32 
REMARK   14  A    between atoms: C22_32  and  C23_34 
REMARK   15  A    between atoms: C26_37  and  C27_38 
REMARK   16  A    between atoms: C27_38  and  O7_40 
REMARK   17  A    between atoms: O7_40  and  C28_41 
ROOT
HETATM    1  C4  UNL     1       1.645  -0.425   0.970  1.00  0.00     0.121 C 
HETATM    2  C5  UNL     1       2.486   0.008   0.081  1.00  0.00     0.013 C 
HETATM    3  S1  UNL     1       1.489   0.947  -1.126  1.00  0.00    -0.104 SA
HETATM    4  C13 UNL     1       0.106   1.175   0.108  1.00  0.00     0.171 C 
HETATM    5  C14 UNL     1      -1.142   1.503  -0.590  1.00  0.00     0.160 C 
HETATM    6  N2  UNL     1      -2.314   0.890   0.033  1.00  0.00    -0.366 N 
HETATM    7  C21 UNL     1      -2.152  -0.483   0.354  1.00  0.00     0.115 C 
HETATM    8  N3  UNL     1      -3.011  -1.374   0.172  1.00  0.00    -0.314 N 
ATOM      9  H3  UNL     1      -2.651  -2.275   0.486  1.00  0.00     0.170 HD
HETATM   10  C22 UNL     1      -4.276  -1.520  -0.314  1.00  0.00     0.226 C 
HETATM   11  O5  UNL     1      -4.567  -1.442  -1.555  1.00  0.00    -0.273 OA
HETATM   12  C26 UNL     1      -0.855  -0.972   0.972  1.00  0.00     0.254 C 
HETATM   13  N4  UNL     1       0.246  -0.124   0.699  1.00  0.00    -0.339 N 
ENDROOT
BRANCH   2  14
HETATM   14  C6  UNL     1       3.940  -0.064  -0.099  1.00  0.00     0.058 C 
BRANCH  14  15
HETATM   15  C7  UNL     1       4.561   1.330  -0.179  1.00  0.00     0.108 C 
BRANCH  15  16
HETATM   16  C8  UNL     1       6.025   1.247  -0.346  1.00  0.00     0.220 C 
HETATM   17  O3  UNL     1       6.574   0.117  -0.287  1.00  0.00    -0.273 OA
HETATM   18  N1  UNL     1       6.844   2.382  -0.568  1.00  0.00    -0.353 N 
BRANCH  18  19
HETATM   19  C9  UNL     1       6.210   3.678  -0.650  1.00  0.00     0.121 C 
HETATM   20  C10 UNL     1       5.861   3.884  -2.131  1.00  0.00     0.026 C 
ENDBRANCH  18  19
BRANCH  18  21
HETATM   21  C11 UNL     1       8.281   2.306  -0.709  1.00  0.00     0.121 C 
HETATM   22  C12 UNL     1       8.986   2.451   0.617  1.00  0.00     0.026 C 
ENDBRANCH  18  21
ENDBRANCH  15  16
ENDBRANCH  14  15
ENDBRANCH   2  14
BRANCH   1  23
HETATM   23  C3  UNL     1       2.046  -1.197   2.171  1.00  0.00     0.311 C 
HETATM   24  O2  UNL     1       1.191  -1.598   3.012  1.00  0.00    -0.258 OA
BRANCH  23  25
HETATM   25  O1  UNL     1       3.358  -1.492   2.393  1.00  0.00    -0.317 OA
BRANCH  25  26
HETATM   26  C2  UNL     1       3.850  -2.207   3.479  1.00  0.00     0.175 C 
HETATM   27  C1  UNL     1       3.235  -3.590   3.479  1.00  0.00     0.034 C 
ENDBRANCH  25  26
ENDBRANCH  23  25
ENDBRANCH   1  23
BRANCH  12  28
HETATM   28  C27 UNL     1      -0.664  -2.400   0.605  1.00  0.00     0.290 C 
HETATM   29  O6  UNL     1      -1.575  -3.249   0.836  1.00  0.00    -0.262 OA
BRANCH  28  30
HETATM   30  O7  UNL     1       0.477  -2.907   0.003  1.00  0.00    -0.309 OA
BRANCH  30  31
HETATM   31  C28 UNL     1       0.649  -4.269  -0.347  1.00  0.00     0.060 C 
HETATM   32  C29 UNL     1       0.547  -5.186   0.841  1.00  0.00     0.045 C 
HETATM   33  C30 UNL     1       2.088  -4.409  -0.862  1.00  0.00     0.045 C 
HETATM   34  C31 UNL     1      -0.310  -4.735  -1.398  1.00  0.00     0.045 C 
ENDBRANCH  30  31
ENDBRANCH  28  30
ENDBRANCH  12  28
BRANCH   6  35
HETATM   35  C15 UNL     1      -3.496   1.601   0.347  1.00  0.00     0.124 C 
BRANCH  35  36
HETATM   36  C16 UNL     1      -4.313   2.150  -0.760  1.00  0.00     0.023 C 
BRANCH  36  37
HETATM   37  C17 UNL     1      -5.512   2.848  -0.100  1.00  0.00     0.029 C 
BRANCH  37  38
HETATM   38  C18 UNL     1      -6.422   3.444  -1.091  1.00  0.00    -0.018 C 
HETATM   39  C19 UNL     1      -6.278   3.422  -2.382  1.00  0.00     0.074 C 
BRANCH  39  40
HETATM   40  S2  UNL     1      -7.458   4.183  -3.423  1.00  0.00     0.034 S 
HETATM   41  C20 UNL     1      -8.173   5.564  -2.570  1.00  0.00     0.132 C 
HETATM   42  O4  UNL     1      -6.830   4.677  -4.879  1.00  0.00    -0.254 OA
ENDBRANCH  39  40
ENDBRANCH  37  38
ENDBRANCH  36  37
ENDBRANCH  35  36
ENDBRANCH   6  35
BRANCH  10  43
HETATM   43  C23 UNL     1      -5.424  -1.793   0.622  1.00  0.00     0.070 C 
HETATM   44  C24 UNL     1      -5.244  -3.124   1.288  1.00  0.00     0.019 C 
HETATM   45  C25 UNL     1      -6.744  -1.736  -0.086  1.00  0.00     0.019 C 
ENDBRANCH  10  43
TORSDOF 17
