REMARK  9 active torsions:
REMARK  status: ('A' for Active; 'I' for Inactive)
REMARK    1  A    between atoms: O1_2  and  C2_3 
REMARK    2  A    between atoms: C2_3  and  C3_4 
REMARK    3  A    between atoms: C3_4  and  C4_5 
REMARK    4  A    between atoms: C4_5  and  C5_6 
REMARK    5  A    between atoms: C11_12  and  C12_13 
REMARK    6  A    between atoms: C12_13  and  N1_14 
REMARK    7  A    between atoms: C16_21  and  C17_22 
REMARK    8  A    between atoms: C17_22  and  N4_23 
REMARK    9  A    between atoms: N4_23  and  C18_25 
ROOT
HETATM    1  C3  UNL     1      -0.414   0.194   0.379  1.00  0.00    -0.013 C 
HETATM    2  C10 UNL     1       0.897  -0.531   0.683  1.00  0.00     0.018 C 
HETATM    3  C11 UNL     1       1.932  -0.006  -0.228  1.00  0.00     0.004 C 
HETATM    4  C14 UNL     1       2.420   1.329   0.296  1.00  0.00     0.007 C 
HETATM    5  C15 UNL     1       1.266   1.988   0.969  1.00  0.00     0.007 C 
HETATM    6  C16 UNL     1       0.005   1.622   0.183  1.00  0.00     0.014 C 
ENDROOT
BRANCH   1   7
HETATM    7  C2  UNL     1      -1.235   0.016   1.657  1.00  0.00     0.176 C 
BRANCH   7   8
HETATM    8  O1  UNL     1      -2.431   0.688   1.626  1.00  0.00    -0.395 OA
HETATM    9  C1  UNL     1      -3.184   0.530   2.777  1.00  0.00     0.201 C 
ENDBRANCH   7   8
ENDBRANCH   1   7
BRANCH   1  10
HETATM   10  C4  UNL     1      -1.186  -0.310  -0.756  1.00  0.00     0.017 C 
BRANCH  10  11
HETATM   11  C5  UNL     1      -1.595  -1.765  -0.797  1.00  0.00    -0.014 C 
HETATM   12  C6  UNL     1      -2.413  -1.841  -2.123  1.00  0.00     0.005 C 
HETATM   13  C7  UNL     1      -2.329  -3.253  -2.568  1.00  0.00     0.000 C 
HETATM   14  C8  UNL     1      -1.120  -3.865  -1.967  1.00  0.00     0.000 C 
HETATM   15  C9  UNL     1      -0.535  -2.756  -1.073  1.00  0.00     0.005 C 
ENDBRANCH  10  11
ENDBRANCH   1  10
BRANCH   6  16
HETATM   16  C17 UNL     1      -0.954   2.711   0.384  1.00  0.00     0.127 C 
BRANCH  16  17
HETATM   17  N4  UNL     1      -2.091   2.814  -0.463  1.00  0.00    -0.369 N 
ATOM     18  H4  UNL     1      -2.192   2.211  -1.279  1.00  0.00     0.161 HD
BRANCH  17  19
HETATM   19  C18 UNL     1      -3.089   3.784  -0.141  1.00  0.00     0.180 C 
HETATM   20  N5  UNL     1      -4.235   3.910  -0.965  1.00  0.00    -0.070 NA
HETATM   21  S1  UNL     1      -2.894   4.722   1.163  1.00  0.00    -0.044 SA
ENDBRANCH  17  19
ENDBRANCH  16  17
ENDBRANCH   6  16
BRANCH   3  22
HETATM   22  C12 UNL     1       3.141  -0.904  -0.375  1.00  0.00     0.126 C 
BRANCH  22  23
HETATM   23  N1  UNL     1       3.809  -1.141   0.859  1.00  0.00    -0.367 N 
HETATM   24  C13 UNL     1       5.038  -0.868   1.069  1.00  0.00     0.196 C 
HETATM   25  N2  UNL     1       5.798  -0.293   0.023  1.00  0.00    -0.067 NA
HETATM   26  N3  UNL     1       5.594  -1.152   2.338  1.00  0.00    -0.067 NA
ATOM     27  H1  UNL     1       3.273  -1.554   1.622  1.00  0.00     0.161 HD
ENDBRANCH  22  23
ENDBRANCH   3  22
TORSDOF 9
