REMARK  2 active torsions:
REMARK  status: ('A' for Active; 'I' for Inactive)
REMARK    1  A    between atoms: N1_3  and  C3_4 
REMARK    2  A    between atoms: C3_4  and  C4_5 
ROOT
HETATM    1  C4  UNL     1      -0.552  -0.069   0.245  1.00  0.00     0.159 C 
HETATM    2  C5  UNL     1      -1.481  -1.198   0.707  1.00  0.00     0.045 C 
HETATM    3  C6  UNL     1      -2.928  -0.860   0.403  1.00  0.00     0.036 C 
HETATM    4  C7  UNL     1      -2.924   0.587  -0.098  1.00  0.00     0.147 C 
HETATM    5  C8  UNL     1      -2.100   0.647  -1.367  1.00  0.00     0.265 C 
HETATM    6  N2  UNL     1      -0.759   0.155  -1.176  1.00  0.00    -0.061 N 
ATOM      7  H21 UNL     1      -0.561  -0.674  -1.737  1.00  0.00     0.278 HD
ATOM      8  H22 UNL     1      -0.054   0.769  -1.583  1.00  0.00     0.278 HD
HETATM    9  O1  UNL     1      -2.327   1.346   0.921  1.00  0.00    -0.382 OA
HETATM   10  C9  UNL     1      -0.957   1.179   0.962  1.00  0.00     0.208 C 
ENDROOT
BRANCH   1  11
HETATM   11  C3  UNL     1       0.848  -0.512   0.551  1.00  0.00     0.146 C 
BRANCH  11  12
HETATM   12  N1  UNL     1       1.851   0.443   0.176  1.00  0.00    -0.230 NA
HETATM   13  C2  UNL     1       3.147  -0.128   0.533  1.00  0.00     0.132 C 
HETATM   14  C1  UNL     1       4.139   0.405  -0.469  1.00  0.00     0.202 C 
HETATM   15  O2  UNL     1       3.692   0.041  -1.732  1.00  0.00    -0.305 OA
HETATM   16  S1  UNL     1       2.006   0.445  -1.605  1.00  0.00     0.083 SA
ENDBRANCH  11  12
ENDBRANCH   1  11
TORSDOF 2
