REMARK  4 active torsions:
REMARK  status: ('A' for Active; 'I' for Inactive)
REMARK    1  A    between atoms: C4_8  and  N3_9 
REMARK       I    between atoms: N3_9  and  C5_11 
REMARK    2  A    between atoms: C8_20  and  C9_21 
REMARK    3  A    between atoms: C9_21  and  C10_22 
REMARK    4  A    between atoms: C10_22  and  N7_23 
ROOT
HETATM    1  C1  UNL     1      -0.236  -2.139   2.081  1.00  0.00     0.068 C 
HETATM    2  C2  UNL     1       0.829  -1.535   1.255  1.00  0.00     0.014 A 
HETATM    3  N1  UNL     1       2.148  -1.507   1.537  1.00  0.00    -0.345 N 
ATOM      4  H1  UNL     1       2.572  -1.909   2.373  1.00  0.00     0.167 HD
HETATM    5  C3  UNL     1       2.823  -0.878   0.566  1.00  0.00     0.133 A 
HETATM    6  N2  UNL     1       4.135  -0.577   0.353  1.00  0.00    -0.175 N 
ATOM      7  H2  UNL     1       4.839  -0.856   1.037  1.00  0.00     0.186 HD
HETATM    8  C4  UNL     1       4.500   0.081  -0.747  1.00  0.00     0.686 A 
HETATM    9  N6  UNL     1       3.575   0.446  -1.645  1.00  0.00    -0.201 N 
ATOM     10  H6  UNL     1       3.876   0.948  -2.480  1.00  0.00     0.183 HD
HETATM   11  C6  UNL     1       2.264   0.177  -1.490  1.00  0.00     0.122 A 
HETATM   12  C7  UNL     1       1.874  -0.496  -0.368  1.00  0.00     0.033 A 
HETATM   13  C8  UNL     1       0.617  -0.901   0.051  1.00  0.00    -0.019 A 
ENDROOT
BRANCH  13  14
HETATM   14  C9  UNL     1      -0.694  -0.692  -0.653  1.00  0.00     0.061 C 
BRANCH  14  15
HETATM   15  C10 UNL     1      -1.462   0.416   0.018  1.00  0.00     0.132 C 
BRANCH  15  16
HETATM   16  N7  UNL     1      -2.713   0.615  -0.662  1.00  0.00    -0.333 N 
HETATM   17  C11 UNL     1      -2.859   1.545  -1.770  1.00  0.00     0.136 C 
HETATM   18  C12 UNL     1      -3.892   2.573  -1.360  1.00  0.00     0.123 C 
HETATM   19  C13 UNL     1      -5.160   1.829  -1.075  1.00  0.00     0.229 C 
HETATM   20  O1  UNL     1      -6.293   2.319  -1.344  1.00  0.00    -0.273 OA
HETATM   21  N8  UNL     1      -5.153   0.534  -0.488  1.00  0.00    -0.274 N 
HETATM   22  C14 UNL     1      -6.358  -0.161  -0.106  1.00  0.00     0.164 C 
HETATM   23  C15 UNL     1      -3.892  -0.101  -0.271  1.00  0.00     0.326 C 
HETATM   24  O2  UNL     1      -3.789  -1.245   0.243  1.00  0.00    -0.247 OA
ENDBRANCH  15  16
ENDBRANCH  14  15
ENDBRANCH  13  14
BRANCH   8  25
HETATM   25  N3  UNL     1       5.721   0.366  -0.955  1.00  0.00    -0.164 N 
HETATM   26  C5  UNL     1       6.699  -0.021  -0.008  1.00  0.00     0.200 C 
HETATM   27  N4  UNL     1       7.132  -1.232  -0.057  1.00  0.00    -0.373 N 
HETATM   28  N5  UNL     1       7.158   0.926   0.942  1.00  0.00    -0.063 NA
ATOM     29  H42 UNL     1       6.802  -1.913  -0.740  1.00  0.00     0.158 HD
ATOM     30  H41 UNL     1       7.837  -1.511   0.626  1.00  0.00     0.158 HD
ATOM     31  H3  UNL     1       5.994   0.870  -1.799  1.00  0.00     0.187 HD
ENDBRANCH   8  25
TORSDOF 4
