REMARK  4 active torsions:
REMARK  status: ('A' for Active; 'I' for Inactive)
REMARK       I    between atoms: N1_2  and  C2_4 
REMARK       I    between atoms: C2_4  and  N2_6 
REMARK    1  A    between atoms: N2_6  and  C3_8 
REMARK    2  A    between atoms: C3_8  and  C4_9 
REMARK    3  A    between atoms: C9_14  and  C10_15 
REMARK       I    between atoms: C10_15  and  N3_17 
REMARK    4  A    between atoms: N3_17  and  C11_19 
ROOT
HETATM    1  C4  UNL     1       1.882  -0.942  -0.160  1.00  0.00     0.059 A 
HETATM    2  C5  UNL     1       0.850  -1.587   0.557  1.00  0.00    -0.026 A 
HETATM    3  C6  UNL     1       1.178  -2.494   1.631  1.00  0.00     0.051 C 
HETATM    4  C7  UNL     1      -0.475  -1.381   0.244  1.00  0.00    -0.033 A 
HETATM    5  C8  UNL     1      -1.571  -2.062   1.011  1.00  0.00     0.050 C 
HETATM    6  C9  UNL     1      -0.827  -0.545  -0.772  1.00  0.00     0.106 A 
HETATM    7  C15 UNL     1       0.192   0.069  -1.455  1.00  0.00     0.264 A 
HETATM    8  O3  UNL     1      -0.111   0.857  -2.411  1.00  0.00    -0.267 OA
HETATM    9  N6  UNL     1       1.514  -0.141  -1.138  1.00  0.00    -0.316 N 
HETATM   10  C16 UNL     1       2.466   0.526  -2.011  1.00  0.00     0.159 C 
ENDROOT
BRANCH   6  11
HETATM   11  C10 UNL     1      -2.211  -0.292  -1.146  1.00  0.00     0.263 C 
HETATM   12  O2  UNL     1      -2.425   0.518  -2.123  1.00  0.00    -0.267 OA
HETATM   13  N3  UNL     1      -3.354  -0.828  -0.567  1.00  0.00    -0.308 N 
ATOM     14  H3  UNL     1      -3.325  -1.827  -0.364  1.00  0.00     0.170 HD
BRANCH  13  15
HETATM   15  C11 UNL     1      -4.435  -0.228  -0.258  1.00  0.00     0.124 A 
HETATM   16  C12 UNL     1      -4.678   1.109  -0.447  1.00  0.00     0.076 A 
HETATM   17  C13 UNL     1      -5.965   1.388   0.015  1.00  0.00     0.025 A 
HETATM   18  C14 UNL     1      -6.647   2.710   0.007  1.00  0.00     0.070 C 
HETATM   19  N4  UNL     1      -6.448   0.214   0.463  1.00  0.00    -0.304 N 
HETATM   20  N5  UNL     1      -5.554  -0.736   0.305  1.00  0.00    -0.285 N 
ATOM     21  H4  UNL     1      -7.375   0.081   0.867  1.00  0.00     0.186 HD
ATOM     22  H5  UNL     1      -5.685  -1.713   0.568  1.00  0.00     0.188 HD
ENDBRANCH  13  15
ENDBRANCH   6  11
BRANCH   1  23
HETATM   23  C3  UNL     1       3.199  -1.280   0.263  1.00  0.00     0.123 C 
BRANCH  23  24
HETATM   24  N2  UNL     1       4.394  -0.696  -0.213  1.00  0.00    -0.317 N 
HETATM   25  C2  UNL     1       4.881   0.610   0.164  1.00  0.00     0.319 C 
HETATM   26  N1  UNL     1       6.094   1.078  -0.403  1.00  0.00    -0.347 N 
HETATM   27  O1  UNL     1       4.259   1.344   0.982  1.00  0.00    -0.247 OA
HETATM   28  C1  UNL     1       6.646   2.381  -0.072  1.00  0.00     0.151 C 
ATOM     29  H1  UNL     1       6.594   0.482  -1.063  1.00  0.00     0.163 HD
ATOM     30  H2  UNL     1       4.954  -1.237  -0.872  1.00  0.00     0.170 HD
ENDBRANCH  23  24
ENDBRANCH   1  23
TORSDOF 4
