REMARK  8 active torsions:
REMARK  status: ('A' for Active; 'I' for Inactive)
REMARK    1  A    between atoms: C2_2  and  N1_3 
REMARK       I    between atoms: N1_3  and  C3_4 
REMARK    2  A    between atoms: N1_3  and  C18_26 
REMARK    3  A    between atoms: C3_4  and  C4_6 
REMARK    4  A    between atoms: C4_6  and  N2_7 
REMARK    5  A    between atoms: C4_6  and  C15_23 
REMARK       I    between atoms: N2_7  and  C5_9 
REMARK    6  A    between atoms: C5_9  and  C6_11 
REMARK       I    between atoms: N3_18  and  C13_19 
REMARK    7  A    between atoms: C13_19  and  O4_21 
REMARK    8  A    between atoms: C23_31  and  C24_32 
ROOT
HETATM    1  C4  UNL     1      -0.640  -0.887  -1.170  1.00  0.00     0.180 C 
ENDROOT
BRANCH   1   2
HETATM    2  C3  UNL     1       0.164   0.267  -0.745  1.00  0.00     0.244 C 
HETATM    3  N1  UNL     1       1.194   0.247   0.192  1.00  0.00    -0.329 N 
HETATM    4  O1  UNL     1      -0.131   1.376  -1.290  1.00  0.00    -0.271 OA
BRANCH   3   5
HETATM    5  C2  UNL     1       1.596  -0.946   0.871  1.00  0.00     0.123 C 
HETATM    6  C1  UNL     1       2.675  -1.760   0.267  1.00  0.00     0.026 C 
ENDBRANCH   3   5
BRANCH   3   7
HETATM    7  C18 UNL     1       1.852   1.504   0.535  1.00  0.00     0.194 C 
HETATM    8  C19 UNL     1       1.785   1.846   1.990  1.00  0.00     0.053 C 
HETATM    9  C20 UNL     1       3.178   1.619   2.499  1.00  0.00     0.061 C 
HETATM   10  C21 UNL     1       4.011   1.605   1.282  1.00  0.00     0.014 A 
HETATM   11  C22 UNL     1       5.407   1.668   1.195  1.00  0.00     0.032 A 
HETATM   12  N4  UNL     1       3.261   1.537   0.182  1.00  0.00    -0.338 N 
HETATM   13  C23 UNL     1       6.067   1.662  -0.017  1.00  0.00    -0.052 A 
HETATM   14  C27 UNL     1       5.278   1.591  -1.142  1.00  0.00     0.025 A 
HETATM   15  C28 UNL     1       3.908   1.530  -1.020  1.00  0.00     0.093 A 
BRANCH  13  16
HETATM   16  C24 UNL     1       7.562   1.741  -0.080  1.00  0.00     0.010 C 
HETATM   17  C25 UNL     1       8.121   0.664  -0.945  1.00  0.00     0.015 C 
HETATM   18  C26 UNL     1       7.921   3.138  -0.559  1.00  0.00     0.015 C 
ENDBRANCH  13  16
ENDBRANCH   3   7
ENDBRANCH   1   2
BRANCH   1  19
HETATM   19  N2  UNL     1      -2.084  -0.446  -1.191  1.00  0.00    -0.346 N 
HETATM   20  C5  UNL     1      -2.959  -0.742  -0.143  1.00  0.00     0.241 C 
HETATM   21  O2  UNL     1      -2.570  -1.381   0.856  1.00  0.00    -0.271 OA
ATOM     22  H2  UNL     1      -2.430   0.082  -1.992  1.00  0.00     0.163 HD
BRANCH  20  23
HETATM   23  C6  UNL     1      -4.368  -0.261  -0.266  1.00  0.00     0.186 C 
HETATM   24  C7  UNL     1      -5.200  -1.323  -1.018  1.00  0.00     0.018 C 
HETATM   25  C8  UNL     1      -5.315  -2.596  -0.209  1.00  0.00     0.009 C 
HETATM   26  C12 UNL     1      -6.590  -0.762  -1.211  1.00  0.00     0.009 C 
HETATM   27  C9  UNL     1      -6.083  -2.352   1.063  1.00  0.00     0.026 C 
HETATM   28  C10 UNL     1      -6.253  -0.855   1.226  1.00  0.00     0.090 C 
HETATM   29  C11 UNL     1      -7.217  -0.428   0.125  1.00  0.00     0.026 C 
HETATM   30  N3  UNL     1      -5.024  -0.144   1.017  1.00  0.00    -0.309 N 
HETATM   31  C13 UNL     1      -4.476   0.661   2.060  1.00  0.00     0.363 C 
HETATM   32  O3  UNL     1      -3.375   1.288   1.844  1.00  0.00    -0.238 OA
BRANCH  31  33
HETATM   33  O4  UNL     1      -5.039   0.827   3.301  1.00  0.00    -0.309 OA
HETATM   34  C14 UNL     1      -4.417   1.662   4.298  1.00  0.00     0.215 C 
ENDBRANCH  31  33
ENDBRANCH  20  23
ENDBRANCH   1  19
BRANCH   1  35
HETATM   35  C15 UNL     1      -0.433  -1.330  -2.582  1.00  0.00     0.009 C 
HETATM   36  C16 UNL     1      -1.342  -2.542  -2.824  1.00  0.00     0.012 C 
HETATM   37  C17 UNL     1       0.927  -1.675  -3.026  1.00  0.00     0.012 C 
ENDBRANCH   1  35
TORSDOF 8
