REMARK  8 active torsions:
REMARK  status: ('A' for Active; 'I' for Inactive)
REMARK    1  A    between atoms: C2_2  and  C4_4 
REMARK    2  A    between atoms: C8_8  and  O1_9 
REMARK    3  A    between atoms: C14_17  and  C15_18 
REMARK    4  A    between atoms: C15_18  and  C17_20 
REMARK    5  A    between atoms: C17_20  and  O3_21 
REMARK    6  A    between atoms: C17_20  and  C18_23 
REMARK    7  A    between atoms: C19_24  and  C20_25 
REMARK    8  A    between atoms: C20_25  and  C22_27 
ROOT
HETATM    1  C4  UNL     1      -5.209   0.041  -1.288  1.00  0.00    -0.066 C 
HETATM    2  C5  UNL     1      -4.304   0.974  -1.996  1.00  0.00     0.044 C 
HETATM    3  C6  UNL     1      -3.866   2.039  -0.985  1.00  0.00     0.022 C 
HETATM    4  C7  UNL     1      -5.101   2.692  -0.454  1.00  0.00     0.042 C 
HETATM    5  C8  UNL     1      -6.036   1.737   0.230  1.00  0.00     0.128 C 
HETATM    6  C9  UNL     1      -5.409   0.332   0.189  1.00  0.00     0.064 C 
HETATM    7  C10 UNL     1      -4.121   0.460   0.963  1.00  0.00     0.050 C 
HETATM    8  C11 UNL     1      -4.500   1.187   2.260  1.00  0.00     0.029 C 
HETATM    9  C12 UNL     1      -3.512  -0.803   1.389  1.00  0.00     0.140 C 
HETATM   10  O2  UNL     1      -4.183  -1.748   1.681  1.00  0.00    -0.297 OA
HETATM   11  C13 UNL     1      -2.037  -0.905   1.459  1.00  0.00     0.088 C 
HETATM   12  C14 UNL     1      -1.376   0.457   1.440  1.00  0.00     0.022 C 
HETATM   13  C29 UNL     1      -1.918   1.253   0.339  1.00  0.00    -0.017 C 
HETATM   14  C30 UNL     1      -3.214   1.266   0.109  1.00  0.00    -0.062 C 
ENDROOT
BRANCH  12  15
HETATM   15  C15 UNL     1       0.126   0.319   1.393  1.00  0.00     0.022 C 
HETATM   16  C16 UNL     1       0.718   1.712   1.375  1.00  0.00     0.014 C 
BRANCH  15  17
HETATM   17  C17 UNL     1       0.642  -0.516   0.271  1.00  0.00     0.145 C 
BRANCH  17  18
HETATM   18  O3  UNL     1       0.254   0.035  -0.948  1.00  0.00    -0.391 OA
ATOM     19  H3  UNL     1       0.583  -0.497  -1.663  1.00  0.00     0.210 HD
ENDBRANCH  17  18
BRANCH  17  20
HETATM   20  C18 UNL     1       2.138  -0.456   0.320  1.00  0.00     0.001 C 
HETATM   21  C19 UNL     1       2.840  -1.319   1.024  1.00  0.00    -0.023 C 
BRANCH  21  22
HETATM   22  C20 UNL     1       4.310  -1.376   1.159  1.00  0.00     0.015 C 
HETATM   23  C21 UNL     1       4.753  -2.802   0.980  1.00  0.00     0.015 C 
BRANCH  22  24
HETATM   24  C22 UNL     1       5.078  -0.376   0.401  1.00  0.00     0.062 C 
HETATM   25  C23 UNL     1       4.970  -0.372  -1.075  1.00  0.00     0.013 C 
HETATM   26  C24 UNL     1       6.303  -0.713  -1.759  1.00  0.00     0.005 C 
HETATM   27  C25 UNL     1       7.233   0.437  -1.434  1.00  0.00    -0.012 C 
HETATM   28  C26 UNL     1       8.467   0.404  -2.314  1.00  0.00     0.010 C 
HETATM   29  C27 UNL     1       7.583   0.324   0.034  1.00  0.00     0.083 C 
HETATM   30  C28 UNL     1       6.530  -0.384   0.764  1.00  0.00     0.132 C 
HETATM   31  O4  UNL     1       6.841  -1.040   1.753  1.00  0.00    -0.298 OA
ENDBRANCH  22  24
ENDBRANCH  21  22
ENDBRANCH  17  20
ENDBRANCH  15  17
ENDBRANCH  12  15
BRANCH   1  32
HETATM   32  C2  UNL     1      -5.074  -1.393  -1.570  1.00  0.00    -0.069 C 
HETATM   33  C1  UNL     1      -4.016  -1.925  -2.090  1.00  0.00     0.018 C 
HETATM   34  C3  UNL     1      -6.241  -2.276  -1.252  1.00  0.00     0.047 C 
ENDBRANCH   1  32
BRANCH   5  35
HETATM   35  O1  UNL     1      -7.199   1.641  -0.571  1.00  0.00    -0.395 OA
ATOM     36  H1  UNL     1      -7.791   1.037  -0.138  1.00  0.00     0.210 HD
ENDBRANCH   5  35
TORSDOF 8
