REMARK  5 active torsions:
REMARK  status: ('A' for Active; 'I' for Inactive)
REMARK    1  A    between atoms: C2_2  and  N1_3 
REMARK    2  A    between atoms: N1_3  and  C3_5 
REMARK    3  A    between atoms: N3_14  and  C10_15 
REMARK    4  A    between atoms: C10_15  and  C11_16 
REMARK    5  A    between atoms: C11_16  and  C12_17 
ROOT
HETATM    1  C3  UNL     1      -2.952   0.598  -0.290  1.00  0.00     0.117 C 
HETATM    2  C4  UNL     1      -3.213   2.046  -0.025  1.00  0.00     0.130 C 
HETATM    3  C5  UNL     1      -2.433   2.321   1.209  1.00  0.00     0.222 C 
HETATM    4  O1  UNL     1      -2.367   3.416   1.838  1.00  0.00    -0.273 OA
HETATM    5  N2  UNL     1      -1.759   1.120   1.571  1.00  0.00    -0.345 N 
HETATM    6  C6  UNL     1      -1.358   0.688   2.903  1.00  0.00     0.153 C 
HETATM    7  C7  UNL     1      -1.548   0.406   0.323  1.00  0.00     0.058 C 
HETATM    8  C8  UNL     1      -0.548   1.152  -0.492  1.00  0.00     0.053 C 
HETATM    9  C9  UNL     1       0.295   0.219  -1.320  1.00  0.00     0.119 C 
HETATM   10  N3  UNL     1       0.982  -0.695  -0.482  1.00  0.00    -0.412 N 
HETATM   11  C16 UNL     1       0.252  -1.272   0.591  1.00  0.00     0.119 C 
HETATM   12  C17 UNL     1      -1.236  -1.042   0.495  1.00  0.00     0.053 C 
ENDROOT
BRANCH   1  13
HETATM   13  N1  UNL     1      -3.789  -0.324   0.339  1.00  0.00    -0.395 N 
ATOM     14  H1  UNL     1      -3.392  -0.986   1.005  1.00  0.00     0.159 HD
BRANCH  13  15
HETATM   15  C2  UNL     1      -5.171  -0.359   0.073  1.00  0.00     0.051 C 
HETATM   16  C1  UNL     1      -5.468  -0.844  -1.338  1.00  0.00     0.054 C 
ENDBRANCH  13  15
ENDBRANCH   1  13
BRANCH  10  17
HETATM   17  C10 UNL     1       1.957  -1.533  -1.096  1.00  0.00     0.119 C 
BRANCH  17  18
HETATM   18  C11 UNL     1       3.146  -0.674  -1.508  1.00  0.00     0.051 C 
BRANCH  18  19
HETATM   19  C12 UNL     1       3.738  -0.013  -0.267  1.00  0.00     0.123 C 
HETATM   20  C13 UNL     1       4.913   0.847  -0.565  1.00  0.00     0.034 C 
HETATM   21  C14 UNL     1       6.015   0.327   0.322  1.00  0.00     0.029 C 
HETATM   22  C15 UNL     1       5.510  -1.070   0.628  1.00  0.00     0.168 C 
HETATM   23  O2  UNL     1       4.140  -0.976   0.608  1.00  0.00    -0.386 OA
ENDBRANCH  18  19
ENDBRANCH  17  18
ENDBRANCH  10  17
TORSDOF 5
