REMARK  9 active torsions:
REMARK  status: ('A' for Active; 'I' for Inactive)
REMARK    1  A    between atoms: C3_3  and  C4_4 
REMARK    2  A    between atoms: C4_4  and  C5_5 
REMARK    3  A    between atoms: C5_5  and  N1_6 
REMARK    4  A    between atoms: C7_8  and  O1_9 
REMARK    5  A    between atoms: O1_9  and  C8_10 
REMARK    6  A    between atoms: C8_10  and  C9_11 
REMARK    7  A    between atoms: C9_11  and  N2_13 
REMARK    8  A    between atoms: C11_17  and  O2_18 
REMARK    9  A    between atoms: C12_20  and  O3_21 
ROOT
HETATM    1  C1  UNL     1       7.040   1.078   0.015  1.00  0.00     0.012 C 
HETATM    2  C2  UNL     1       5.852   1.307  -0.008  1.00  0.00    -0.117 C 
HETATM    3  C3  UNL     1       4.414   1.567  -0.055  1.00  0.00     0.095 C 
ENDROOT
BRANCH   3   4
HETATM    4  C4  UNL     1       3.658   0.312  -0.518  1.00  0.00     0.042 C 
BRANCH   4   5
HETATM    5  C5  UNL     1       2.211   0.678  -0.532  1.00  0.00     0.275 C 
BRANCH   5   6
HETATM    6  N1  UNL     1       1.319  -0.344  -0.935  1.00  0.00     0.112 N 
HETATM    7  C6  UNL     1      -0.028   0.165  -0.896  1.00  0.00     0.309 C 
HETATM    8  C7  UNL     1      -0.947  -0.543   0.035  1.00  0.00     0.181 C 
HETATM    9  C11 UNL     1      -0.185  -0.862   1.302  1.00  0.00     0.180 C 
HETATM   10  C12 UNL     1       0.974  -1.790   1.019  1.00  0.00     0.197 C 
HETATM   11  C13 UNL     1       1.515  -1.628  -0.370  1.00  0.00     0.349 C 
HETATM   12 CL1  UNL     1       0.739  -2.844  -1.410  1.00  0.00    -0.089 Cl
BRANCH   8  13
HETATM   13  O1  UNL     1      -2.043   0.278   0.283  1.00  0.00    -0.379 OA
BRANCH  13  14
HETATM   14  C8  UNL     1      -3.243  -0.308  -0.118  1.00  0.00     0.200 C 
BRANCH  14  15
HETATM   15  C9  UNL     1      -4.340   0.707   0.217  1.00  0.00     0.203 C 
HETATM   16  C10 UNL     1      -5.702   0.191  -0.230  1.00  0.00     0.042 C 
BRANCH  15  17
HETATM   17  N2  UNL     1      -4.110   1.949  -0.494  1.00  0.00    -0.073 N 
ATOM     18  H23 UNL     1      -3.178   2.323  -0.315  1.00  0.00     0.274 HD
ATOM     19  H22 UNL     1      -4.023   1.801  -1.499  1.00  0.00     0.274 HD
ATOM     20  H21 UNL     1      -4.841   2.625  -0.271  1.00  0.00     0.274 HD
ENDBRANCH  15  17
ENDBRANCH  14  15
ENDBRANCH  13  14
ENDBRANCH   8  13
BRANCH   9  21
HETATM   21  O2  UNL     1      -1.064  -1.373   2.249  1.00  0.00    -0.390 OA
ATOM     22  H2  UNL     1      -0.585  -1.573   3.045  1.00  0.00     0.210 HD
ENDBRANCH   9  21
BRANCH  10  23
HETATM   23  O3  UNL     1       1.967  -1.649   2.004  1.00  0.00    -0.390 OA
ATOM     24  H3  UNL     1       2.695  -2.232   1.826  1.00  0.00     0.210 HD
ENDBRANCH  10  23
ENDBRANCH   5   6
ENDBRANCH   4   5
ENDBRANCH   3   4
TORSDOF 9
