REMARK  7 active torsions:
REMARK  status: ('A' for Active; 'I' for Inactive)
REMARK    1  A    between atoms: C4_4  and  C5_5 
REMARK    2  A    between atoms: C5_5  and  C6_6 
REMARK    3  A    between atoms: C6_6  and  C7_7 
REMARK    4  A    between atoms: C8_9  and  C9_10 
REMARK    5  A    between atoms: C9_10  and  O2_11 
REMARK    6  A    between atoms: C10_13  and  O3_14 
REMARK    7  A    between atoms: C12_17  and  O4_18 
ROOT
HETATM    1  C1  UNL     1       6.527  -0.342  -1.104  1.00  0.00     0.017 C 
HETATM    2  C2  UNL     1       5.531  -0.334  -0.427  1.00  0.00    -0.090 C 
HETATM    3  C3  UNL     1       4.362  -0.309   0.382  1.00  0.00     0.059 C 
HETATM    4  C4  UNL     1       3.184  -0.655  -0.095  1.00  0.00    -0.018 C 
ENDROOT
BRANCH   4   5
HETATM    5  C5  UNL     1       1.958  -0.623   0.772  1.00  0.00     0.030 C 
BRANCH   5   6
HETATM    6  C6  UNL     1       0.993   0.331   0.140  1.00  0.00     0.038 C 
BRANCH   6   7
HETATM    7  C7  UNL     1      -0.278   0.568   0.860  1.00  0.00     0.151 C 
HETATM    8  O1  UNL     1      -1.010   1.475   0.088  1.00  0.00    -0.373 OA
HETATM    9  C8  UNL     1      -2.283   1.035  -0.208  1.00  0.00     0.174 C 
HETATM   10  C10 UNL     1      -2.174  -0.308  -0.890  1.00  0.00     0.151 C 
HETATM   11  C11 UNL     1      -1.791  -1.307   0.211  1.00  0.00     0.068 C 
HETATM   12  C12 UNL     1      -1.063  -0.586   1.319  1.00  0.00     0.149 C 
BRANCH   9  13
HETATM   13  C9  UNL     1      -2.927   2.057  -1.145  1.00  0.00     0.198 C 
BRANCH  13  14
HETATM   14  O2  UNL     1      -4.224   1.646  -1.470  1.00  0.00    -0.398 OA
ATOM     15  H2  UNL     1      -4.624   2.281  -2.052  1.00  0.00     0.209 HD
ENDBRANCH  13  14
ENDBRANCH   9  13
BRANCH  10  16
HETATM   16  O3  UNL     1      -3.385  -0.679  -1.476  1.00  0.00    -0.393 OA
ATOM     17  H3  UNL     1      -3.316  -1.524  -1.905  1.00  0.00     0.210 HD
ENDBRANCH  10  16
BRANCH  12  18
HETATM   18  O4  UNL     1      -0.324  -1.420   2.126  1.00  0.00    -0.393 OA
ATOM     19  H4  UNL     1      -0.832  -2.166   2.423  1.00  0.00     0.210 HD
ENDBRANCH  12  18
ENDBRANCH   6   7
ENDBRANCH   5   6
ENDBRANCH   4   5
TORSDOF 7
