REMARK  2 active torsions:
REMARK  status: ('A' for Active; 'I' for Inactive)
REMARK    1  A    between atoms: C4_4  and  C5_5 
REMARK    2  A    between atoms: C5_5  and  C6_6 
ROOT
HETATM    1  C1  UNL     1      -2.558   0.999  -0.360  1.00  0.00     0.108 C 
HETATM    2  C2  UNL     1      -1.244   0.935  -1.219  1.00  0.00     0.040 C 
HETATM    3  C3  UNL     1      -0.496  -0.345  -1.013  1.00  0.00    -0.021 C 
HETATM    4  C4  UNL     1      -0.030  -0.922   0.189  1.00  0.00    -0.065 C 
HETATM    5  C9  UNL     1      -0.907  -1.653   1.185  1.00  0.00     0.162 C 
HETATM    6  N1  UNL     1      -2.167  -0.941   1.546  1.00  0.00    -0.357 N 
ATOM      7  H1  UNL     1      -2.756  -1.132   2.356  1.00  0.00     0.169 HD
HETATM    8  C10 UNL     1      -2.384  -0.003   0.610  1.00  0.00    -0.075 C 
ENDROOT
BRANCH   4   9
HETATM    9  C5  UNL     1       1.106  -0.213   0.873  1.00  0.00     0.040 C 
BRANCH   9  10
HETATM   10  C6  UNL     1       2.387  -0.040   0.175  1.00  0.00    -0.011 A 
HETATM   11  C7  UNL     1       2.592   0.735  -1.092  1.00  0.00     0.005 A 
HETATM   12  C8  UNL     1       3.189   1.175   0.267  1.00  0.00     0.005 A 
ENDBRANCH   9  10
ENDBRANCH   4   9
TORSDOF 2
