REMARK  2 active torsions:
REMARK  status: ('A' for Active; 'I' for Inactive)
REMARK    1  A    between atoms: C2_4  and  C3_5 
REMARK    2  A    between atoms: C3_5  and  N1_6 
ROOT
HETATM    1  F1  UNL     1      -2.265  -1.422   0.976  1.00  0.00    -0.199 F 
HETATM    2  C1  UNL     1      -1.651  -0.483   0.093  1.00  0.00     0.319 A 
HETATM    3  F2  UNL     1      -2.134  -0.736  -1.219  1.00  0.00    -0.199 F 
HETATM    4  C2  UNL     1      -0.202  -0.496   0.238  1.00  0.00     0.162 A 
HETATM    5  C4  UNL     1      -1.218   0.752   0.536  1.00  0.00     0.319 A 
HETATM    6  F3  UNL     1      -1.277   1.769  -0.413  1.00  0.00    -0.199 F 
HETATM    7  F4  UNL     1      -1.240   1.172   1.817  1.00  0.00    -0.199 F 
ENDROOT
BRANCH   4   8
HETATM    8  C3  UNL     1       0.840   0.195  -0.735  1.00  0.00     0.150 C 
BRANCH   8   9
HETATM    9  N1  UNL     1       2.070  -0.421  -0.241  1.00  0.00    -0.333 N 
HETATM   10 CL1  UNL     1       3.276   0.533   0.282  1.00  0.00     0.005 Cl
ATOM     11  H1  UNL     1       2.170  -1.436  -0.225  1.00  0.00     0.173 HD
ENDBRANCH   8   9
ENDBRANCH   4   8
TORSDOF 2
