REMARK  9 active torsions:
REMARK  status: ('A' for Active; 'I' for Inactive)
REMARK    1  A    between atoms: C9_12  and  C10_13 
REMARK    2  A    between atoms: C10_13  and  C11_14 
REMARK    3  A    between atoms: C11_14  and  C12_15 
REMARK    4  A    between atoms: C22_30  and  C23_31 
REMARK    5  A    between atoms: C23_31  and  C24_32 
REMARK    6  A    between atoms: C24_32  and  C25_33 
REMARK    7  A    between atoms: C25_33  and  C26_34 
REMARK    8  A    between atoms: C26_34  and  C27_35 
REMARK    9  A    between atoms: C27_35  and  C28_36 
ROOT
HETATM    1  C1  UNL     1      -3.165  -4.974  -0.645  1.00  0.00     0.044 C 
HETATM    2  C2  UNL     1      -2.110  -4.338  -0.206  1.00  0.00     0.036 A 
HETATM    3  N1  UNL     1      -2.207  -2.973  -0.137  1.00  0.00    -0.354 N 
ATOM      4  H1  UNL     1      -3.076  -2.522  -0.423  1.00  0.00     0.166 HD
HETATM    5  C3  UNL     1      -1.197  -2.221   0.293  1.00  0.00     0.073 A 
HETATM    6  C4  UNL     1       0.003  -2.822   0.691  1.00  0.00     0.046 A 
HETATM    7  C5  UNL     1       0.144  -4.187   0.639  1.00  0.00     0.196 A 
HETATM    8  O1  UNL     1       1.200  -4.777   0.984  1.00  0.00    -0.287 OA
HETATM    9  C6  UNL     1      -0.941  -4.938   0.181  1.00  0.00     0.031 A 
HETATM   10  C7  UNL     1      -0.825  -6.246   0.123  1.00  0.00     0.030 C 
HETATM   11  C8  UNL     1       1.107  -2.001   1.161  1.00  0.00     0.047 A 
HETATM   12  C9  UNL     1       1.101  -0.698   1.258  1.00  0.00     0.030 A 
HETATM   13  N3  UNL     1      -0.151  -0.062   0.845  1.00  0.00    -0.355 N 
ATOM     14  H3  UNL     1      -0.206   0.955   0.903  1.00  0.00     0.166 HD
HETATM   15  C21 UNL     1      -1.277  -0.745   0.377  1.00  0.00     0.056 A 
HETATM   16  C22 UNL     1      -2.389  -0.139   0.007  1.00  0.00     0.005 C 
ENDROOT
BRANCH  12  17
HETATM   17  C10 UNL     1       2.114   0.201   1.697  1.00  0.00     0.007 C 
BRANCH  17  18
HETATM   18  C11 UNL     1       3.521  -0.030   1.885  1.00  0.00     0.074 C 
BRANCH  18  19
HETATM   19  C12 UNL     1       4.411  -0.315   0.743  1.00  0.00     0.026 A 
HETATM   20  C13 UNL     1       5.091   0.683   0.085  1.00  0.00     0.003 A 
HETATM   21  C14 UNL     1       5.096   2.041   0.324  1.00  0.00     0.021 A 
HETATM   22  C19 UNL     1       5.798   0.113  -0.921  1.00  0.00     0.046 A 
HETATM   23  C15 UNL     1       5.837   2.873  -0.472  1.00  0.00    -0.061 A 
HETATM   24  C16 UNL     1       5.870   4.362  -0.245  1.00  0.00     0.048 C 
HETATM   25  C17 UNL     1       6.567   2.324  -1.502  1.00  0.00     0.009 A 
HETATM   26  C18 UNL     1       6.557   0.968  -1.735  1.00  0.00     0.031 A 
HETATM   27  N2  UNL     1       5.663  -1.146  -1.001  1.00  0.00    -0.322 N 
HETATM   28  C20 UNL     1       4.759  -1.521   0.067  1.00  0.00     0.253 A 
ATOM     29  H2  UNL     1       6.102  -1.768  -1.680  1.00  0.00     0.169 HD
HETATM   30  O2  UNL     1       4.412  -2.690   0.280  1.00  0.00    -0.268 OA
ENDBRANCH  18  19
ENDBRANCH  17  18
ENDBRANCH  12  17
BRANCH  16  31
HETATM   31  C23 UNL     1      -2.648   1.323   0.024  1.00  0.00     0.029 C 
BRANCH  31  32
HETATM   32  C24 UNL     1      -3.853   1.623   0.915  1.00  0.00     0.004 C 
BRANCH  32  33
HETATM   33  C25 UNL     1      -5.087   0.963   0.444  1.00  0.00     0.001 C 
BRANCH  33  34
HETATM   34  C26 UNL     1      -5.645   1.281  -0.877  1.00  0.00     0.010 C 
BRANCH  34  35
HETATM   35  C27 UNL     1      -6.190   2.629  -1.160  1.00  0.00     0.113 C 
BRANCH  35  36
HETATM   36  C28 UNL     1      -5.278   3.753  -1.041  1.00  0.00     0.172 C 
HETATM   37  O3  UNL     1      -5.473   4.610  -0.106  1.00  0.00    -0.648 OA
HETATM   38  O4  UNL     1      -4.199   4.010  -1.847  1.00  0.00    -0.648 OA
ENDBRANCH  35  36
ENDBRANCH  34  35
ENDBRANCH  33  34
ENDBRANCH  32  33
ENDBRANCH  31  32
ENDBRANCH  16  31
TORSDOF 9
