REMARK  9 active torsions:
REMARK  status: ('A' for Active; 'I' for Inactive)
REMARK    1  A    between atoms: C2_2  and  C3_3 
REMARK    2  A    between atoms: C3_3  and  C4_4 
REMARK    3  A    between atoms: N1_7  and  C7_8 
REMARK    4  A    between atoms: C7_8  and  C8_9 
REMARK    5  A    between atoms: C8_9  and  C9_10 
REMARK    6  A    between atoms: C11_12  and  C12_13 
REMARK    7  A    between atoms: N5_28  and  C22_29 
REMARK    8  A    between atoms: C22_29  and  C23_30 
REMARK    9  A    between atoms: C30_40  and  O2_41 
ROOT
HETATM    1  C9  UNL     1      -0.446   0.920   0.273  1.00  0.00     0.017 A 
HETATM    2  C10 UNL     1      -1.266  -0.228   0.219  1.00  0.00     0.057 A 
HETATM    3  C11 UNL     1      -2.201  -0.397  -0.758  1.00  0.00     0.062 A 
HETATM    4  N4  UNL     1      -2.319   0.565  -1.671  1.00  0.00    -0.344 N 
ATOM      5  H4  UNL     1      -3.016   0.446  -2.406  1.00  0.00     0.167 HD
HETATM    6  C20 UNL     1      -1.562   1.702  -1.681  1.00  0.00     0.080 A 
HETATM    7  C21 UNL     1      -1.781   2.657  -2.781  1.00  0.00     0.089 C 
HETATM    8  N5  UNL     1      -0.652   1.825  -0.691  1.00  0.00    -0.336 N 
ENDROOT
BRANCH   1   9
HETATM    9  C8  UNL     1       0.490   1.022   1.409  1.00  0.00     0.085 C 
BRANCH   9  10
HETATM   10  C7  UNL     1       1.564   0.044   1.368  1.00  0.00     0.243 C 
BRANCH  10  11
HETATM   11  N1  UNL     1       2.517  -0.097   0.369  1.00  0.00    -0.063 N 
HETATM   12  C6  UNL     1       2.064  -0.891  -0.759  1.00  0.00     0.238 C 
HETATM   13  C5  UNL     1       3.299  -1.516  -1.392  1.00  0.00     0.042 C 
HETATM   14  C4  UNL     1       4.367  -1.072  -0.450  1.00  0.00     0.016 C 
HETATM   15  C30 UNL     1       4.586   0.405  -0.659  1.00  0.00     0.154 C 
HETATM   16  C31 UNL     1       3.608  -1.025   0.861  1.00  0.00     0.249 C 
HETATM   17  C29 UNL     1       3.302   0.986  -0.065  1.00  0.00     0.269 C 
BRANCH  14  18
HETATM   18  C3  UNL     1       5.589  -1.889  -0.409  1.00  0.00     0.040 C 
BRANCH  18  19
HETATM   19  C2  UNL     1       5.413  -3.290  -0.014  1.00  0.00    -0.036 C 
HETATM   20  C1  UNL     1       6.061  -3.757   1.068  1.00  0.00     0.007 C 
ENDBRANCH  18  19
ENDBRANCH  14  18
BRANCH  15  21
HETATM   21  O2  UNL     1       5.641   0.842   0.122  1.00  0.00    -0.393 OA
ATOM     22  H2  UNL     1       5.779   1.773  -0.010  1.00  0.00     0.210 HD
ENDBRANCH  15  21
ENDBRANCH  10  11
ENDBRANCH   9  10
ENDBRANCH   1   9
BRANCH   8  23
HETATM   23  C22 UNL     1       0.082   3.065  -0.644  1.00  0.00     0.169 C 
BRANCH  23  24
HETATM   24  C23 UNL     1      -0.551   4.111   0.213  1.00  0.00    -0.033 A 
HETATM   25  C24 UNL     1      -1.868   4.260   0.465  1.00  0.00     0.033 A 
HETATM   26  C25 UNL     1      -2.349   5.283   1.251  1.00  0.00     0.009 A 
HETATM   27  C26 UNL     1      -3.827   5.418   1.511  1.00  0.00     0.068 C 
HETATM   28  N6  UNL     1      -1.473   6.153   1.779  1.00  0.00    -0.328 N 
HETATM   29  C27 UNL     1      -0.152   6.056   1.565  1.00  0.00     0.246 A 
ATOM     30  H6  UNL     1      -1.823   6.913   2.362  1.00  0.00     0.169 HD
HETATM   31  O1  UNL     1       0.633   6.918   2.096  1.00  0.00    -0.268 OA
HETATM   32  C28 UNL     1       0.327   5.039   0.782  1.00  0.00     0.083 A 
ENDBRANCH  23  24
ENDBRANCH   8  23
BRANCH   3  33
HETATM   33  C12 UNL     1      -3.011  -1.606  -0.772  1.00  0.00     0.061 A 
HETATM   34  C13 UNL     1      -3.987  -1.968  -1.683  1.00  0.00     0.047 A 
HETATM   35  C14 UNL     1      -4.468  -3.194  -1.293  1.00  0.00     0.010 A 
HETATM   36  C15 UNL     1      -5.443  -3.998  -1.853  1.00  0.00     0.017 A 
HETATM   37  C19 UNL     1      -3.806  -3.590  -0.162  1.00  0.00     0.117 A 
HETATM   38  C16 UNL     1      -5.754  -5.198  -1.276  1.00  0.00     0.018 A 
HETATM   39  C17 UNL     1      -5.064  -5.555  -0.140  1.00  0.00     0.092 A 
HETATM   40  N2  UNL     1      -4.117  -4.769   0.398  1.00  0.00    -0.347 N 
HETATM   41  C18 UNL     1      -3.413  -5.175   1.591  1.00  0.00     0.157 C 
HETATM   42  N3  UNL     1      -2.947  -2.617   0.116  1.00  0.00    -0.340 N 
ATOM     43  H3  UNL     1      -2.310  -2.633   0.912  1.00  0.00     0.167 HD
ENDBRANCH   3  33
TORSDOF 9
