REMARK  9 active torsions:
REMARK  status: ('A' for Active; 'I' for Inactive)
REMARK    1  A    between atoms: C2_2  and  C3_3 
REMARK    2  A    between atoms: C7_10  and  N2_11 
REMARK    3  A    between atoms: C10_14  and  N3_15 
REMARK    4  A    between atoms: C13_23  and  N5_24 
REMARK    5  A    between atoms: C15_30  and  N7_31 
REMARK    6  A    between atoms: N7_31  and  C16_33 
REMARK       I    between atoms: N8_36  and  C19_37 
REMARK    7  A    between atoms: C19_37  and  C20_39 
REMARK    8  A    between atoms: C20_39  and  N9_40 
REMARK    9  A    between atoms: C20_39  and  O3_44 
ROOT
HETATM    1  C3  UNL     1      -1.221   3.718  -0.457  1.00  0.00     0.052 C 
HETATM    2  C4  UNL     1      -2.186   4.213   0.591  1.00  0.00     0.185 C 
HETATM    3  O1  UNL     1      -3.418   3.529   0.563  1.00  0.00    -0.344 OA
HETATM    4  C5  UNL     1      -3.688   2.187   0.500  1.00  0.00     0.142 A 
HETATM    5  C6  UNL     1      -2.772   1.140   0.408  1.00  0.00     0.114 A 
HETATM    6  N1  UNL     1      -3.250  -0.101   0.356  1.00  0.00    -0.186 N 
ATOM      7  H1  UNL     1      -2.594  -0.879   0.287  1.00  0.00     0.184 HD
HETATM    8  C7  UNL     1      -4.576  -0.364   0.391  1.00  0.00     0.682 A 
HETATM    9  N4  UNL     1      -5.453   0.637   0.481  1.00  0.00    -0.174 N 
ATOM     10  H4  UNL     1      -6.451   0.429   0.508  1.00  0.00     0.186 HD
HETATM   11  C13 UNL     1      -5.044   1.907   0.536  1.00  0.00     0.150 A 
HETATM   12  C14 UNL     1      -1.285   1.225   0.383  1.00  0.00     0.078 A 
HETATM   13  N6  UNL     1      -0.544   0.228   0.728  1.00  0.00    -0.334 N 
ATOM     14  H6  UNL     1      -0.961  -0.653   1.029  1.00  0.00     0.168 HD
HETATM   15  C15 UNL     1       0.805   0.379   0.681  1.00  0.00     0.145 A 
HETATM   16  S1  UNL     1       0.981   1.980   0.131  1.00  0.00    -0.056 SA
HETATM   17  C24 UNL     1      -0.662   2.388  -0.015  1.00  0.00     0.021 A 
ENDROOT
BRANCH  15  18
HETATM   18  N7  UNL     1       1.666  -0.531   0.997  1.00  0.00    -0.366 N 
ATOM     19  H7  UNL     1       1.252  -1.413   1.298  1.00  0.00     0.162 HD
BRANCH  18  20
HETATM   20  C16 UNL     1       3.057  -0.521   0.999  1.00  0.00     0.086 C 
HETATM   21  C17 UNL     1       3.718   0.810   1.256  1.00  0.00     0.045 C 
HETATM   22  C18 UNL     1       5.235   0.612   1.393  1.00  0.00     0.128 C 
HETATM   23  N8  UNL     1       5.690  -0.247   0.306  1.00  0.00    -0.348 N 
HETATM   24  C19 UNL     1       6.972  -0.812   0.328  1.00  0.00     0.276 C 
HETATM   25  C22 UNL     1       4.769  -0.468  -0.762  1.00  0.00     0.128 C 
HETATM   26  O2  UNL     1       7.773  -0.582   1.315  1.00  0.00    -0.268 OA
HETATM   27  C23 UNL     1       3.588  -1.234  -0.222  1.00  0.00     0.045 C 
BRANCH  24  28
HETATM   28  C20 UNL     1       7.492  -1.685  -0.744  1.00  0.00     0.411 C 
BRANCH  28  29
HETATM   29  N9  UNL     1       6.681  -2.890  -0.875  1.00  0.00    -0.044 N 
ATOM     30  H93 UNL     1       6.602  -3.389   0.011  1.00  0.00     0.278 HD
ATOM     31  H92 UNL     1       5.696  -2.667  -1.016  1.00  0.00     0.278 HD
ATOM     32  H91 UNL     1       7.040  -3.493  -1.615  1.00  0.00     0.278 HD
ENDBRANCH  28  29
BRANCH  28  33
HETATM   33  O3  UNL     1       8.802  -2.097  -0.489  1.00  0.00    -0.357 OA
HETATM   34  C21 UNL     1       9.653  -1.784  -1.541  1.00  0.00     0.204 C 
ENDBRANCH  28  33
ENDBRANCH  24  28
ENDBRANCH  18  20
ENDBRANCH  15  18
BRANCH   1  35
HETATM   35  C2  UNL     1      -0.062   4.699  -0.491  1.00  0.00     0.007 C 
HETATM   36  C1  UNL     1      -0.618   6.051  -0.846  1.00  0.00     0.006 C 
ENDBRANCH   1  35
BRANCH  11  37
HETATM   37  N5  UNL     1      -5.854   2.898   0.616  1.00  0.00    -0.383 N 
ATOM     38  H52 UNL     1      -5.542   3.868   0.658  1.00  0.00     0.157 HD
ATOM     39  H51 UNL     1      -6.853   2.692   0.643  1.00  0.00     0.157 HD
ENDBRANCH  11  37
BRANCH   8  40
HETATM   40  N2  UNL     1      -5.023  -1.702   0.338  1.00  0.00    -0.217 N 
HETATM   41  C8  UNL     1      -5.988  -2.168   1.303  1.00  0.00     0.143 C 
HETATM   42  C9  UNL     1      -7.126  -2.823   0.586  1.00  0.00     0.053 C 
HETATM   43  C10 UNL     1      -6.634  -3.845  -0.384  1.00  0.00     0.186 C 
HETATM   44  C11 UNL     1      -5.152  -3.936  -0.533  1.00  0.00     0.053 C 
HETATM   45  C12 UNL     1      -4.506  -2.573  -0.681  1.00  0.00     0.143 C 
BRANCH  43  46
HETATM   46  N3  UNL     1      -7.289  -3.556  -1.671  1.00  0.00    -0.075 N 
ATOM     47  H33 UNL     1      -8.306  -3.519  -1.606  1.00  0.00     0.274 HD
ATOM     48  H32 UNL     1      -7.147  -2.597  -1.989  1.00  0.00     0.274 HD
ATOM     49  H31 UNL     1      -6.953  -4.254  -2.334  1.00  0.00     0.274 HD
ENDBRANCH  43  46
ENDBRANCH   8  40
TORSDOF 9
