REMARK  2 active torsions:
REMARK  status: ('A' for Active; 'I' for Inactive)
REMARK    1  A    between atoms: C6_9  and  C7_10 
REMARK    2  A    between atoms: C7_10  and  N2_11 
ROOT
HETATM    1  N1  UNL     1      -1.597  -1.966  -1.698  1.00  0.00    -0.405 N 
ATOM      2  H11 UNL     1      -0.708  -2.454  -1.593  1.00  0.00     0.155 HD
ATOM      3  H12 UNL     1      -2.293  -2.442  -2.272  1.00  0.00     0.155 HD
HETATM    4  C1  UNL     1      -1.866  -0.847  -1.178  1.00  0.00    -0.015 C 
HETATM    5  C2  UNL     1      -3.159  -0.137  -1.330  1.00  0.00     0.052 C 
HETATM    6  C3  UNL     1      -3.690   0.354  -0.003  1.00  0.00     0.006 C 
HETATM    7  C4  UNL     1      -2.650   0.878   0.933  1.00  0.00     0.001 C 
HETATM    8  C5  UNL     1      -1.483  -0.075   1.051  1.00  0.00     0.012 C 
HETATM    9  C6  UNL     1      -0.843  -0.148  -0.334  1.00  0.00     0.059 C 
ENDROOT
BRANCH   9  10
HETATM   10  C7  UNL     1       0.455  -0.866  -0.313  1.00  0.00     0.283 C 
BRANCH  10  11
HETATM   11  N2  UNL     1       1.402  -0.148   0.503  1.00  0.00     0.093 N 
HETATM   12  C8  UNL     1       2.586  -0.951   0.786  1.00  0.00     0.298 C 
HETATM   13  C9  UNL     1       3.708   0.014   1.102  1.00  0.00     0.198 C 
HETATM   14  O1  UNL     1       4.145   0.536  -0.118  1.00  0.00    -0.388 OA
HETATM   15  C10 UNL     1       3.099   1.045  -0.834  1.00  0.00     0.198 C 
HETATM   16  C11 UNL     1       1.792   1.117  -0.091  1.00  0.00     0.298 C 
ENDBRANCH  10  11
ENDBRANCH   9  10
TORSDOF 2
