REMARK  4 active torsions:
REMARK  status: ('A' for Active; 'I' for Inactive)
REMARK    1  A    between atoms: C2_2  and  O1_3 
REMARK    2  A    between atoms: O1_3  and  C3_4 
REMARK    3  A    between atoms: C3_4  and  C4_6 
REMARK    4  A    between atoms: C4_6  and  O3_7 
ROOT
HETATM    1  C4  UNL     1       1.539  -0.238  -0.350  1.00  0.00     0.170 C 
HETATM    2  C5  UNL     1       1.595  -1.686  -0.745  1.00  0.00     0.216 C 
HETATM    3  O4  UNL     1       0.877  -2.489   0.115  1.00  0.00    -0.387 OA
HETATM    4  C6  UNL     1      -0.481  -2.121  -0.039  1.00  0.00     0.175 C 
HETATM    5  C7  UNL     1      -0.662  -0.837   0.711  1.00  0.00     0.045 C 
HETATM    6  C8  UNL     1       0.489   0.096   0.641  1.00  0.00     0.041 C 
HETATM    7  C9  UNL     1      -0.130   1.436   0.262  1.00  0.00     0.011 C 
HETATM    8  C10 UNL     1      -1.590   1.317   0.713  1.00  0.00     0.032 C 
HETATM    9  C11 UNL     1      -1.910  -0.091   0.329  1.00  0.00     0.035 C 
HETATM   10  C12 UNL     1      -3.067  -0.678   1.105  1.00  0.00     0.031 C 
HETATM   11  C13 UNL     1      -4.383  -0.108   0.737  1.00  0.00     0.007 C 
HETATM   12  C14 UNL     1      -4.423   0.681  -0.521  1.00  0.00     0.044 C 
HETATM   13  C15 UNL     1      -3.373   0.383  -1.518  1.00  0.00     0.056 C 
HETATM   14  N1  UNL     1      -2.206  -0.260  -1.063  1.00  0.00    -0.393 N 
ATOM     15  H1  UNL     1      -1.611  -0.810  -1.683  1.00  0.00     0.159 HD
ENDROOT
BRANCH   1  16
HETATM   16  C3  UNL     1       2.883   0.115   0.204  1.00  0.00     0.296 C 
HETATM   17  O2  UNL     1       3.248  -0.422   1.281  1.00  0.00    -0.262 OA
BRANCH  16  18
HETATM   18  O1  UNL     1       3.744   1.006  -0.414  1.00  0.00    -0.319 OA
BRANCH  18  19
HETATM   19  C2  UNL     1       5.020   1.298   0.175  1.00  0.00     0.174 C 
HETATM   20  C1  UNL     1       5.856   0.052   0.298  1.00  0.00     0.034 C 
ENDBRANCH  18  19
ENDBRANCH  16  18
ENDBRANCH   1  16
BRANCH   1  21
HETATM   21  O3  UNL     1       1.404   0.501  -1.540  1.00  0.00    -0.377 OA
ATOM     22  H3  UNL     1       0.550   0.277  -1.892  1.00  0.00     0.211 HD
ENDBRANCH   1  21
TORSDOF 4
