REMARK  5 active torsions:
REMARK  status: ('A' for Active; 'I' for Inactive)
REMARK    1  A    between atoms: C4_11  and  N4_12 
REMARK    2  A    between atoms: N4_12  and  N5_14 
REMARK    3  A    between atoms: N5_14  and  C5_16 
REMARK    4  A    between atoms: C5_16  and  C6_17 
REMARK    5  A    between atoms: C6_17  and  N6_18 
ROOT
HETATM    1  C1  UNL     1      -4.488   1.037   0.486  1.00  0.00     0.090 C 
HETATM    2  C2  UNL     1      -3.200   0.340   0.264  1.00  0.00     0.109 A 
HETATM    3  N1  UNL     1      -3.165  -0.751  -0.498  1.00  0.00    -0.180 N 
ATOM      4  H1  UNL     1      -4.028  -1.094  -0.920  1.00  0.00     0.185 HD
HETATM    5  C3  UNL     1      -2.004  -1.416  -0.724  1.00  0.00     0.691 A 
HETATM    6  N2  UNL     1      -1.952  -2.473  -1.459  1.00  0.00    -0.234 N 
ATOM      7  H21 UNL     1      -1.079  -2.973  -1.629  1.00  0.00     0.174 HD
ATOM      8  H22 UNL     1      -2.799  -2.839  -1.893  1.00  0.00     0.174 HD
HETATM    9  N3  UNL     1      -0.869  -0.926  -0.142  1.00  0.00    -0.021 N 
ATOM     10  H3  UNL     1       0.018  -1.405  -0.295  1.00  0.00     0.203 HD
HETATM   11  C4  UNL     1      -0.899   0.170   0.624  1.00  0.00     0.712 A 
HETATM   12  N7  UNL     1      -2.065   0.799   0.824  1.00  0.00    -0.178 N 
ATOM     13  H7  UNL     1      -2.093   1.635   1.407  1.00  0.00     0.185 HD
ENDROOT
BRANCH  11  14
HETATM   14  N4  UNL     1       0.156   0.631   1.170  1.00  0.00    -0.136 N 
ATOM     15  H4  UNL     1       0.113   1.468   1.752  1.00  0.00     0.205 HD
BRANCH  14  16
HETATM   16  N5  UNL     1       1.367  -0.022   0.962  1.00  0.00    -0.321 N 
ATOM     17  H5  UNL     1       1.406  -1.026   1.137  1.00  0.00     0.180 HD
BRANCH  16  18
HETATM   18  C5  UNL     1       2.567   0.632   0.516  1.00  0.00     0.167 C 
BRANCH  18  19
HETATM   19  C6  UNL     1       3.671  -0.391   0.406  1.00  0.00     0.250 C 
BRANCH  19  20
HETATM   20  N6  UNL     1       4.892   0.255  -0.044  1.00  0.00    -0.078 N 
ATOM     21  H63 UNL     1       4.757   0.770  -0.914  1.00  0.00     0.274 HD
ATOM     22  H62 UNL     1       5.154   1.040   0.552  1.00  0.00     0.274 HD
ATOM     23  H61 UNL     1       5.638  -0.436  -0.118  1.00  0.00     0.274 HD
ENDBRANCH  19  20
ENDBRANCH  18  19
ENDBRANCH  16  18
ENDBRANCH  14  16
ENDBRANCH  11  14
TORSDOF 5
