REMARK  9 active torsions:
REMARK  status: ('A' for Active; 'I' for Inactive)
REMARK    1  A    between atoms: C2_2  and  C3_3 
REMARK    2  A    between atoms: C3_3  and  C4_4 
REMARK    3  A    between atoms: C4_4  and  C5_5 
REMARK    4  A    between atoms: C5_5  and  O1_6 
REMARK    5  A    between atoms: C10_13  and  O3_14 
REMARK    6  A    between atoms: C11_16  and  O4_17 
REMARK    7  A    between atoms: C12_19  and  C13_20 
REMARK    8  A    between atoms: C13_20  and  O5_21 
REMARK    9  A    between atoms: C13_20  and  C14_23 
ROOT
HETATM    1  C4  UNL     1       2.626   0.715   0.539  1.00  0.00     0.109 C 
HETATM    2  O2  UNL     1       1.375   1.293   0.442  1.00  0.00    -0.366 OA
HETATM    3  C6  UNL     1       0.675   0.560  -0.546  1.00  0.00     0.142 C 
HETATM    4  C7  UNL     1       1.145  -0.816  -0.511  1.00  0.00     0.078 C 
HETATM    5  C8  UNL     1       2.350  -0.715   0.398  1.00  0.00    -0.043 C 
HETATM    6  C9  UNL     1       2.949  -1.766   0.904  1.00  0.00     0.018 C 
HETATM    7  C10 UNL     1       0.267  -1.886  -0.004  1.00  0.00     0.158 C 
HETATM    8  C11 UNL     1      -1.206  -1.639  -0.100  1.00  0.00     0.155 C 
HETATM    9  C12 UNL     1      -1.553  -0.414  -0.904  1.00  0.00     0.056 C 
HETATM   10  C17 UNL     1      -0.837   0.769  -0.352  1.00  0.00    -0.012 C 
HETATM   11  C18 UNL     1      -1.019   0.994   1.117  1.00  0.00     0.018 C 
HETATM   12  C19 UNL     1      -1.140   2.067  -1.076  1.00  0.00     0.018 C 
ENDROOT
BRANCH   1  13
HETATM   13  C3  UNL     1       3.538   1.151  -0.580  1.00  0.00     0.071 C 
BRANCH  13  14
HETATM   14  C2  UNL     1       4.813   0.420  -0.562  1.00  0.00    -0.033 C 
HETATM   15  C1  UNL     1       5.953   1.075  -0.423  1.00  0.00     0.007 C 
ENDBRANCH  13  14
ENDBRANCH   1  13
BRANCH   1  16
HETATM   16  C5  UNL     1       3.251   0.946   1.898  1.00  0.00     0.207 C 
BRANCH  16  17
HETATM   17  O1  UNL     1       3.413   2.287   2.186  1.00  0.00    -0.398 OA
ATOM     18  H1  UNL     1       3.805   2.432   3.039  1.00  0.00     0.209 HD
ENDBRANCH  16  17
ENDBRANCH   1  16
BRANCH   7  19
HETATM   19  O3  UNL     1       0.636  -3.087  -0.672  1.00  0.00    -0.392 OA
ATOM     20  H3  UNL     1       0.070  -3.777  -0.345  1.00  0.00     0.210 HD
ENDBRANCH   7  19
BRANCH   9  21
HETATM   21  C13 UNL     1      -2.921  -0.297  -1.377  1.00  0.00     0.129 C 
BRANCH  21  22
HETATM   22  O5  UNL     1      -3.131  -1.447  -2.215  1.00  0.00    -0.395 OA
ATOM     23  H5  UNL     1      -4.026  -1.370  -2.524  1.00  0.00     0.210 HD
ENDBRANCH  21  22
BRANCH  21  24
HETATM   24  C14 UNL     1      -4.129  -0.174  -0.606  1.00  0.00     0.007 C 
HETATM   25  C15 UNL     1      -4.484  -1.279   0.359  1.00  0.00     0.012 C 
HETATM   26  C16 UNL     1      -4.490   1.117   0.066  1.00  0.00     0.012 C 
ENDBRANCH  21  24
ENDBRANCH   9  21
BRANCH   8  27
HETATM   27  O4  UNL     1      -1.766  -2.760  -0.759  1.00  0.00    -0.392 OA
ATOM     28  H4  UNL     1      -2.701  -2.603  -0.820  1.00  0.00     0.210 HD
ENDBRANCH   8  27
TORSDOF 9
