REMARK  8 active torsions:
REMARK  status: ('A' for Active; 'I' for Inactive)
REMARK    1  A    between atoms: C15_19  and  C16_20 
REMARK    2  A    between atoms: C16_20  and  O2_21 
REMARK    3  A    between atoms: C16_20  and  C17_23 
REMARK    4  A    between atoms: C17_23  and  C18_24 
REMARK    5  A    between atoms: C18_24  and  C19_25 
REMARK    6  A    between atoms: C19_25  and  O3_26 
REMARK    7  A    between atoms: C19_25  and  C20_28 
REMARK    8  A    between atoms: C20_28  and  O4_29 
ROOT
HETATM    1  C1  UNL     1       1.061   2.885   0.623  1.00  0.00     0.015 C 
HETATM    2  C2  UNL     1       0.504   1.695   0.525  1.00  0.00    -0.081 C 
HETATM    3  C3  UNL     1      -0.527   1.101   1.387  1.00  0.00     0.041 C 
HETATM    4  C4  UNL     1      -1.517   0.416   0.402  1.00  0.00     0.032 C 
HETATM    5  C5  UNL     1      -2.762   1.204   0.266  1.00  0.00     0.227 A 
HETATM    6  N1  UNL     1      -3.489   1.444  -0.918  1.00  0.00    -0.058 N 
ATOM      7  H11 UNL     1      -3.363   1.289  -1.918  1.00  0.00     0.278 HD
ATOM      8  H12 UNL     1      -3.762   2.251  -1.478  1.00  0.00     0.278 HD
HETATM    9  C6  UNL     1      -4.047   0.663   0.286  1.00  0.00     0.151 A 
HETATM   10  C7  UNL     1      -5.142   1.476   1.029  1.00  0.00     0.048 C 
HETATM   11  C8  UNL     1      -4.501  -0.635  -0.184  1.00  0.00     0.048 C 
HETATM   12  C9  UNL     1      -3.979  -1.879   0.437  1.00  0.00     0.081 C 
HETATM   13  C10 UNL     1      -2.824  -2.488  -0.268  1.00  0.00     0.127 C 
HETATM   14  O1  UNL     1      -2.482  -3.581   0.153  1.00  0.00    -0.298 OA
HETATM   15  C11 UNL     1      -2.082  -1.908  -1.388  1.00  0.00     0.079 C 
HETATM   16  C12 UNL     1      -0.729  -1.341  -1.072  1.00  0.00     0.017 C 
HETATM   17  C13 UNL     1      -0.693   0.131  -0.801  1.00  0.00    -0.028 C 
HETATM   18  C14 UNL     1      -1.046   0.903  -2.040  1.00  0.00     0.016 C 
HETATM   19  C15 UNL     1       0.736   0.590  -0.486  1.00  0.00     0.051 C 
ENDROOT
BRANCH  19  20
HETATM   20  C16 UNL     1       1.665  -0.428   0.030  1.00  0.00     0.127 C 
BRANCH  20  21
HETATM   21  O2  UNL     1       1.926  -1.452  -0.867  1.00  0.00    -0.395 OA
ATOM     22  H2  UNL     1       2.526  -2.109  -0.534  1.00  0.00     0.210 HD
ENDBRANCH  20  21
BRANCH  20  23
HETATM   23  C17 UNL     1       3.036   0.253   0.197  1.00  0.00     0.035 C 
BRANCH  23  24
HETATM   24  C18 UNL     1       3.961  -0.853   0.731  1.00  0.00     0.036 C 
BRANCH  24  25
HETATM   25  C19 UNL     1       5.359  -0.312   0.942  1.00  0.00     0.141 C 
BRANCH  25  26
HETATM   26  O3  UNL     1       6.125  -1.384   1.428  1.00  0.00    -0.393 OA
ATOM     27  H3  UNL     1       7.002  -1.044   1.560  1.00  0.00     0.210 HD
ENDBRANCH  25  26
BRANCH  25  28
HETATM   28  C20 UNL     1       5.994   0.106  -0.363  1.00  0.00     0.195 C 
BRANCH  28  29
HETATM   29  O4  UNL     1       5.995  -0.945  -1.287  1.00  0.00    -0.398 OA
ATOM     30  H4  UNL     1       6.394  -0.682  -2.108  1.00  0.00     0.209 HD
ENDBRANCH  28  29
ENDBRANCH  25  28
ENDBRANCH  24  25
ENDBRANCH  23  24
ENDBRANCH  20  23
ENDBRANCH  19  20
TORSDOF 8
