REMARK  8 active torsions:
REMARK  status: ('A' for Active; 'I' for Inactive)
REMARK    1  A    between atoms: C2_2  and  C3_3 
REMARK    2  A    between atoms: C3_3  and  C4_4 
REMARK    3  A    between atoms: C4_4  and  C5_5 
REMARK       I    between atoms: C5_5  and  N1_7 
REMARK    4  A    between atoms: C8_10  and  C9_11 
REMARK    5  A    between atoms: C9_11  and  C10_12 
REMARK    6  A    between atoms: C10_12  and  N2_13 
REMARK    7  A    between atoms: C12_18  and  N4_19 
REMARK    8  A    between atoms: N4_19  and  C13_20 
ROOT
HETATM    1  N2  UNL     1      -1.070   2.469  -0.933  1.00  0.00    -0.354 N 
ATOM      2  H2  UNL     1      -0.580   3.343  -1.124  1.00  0.00     0.166 HD
HETATM    3  C11 UNL     1      -2.225   2.751  -0.622  1.00  0.00     0.131 A 
HETATM    4  N3  UNL     1      -3.167   1.895  -0.298  1.00  0.00    -0.301 N 
ATOM      5  H3  UNL     1      -2.927   0.904  -0.285  1.00  0.00     0.171 HD
HETATM    6  C12 UNL     1      -4.445   2.246   0.022  1.00  0.00     0.261 A 
HETATM    7  N7  UNL     1      -4.784   3.590   0.009  1.00  0.00    -0.325 N 
ATOM      8  H7  UNL     1      -5.731   3.889   0.242  1.00  0.00     0.169 HD
HETATM    9  C19 UNL     1      -3.850   4.484  -0.314  1.00  0.00     0.119 A 
HETATM   10  C20 UNL     1      -2.576   4.111  -0.631  1.00  0.00     0.093 A 
HETATM   11 CL1  UNL     1      -1.374   5.281  -1.046  1.00  0.00    -0.079 Cl
ENDROOT
BRANCH   1  12
HETATM   12  C10 UNL     1      -0.181   1.444  -1.124  1.00  0.00     0.063 C 
BRANCH  12  13
HETATM   13  C9  UNL     1       0.563   0.904   0.086  1.00  0.00     0.049 C 
BRANCH  13  14
HETATM   14  C8  UNL     1       1.517  -0.194  -0.317  1.00  0.00    -0.007 C 
HETATM   15  C7  UNL     1       2.241  -0.714   0.885  1.00  0.00     0.025 C 
HETATM   16  C6  UNL     1       3.117  -1.884   0.500  1.00  0.00     0.126 C 
HETATM   17  N1  UNL     1       4.077  -1.422  -0.485  1.00  0.00    -0.352 N 
HETATM   18  C5  UNL     1       5.353  -2.045  -0.580  1.00  0.00     0.219 C 
HETATM   19  C22 UNL     1       3.811  -0.350  -1.377  1.00  0.00     0.126 C 
HETATM   20  O1  UNL     1       5.627  -2.975   0.205  1.00  0.00    -0.273 OA
HETATM   21  C21 UNL     1       2.468   0.246  -1.404  1.00  0.00     0.025 C 
BRANCH  18  22
HETATM   22  C4  UNL     1       6.319  -1.602  -1.586  1.00  0.00     0.103 C 
BRANCH  22  23
HETATM   23  C3  UNL     1       7.719  -1.949  -1.166  1.00  0.00     0.009 C 
BRANCH  23  24
HETATM   24  C2  UNL     1       8.006  -1.171   0.117  1.00  0.00    -0.004 C 
HETATM   25  C1  UNL     1       9.395  -1.453   0.606  1.00  0.00     0.005 C 
ENDBRANCH  23  24
ENDBRANCH  22  23
ENDBRANCH  18  22
ENDBRANCH  13  14
ENDBRANCH  12  13
ENDBRANCH   1  12
BRANCH   6  26
HETATM   26  N4  UNL     1      -5.304   1.468   0.335  1.00  0.00    -0.367 NA
BRANCH  26  27
HETATM   27  C13 UNL     1      -6.185   0.557   0.666  1.00  0.00     0.158 A 
HETATM   28  C14 UNL     1      -7.428   0.763   1.324  1.00  0.00     0.065 A 
HETATM   29  C15 UNL     1      -7.900   2.115   1.724  1.00  0.00     0.073 C 
HETATM   30  N5  UNL     1      -7.994  -0.434   1.466  1.00  0.00    -0.300 N 
HETATM   31  N6  UNL     1      -7.254  -1.385   0.972  1.00  0.00    -0.298 N 
ATOM     32  H5  UNL     1      -8.900  -0.588   1.909  1.00  0.00     0.187 HD
HETATM   33  C16 UNL     1      -7.580  -2.822   0.963  1.00  0.00     0.177 C 
HETATM   34  C17 UNL     1      -6.141  -0.839   0.472  1.00  0.00     0.067 A 
HETATM   35  C18 UNL     1      -5.022  -1.544  -0.190  1.00  0.00     0.074 C 
ENDBRANCH  26  27
ENDBRANCH   6  26
TORSDOF 8
