REMARK  7 active torsions:
REMARK  status: ('A' for Active; 'I' for Inactive)
REMARK    1  A    between atoms: N1_1  and  C1_5 
REMARK    2  A    between atoms: C1_5  and  C2_6 
REMARK    3  A    between atoms: C2_6  and  C3_7 
REMARK    4  A    between atoms: C3_7  and  N2_8 
REMARK    5  A    between atoms: N2_8  and  C4_10 
REMARK    6  A    between atoms: C10_24  and  C11_25 
REMARK    7  A    between atoms: N6_26  and  O3_28 
ROOT
HETATM    1  C4  UNL     1      -0.015  -0.945   0.253  1.00  0.00     0.114 A 
HETATM    2  N3  UNL     1      -0.340   0.338   0.181  1.00  0.00    -0.326 N 
ATOM      3  H3  UNL     1       0.398   1.038   0.252  1.00  0.00     0.169 HD
HETATM    4  C5  UNL     1      -1.604   0.746   0.018  1.00  0.00     0.137 A 
HETATM    5  N4  UNL     1      -1.883   2.057  -0.049  1.00  0.00    -0.303 N 
ATOM      6  H4  UNL     1      -1.122   2.733   0.026  1.00  0.00     0.171 HD
HETATM    7  C6  UNL     1      -3.131   2.497  -0.211  1.00  0.00     0.315 A 
HETATM    8  O1  UNL     1      -3.354   3.741  -0.269  1.00  0.00    -0.262 OA
HETATM    9  C7  UNL     1      -4.164   1.579  -0.312  1.00  0.00     0.314 A 
HETATM   10  O2  UNL     1      -5.347   1.981  -0.465  1.00  0.00    -0.262 OA
HETATM   11  N5  UNL     1      -3.928   0.243  -0.249  1.00  0.00    -0.316 N 
ATOM     12  H5  UNL     1      -4.683  -0.438  -0.322  1.00  0.00     0.169 HD
HETATM   13  C8  UNL     1      -2.652  -0.135  -0.086  1.00  0.00     0.080 A 
HETATM   14  C9  UNL     1      -2.327  -1.491  -0.012  1.00  0.00     0.050 A 
HETATM   15  C10 UNL     1      -1.037  -1.916   0.154  1.00  0.00     0.027 A 
ENDROOT
BRANCH   1  16
HETATM   16  N2  UNL     1       1.201  -1.353   0.410  1.00  0.00    -0.376 N 
ATOM     17  H2  UNL     1       1.351  -2.361   0.453  1.00  0.00     0.161 HD
BRANCH  16  18
HETATM   18  C3  UNL     1       2.362  -0.513   0.529  1.00  0.00     0.123 C 
BRANCH  18  19
HETATM   19  C2  UNL     1       2.884  -0.063  -0.818  1.00  0.00     0.047 C 
BRANCH  19  20
HETATM   20  C1  UNL     1       4.089   0.809  -0.693  1.00  0.00     0.231 C 
BRANCH  20  21
HETATM   21  N1  UNL     1       3.842   2.015   0.064  1.00  0.00    -0.079 N 
ATOM     22  H13 UNL     1       3.057   2.535  -0.327  1.00  0.00     0.274 HD
ATOM     23  H12 UNL     1       3.456   1.795   0.982  1.00  0.00     0.274 HD
ATOM     24  H11 UNL     1       4.665   2.611   0.149  1.00  0.00     0.274 HD
ENDBRANCH  20  21
ENDBRANCH  19  20
ENDBRANCH  18  19
ENDBRANCH  16  18
ENDBRANCH   1  16
BRANCH  15  25
HETATM   25  C11 UNL     1      -0.644  -3.305   0.237  1.00  0.00     0.129 C 
HETATM   26  N6  UNL     1      -1.403  -4.280   0.171  1.00  0.00    -0.280 N 
ATOM     27  H6  UNL     1      -0.911  -5.170   0.254  1.00  0.00     0.193 HD
BRANCH  26  28
HETATM   28  O3  UNL     1      -2.698  -4.428   0.018  1.00  0.00    -0.290 OA
ATOM     29  H3  UNL     1      -3.281  -5.177  -0.033  1.00  0.00     0.244 HD
ENDBRANCH  26  28
ENDBRANCH  15  25
TORSDOF 7
