REMARK  5 active torsions:
REMARK  status: ('A' for Active; 'I' for Inactive)
REMARK    1  A    between atoms: N1_1  and  C1_5 
REMARK    2  A    between atoms: C1_5  and  C2_6 
REMARK    3  A    between atoms: C2_6  and  N2_7 
REMARK    4  A    between atoms: N2_7  and  S1_9 
REMARK    5  A    between atoms: S1_9  and  C3_12 
ROOT
HETATM    1  C3  UNL     1      -0.234   1.402   0.178  1.00  0.00     0.080 A 
HETATM    2  C4  UNL     1      -1.101   1.779  -0.817  1.00  0.00     0.026 A 
HETATM    3  C5  UNL     1      -2.338   1.142  -0.984  1.00  0.00     0.020 A 
HETATM    4  C6  UNL     1      -2.688   0.124  -0.137  1.00  0.00     0.049 A 
HETATM    5  C7  UNL     1      -3.897  -0.553  -0.241  1.00  0.00     0.271 A 
HETATM    6  O3  UNL     1      -4.668  -0.185  -1.162  1.00  0.00    -0.266 OA
HETATM    7  N3  UNL     1      -4.241  -1.553   0.592  1.00  0.00    -0.263 N 
ATOM      8  H3  UNL     1      -5.138  -2.025   0.483  1.00  0.00     0.190 HD
HETATM    9  N4  UNL     1      -3.410  -1.919   1.551  1.00  0.00    -0.263 N 
ATOM     10  H4  UNL     1      -3.666  -2.676   2.184  1.00  0.00     0.190 HD
HETATM   11  C8  UNL     1      -2.221  -1.293   1.696  1.00  0.00     0.271 A 
HETATM   12  O4  UNL     1      -1.446  -1.649   2.607  1.00  0.00    -0.266 OA
HETATM   13  C9  UNL     1      -1.831  -0.272   0.872  1.00  0.00     0.051 A 
HETATM   14  C10 UNL     1      -0.614   0.381   1.009  1.00  0.00     0.043 A 
ENDROOT
BRANCH   1  15
HETATM   15  S1  UNL     1       1.284   2.222   0.341  1.00  0.00     0.258 S 
HETATM   16  O1  UNL     1       1.635   2.271   1.796  1.00  0.00    -0.201 OA
HETATM   17  O2  UNL     1       1.194   3.663  -0.124  1.00  0.00    -0.201 OA
BRANCH  15  18
HETATM   18  N2  UNL     1       2.539   1.486  -0.579  1.00  0.00    -0.314 N 
ATOM     19  H2  UNL     1       3.057   1.933  -1.335  1.00  0.00     0.172 HD
BRANCH  18  20
HETATM   20  C2  UNL     1       2.741   0.146  -0.114  1.00  0.00     0.159 C 
BRANCH  20  21
HETATM   21  C1  UNL     1       3.814  -0.597  -0.844  1.00  0.00     0.249 C 
BRANCH  21  22
HETATM   22  N1  UNL     1       3.888  -1.937  -0.247  1.00  0.00    -0.078 N 
ATOM     23  H13 UNL     1       4.028  -1.919   0.763  1.00  0.00     0.274 HD
ATOM     24  H12 UNL     1       2.992  -2.425  -0.245  1.00  0.00     0.274 HD
ATOM     25  H11 UNL     1       4.620  -2.444  -0.745  1.00  0.00     0.274 HD
ENDBRANCH  21  22
ENDBRANCH  20  21
ENDBRANCH  18  20
ENDBRANCH  15  18
ENDBRANCH   1  15
TORSDOF 5
