REMARK  8 active torsions:
REMARK  status: ('A' for Active; 'I' for Inactive)
REMARK    1  A    between atoms: C4_4  and  N1_5 
REMARK    2  A    between atoms: N1_5  and  C5_7 
REMARK    3  A    between atoms: C5_7  and  C6_8 
REMARK    4  A    between atoms: C6_8  and  C7_9 
REMARK    5  A    between atoms: C7_9  and  N2_10 
REMARK    6  A    between atoms: N2_10  and  C8_13 
REMARK    7  A    between atoms: C8_13  and  C9_14 
REMARK    8  A    between atoms: C9_14  and  N3_15 
ROOT
HETATM    1  C7  UNL     1      -0.134   1.051  -1.243  1.00  0.00     0.237 C 
ENDROOT
BRANCH   1   2
HETATM    2  C6  UNL     1       0.950   0.692  -0.205  1.00  0.00     0.072 C 
BRANCH   2   3
HETATM    3  C5  UNL     1       1.960   1.788  -0.298  1.00  0.00     0.064 C 
BRANCH   3   4
HETATM    4  N1  UNL     1       3.101   1.627   0.508  1.00  0.00    -0.360 N 
ATOM      5  H1  UNL     1       3.172   2.175   1.365  1.00  0.00     0.166 HD
BRANCH   4   6
HETATM    6  C4  UNL     1       4.157   0.739   0.185  1.00  0.00     0.076 C 
HETATM    7  C3  UNL     1       3.980  -0.686  -0.021  1.00  0.00     0.076 C 
HETATM    8  C2  UNL     1       5.257  -1.474  -0.203  1.00  0.00     0.009 C 
HETATM    9  C1  UNL     1       6.439  -0.771   0.373  1.00  0.00     0.020 C 
HETATM   10  C14 UNL     1       6.497   0.617  -0.281  1.00  0.00     0.121 C 
HETATM   11  N4  UNL     1       5.300   1.301   0.062  1.00  0.00    -0.380 N 
ATOM     12  H4  UNL     1       5.355   2.307   0.221  1.00  0.00     0.160 HD
ENDBRANCH   4   6
ENDBRANCH   3   4
ENDBRANCH   2   3
ENDBRANCH   1   2
BRANCH   1  13
HETATM   13  N2  UNL     1      -1.166   0.078  -1.237  1.00  0.00    -0.073 N 
ATOM     14  H22 UNL     1      -1.723   0.101  -2.091  1.00  0.00     0.277 HD
ATOM     15  H21 UNL     1      -0.802  -0.871  -1.326  1.00  0.00     0.277 HD
BRANCH  13  16
HETATM   16  C8  UNL     1      -1.984   0.244  -0.041  1.00  0.00     0.262 C 
BRANCH  16  17
HETATM   17  C9  UNL     1      -3.113  -0.741  -0.030  1.00  0.00     0.300 C 
BRANCH  17  18
HETATM   18  N3  UNL     1      -3.938  -0.543   1.134  1.00  0.00     0.094 N 
HETATM   19  C10 UNL     1      -4.900  -1.642   1.249  1.00  0.00     0.298 C 
HETATM   20  C11 UNL     1      -5.881  -1.603   0.139  1.00  0.00     0.198 C 
HETATM   21  O1  UNL     1      -6.647  -0.420   0.260  1.00  0.00    -0.388 OA
HETATM   22  C12 UNL     1      -5.763   0.627  -0.023  1.00  0.00     0.198 C 
HETATM   23  C13 UNL     1      -4.663   0.711   1.007  1.00  0.00     0.298 C 
ENDBRANCH  17  18
ENDBRANCH  16  17
ENDBRANCH  13  16
ENDBRANCH   1  13
TORSDOF 8
