REMARK  23 active torsions:
REMARK  status: ('A' for Active; 'I' for Inactive)
REMARK    1  A    between atoms: O1_1  and  C1_3 
REMARK    2  A    between atoms: C1_3  and  C2_4 
REMARK    3  A    between atoms: C1_3  and  O3_8 
REMARK    4  A    between atoms: C2_4  and  C3_5 
REMARK    5  A    between atoms: C3_5  and  O2_6 
REMARK    6  A    between atoms: O3_8  and  C4_9 
REMARK    7  A    between atoms: C4_9  and  C5_10 
REMARK    8  A    between atoms: C6_11  and  N1_12 
REMARK    9  A    between atoms: N1_12  and  C7_14 
REMARK   10  A    between atoms: C7_14  and  O4_15 
REMARK   11  A    between atoms: N2_17  and  O5_19 
REMARK   12  A    between atoms: C8_22  and  C9_23 
REMARK   13  A    between atoms: C9_23  and  C10_25 
REMARK   14  A    between atoms: C11_27  and  O8_28 
REMARK   15  A    between atoms: O8_28  and  C12_29 
REMARK   16  A    between atoms: C18_35  and  O9_36 
REMARK   17  A    between atoms: C19_38  and  O10_39 
REMARK   18  A    between atoms: O10_39  and  C20_40 
REMARK   19  A    between atoms: C21_42  and  C22_43 
REMARK   20  A    between atoms: C22_43  and  O12_44 
REMARK   21  A    between atoms: C23_46  and  O13_47 
REMARK   22  A    between atoms: C24_49  and  O14_50 
REMARK   23  A    between atoms: C25_52  and  O15_53 
ROOT
HETATM    1  C10 UNL     1      -1.236   0.085  -1.603  1.00  0.00     0.166 A 
HETATM    2  O7  UNL     1      -1.714  -1.165  -1.564  1.00  0.00    -0.279 OA
HETATM    3  C11 UNL     1      -2.834  -1.188  -0.932  1.00  0.00     0.224 A 
HETATM    4  C18 UNL     1      -3.146   0.092  -0.513  1.00  0.00     0.161 A 
HETATM    5  C19 UNL     1      -2.091   0.906  -0.963  1.00  0.00     0.148 A 
ENDROOT
BRANCH   1   6
HETATM    6  C9  UNL     1       0.029   0.295  -2.275  1.00  0.00     0.228 C 
HETATM    7  O6  UNL     1       0.152   0.363  -3.528  1.00  0.00    -0.284 OA
BRANCH   6   8
HETATM    8  C8  UNL     1       1.295   0.420  -1.483  1.00  0.00     0.093 A 
HETATM    9  S1  UNL     1       1.444   0.840   0.154  1.00  0.00    -0.065 SA
HETATM   10  C6  UNL     1       3.181   0.809   0.299  1.00  0.00     0.089 A 
HETATM   11  C5  UNL     1       3.555   0.469  -0.962  1.00  0.00     0.034 A 
HETATM   12  C25 UNL     1       2.590   0.270  -1.873  1.00  0.00     0.098 A 
BRANCH  10  13
HETATM   13  N1  UNL     1       3.831   1.142   1.519  1.00  0.00    -0.314 N 
ATOM     14  H1  UNL     1       3.179   1.146   2.303  1.00  0.00     0.170 HD
BRANCH  13  15
HETATM   15  C7  UNL     1       5.110   1.461   1.921  1.00  0.00     0.242 C 
HETATM   16  N2  UNL     1       6.276   1.356   1.501  1.00  0.00    -0.233 N 
ATOM     17  H2  UNL     1       6.365   0.906   0.590  1.00  0.00     0.198 HD
BRANCH  15  18
HETATM   18  O4  UNL     1       5.113   2.127   3.251  1.00  0.00    -0.331 OA
ATOM     19  H4  UNL     1       5.995   2.347   3.528  1.00  0.00     0.221 HD
ENDBRANCH  15  18
BRANCH  16  20
HETATM   20  O5  UNL     1       7.450   1.746   2.064  1.00  0.00    -0.287 OA
ATOM     21  H5  UNL     1       8.341   1.666   1.743  1.00  0.00     0.244 HD
ENDBRANCH  16  20
ENDBRANCH  13  15
ENDBRANCH  10  13
BRANCH  11  22
HETATM   22  C4  UNL     1       5.055   0.427  -1.292  1.00  0.00     0.215 C 
BRANCH  22  23
HETATM   23  O3  UNL     1       5.478  -0.860  -1.087  1.00  0.00    -0.357 OA
BRANCH  23  24
HETATM   24  C1  UNL     1       6.627  -1.498  -1.158  1.00  0.00     0.259 C 
BRANCH  24  25
HETATM   25  O1  UNL     1       7.647  -0.750  -1.554  1.00  0.00    -0.371 OA
ATOM     26  H1  UNL     1       7.444   0.156  -1.757  1.00  0.00     0.212 HD
ENDBRANCH  24  25
BRANCH  24  27
HETATM   27  C2  UNL     1       6.939  -2.891  -0.846  1.00  0.00     0.086 C 
BRANCH  27  28
HETATM   28  C3  UNL     1       8.126  -2.943   0.117  1.00  0.00     0.169 C 
BRANCH  28  29
HETATM   29  O2  UNL     1       7.866  -2.224   1.272  1.00  0.00    -0.401 OA
ATOM     30  H2  UNL     1       8.603  -2.256   1.870  1.00  0.00     0.209 HD
ENDBRANCH  28  29
ENDBRANCH  27  28
ENDBRANCH  24  27
ENDBRANCH  23  24
ENDBRANCH  22  23
ENDBRANCH  11  22
BRANCH  12  31
HETATM   31  O15 UNL     1       2.809  -0.099  -3.252  1.00  0.00    -0.358 OA
ATOM     32  H15 UNL     1       2.126  -0.240  -3.897  1.00  0.00     0.217 HD
ENDBRANCH  12  31
ENDBRANCH   6   8
ENDBRANCH   1   6
BRANCH   5  33
HETATM   33  O10 UNL     1      -2.053   2.229  -0.738  1.00  0.00    -0.312 OA
BRANCH  33  34
HETATM   34  C20 UNL     1      -2.438   3.335  -1.465  1.00  0.00     0.298 C 
HETATM   35  O11 UNL     1      -1.823   4.481  -0.959  1.00  0.00    -0.348 OA
HETATM   36  C21 UNL     1      -2.462   4.752   0.255  1.00  0.00     0.179 C 
HETATM   37  C23 UNL     1      -3.817   4.082   0.232  1.00  0.00     0.182 C 
HETATM   38  C24 UNL     1      -3.907   3.781  -1.262  1.00  0.00     0.205 C 
BRANCH  36  39
HETATM   39  C22 UNL     1      -2.742   6.235   0.305  1.00  0.00     0.198 C 
BRANCH  39  40
HETATM   40  O12 UNL     1      -3.362   6.602   1.477  1.00  0.00    -0.398 OA
ATOM     41  H12 UNL     1      -3.538   7.535   1.508  1.00  0.00     0.209 HD
ENDBRANCH  39  40
ENDBRANCH  36  39
BRANCH  37  42
HETATM   42  O13 UNL     1      -4.845   4.967   0.567  1.00  0.00    -0.390 OA
ATOM     43  H13 UNL     1      -5.696   4.546   0.553  1.00  0.00     0.210 HD
ENDBRANCH  37  42
BRANCH  38  44
HETATM   44  O14 UNL     1      -4.842   2.933  -1.697  1.00  0.00    -0.388 OA
ATOM     45  H14 UNL     1      -5.743   3.207  -1.572  1.00  0.00     0.210 HD
ENDBRANCH  38  44
ENDBRANCH  33  34
ENDBRANCH   5  33
BRANCH   3  46
HETATM   46  O8  UNL     1      -3.671  -2.274  -0.665  1.00  0.00    -0.323 OA
BRANCH  46  47
HETATM   47  C12 UNL     1      -3.729  -3.059   0.468  1.00  0.00     0.131 C 
HETATM   48  C13 UNL     1      -5.155  -3.347   0.904  1.00  0.00     0.032 C 
HETATM   49  C14 UNL     1      -5.124  -4.064   2.217  1.00  0.00     0.002 C 
HETATM   50  C15 UNL     1      -4.407  -5.390   2.045  1.00  0.00     0.000 C 
HETATM   51  C16 UNL     1      -3.954  -5.577   0.612  1.00  0.00     0.002 C 
HETATM   52  C17 UNL     1      -3.137  -4.424   0.100  1.00  0.00     0.032 C 
ENDBRANCH  46  47
ENDBRANCH   3  46
BRANCH   4  53
HETATM   53  O9  UNL     1      -4.268   0.460   0.207  1.00  0.00    -0.354 OA
ATOM     54  H9  UNL     1      -4.482   1.340   0.495  1.00  0.00     0.218 HD
ENDBRANCH   4  53
TORSDOF 23
