REMARK  2 active torsions:
REMARK  status: ('A' for Active; 'I' for Inactive)
REMARK    1  A    between atoms: O1_2  and  C2_3 
REMARK    2  A    between atoms: C12_18  and  C13_20 
ROOT
HETATM    1  C2  UNL     1      -1.885  -0.580  -0.501  1.00  0.00     0.088 C 
HETATM    2  C3  UNL     1      -1.239  -1.739  -0.395  1.00  0.00     0.095 C 
HETATM    3  C4  UNL     1       0.187  -1.980  -0.207  1.00  0.00     0.202 C 
HETATM    4  O2  UNL     1       0.557  -3.167  -0.368  1.00  0.00    -0.286 OA
HETATM    5  C5  UNL     1       1.258  -1.041   0.143  1.00  0.00     0.099 A 
HETATM    6  N1  UNL     1       2.556  -1.314   0.302  1.00  0.00    -0.354 N 
ATOM      7  H1  UNL     1       2.956  -2.245   0.190  1.00  0.00     0.166 HD
HETATM    8  C6  UNL     1       3.278  -0.224   0.626  1.00  0.00     0.028 A 
HETATM    9  C7  UNL     1       4.743  -0.134   0.882  1.00  0.00     0.070 C 
HETATM   10  C8  UNL     1       2.382   0.828   0.679  1.00  0.00     0.072 A 
HETATM   11 CL1  UNL     1       2.702   2.516   1.056  1.00  0.00    -0.081 Cl
HETATM   12  C9  UNL     1       1.141   0.321   0.381  1.00  0.00     0.069 A 
HETATM   13  C10 UNL     1      -0.094   1.093   0.330  1.00  0.00     0.201 C 
HETATM   14  O3  UNL     1      -0.125   2.123   1.029  1.00  0.00    -0.286 OA
HETATM   15  C11 UNL     1      -1.315   0.793  -0.455  1.00  0.00     0.075 C 
HETATM   16  C12 UNL     1      -1.952   1.698  -1.091  1.00  0.00     0.113 C 
HETATM   17 CL2  UNL     1      -3.450   1.140  -1.925  1.00  0.00    -0.078 Cl
ENDROOT
BRANCH   1  18
HETATM   18  O1  UNL     1      -3.253  -0.641  -0.676  1.00  0.00    -0.355 OA
HETATM   19  C1  UNL     1      -4.049  -1.193   0.375  1.00  0.00     0.210 C 
ENDBRANCH   1  18
BRANCH  16  20
HETATM   20  C13 UNL     1      -1.657   3.071  -1.339  1.00  0.00     0.264 C 
HETATM   21  O4  UNL     1      -0.631   3.648  -0.962  1.00  0.00    -0.273 OA
HETATM   22 CL3  UNL     1      -2.788   4.107  -2.249  1.00  0.00    -0.037 Cl
ENDBRANCH  16  20
TORSDOF 2
