REMARK  3 active torsions:
REMARK  status: ('A' for Active; 'I' for Inactive)
REMARK    1  A    between atoms: C6_8  and  O3_9 
REMARK    2  A    between atoms: C7_11  and  C8_12 
REMARK    3  A    between atoms: C8_12  and  O4_13 
ROOT
HETATM    1  C1  UNL     1      -1.402   2.158   0.373  1.00  0.00     0.045 C 
HETATM    2  C2  UNL     1      -1.578   0.679   0.631  1.00  0.00     0.182 C 
HETATM    3  O1  UNL     1      -2.898   0.365   0.257  1.00  0.00    -0.357 OA
HETATM    4  C3  UNL     1      -2.779  -0.934  -0.261  1.00  0.00     0.342 C 
HETATM    5  O2  UNL     1      -1.698  -0.784  -1.134  1.00  0.00    -0.328 OA
HETATM    6  C4  UNL     1      -0.747  -0.176  -0.280  1.00  0.00     0.195 C 
HETATM    7  C5  UNL     1      -0.037  -1.293   0.426  1.00  0.00     0.105 C 
HETATM    8  C6  UNL     1       1.275  -1.348  -0.345  1.00  0.00     0.154 C 
HETATM    9  C7  UNL     1       1.427   0.083  -0.744  1.00  0.00     0.177 C 
HETATM   10  O5  UNL     1       0.167   0.550  -0.990  1.00  0.00    -0.343 OA
ENDROOT
BRANCH   8  11
HETATM   11  O3  UNL     1       2.305  -1.861   0.389  1.00  0.00    -0.393 OA
ATOM     12  H3  UNL     1       3.124  -1.895  -0.092  1.00  0.00     0.210 HD
ENDBRANCH   8  11
BRANCH   9  13
HETATM   13  C8  UNL     1       2.038   0.927   0.360  1.00  0.00     0.198 C 
BRANCH  13  14
HETATM   14  O4  UNL     1       3.331   0.512   0.672  1.00  0.00    -0.398 OA
ATOM     15  H4  UNL     1       3.713   1.040   1.363  1.00  0.00     0.209 HD
ENDBRANCH  13  14
ENDBRANCH   9  13
TORSDOF 3
