REMARK  4 active torsions:
REMARK  status: ('A' for Active; 'I' for Inactive)
REMARK    1  A    between atoms: S1_3  and  C2_4 
REMARK    2  A    between atoms: C2_4  and  O1_6 
REMARK    3  A    between atoms: O1_6  and  C3_7 
REMARK    4  A    between atoms: C3_7  and  C4_8 
ROOT
HETATM    1  N1  UNL     1       4.893   1.315   0.128  1.00  0.00    -0.184 NA
HETATM    2  C1  UNL     1       3.785   1.353   0.515  1.00  0.00     0.141 C 
HETATM    3  S1  UNL     1       2.132   1.406   1.124  1.00  0.00     0.026 SA
ENDROOT
BRANCH   3   4
HETATM    4  C2  UNL     1       1.072   0.586  -0.038  1.00  0.00     0.190 C 
HETATM    5  S2  UNL     1       1.698  -0.058  -1.402  1.00  0.00    -0.044 SA
BRANCH   4   6
HETATM    6  O1  UNL     1      -0.305   0.462   0.164  1.00  0.00    -0.324 OA
BRANCH   6   7
HETATM    7  C3  UNL     1      -0.854  -0.823  -0.050  1.00  0.00     0.290 C 
BRANCH   7   8
HETATM    8  C4  UNL     1      -2.311  -0.858   0.186  1.00  0.00     0.198 C 
HETATM    9  O2  UNL     1      -2.895  -1.960   0.021  1.00  0.00    -0.646 OA
HETATM   10  O3  UNL     1      -3.072   0.221   0.572  1.00  0.00    -0.646 OA
ENDBRANCH   7   8
ENDBRANCH   6   7
ENDBRANCH   4   6
ENDBRANCH   3   4
TORSDOF 4
