REMARK  3 active torsions:
REMARK  status: ('A' for Active; 'I' for Inactive)
REMARK    1  A    between atoms: C3_5  and  N2_6 
REMARK    2  A    between atoms: N2_6  and  C4_8 
REMARK    3  A    between atoms: C4_8  and  C5_9 
ROOT
HETATM    1  C1  UNL     1      -4.513  -2.017  -0.142  1.00  0.00     0.089 C 
HETATM    2  C2  UNL     1      -3.786  -0.711   0.008  1.00  0.00     0.079 A 
HETATM    3  N1  UNL     1      -2.454  -0.675   0.112  1.00  0.00    -0.333 N 
ATOM      4  H1  UNL     1      -1.938  -1.555   0.088  1.00  0.00     0.168 HD
HETATM    5  C3  UNL     1      -1.767   0.469   0.247  1.00  0.00     0.105 A 
HETATM    6  C11 UNL     1      -2.464   1.654   0.280  1.00  0.00     0.089 A 
HETATM    7  C12 UNL     1      -3.829   1.626   0.174  1.00  0.00     0.118 A 
HETATM    8  C13 UNL     1      -4.590   2.840   0.204  1.00  0.00     0.117 C 
HETATM    9  N4  UNL     1      -5.214   3.821   0.246  1.00  0.00    -0.190 NA
HETATM   10  N5  UNL     1      -4.453   0.460   0.042  1.00  0.00    -0.338 N 
ATOM     11  H5  UNL     1      -5.470   0.451  -0.036  1.00  0.00     0.168 HD
ENDROOT
BRANCH   5  12
HETATM   12  N2  UNL     1      -0.483   0.487   0.346  1.00  0.00    -0.372 N 
ATOM     13  H2  UNL     1       0.026   1.365   0.448  1.00  0.00     0.161 HD
BRANCH  12  14
HETATM   14  C4  UNL     1       0.213  -0.782   0.307  1.00  0.00     0.160 C 
BRANCH  14  15
HETATM   15  C5  UNL     1       1.670  -0.483   0.156  1.00  0.00    -0.038 A 
HETATM   16  C6  UNL     1       2.149   0.808   0.079  1.00  0.00     0.026 A 
HETATM   17  C7  UNL     1       3.503   1.035  -0.060  1.00  0.00     0.090 A 
HETATM   18  N3  UNL     1       4.407   0.048  -0.126  1.00  0.00    -0.371 N 
HETATM   19  C8  UNL     1       5.829   0.349  -0.273  1.00  0.00     0.154 C 
HETATM   20  C9  UNL     1       3.951  -1.215  -0.051  1.00  0.00     0.090 A 
HETATM   21  C10 UNL     1       2.608  -1.499   0.088  1.00  0.00     0.026 A 
ENDBRANCH  14  15
ENDBRANCH  12  14
ENDBRANCH   5  12
TORSDOF 3
