REMARK  4 active torsions:
REMARK  status: ('A' for Active; 'I' for Inactive)
REMARK    1  A    between atoms: C3_4  and  N1_5 
REMARK    2  A    between atoms: N1_5  and  O2_7 
REMARK    3  A    between atoms: C7_12  and  C8_13 
REMARK    4  A    between atoms: C8_13  and  N3_14 
ROOT
HETATM    1  C1  UNL     1       0.973  -3.146  -1.405  1.00  0.00     0.077 C 
HETATM    2  C2  UNL     1       1.296  -1.878  -0.694  1.00  0.00     0.061 A 
HETATM    3  O1  UNL     1       2.464  -1.458  -0.351  1.00  0.00    -0.295 OA
HETATM    4  C3  UNL     1       2.445  -0.322   0.255  1.00  0.00     0.191 A 
HETATM    5  C5  UNL     1       1.091   0.050   0.316  1.00  0.00     0.108 A 
HETATM    6  C6  UNL     1       0.627   1.248   0.904  1.00  0.00     0.104 C 
HETATM    7  N2  UNL     1       0.276   2.238   1.389  1.00  0.00    -0.191 NA
HETATM    8  C7  UNL     1       0.347  -0.923  -0.280  1.00  0.00     0.015 A 
ENDROOT
BRANCH   4   9
HETATM    9  N1  UNL     1       3.504   0.459   0.781  1.00  0.00    -0.242 N 
HETATM   10  C4  UNL     1       4.165   1.514   0.045  1.00  0.00     0.188 C 
BRANCH   9  11
HETATM   11  O2  UNL     1       3.967   0.241   2.052  1.00  0.00    -0.286 OA
ATOM     12  H2  UNL     1       4.677   0.765   2.405  1.00  0.00     0.244 HD
ENDBRANCH   9  11
ENDBRANCH   4   9
BRANCH   8  13
HETATM   13  C8  UNL     1      -1.081  -1.101  -0.523  1.00  0.00     0.170 C 
BRANCH  13  14
HETATM   14  N3  UNL     1      -1.980  -0.093  -0.094  1.00  0.00    -0.362 N 
HETATM   15  C9  UNL     1      -2.530  -0.144   1.134  1.00  0.00     0.090 A 
HETATM   16  C10 UNL     1      -3.438   0.832   1.559  1.00  0.00     0.017 A 
HETATM   17  C11 UNL     1      -3.785   1.867   0.720  1.00  0.00     0.003 A 
HETATM   18  C12 UNL     1      -3.207   1.894  -0.529  1.00  0.00     0.017 A 
HETATM   19  C13 UNL     1      -2.315   0.916  -0.919  1.00  0.00     0.090 A 
ENDBRANCH  13  14
ENDBRANCH   8  13
TORSDOF 4
