REMARK  4 active torsions:
REMARK  status: ('A' for Active; 'I' for Inactive)
REMARK    1  A    between atoms: C2_2  and  N1_4 
REMARK       I    between atoms: N1_4  and  C4_6 
REMARK    2  A    between atoms: C4_6  and  O2_8 
REMARK    3  A    between atoms: O2_8  and  C5_9 
REMARK    4  A    between atoms: C9_15  and  N2_16 
ROOT
HETATM    1  C5  UNL     1      -0.839   0.028   1.189  1.00  0.00     0.201 C 
HETATM    2  C6  UNL     1      -1.578  -1.166   1.739  1.00  0.00     0.187 C 
HETATM    3  O3  UNL     1      -1.757  -2.155   0.801  1.00  0.00    -0.356 OA
HETATM    4  C7  UNL     1      -3.106  -2.322   0.585  1.00  0.00     0.339 C 
HETATM    5  O4  UNL     1      -3.774  -1.228   1.075  1.00  0.00    -0.357 OA
HETATM    6  C8  UNL     1      -2.851  -0.353   1.611  1.00  0.00     0.192 C 
HETATM    7  C9  UNL     1      -2.116   0.514   0.604  1.00  0.00     0.285 C 
ENDROOT
BRANCH   1   8
HETATM    8  O2  UNL     1       0.223  -0.235   0.336  1.00  0.00    -0.294 OA
BRANCH   8   9
HETATM    9  C4  UNL     1       1.486   0.289   0.570  1.00  0.00     0.361 C 
HETATM   10  N1  UNL     1       2.583   0.012  -0.317  1.00  0.00    -0.333 N 
ATOM     11  H1  UNL     1       2.438  -0.580  -1.135  1.00  0.00     0.165 HD
HETATM   12  O1  UNL     1       1.634   1.013   1.584  1.00  0.00    -0.238 OA
BRANCH  10  13
HETATM   13  C2  UNL     1       3.887   0.568  -0.055  1.00  0.00     0.078 C 
HETATM   14  C1  UNL     1       4.335   1.399  -1.237  1.00  0.00     0.032 C 
HETATM   15  C3  UNL     1       4.850  -0.586   0.179  1.00  0.00     0.032 C 
ENDBRANCH  10  13
ENDBRANCH   8   9
ENDBRANCH   1   8
BRANCH   7  16
HETATM   16  N2  UNL     1      -2.441   0.104  -0.729  1.00  0.00     0.089 N 
HETATM   17  C10 UNL     1      -3.741   0.718  -1.051  1.00  0.00     0.310 C 
HETATM   18  C11 UNL     1      -1.526   0.554  -1.733  1.00  0.00     0.310 C 
ENDBRANCH   7  16
TORSDOF 4
