REMARK  3 active torsions:
REMARK  status: ('A' for Active; 'I' for Inactive)
REMARK    1  A    between atoms: O1_2  and  N1_3 
REMARK    2  A    between atoms: C2_5  and  N2_6 
REMARK    3  A    between atoms: N2_6  and  C3_8 
ROOT
HETATM    1  C3  UNL     1       0.389  -0.494  -0.299  1.00  0.00     0.093 C 
HETATM    2  C4  UNL     1       0.232  -1.981  -0.570  1.00  0.00     0.041 C 
HETATM    3  C5  UNL     1      -0.999  -2.528   0.112  1.00  0.00     0.142 C 
HETATM    4  S1  UNL     1      -1.355  -1.646   1.608  1.00  0.00     0.145 S 
HETATM    5  O2  UNL     1      -2.752  -2.059   2.015  1.00  0.00    -0.228 OA
HETATM    6  O3  UNL     1      -0.359  -1.953   2.684  1.00  0.00    -0.228 OA
HETATM    7  C6  UNL     1      -1.405   0.079   1.220  1.00  0.00     0.152 C 
HETATM    8  C7  UNL     1      -0.921   0.200  -0.223  1.00  0.00    -0.003 A 
HETATM    9  C8  UNL     1      -1.987  -0.002  -1.232  1.00  0.00     0.018 A 
HETATM   10  C9  UNL     1      -1.290   1.313  -1.076  1.00  0.00    -0.006 A 
HETATM   11  C10 UNL     1      -2.010   2.465  -0.407  1.00  0.00     0.011 C 
ENDROOT
BRANCH   1  12
HETATM   12  N2  UNL     1       1.352   0.104  -1.183  1.00  0.00    -0.379 N 
ATOM     13  H2  UNL     1       1.744  -0.499  -1.906  1.00  0.00     0.160 HD
BRANCH  12  14
HETATM   14  C2  UNL     1       1.810   1.429  -1.156  1.00  0.00     0.200 C 
HETATM   15  N1  UNL     1       2.423   1.965  -0.145  1.00  0.00    -0.263 N 
ATOM     16  H1  UNL     1       2.721   2.938  -0.212  1.00  0.00     0.195 HD
BRANCH  15  17
HETATM   17  O1  UNL     1       2.686   1.272   1.013  1.00  0.00    -0.284 OA
HETATM   18  C1  UNL     1       3.844   0.474   1.162  1.00  0.00     0.237 C 
ENDBRANCH  15  17
ENDBRANCH  12  14
ENDBRANCH   1  12
TORSDOF 3
