REMARK  5 active torsions:
REMARK  status: ('A' for Active; 'I' for Inactive)
REMARK    1  A    between atoms: C2_2  and  C3_3 
REMARK    2  A    between atoms: C3_3  and  O2_5 
REMARK    3  A    between atoms: O2_5  and  C4_6 
REMARK    4  A    between atoms: C5_7  and  O3_8 
REMARK    5  A    between atoms: C5_7  and  C6_10 
ROOT
HETATM    1  C4  UNL     1       0.037  -0.394   0.248  1.00  0.00     0.319 C 
HETATM    2  C5  UNL     1      -0.934   0.302  -0.677  1.00  0.00     0.119 C 
HETATM    3  C8  UNL     1      -2.292  -0.284  -0.461  1.00  0.00     0.073 C 
HETATM    4  C9  UNL     1      -2.492  -0.818   0.943  1.00  0.00     0.193 C 
HETATM    5  O4  UNL     1      -1.990  -2.121   1.071  1.00  0.00    -0.274 OA
HETATM    6  S1  UNL     1      -0.425  -2.113   0.466  1.00  0.00     0.296 S 
HETATM    7  O5  UNL     1      -0.351  -2.803  -0.876  1.00  0.00    -0.196 OA
HETATM    8  O6  UNL     1       0.554  -2.706   1.422  1.00  0.00    -0.196 OA
ENDROOT
BRANCH   1   9
HETATM    9  O2  UNL     1       1.354  -0.327  -0.183  1.00  0.00    -0.291 OA
BRANCH   9  10
HETATM   10  C3  UNL     1       2.318   0.256   0.620  1.00  0.00     0.283 C 
HETATM   11  O1  UNL     1       1.955   0.712   1.731  1.00  0.00    -0.260 OA
BRANCH  10  12
HETATM   12  C2  UNL     1       3.710   0.363   0.243  1.00  0.00     0.072 C 
HETATM   13  C1  UNL     1       4.118  -0.106  -0.915  1.00  0.00     0.017 C 
ENDBRANCH  10  12
ENDBRANCH   9  10
ENDBRANCH   1   9
BRANCH   2  14
HETATM   14  O3  UNL     1      -0.600   0.148  -2.011  1.00  0.00    -0.382 OA
ATOM     15  H3  UNL     1      -1.211   0.586  -2.593  1.00  0.00     0.211 HD
ENDBRANCH   2  14
BRANCH   2  16
HETATM   16  C6  UNL     1      -0.868   1.760  -0.366  1.00  0.00     0.004 C 
HETATM   17  C7  UNL     1      -1.828   2.410   0.252  1.00  0.00     0.010 C 
ENDBRANCH   2  16
TORSDOF 5
