REMARK  7 active torsions:
REMARK  status: ('A' for Active; 'I' for Inactive)
REMARK    1  A    between atoms: N1_1  and  C1_4 
REMARK    2  A    between atoms: C3_7  and  N3_8 
REMARK    3  A    between atoms: N3_8  and  C4_10 
REMARK    4  A    between atoms: C4_10  and  C5_11 
REMARK    5  A    between atoms: C5_11  and  O1_12 
REMARK    6  A    between atoms: C7_18  and  N6_19 
REMARK    7  A    between atoms: N6_19  and  C8_21 
ROOT
HETATM    1  C1  UNL     1       0.413   1.636   0.607  1.00  0.00     0.084 A 
HETATM    2  C2  UNL     1      -0.886   1.668   0.206  1.00  0.00     0.118 A 
HETATM    3  N2  UNL     1      -1.413   2.922  -0.252  1.00  0.00    -0.096 NA
HETATM    4  C3  UNL     1      -1.742   0.561   0.209  1.00  0.00     0.129 A 
HETATM    5  N4  UNL     1      -1.234  -0.597   0.638  1.00  0.00    -0.328 N 
ATOM      6  H4  UNL     1      -1.814  -1.436   0.662  1.00  0.00     0.168 HD
HETATM    7  C6  UNL     1       0.061  -0.647   1.042  1.00  0.00     0.147 A 
HETATM    8  N5  UNL     1       0.598  -1.899   1.502  1.00  0.00    -0.080 NA
HETATM    9  C7  UNL     1       0.909   0.423   1.045  1.00  0.00     0.105 A 
ENDROOT
BRANCH   9  10
HETATM   10  N6  UNL     1       2.258   0.365   1.466  1.00  0.00    -0.323 N 
ATOM     11  H6  UNL     1       2.466   0.545   2.448  1.00  0.00     0.169 HD
BRANCH  10  12
HETATM   12  C8  UNL     1       3.335   0.070   0.596  1.00  0.00     0.193 C 
HETATM   13  N7  UNL     1       4.499  -0.388   0.821  1.00  0.00    -0.346 N 
HETATM   14  C9  UNL     1       5.275  -0.532  -0.385  1.00  0.00     0.259 C 
ATOM     15  H7  UNL     1       4.845  -0.627   1.750  1.00  0.00     0.163 HD
HETATM   16  N8  UNL     1       4.289  -0.521  -1.418  1.00  0.00    -0.119 NA
HETATM   17  N9  UNL     1       3.266   0.262  -0.823  1.00  0.00    -0.274 N 
ATOM     18  H9  UNL     1       2.600   0.856  -1.317  1.00  0.00     0.185 HD
ENDBRANCH  10  12
ENDBRANCH   9  10
BRANCH   1  19
HETATM   19  N1  UNL     1       1.162   2.701   0.581  1.00  0.00    -0.396 N 
ATOM     20  H12 UNL     1       0.796   3.596   0.258  1.00  0.00     0.156 HD
ATOM     21  H11 UNL     1       2.136   2.677   0.882  1.00  0.00     0.156 HD
ENDBRANCH   1  19
BRANCH   4  22
HETATM   22  N3  UNL     1      -3.087   0.667  -0.203  1.00  0.00    -0.373 N 
ATOM     23  H3  UNL     1      -3.411   1.593  -0.483  1.00  0.00     0.161 HD
BRANCH  22  24
HETATM   24  C4  UNL     1      -4.036  -0.391  -0.266  1.00  0.00     0.147 C 
BRANCH  24  25
HETATM   25  C5  UNL     1      -3.808  -1.418  -1.330  1.00  0.00     0.183 C 
BRANCH  25  26
HETATM   26  O1  UNL     1      -4.851  -2.357  -1.207  1.00  0.00    -0.399 OA
ATOM     27  H1  UNL     1      -4.706  -3.009  -1.883  1.00  0.00     0.209 HD
ENDBRANCH  25  26
ENDBRANCH  24  25
ENDBRANCH  22  24
ENDBRANCH   4  22
TORSDOF 7
