REMARK  13 active torsions:
REMARK  status: ('A' for Active; 'I' for Inactive)
REMARK    1  A    between atoms: O1_2  and  C2_3 
REMARK    2  A    between atoms: C2_3  and  N1_4 
REMARK    3  A    between atoms: C3_5  and  N2_6 
REMARK    4  A    between atoms: C5_12  and  N4_13 
REMARK    5  A    between atoms: N4_13  and  C6_15 
REMARK    6  A    between atoms: C6_15  and  C7_16 
REMARK    7  A    between atoms: C7_16  and  O2_17 
REMARK    8  A    between atoms: N6_22  and  C9_24 
REMARK    9  A    between atoms: C9_24  and  C10_25 
REMARK   10  A    between atoms: C10_25  and  N7_26 
REMARK   11  A    between atoms: N7_26  and  C11_28 
REMARK   12  A    between atoms: C11_28  and  C12_29 
REMARK   13  A    between atoms: C12_29  and  N8_30 
ROOT
HETATM    1  N1  UNL     1      -2.725   1.435  -0.790  1.00  0.00    -0.120 N 
HETATM    2  C3  UNL     1      -3.934   0.876  -0.706  1.00  0.00     0.686 A 
HETATM    3  N3  UNL     1      -3.746  -0.448  -0.436  1.00  0.00    -0.184 N 
ATOM      4  H3  UNL     1      -4.487  -1.138  -0.315  1.00  0.00     0.184 HD
HETATM    5  C4  UNL     1      -2.434  -0.695  -0.356  1.00  0.00     0.139 A 
HETATM    6  C5  UNL     1      -1.675  -1.812  -0.116  1.00  0.00     0.148 A 
HETATM    7  N5  UNL     1      -0.306  -1.701  -0.110  1.00  0.00    -0.174 N 
ATOM      8  H5  UNL     1       0.246  -2.540   0.069  1.00  0.00     0.186 HD
HETATM    9  C8  UNL     1       0.344  -0.548  -0.327  1.00  0.00     0.685 A 
HETATM   10  N6  UNL     1       1.622  -0.536  -0.302  1.00  0.00    -0.204 N 
ATOM     11  H6  UNL     1       2.048  -1.443  -0.111  1.00  0.00     0.183 HD
HETATM   12  N9  UNL     1      -0.424   0.526  -0.558  1.00  0.00    -0.173 N 
ATOM     13  H9  UNL     1       0.043   1.417  -0.726  1.00  0.00     0.186 HD
HETATM   14  C13 UNL     1      -1.772   0.509  -0.583  1.00  0.00     0.176 A 
ENDROOT
BRANCH  10  15
HETATM   15  C9  UNL     1       2.541   0.506  -0.491  1.00  0.00     0.098 C 
BRANCH  15  16
HETATM   16  C10 UNL     1       3.364   0.850   0.730  1.00  0.00     0.159 C 
BRANCH  16  17
HETATM   17  N7  UNL     1       4.279   1.914   0.471  1.00  0.00    -0.415 N 
ATOM     18  H7  UNL     1       4.181   2.837   0.893  1.00  0.00     0.153 HD
BRANCH  17  19
HETATM   19  C11 UNL     1       5.349   1.584  -0.431  1.00  0.00     0.141 C 
BRANCH  19  20
HETATM   20  C12 UNL     1       6.311   0.580   0.166  1.00  0.00     0.248 C 
BRANCH  20  21
HETATM   21  N8  UNL     1       7.347   0.302  -0.784  1.00  0.00    -0.078 N 
ATOM     22  H83 UNL     1       6.976  -0.003  -1.684  1.00  0.00     0.274 HD
ATOM     23  H82 UNL     1       7.818   1.149  -1.103  1.00  0.00     0.274 HD
ATOM     24  H81 UNL     1       7.995  -0.375  -0.382  1.00  0.00     0.274 HD
ENDBRANCH  20  21
ENDBRANCH  19  20
ENDBRANCH  17  19
ENDBRANCH  16  17
ENDBRANCH  15  16
ENDBRANCH  10  15
BRANCH   6  25
HETATM   25  N4  UNL     1      -2.177  -2.929   0.108  1.00  0.00    -0.372 N 
ATOM     26  H4  UNL     1      -1.450  -3.628   0.261  1.00  0.00     0.161 HD
BRANCH  25  27
HETATM   27  C6  UNL     1      -3.437  -3.501   0.210  1.00  0.00     0.147 C 
BRANCH  27  28
HETATM   28  C7  UNL     1      -3.351  -4.959   0.713  1.00  0.00     0.183 C 
BRANCH  28  29
HETATM   29  O2  UNL     1      -2.613  -5.761  -0.121  1.00  0.00    -0.399 OA
ATOM     30  H2  UNL     1      -2.560  -6.658   0.188  1.00  0.00     0.209 HD
ENDBRANCH  28  29
ENDBRANCH  27  28
ENDBRANCH  25  27
ENDBRANCH   6  25
BRANCH   1  31
HETATM   31  C2  UNL     1      -2.470   2.832  -1.046  1.00  0.00     0.252 C 
BRANCH  31  32
HETATM   32  O1  UNL     1      -2.322   3.627   0.046  1.00  0.00    -0.350 OA
HETATM   33  C1  UNL     1      -3.371   3.678   0.940  1.00  0.00     0.210 C 
ENDBRANCH  31  32
ENDBRANCH   1  31
BRANCH   2  34
HETATM   34  N2  UNL     1      -5.112   1.408  -0.850  1.00  0.00    -0.234 N 
ATOM     35  H22 UNL     1      -5.253   2.398  -1.052  1.00  0.00     0.174 HD
ATOM     36  H21 UNL     1      -6.036   0.981  -0.786  1.00  0.00     0.174 HD
ENDBRANCH   2  34
TORSDOF 13
