REMARK  7 active torsions:
REMARK  status: ('A' for Active; 'I' for Inactive)
REMARK    1  A    between atoms: C2_2  and  N1_3 
REMARK    2  A    between atoms: C2_2  and  C18_28 
REMARK       I    between atoms: N1_3  and  C3_5 
REMARK    3  A    between atoms: C3_5  and  C4_7 
REMARK    4  A    between atoms: C4_7  and  N2_8 
REMARK    5  A    between atoms: N2_8  and  C5_10 
REMARK    6  A    between atoms: C5_10  and  C6_14 
REMARK    7  A    between atoms: C9_17  and  C10_18 
ROOT
HETATM    1  C4  UNL     1      -1.261  -0.486  -0.511  1.00  0.00     0.120 C 
HETATM    2  C13 UNL     1      -0.634  -1.608   0.297  1.00  0.00     0.024 C 
HETATM    3  C14 UNL     1       0.017  -2.457  -0.768  1.00  0.00     0.008 C 
HETATM    4  C15 UNL     1      -1.089  -2.446  -1.814  1.00  0.00     0.008 C 
HETATM    5  C16 UNL     1      -2.093  -1.591  -1.079  1.00  0.00     0.024 C 
HETATM    6  C17 UNL     1      -2.023  -2.247   0.289  1.00  0.00     0.015 C 
ENDROOT
BRANCH   1   7
HETATM    7  C3  UNL     1      -2.094   0.475   0.255  1.00  0.00     0.247 C 
HETATM    8  N1  UNL     1      -3.482   0.392   0.468  1.00  0.00    -0.345 N 
ATOM      9  H1  UNL     1      -3.983  -0.398   0.061  1.00  0.00     0.163 HD
HETATM   10  O1  UNL     1      -1.518   1.466   0.765  1.00  0.00    -0.271 OA
BRANCH   8  11
HETATM   11  C2  UNL     1      -4.243   1.359   1.230  1.00  0.00     0.181 C 
HETATM   12  C1  UNL     1      -4.868   0.600   2.393  1.00  0.00     0.043 C 
BRANCH  11  13
HETATM   13  C18 UNL     1      -5.357   1.850   0.391  1.00  0.00     0.196 C 
HETATM   14  O4  UNL     1      -5.505   1.416  -0.775  1.00  0.00    -0.646 OA
HETATM   15  O5  UNL     1      -6.273   2.795   0.845  1.00  0.00    -0.646 OA
ENDBRANCH  11  13
ENDBRANCH   8  11
ENDBRANCH   1   7
BRANCH   1  16
HETATM   16  N2  UNL     1      -0.326   0.117  -1.420  1.00  0.00    -0.361 N 
ATOM     17  H2  UNL     1      -0.366  -0.227  -2.379  1.00  0.00     0.162 HD
BRANCH  16  18
HETATM   18  C5  UNL     1       0.631   1.107  -1.180  1.00  0.00     0.075 C 
HETATM   19  N3  UNL     1       0.189   2.338  -1.405  1.00  0.00    -0.389 N 
ATOM     20  H32 UNL     1      -0.785   2.418  -1.698  1.00  0.00     0.157 HD
ATOM     21  H31 UNL     1       0.887   3.060  -1.230  1.00  0.00     0.157 HD
BRANCH  18  22
HETATM   22  C6  UNL     1       2.019   0.993  -0.762  1.00  0.00     0.052 C 
HETATM   23  C7  UNL     1       2.930   0.266  -1.726  1.00  0.00     0.013 C 
HETATM   24  C8  UNL     1       4.089  -0.384  -1.031  1.00  0.00     0.016 C 
HETATM   25  C9  UNL     1       4.681   0.502   0.047  1.00  0.00     0.087 C 
HETATM   26  C11 UNL     1       3.643   0.910   1.056  1.00  0.00     0.016 C 
HETATM   27  C12 UNL     1       2.262   0.402   0.600  1.00  0.00     0.013 C 
BRANCH  25  28
HETATM   28  C10 UNL     1       5.800  -0.199   0.697  1.00  0.00     0.177 C 
HETATM   29  O2  UNL     1       6.175  -1.357   0.380  1.00  0.00    -0.648 OA
HETATM   30  O3  UNL     1       6.501   0.428   1.723  1.00  0.00    -0.648 OA
ENDBRANCH  25  28
ENDBRANCH  18  22
ENDBRANCH  16  18
ENDBRANCH   1  16
TORSDOF 7
