REMARK  5 active torsions:
REMARK  status: ('A' for Active; 'I' for Inactive)
REMARK    1  A    between atoms: C1_2  and  O1_3 
REMARK    2  A    between atoms: O1_3  and  C2_4 
REMARK    3  A    between atoms: C5_8  and  C6_9 
REMARK    4  A    between atoms: C7_10  and  C8_11 
REMARK    5  A    between atoms: N6_29  and  C15_31 
ROOT
HETATM    1  C6  UNL     1      -0.005  -0.519  -0.252  1.00  0.00     0.051 A 
HETATM    2  C7  UNL     1       1.166  -1.113  -0.676  1.00  0.00     0.090 A 
HETATM    3  N4  UNL     1       1.074  -2.461  -0.469  1.00  0.00    -0.296 N 
ATOM      4  H4  UNL     1       1.783  -3.162  -0.683  1.00  0.00     0.187 HD
HETATM    5  N5  UNL     1      -0.093  -2.671   0.053  1.00  0.00    -0.284 N 
ATOM      6  H5  UNL     1      -0.433  -3.597   0.313  1.00  0.00     0.188 HD
HETATM    7  C14 UNL     1      -0.809  -1.552   0.218  1.00  0.00     0.129 A 
HETATM    8  N6  UNL     1      -2.000  -1.411   0.707  1.00  0.00    -0.370 N 
ATOM      9  H6  UNL     1      -2.438  -0.492   0.779  1.00  0.00     0.161 HD
ENDROOT
BRANCH   2  10
HETATM   10  C8  UNL     1       2.341  -0.504  -1.275  1.00  0.00     0.078 A 
HETATM   11  N1  UNL     1       2.337  -0.070  -2.551  1.00  0.00    -0.350 N 
HETATM   12  C9  UNL     1       3.396   0.483  -3.136  1.00  0.00     0.182 A 
ATOM     13  H1  UNL     1       1.480  -0.171  -3.095  1.00  0.00     0.166 HD
HETATM   14  N2  UNL     1       4.531   0.620  -2.425  1.00  0.00    -0.338 N 
HETATM   15  C10 UNL     1       4.641   0.224  -1.157  1.00  0.00     0.120 A 
ATOM     16  H2  UNL     1       5.341   1.045  -2.876  1.00  0.00     0.168 HD
HETATM   17  N3  UNL     1       5.663   0.270  -0.287  1.00  0.00    -0.350 N 
HETATM   18  C13 UNL     1       3.511  -0.357  -0.559  1.00  0.00     0.060 A 
HETATM   19  C11 UNL     1       5.270  -0.259   0.879  1.00  0.00     0.114 A 
ATOM     20  H3  UNL     1       6.590   0.647  -0.483  1.00  0.00     0.166 HD
HETATM   21  C12 UNL     1       3.940  -0.650   0.723  1.00  0.00     0.065 A 
HETATM   22 CL2  UNL     1       2.922  -1.400   1.930  1.00  0.00    -0.082 Cl
ENDBRANCH   2  10
BRANCH   1  23
HETATM   23  C5  UNL     1      -0.334   0.902  -0.299  1.00  0.00     0.005 A 
HETATM   24  C4  UNL     1      -0.478   1.639   0.876  1.00  0.00     0.048 A 
HETATM   25  C3  UNL     1      -0.792   2.980   0.859  1.00  0.00     0.064 A 
HETATM   26 CL1  UNL     1      -0.260   0.822   2.424  1.00  0.00    -0.083 Cl
HETATM   27  C2  UNL     1      -0.970   3.617  -0.348  1.00  0.00     0.112 A 
HETATM   28  C20 UNL     1      -0.835   2.914  -1.521  1.00  0.00     0.150 A 
HETATM   29  C19 UNL     1      -0.523   1.586  -1.479  1.00  0.00     0.059 A 
HETATM   30  F2  UNL     1      -1.023   3.600  -2.684  1.00  0.00    -0.203 F 
BRANCH  27  31
HETATM   31  O1  UNL     1      -1.291   4.986  -0.371  1.00  0.00    -0.319 OA
BRANCH  31  32
HETATM   32  C1  UNL     1      -1.429   5.701   0.842  1.00  0.00     0.398 C 
HETATM   33  F1  UNL     1      -1.740   7.007   0.581  1.00  0.00    -0.227 F 
ENDBRANCH  31  32
ENDBRANCH  27  31
ENDBRANCH   1  23
BRANCH   8  34
HETATM   34  C15 UNL     1      -2.681  -2.598   1.144  1.00  0.00     0.083 C 
HETATM   35  C16 UNL     1      -4.019  -2.439   1.756  1.00  0.00     0.025 C 
HETATM   36  C17 UNL     1      -4.506  -3.606   0.887  1.00  0.00     0.004 C 
HETATM   37  C18 UNL     1      -3.346  -3.281  -0.051  1.00  0.00     0.025 C 
ENDBRANCH   8  34
TORSDOF 5
