REMARK  9 active torsions:
REMARK  status: ('A' for Active; 'I' for Inactive)
REMARK    1  A    between atoms: C2_2  and  C3_3 
REMARK    2  A    between atoms: C2_2  and  C26_35 
REMARK    3  A    between atoms: C3_3  and  C4_4 
REMARK    4  A    between atoms: C4_4  and  C5_5 
REMARK    5  A    between atoms: C10_10  and  O1_11 
REMARK    6  A    between atoms: C19_21  and  O2_22 
REMARK    7  A    between atoms: C20_24  and  C21_25 
REMARK    8  A    between atoms: C21_25  and  C22_26 
REMARK    9  A    between atoms: C25_32  and  O3_33 
ROOT
HETATM    1  C5  UNL     1       1.423   0.310  -0.895  1.00  0.00     0.089 C 
HETATM    2  C6  UNL     1       1.156  -1.205  -1.042  1.00  0.00    -0.001 C 
HETATM    3  C7  UNL     1       1.367  -1.665  -2.441  1.00  0.00     0.011 C 
HETATM    4  C8  UNL     1      -0.219  -1.489  -0.595  1.00  0.00     0.008 C 
HETATM    5  C9  UNL     1      -0.480  -2.742   0.187  1.00  0.00     0.033 C 
HETATM    6  C10 UNL     1      -1.946  -3.078   0.007  1.00  0.00     0.126 C 
HETATM    7  C11 UNL     1      -2.893  -2.412   0.940  1.00  0.00    -0.021 C 
HETATM    8  C12 UNL     1      -3.827  -3.553   1.422  1.00  0.00     0.017 C 
HETATM    9  C13 UNL     1      -2.292  -1.905   2.225  1.00  0.00     0.017 C 
HETATM   10  C14 UNL     1      -3.822  -1.435   0.266  1.00  0.00     0.015 C 
HETATM   11  C15 UNL     1      -3.515   0.002   0.506  1.00  0.00     0.028 C 
HETATM   12  C16 UNL     1      -4.676   0.892   0.354  1.00  0.00    -0.017 C 
HETATM   13  C17 UNL     1      -4.689   2.144  -0.060  1.00  0.00    -0.032 C 
HETATM   14  C18 UNL     1      -6.108   2.723  -0.079  1.00  0.00     0.050 C 
HETATM   15  C19 UNL     1      -3.605   2.974  -0.480  1.00  0.00     0.074 C 
HETATM   16  C20 UNL     1      -2.345   3.409   0.131  1.00  0.00    -0.042 C 
HETATM   17  C23 UNL     1      -1.133   3.068  -0.694  1.00  0.00     0.040 C 
HETATM   18  C24 UNL     1      -0.171   2.101  -0.119  1.00  0.00     0.037 C 
HETATM   19  C25 UNL     1       0.214   1.107  -1.195  1.00  0.00     0.133 C 
ENDROOT
BRANCH   1  20
HETATM   20  C4  UNL     1       2.668   0.624  -1.455  1.00  0.00    -0.147 C 
BRANCH  20  21
HETATM   21  C3  UNL     1       3.799   0.909  -1.963  1.00  0.00     0.060 C 
BRANCH  21  22
HETATM   22  C2  UNL     1       5.003   0.114  -1.668  1.00  0.00    -0.031 C 
HETATM   23  C1  UNL     1       6.173   0.453  -2.236  1.00  0.00     0.022 C 
BRANCH  22  24
HETATM   24  C26 UNL     1       4.891  -1.021  -0.742  1.00  0.00     0.165 C 
HETATM   25  C27 UNL     1       6.211  -1.729  -0.478  1.00  0.00     0.051 C 
HETATM   26  C28 UNL     1       6.813  -0.879   0.588  1.00  0.00     0.084 C 
HETATM   27  C29 UNL     1       7.176  -1.685   1.842  1.00  0.00     0.020 C 
HETATM   28  C30 UNL     1       5.773   0.090   1.033  1.00  0.00     0.263 C 
HETATM   29  O4  UNL     1       5.972   1.112   1.693  1.00  0.00    -0.265 OA
HETATM   30  O5  UNL     1       4.573  -0.423   0.539  1.00  0.00    -0.311 OA
ENDBRANCH  22  24
ENDBRANCH  21  22
ENDBRANCH  20  21
ENDBRANCH   1  20
BRANCH  19  31
HETATM   31  O3  UNL     1       0.382   1.841  -2.361  1.00  0.00    -0.394 OA
ATOM     32  H3  UNL     1      -0.395   2.353  -2.554  1.00  0.00     0.210 HD
ENDBRANCH  19  31
BRANCH   6  33
HETATM   33  O1  UNL     1      -1.999  -4.490   0.057  1.00  0.00    -0.395 OA
ATOM     34  H1  UNL     1      -2.918  -4.701  -0.056  1.00  0.00     0.210 HD
ENDBRANCH   6  33
BRANCH  16  35
HETATM   35  C21 UNL     1      -2.160   3.293   1.591  1.00  0.00     0.081 C 
BRANCH  35  36
HETATM   36  C22 UNL     1      -3.123   4.066   2.421  1.00  0.00     0.057 C 
HETATM   37  N1  UNL     1      -4.114   3.522   2.994  1.00  0.00    -0.411 N 
ATOM     38  H12 UNL     1      -4.241   2.517   2.872  1.00  0.00     0.155 HD
ATOM     39  H11 UNL     1      -4.774   4.052   3.563  1.00  0.00     0.155 HD
ENDBRANCH  35  36
ENDBRANCH  16  35
BRANCH  15  40
HETATM   40  O2  UNL     1      -3.753   3.469  -1.681  1.00  0.00    -0.360 OA
ATOM     41  H2  UNL     1      -3.032   4.021  -1.960  1.00  0.00     0.217 HD
ENDBRANCH  15  40
TORSDOF 9
