REMARK  2 active torsions:
REMARK  status: ('A' for Active; 'I' for Inactive)
REMARK    1  A    between atoms: S1_2  and  C2_3 
REMARK    2  A    between atoms: C6_7  and  N1_8 
ROOT
HETATM    1  C2  UNL     1       0.206   0.305   0.502  1.00  0.00     0.077 C 
HETATM    2  C3  UNL     1      -0.057   0.821  -0.883  1.00  0.00     0.017 C 
HETATM    3  C4  UNL     1      -1.258   0.071  -1.420  1.00  0.00     0.003 C 
HETATM    4  C5  UNL     1      -1.891  -0.641  -0.258  1.00  0.00     0.034 C 
HETATM    5  C6  UNL     1      -0.854  -0.710   0.823  1.00  0.00     0.197 C 
ENDROOT
BRANCH   5   6
HETATM    6  N1  UNL     1      -1.416  -0.487   2.148  1.00  0.00    -0.074 N 
ATOM      7  H13 UNL     1      -0.690  -0.465   2.864  1.00  0.00     0.274 HD
ATOM      8  H12 UNL     1      -1.766   0.465   2.251  1.00  0.00     0.274 HD
ATOM      9  H11 UNL     1      -2.136  -1.176   2.366  1.00  0.00     0.274 HD
ENDBRANCH   5   6
BRANCH   1  10
HETATM   10  S1  UNL     1       1.816  -0.483   0.677  1.00  0.00    -0.167 SA
HETATM   11  C1  UNL     1       3.087   0.286  -0.349  1.00  0.00     0.090 C 
ENDBRANCH   1  10
TORSDOF 2
