REMARK  16 active torsions:
REMARK  status: ('A' for Active; 'I' for Inactive)
REMARK    1  A    between atoms: C2_2  and  N1_3 
REMARK    2  A    between atoms: N1_3  and  C3_5 
REMARK    3  A    between atoms: C3_5  and  N2_7 
REMARK    4  A    between atoms: C9_13  and  C10_14 
REMARK    5  A    between atoms: C10_14  and  O2_16 
REMARK    6  A    between atoms: O2_16  and  C11_17 
REMARK    7  A    between atoms: C14_20  and  C15_21 
REMARK    8  A    between atoms: C15_21  and  C16_22 
REMARK    9  A    between atoms: C16_22  and  O3_23 
REMARK   10  A    between atoms: C16_22  and  C17_25 
REMARK   11  A    between atoms: C20_28  and  O4_29 
REMARK   12  A    between atoms: O4_29  and  C21_30 
REMARK   13  A    between atoms: C21_30  and  C22_31 
REMARK   14  A    between atoms: C22_31  and  C23_32 
REMARK   15  A    between atoms: C23_32  and  O5_33 
REMARK   16  A    between atoms: O5_33  and  C24_34 
ROOT
HETATM    1  N2  UNL     1      -6.271  -0.643  -0.484  1.00  0.00    -0.357 N 
HETATM    2  C4  UNL     1      -6.631  -2.069  -0.298  1.00  0.00     0.125 C 
HETATM    3  C5  UNL     1      -6.031  -2.631   0.934  1.00  0.00     0.022 C 
HETATM    4  C6  UNL     1      -4.612  -3.066   0.832  1.00  0.00     0.028 C 
HETATM    5  C7  UNL     1      -3.770  -2.326  -0.133  1.00  0.00     0.079 C 
HETATM    6  C8  UNL     1      -3.843  -2.948  -1.480  1.00  0.00     0.033 C 
HETATM    7  C9  UNL     1      -3.863  -0.869  -0.157  1.00  0.00     0.086 C 
HETATM    8  C13 UNL     1      -2.559  -0.445  -0.872  1.00  0.00     0.043 C 
HETATM    9  C14 UNL     1      -1.506  -0.841   0.190  1.00  0.00     0.113 C 
HETATM   10  S2  UNL     1      -2.056  -2.538   0.420  1.00  0.00     0.158 S 
HETATM   11  O6  UNL     1      -1.347  -3.492  -0.474  1.00  0.00    -0.227 OA
HETATM   12  O7  UNL     1      -2.010  -2.976   1.827  1.00  0.00    -0.227 OA
HETATM   13  C32 UNL     1      -4.983  -0.253  -0.963  1.00  0.00     0.146 C 
ENDROOT
BRANCH   9  14
HETATM   14  C15 UNL     1      -0.131  -0.744  -0.366  1.00  0.00     0.052 C 
BRANCH  14  15
HETATM   15  C16 UNL     1       0.905  -1.095   0.667  1.00  0.00     0.123 C 
BRANCH  15  16
HETATM   16  O3  UNL     1       0.703  -2.390   1.104  1.00  0.00    -0.395 OA
ATOM     17  H3  UNL     1       1.357  -2.612   1.756  1.00  0.00     0.210 HD
ENDBRANCH  15  16
BRANCH  15  18
HETATM   18  C17 UNL     1       2.303  -1.021   0.102  1.00  0.00     0.014 C 
HETATM   19  C18 UNL     1       2.647   0.366  -0.404  1.00  0.00     0.010 C 
HETATM   20  C19 UNL     1       4.075   0.717  -0.095  1.00  0.00     0.032 C 
HETATM   21  C20 UNL     1       5.025  -0.465  -0.325  1.00  0.00     0.121 C 
HETATM   22  C30 UNL     1       4.608  -1.691   0.471  1.00  0.00     0.032 C 
HETATM   23  C31 UNL     1       3.315  -1.390   1.170  1.00  0.00     0.010 C 
BRANCH  21  24
HETATM   24  O4  UNL     1       5.234  -0.703  -1.621  1.00  0.00    -0.386 OA
BRANCH  24  25
HETATM   25  C21 UNL     1       6.340  -0.553  -2.322  1.00  0.00     0.170 C 
BRANCH  25  26
HETATM   26  C22 UNL     1       7.571  -1.331  -2.043  1.00  0.00     0.053 C 
BRANCH  26  27
HETATM   27  C23 UNL     1       8.273  -1.174  -0.741  1.00  0.00     0.178 C 
BRANCH  27  28
HETATM   28  O5  UNL     1       8.803  -0.003  -0.424  1.00  0.00    -0.345 OA
BRANCH  28  29
HETATM   29  C24 UNL     1       8.679   1.297  -0.203  1.00  0.00     0.149 A 
HETATM   30  C25 UNL     1       8.860   2.302  -1.142  1.00  0.00     0.152 A 
HETATM   31  F1  UNL     1       9.204   1.917  -2.403  1.00  0.00    -0.203 F 
HETATM   32  C26 UNL     1       8.716   3.634  -0.853  1.00  0.00     0.048 A 
HETATM   33  C27 UNL     1       8.374   4.013   0.428  1.00  0.00     0.048 A 
HETATM   34  C28 UNL     1       8.193   3.034   1.361  1.00  0.00     0.157 A 
HETATM   35  F2  UNL     1       7.853   3.394   2.641  1.00  0.00    -0.203 F 
HETATM   36  C29 UNL     1       8.330   1.715   1.097  1.00  0.00     0.191 A 
HETATM   37  F3  UNL     1       8.137   0.778   2.069  1.00  0.00    -0.200 F 
ENDBRANCH  28  29
ENDBRANCH  27  28
ENDBRANCH  26  27
ENDBRANCH  25  26
ENDBRANCH  24  25
ENDBRANCH  21  24
ENDBRANCH  15  18
ENDBRANCH  14  15
ENDBRANCH   9  14
BRANCH   7  38
HETATM   38  C10 UNL     1      -3.824  -0.190   1.136  1.00  0.00     0.271 C 
HETATM   39  O1  UNL     1      -3.727  -0.681   2.268  1.00  0.00    -0.264 OA
BRANCH  38  40
HETATM   40  O2  UNL     1      -3.907   1.218   1.090  1.00  0.00    -0.321 OA
BRANCH  40  41
HETATM   41  C11 UNL     1      -3.880   1.989   2.273  1.00  0.00     0.174 C 
HETATM   42  C12 UNL     1      -3.990   3.446   1.850  1.00  0.00     0.034 C 
ENDBRANCH  40  41
ENDBRANCH  38  40
ENDBRANCH   7  38
BRANCH   1  43
HETATM   43  C3  UNL     1      -7.287   0.286  -0.158  1.00  0.00     0.169 C 
HETATM   44  S1  UNL     1      -8.756  -0.249   0.405  1.00  0.00    -0.041 SA
BRANCH  43  45
HETATM   45  N1  UNL     1      -7.131   1.677  -0.280  1.00  0.00    -0.367 N 
ATOM     46  H1  UNL     1      -6.247   2.054  -0.621  1.00  0.00     0.161 HD
BRANCH  45  47
HETATM   47  C2  UNL     1      -8.217   2.596   0.074  1.00  0.00     0.117 C 
HETATM   48  C1  UNL     1      -7.753   4.012  -0.165  1.00  0.00     0.026 C 
ENDBRANCH  45  47
ENDBRANCH  43  45
ENDBRANCH   1  43
TORSDOF 16
