REMARK  13 active torsions:
REMARK  status: ('A' for Active; 'I' for Inactive)
REMARK    1  A    between atoms: C2_2  and  N2_5 
REMARK       I    between atoms: N2_5  and  C4_6 
REMARK    2  A    between atoms: N2_5  and  N9_45 
REMARK    3  A    between atoms: C4_6  and  C5_8 
REMARK    4  A    between atoms: C5_8  and  N3_9 
REMARK    5  A    between atoms: C13_17  and  C14_18 
REMARK    6  A    between atoms: C14_18  and  C15_19 
REMARK    7  A    between atoms: C15_19  and  N4_20 
REMARK    8  A    between atoms: C17_24  and  C18_25 
REMARK    9  A    between atoms: C18_25  and  C19_26 
REMARK   10  A    between atoms: C19_26  and  C20_27 
REMARK   11  A    between atoms: C20_27  and  N6_28 
REMARK       I    between atoms: N6_28  and  C21_30 
REMARK   12  A    between atoms: C21_30  and  C22_32 
REMARK   13  A    between atoms: C24_35  and  C25_36 
REMARK       I    between atoms: C25_36  and  N7_38 
ROOT
HETATM    1  C1  UNL     1      -9.202   1.266  -0.238  1.00  0.00     0.050 C 
HETATM    2  C2  UNL     1      -8.095   1.386   0.800  1.00  0.00     0.208 C 
HETATM    3  C3  UNL     1      -8.455   0.543   1.938  1.00  0.00     0.086 C 
HETATM    4  N1  UNL     1      -8.740  -0.102   2.844  1.00  0.00    -0.195 NA
ENDROOT
BRANCH   2   5
HETATM    5  N2  UNL     1      -6.822   0.879   0.257  1.00  0.00    -0.258 N 
HETATM    6  C4  UNL     1      -6.690  -0.466  -0.146  1.00  0.00     0.269 C 
HETATM    7  O1  UNL     1      -7.783  -1.155  -0.023  1.00  0.00    -0.266 OA
BRANCH   6   8
HETATM    8  C5  UNL     1      -5.529  -1.157  -0.669  1.00  0.00     0.135 C 
BRANCH   8   9
HETATM    9  N3  UNL     1      -4.277  -0.465  -0.744  1.00  0.00    -0.288 NA
HETATM   10  C6  UNL     1      -3.476  -1.206  -1.734  1.00  0.00     0.096 C 
HETATM   11  C7  UNL     1      -3.171  -2.600  -1.353  1.00  0.00     0.025 C 
HETATM   12  C8  UNL     1      -2.178  -2.600  -0.203  1.00  0.00    -0.031 C 
HETATM   13  C9  UNL     1      -2.634  -3.622   0.813  1.00  0.00     0.010 C 
HETATM   14  C13 UNL     1      -0.787  -3.078  -0.661  1.00  0.00     0.018 C 
HETATM   15  C28 UNL     1      -2.191  -1.254   0.396  1.00  0.00     0.025 C 
HETATM   16  C10 UNL     1      -1.745  -3.741   1.999  1.00  0.00     0.001 C 
HETATM   17  C11 UNL     1      -0.285  -3.756   1.644  1.00  0.00     0.001 C 
HETATM   18  C12 UNL     1       0.072  -2.783   0.559  1.00  0.00     0.009 C 
HETATM   19  C29 UNL     1      -3.530  -0.625   0.499  1.00  0.00     0.096 C 
BRANCH  14  20
HETATM   20  C14 UNL     1      -0.348  -2.393  -1.881  1.00  0.00    -0.002 C 
BRANCH  20  21
HETATM   21  C15 UNL     1       0.882  -2.753  -2.591  1.00  0.00     0.112 C 
BRANCH  21  22
HETATM   22  N4  UNL     1       2.166  -2.710  -2.005  1.00  0.00    -0.271 N 
HETATM   23  N5  UNL     1       3.055  -3.556  -1.442  1.00  0.00    -0.304 N 
HETATM   24  C16 UNL     1       3.949  -2.588  -1.290  1.00  0.00     0.134 A 
ATOM     25  H5  UNL     1       3.044  -4.551  -1.220  1.00  0.00     0.186 HD
HETATM   26  C17 UNL     1       3.072  -1.700  -1.860  1.00  0.00     0.050 A 
BRANCH  26  27
HETATM   27  C18 UNL     1       3.098  -0.268  -2.226  1.00  0.00     0.062 C 
BRANCH  27  28
HETATM   28  C19 UNL     1       4.310   0.433  -1.715  1.00  0.00     0.026 C 
BRANCH  28  29
HETATM   29  C20 UNL     1       4.357   0.481  -0.223  1.00  0.00     0.123 C 
BRANCH  29  30
HETATM   30  N6  UNL     1       5.566   1.116   0.281  1.00  0.00    -0.356 N 
HETATM   31  C21 UNL     1       5.739   1.258   1.682  1.00  0.00     0.268 C 
HETATM   32  O2  UNL     1       4.829   0.840   2.436  1.00  0.00    -0.266 OA
ATOM     33  H6  UNL     1       6.279   1.454  -0.365  1.00  0.00     0.162 HD
BRANCH  31  34
HETATM   34  C22 UNL     1       6.967   1.886   2.250  1.00  0.00     0.108 A 
HETATM   35  C23 UNL     1       7.073   2.098   3.602  1.00  0.00     0.087 A 
HETATM   36  S1  UNL     1       8.636   2.769   3.726  1.00  0.00    -0.076 SA
HETATM   37  C24 UNL     1       9.060   2.741   2.048  1.00  0.00     0.143 A 
HETATM   38  N8  UNL     1       7.973   2.219   1.512  1.00  0.00    -0.341 N 
ATOM     39  H8  UNL     1       7.927   2.077   0.503  1.00  0.00     0.167 HD
BRANCH  37  40
HETATM   40  C25 UNL     1      10.326   3.182   1.438  1.00  0.00     0.276 C 
HETATM   41  O3  UNL     1      11.206   3.632   2.232  1.00  0.00    -0.265 OA
HETATM   42  N7  UNL     1      10.570   3.117   0.060  1.00  0.00    -0.355 N 
HETATM   43  C26 UNL     1       9.572   2.615  -0.847  1.00  0.00     0.152 C 
HETATM   44  C27 UNL     1      11.843   3.550  -0.474  1.00  0.00     0.152 C 
ENDBRANCH  37  40
ENDBRANCH  31  34
ENDBRANCH  29  30
ENDBRANCH  28  29
ENDBRANCH  27  28
ENDBRANCH  26  27
ENDBRANCH  21  22
ENDBRANCH  20  21
ENDBRANCH  14  20
ENDBRANCH   8   9
ENDBRANCH   6   8
BRANCH   5  45
HETATM   45  N9  UNL     1      -5.790   1.758   0.124  1.00  0.00    -0.225 NA
HETATM   46  C30 UNL     1      -5.514   2.677   1.145  1.00  0.00     0.114 C 
HETATM   47  C31 UNL     1      -5.885   4.028   0.673  1.00  0.00     0.017 C 
HETATM   48  C32 UNL     1      -6.137   3.890  -0.800  1.00  0.00     0.017 C 
HETATM   49  C33 UNL     1      -5.692   2.479  -1.099  1.00  0.00     0.114 C 
ENDBRANCH   5  45
ENDBRANCH   2   5
TORSDOF 13
