REMARK  5 active torsions:
REMARK  status: ('A' for Active; 'I' for Inactive)
REMARK    1  A    between atoms: C2_2  and  C3_3 
REMARK    2  A    between atoms: C3_3  and  C4_4 
REMARK    3  A    between atoms: C4_4  and  N1_5 
REMARK    4  A    between atoms: N1_5  and  C5_7 
REMARK    5  A    between atoms: C5_7  and  N2_9 
ROOT
HETATM    1  N1  UNL     1      -0.174   0.403  -0.975  1.00  0.00    -0.364 N 
ATOM      2  H1  UNL     1      -0.928   0.580  -1.639  1.00  0.00     0.162 HD
ENDROOT
BRANCH   1   3
HETATM    3  C4  UNL     1      -0.527  -0.279   0.228  1.00  0.00     0.162 C 
BRANCH   3   4
HETATM    4  C3  UNL     1      -2.058  -0.464   0.314  1.00  0.00     0.100 C 
HETATM    5  C10 UNL     1      -2.551  -1.317  -0.782  1.00  0.00     0.210 C 
HETATM    6  O1  UNL     1      -2.760  -2.573  -0.212  1.00  0.00    -0.364 OA
HETATM    7  C11 UNL     1      -2.415  -2.470   1.134  1.00  0.00     0.339 C 
HETATM    8  O2  UNL     1      -2.343  -1.142   1.467  1.00  0.00    -0.352 OA
BRANCH   4   9
HETATM    9  C2  UNL     1      -2.612   0.938   0.359  1.00  0.00     0.037 C 
HETATM   10  C1  UNL     1      -4.102   1.023   0.445  1.00  0.00     0.008 C 
ENDBRANCH   4   9
ENDBRANCH   3   4
ENDBRANCH   1   3
BRANCH   1  11
HETATM   11  C5  UNL     1       1.080   0.846  -1.330  1.00  0.00     0.169 C 
HETATM   12  S1  UNL     1       1.194   1.621  -2.804  1.00  0.00    -0.041 SA
BRANCH  11  13
HETATM   13  N2  UNL     1       2.260   0.708  -0.565  1.00  0.00    -0.358 N 
HETATM   14  C6  UNL     1       2.431   0.102   0.716  1.00  0.00     0.125 C 
HETATM   15  C7  UNL     1       3.927   0.127   1.032  1.00  0.00     0.021 C 
HETATM   16  C8  UNL     1       4.552   0.365  -0.308  1.00  0.00     0.021 C 
HETATM   17  C9  UNL     1       3.574   1.223  -1.033  1.00  0.00     0.125 C 
ENDBRANCH  11  13
ENDBRANCH   1  11
TORSDOF 5
