REMARK  5 active torsions:
REMARK  status: ('A' for Active; 'I' for Inactive)
REMARK    1  A    between atoms: N1_2  and  C3_4 
REMARK    2  A    between atoms: C3_4  and  C4_5 
REMARK    3  A    between atoms: N2_6  and  C5_8 
REMARK    4  A    between atoms: C8_13  and  C9_14 
REMARK    5  A    between atoms: C10_15  and  C11_16 
ROOT
HETATM    1  C5  UNL     1       1.245  -0.108  -0.764  1.00  0.00     0.107 A 
HETATM    2  C6  UNL     1       1.469  -1.437  -1.024  1.00  0.00     0.065 A 
HETATM    3  C7  UNL     1       0.474  -2.390  -0.949  1.00  0.00     0.094 A 
HETATM    4  N3  UNL     1      -0.758  -1.988  -0.609  1.00  0.00    -0.345 N 
ATOM      5  H3  UNL     1      -1.517  -2.667  -0.546  1.00  0.00     0.167 HD
HETATM    6  C8  UNL     1      -0.994  -0.694  -0.352  1.00  0.00     0.162 A 
HETATM    7  N4  UNL     1      -0.041   0.228  -0.422  1.00  0.00    -0.321 N 
ATOM      8  H4  UNL     1      -0.268   1.201  -0.218  1.00  0.00     0.169 HD
ENDROOT
BRANCH   1   9
HETATM    9  N2  UNL     1       2.058   0.794  -0.804  1.00  0.00    -0.354 N 
HETATM   10  C4  UNL     1       3.300   1.281  -1.005  1.00  0.00     0.092 C 
ATOM     11  H2  UNL     1       1.514   1.619  -0.553  1.00  0.00     0.166 HD
BRANCH  10  12
HETATM   12  C3  UNL     1       4.414   0.263  -0.799  1.00  0.00     0.315 C 
BRANCH  12  13
HETATM   13  N1  UNL     1       4.330  -0.246   0.533  1.00  0.00     0.084 N 
HETATM   14  C1  UNL     1       4.646   0.705   1.560  1.00  0.00     0.309 C 
HETATM   15  C2  UNL     1       5.106  -1.472   0.664  1.00  0.00     0.309 C 
ENDBRANCH  12  13
ENDBRANCH  10  12
ENDBRANCH   1   9
BRANCH   6  16
HETATM   16  C9  UNL     1      -2.342  -0.301   0.007  1.00  0.00    -0.029 C 
HETATM   17  C10 UNL     1      -3.472   0.038   0.287  1.00  0.00    -0.089 C 
BRANCH  17  18
HETATM   18  C11 UNL     1      -4.843   0.444   0.597  1.00  0.00     0.013 C 
HETATM   19  C12 UNL     1      -5.769  -0.320  -0.343  1.00  0.00     0.028 C 
HETATM   20  C13 UNL     1      -5.155   0.136   2.031  1.00  0.00     0.028 C 
HETATM   21  C14 UNL     1      -4.980   1.924   0.289  1.00  0.00     0.028 C 
ENDBRANCH  17  18
ENDBRANCH   6  16
TORSDOF 5
