REMARK  20 active torsions:
REMARK  status: ('A' for Active; 'I' for Inactive)
REMARK    1  A    between atoms: C2_2  and  C3_3 
REMARK    2  A    between atoms: C3_3  and  C4_4 
REMARK    3  A    between atoms: C4_4  and  C5_5 
REMARK    4  A    between atoms: C5_5  and  C6_6 
REMARK    5  A    between atoms: C5_5  and  N2_11 
REMARK    6  A    between atoms: C6_6  and  N1_7 
REMARK       I    between atoms: N2_11  and  C8_13 
REMARK    7  A    between atoms: C8_13  and  C9_15 
REMARK    8  A    between atoms: N3_21  and  C14_22 
REMARK    9  A    between atoms: C14_22  and  O3_23 
REMARK   10  A    between atoms: C14_22  and  C15_25 
REMARK   11  A    between atoms: C15_25  and  C16_26 
REMARK   12  A    between atoms: C15_25  and  N5_34 
REMARK   13  A    between atoms: C16_26  and  C17_27 
REMARK   14  A    between atoms: C17_27  and  C18_28 
REMARK   15  A    between atoms: C18_28  and  C19_29 
REMARK   16  A    between atoms: C19_29  and  N4_30 
REMARK       I    between atoms: N5_34  and  C20_36 
REMARK   17  A    between atoms: C20_36  and  C21_38 
REMARK   18  A    between atoms: C21_38  and  N6_39 
REMARK   19  A    between atoms: C21_38  and  C25_47 
REMARK       I    between atoms: N6_39  and  C22_41 
REMARK   20  A    between atoms: C22_41  and  C23_43 
ROOT
HETATM    1  C15 UNL     1      -0.862   0.797   0.171  1.00  0.00     0.143 C 
ENDROOT
BRANCH   1   2
HETATM    2  C14 UNL     1      -0.420   0.691  -1.230  1.00  0.00     0.381 C 
BRANCH   2   3
HETATM    3  N3  UNL     1       0.948   0.816  -1.548  1.00  0.00     0.142 N 
HETATM    4  C9  UNL     1       1.851  -0.149  -1.040  1.00  0.00     0.320 C 
HETATM    5  C10 UNL     1       2.008  -1.203  -2.113  1.00  0.00     0.080 C 
HETATM    6  C11 UNL     1       1.841  -0.411  -3.381  1.00  0.00     0.159 C 
HETATM    7  O2  UNL     1       2.891   0.421  -3.717  1.00  0.00    -0.381 OA
HETATM    8  C13 UNL     1       1.052   0.797  -2.998  1.00  0.00     0.279 C 
HETATM    9  C12 UNL     1       2.134   1.590  -3.626  1.00  0.00     0.207 C 
BRANCH   4  10
HETATM   10  C8  UNL     1       3.124   0.390  -0.549  1.00  0.00     0.252 C 
HETATM   11  N2  UNL     1       4.244  -0.436  -0.224  1.00  0.00    -0.353 N 
ATOM     12  H2  UNL     1       4.143  -1.445  -0.338  1.00  0.00     0.163 HD
HETATM   13  O1  UNL     1       3.290   1.622  -0.391  1.00  0.00    -0.271 OA
BRANCH  11  14
HETATM   14  C5  UNL     1       5.500   0.063   0.252  1.00  0.00     0.110 C 
BRANCH  14  15
HETATM   15  C4  UNL     1       6.045  -0.607   1.464  1.00  0.00     0.027 C 
BRANCH  15  16
HETATM   16  C3  UNL     1       6.387  -2.059   1.238  1.00  0.00     0.002 C 
BRANCH  16  17
HETATM   17  C2  UNL     1       6.941  -2.704   2.485  1.00  0.00    -0.004 C 
HETATM   18  C1  UNL     1       5.903  -2.618   3.568  1.00  0.00     0.005 C 
ENDBRANCH  16  17
ENDBRANCH  15  16
ENDBRANCH  14  15
BRANCH  14  19
HETATM   19  C6  UNL     1       6.502   0.029  -0.917  1.00  0.00     0.256 C 
BRANCH  19  20
HETATM   20  N1  UNL     1       7.735   0.685  -0.605  1.00  0.00    -0.077 N 
HETATM   21  C7  UNL     1       8.658   0.659  -1.730  1.00  0.00     0.267 C 
ATOM     22  H12 UNL     1       7.577   1.637  -0.276  1.00  0.00     0.276 HD
ATOM     23  H11 UNL     1       8.162   0.295   0.235  1.00  0.00     0.276 HD
ENDBRANCH  19  20
ENDBRANCH  14  19
ENDBRANCH  11  14
ENDBRANCH   4  10
ENDBRANCH   2   3
BRANCH   2  24
HETATM   24  O3  UNL     1      -0.869  -0.562  -1.712  1.00  0.00    -0.366 OA
ATOM     25  H3  UNL     1      -1.791  -0.646  -1.498  1.00  0.00     0.212 HD
ENDBRANCH   2  24
ENDBRANCH   1   2
BRANCH   1  26
HETATM   26  C16 UNL     1      -0.351   1.996   0.910  1.00  0.00     0.030 C 
BRANCH  26  27
HETATM   27  C17 UNL     1      -0.723   3.321   0.351  1.00  0.00     0.004 C 
BRANCH  27  28
HETATM   28  C18 UNL     1      -0.075   4.366   1.273  1.00  0.00     0.027 C 
BRANCH  28  29
HETATM   29  C19 UNL     1      -0.386   5.770   0.803  1.00  0.00     0.229 C 
BRANCH  29  30
HETATM   30  N4  UNL     1       0.284   6.666   1.749  1.00  0.00    -0.079 N 
ATOM     31  H43 UNL     1       0.030   6.496   2.722  1.00  0.00     0.274 HD
ATOM     32  H42 UNL     1       1.282   6.481   1.849  1.00  0.00     0.274 HD
ATOM     33  H41 UNL     1       0.074   7.613   1.432  1.00  0.00     0.274 HD
ENDBRANCH  29  30
ENDBRANCH  28  29
ENDBRANCH  27  28
ENDBRANCH  26  27
ENDBRANCH   1  26
BRANCH   1  34
HETATM   34  N5  UNL     1      -2.317   0.719   0.156  1.00  0.00    -0.350 N 
HETATM   35  C20 UNL     1      -3.102  -0.203   0.875  1.00  0.00     0.241 C 
HETATM   36  O4  UNL     1      -2.547  -1.038   1.609  1.00  0.00    -0.271 OA
ATOM     37  H5  UNL     1      -2.812   1.393  -0.428  1.00  0.00     0.163 HD
BRANCH  35  38
HETATM   38  C21 UNL     1      -4.586  -0.223   0.793  1.00  0.00     0.180 C 
BRANCH  38  39
HETATM   39  N6  UNL     1      -5.173  -1.205   1.672  1.00  0.00    -0.342 N 
HETATM   40  C22 UNL     1      -6.075  -0.930   2.699  1.00  0.00     0.290 C 
HETATM   41  O5  UNL     1      -6.445   0.248   2.906  1.00  0.00    -0.267 OA
ATOM     42  H6  UNL     1      -4.907  -2.179   1.531  1.00  0.00     0.163 HD
BRANCH  40  43
HETATM   43  C23 UNL     1      -6.603  -2.010   3.552  1.00  0.00     0.318 C 
HETATM   44  C24 UNL     1      -7.333  -3.034   2.726  1.00  0.00     0.101 C 
HETATM   45  F1  UNL     1      -7.478  -1.534   4.515  1.00  0.00    -0.196 F 
HETATM   46  F2  UNL     1      -5.602  -2.671   4.240  1.00  0.00    -0.196 F 
ENDBRANCH  40  43
ENDBRANCH  38  39
BRANCH  38  47
HETATM   47  C25 UNL     1      -5.057  -0.512  -0.613  1.00  0.00     0.018 C 
HETATM   48  C26 UNL     1      -6.560  -0.513  -0.714  1.00  0.00     0.007 C 
HETATM   49  C27 UNL     1      -6.855  -0.703  -2.211  1.00  0.00     0.000 C 
HETATM   50  C28 UNL     1      -6.622  -2.187  -2.481  1.00  0.00     0.000 C 
HETATM   51  C29 UNL     1      -5.681  -2.786  -1.480  1.00  0.00     0.000 C 
HETATM   52  C30 UNL     1      -4.559  -1.859  -1.096  1.00  0.00     0.007 C 
ENDBRANCH  38  47
ENDBRANCH  35  38
ENDBRANCH   1  34
TORSDOF 20
