REMARK  5 active torsions:
REMARK  status: ('A' for Active; 'I' for Inactive)
REMARK    1  A    between atoms: C2_2  and  C4_4 
REMARK    2  A    between atoms: C4_4  and  C5_5 
REMARK    3  A    between atoms: C5_5  and  C6_6 
REMARK    4  A    between atoms: C11_14  and  O1_15 
REMARK    5  A    between atoms: N3_19  and  C13_20 
ROOT
HETATM    1  C6  UNL     1       2.411  -0.858  -1.029  1.00  0.00     0.034 A 
HETATM    2  N1  UNL     1       1.640  -1.036  -2.111  1.00  0.00    -0.302 N 
ATOM      3  H1  UNL     1       1.996  -1.207  -3.051  1.00  0.00     0.186 HD
HETATM    4  N2  UNL     1       0.353  -0.961  -1.798  1.00  0.00    -0.289 N 
HETATM    5  C7  UNL     1       0.310  -0.734  -0.512  1.00  0.00     0.099 A 
HETATM    6  C8  UNL     1       1.560  -0.660   0.033  1.00  0.00    -0.004 A 
HETATM    7  C9  UNL     1       1.647  -0.450   1.506  1.00  0.00     0.045 C 
HETATM    8  C10 UNL     1       0.678  -1.449   2.090  1.00  0.00     0.042 C 
HETATM    9  C11 UNL     1      -0.721  -1.432   1.504  1.00  0.00     0.185 C 
HETATM   10  C12 UNL     1      -0.879  -0.511   0.359  1.00  0.00     0.245 C 
HETATM   11  F1  UNL     1      -0.675   0.824   0.865  1.00  0.00    -0.209 F 
HETATM   12  N3  UNL     1      -2.058  -0.500  -0.405  1.00  0.00    -0.365 N 
HETATM   13  C19 UNL     1      -1.935  -0.263  -1.807  1.00  0.00     0.142 C 
HETATM   14  C20 UNL     1      -0.919  -1.103  -2.528  1.00  0.00     0.168 C 
ENDROOT
BRANCH  12  15
HETATM   15  C13 UNL     1      -3.245   0.064   0.092  1.00  0.00     0.083 C 
HETATM   16  C14 UNL     1      -4.243  -0.892   0.644  1.00  0.00     0.025 C 
HETATM   17  C15 UNL     1      -5.550  -0.229   1.093  1.00  0.00     0.002 C 
HETATM   18  C16 UNL     1      -6.082   0.770   0.129  1.00  0.00     0.000 C 
HETATM   19  C17 UNL     1      -4.969   1.813  -0.037  1.00  0.00     0.002 C 
HETATM   20  C18 UNL     1      -3.898   1.067  -0.838  1.00  0.00     0.025 C 
ENDBRANCH  12  15
BRANCH   9  21
HETATM   21  O1  UNL     1      -1.559  -1.185   2.599  1.00  0.00    -0.390 OA
ATOM     22  H1  UNL     1      -2.435  -1.174   2.232  1.00  0.00     0.210 HD
ENDBRANCH   9  21
BRANCH   1  23
HETATM   23  C5  UNL     1       3.895  -0.834  -0.868  1.00  0.00     0.059 C 
BRANCH  23  24
HETATM   24  C4  UNL     1       4.238   0.651  -0.749  1.00  0.00     0.010 C 
BRANCH  24  25
HETATM   25  C2  UNL     1       5.695   0.908  -0.537  1.00  0.00    -0.023 C 
HETATM   26  C1  UNL     1       6.167   0.260   0.751  1.00  0.00     0.009 C 
HETATM   27  C3  UNL     1       5.874   2.424  -0.414  1.00  0.00     0.009 C 
ENDBRANCH  24  25
ENDBRANCH  23  24
ENDBRANCH   1  23
TORSDOF 5
