REMARK  5 active torsions:
REMARK  status: ('A' for Active; 'I' for Inactive)
REMARK    1  A    between atoms: C2_2  and  N1_3 
REMARK    2  A    between atoms: N1_3  and  C3_5 
REMARK    3  A    between atoms: C7_12  and  N3_13 
REMARK    4  A    between atoms: N5_21  and  C13_22 
REMARK    5  A    between atoms: C13_22  and  C14_23 
ROOT
HETATM    1  C3  UNL     1      -1.270   2.359   0.855  1.00  0.00     0.686 A 
HETATM    2  N2  UNL     1      -0.167   3.050   0.557  1.00  0.00    -0.186 N 
ATOM      3  H2  UNL     1      -0.123   4.065   0.466  1.00  0.00     0.184 HD
HETATM    4  C4  UNL     1       0.881   2.216   0.394  1.00  0.00     0.116 A 
HETATM    5  C5  UNL     1       2.201   2.466   0.087  1.00  0.00     0.068 A 
HETATM    6 CL1  UNL     1       2.818   4.066  -0.179  1.00  0.00    -0.082 Cl
HETATM    7  C6  UNL     1       3.041   1.369  -0.007  1.00  0.00     0.074 A 
HETATM    8  C7  UNL     1       2.583   0.085   0.198  1.00  0.00     0.106 A 
HETATM    9  N4  UNL     1       1.283  -0.053   0.493  1.00  0.00    -0.326 N 
ATOM     10  H4  UNL     1       0.941  -1.002   0.646  1.00  0.00     0.169 HD
HETATM   11  C12 UNL     1       0.392   0.938   0.605  1.00  0.00     0.158 A 
HETATM   12  N5  UNL     1      -0.922   1.043   0.885  1.00  0.00    -0.144 N 
ENDROOT
BRANCH  12  13
HETATM   13  C13 UNL     1      -1.765  -0.051   1.167  1.00  0.00     0.094 C 
BRANCH  13  14
HETATM   14  C14 UNL     1      -2.504  -0.714   0.104  1.00  0.00     0.025 C 
HETATM   15  C15 UNL     1      -3.336  -1.851   0.742  1.00  0.00     0.010 C 
HETATM   16  C16 UNL     1      -3.737  -2.655  -0.468  1.00  0.00     0.001 C 
HETATM   17  C17 UNL     1      -2.502  -2.668  -1.305  1.00  0.00     0.001 C 
HETATM   18  C18 UNL     1      -1.592  -1.567  -0.749  1.00  0.00     0.010 C 
ENDBRANCH  13  14
ENDBRANCH  12  13
BRANCH   1  19
HETATM   19  N1  UNL     1      -2.467   2.753   1.086  1.00  0.00    -0.226 N 
ATOM     20  H1  UNL     1      -3.172   2.047   1.298  1.00  0.00     0.177 HD
BRANCH  19  21
HETATM   21  C2  UNL     1      -2.873   4.127   1.064  1.00  0.00     0.133 C 
HETATM   22  C1  UNL     1      -3.259   4.599  -0.319  1.00  0.00     0.027 C 
ENDBRANCH  19  21
ENDBRANCH   1  19
BRANCH   8  23
HETATM   23  N3  UNL     1       3.441  -1.051   0.103  1.00  0.00    -0.367 N 
HETATM   24  C8  UNL     1       3.084  -2.437   0.326  1.00  0.00     0.124 C 
HETATM   25  C9  UNL     1       3.766  -3.124  -0.831  1.00  0.00     0.021 C 
HETATM   26  C10 UNL     1       4.917  -2.227  -1.232  1.00  0.00     0.021 C 
HETATM   27  C11 UNL     1       4.842  -1.061  -0.234  1.00  0.00     0.124 C 
ENDBRANCH   8  23
TORSDOF 5
