REMARK  5 active torsions:
REMARK  status: ('A' for Active; 'I' for Inactive)
REMARK    1  A    between atoms: C2_2  and  O1_3 
REMARK    2  A    between atoms: O1_3  and  C3_4 
REMARK    3  A    between atoms: C3_4  and  N2_8 
REMARK    4  A    between atoms: N2_8  and  N3_10 
REMARK    5  A    between atoms: C5_15  and  O2_16 
ROOT
HETATM    1  N2  UNL     1       0.546   0.534  -0.953  1.00  0.00    -0.243 N 
ATOM      2  H2  UNL     1       0.229   0.959  -1.824  1.00  0.00     0.192 HD
ENDROOT
BRANCH   1   3
HETATM    3  C3  UNL     1      -0.404   0.305   0.061  1.00  0.00     0.233 C 
HETATM    4  N1  UNL     1      -0.494   1.119   1.060  1.00  0.00    -0.364 N 
ATOM      5  H12 UNL     1      -1.182   0.953   1.794  1.00  0.00     0.159 HD
ATOM      6  H11 UNL     1       0.156   1.905   1.045  1.00  0.00     0.159 HD
BRANCH   3   7
HETATM    7  O1  UNL     1      -1.289  -0.766   0.081  1.00  0.00    -0.322 OA
BRANCH   7   8
HETATM    8  C2  UNL     1      -2.533  -0.726   0.756  1.00  0.00     0.174 C 
HETATM    9  C1  UNL     1      -3.374   0.402   0.161  1.00  0.00     0.034 C 
ENDBRANCH   7   8
ENDBRANCH   3   7
ENDBRANCH   1   3
BRANCH   1  10
HETATM   10  N3  UNL     1       1.898   0.211  -0.831  1.00  0.00    -0.152 N 
HETATM   11  N4  UNL     1       2.832   0.403  -1.747  1.00  0.00     0.003 NA
HETATM   12  N5  UNL     1       4.013  -0.018  -1.308  1.00  0.00    -0.289 N 
HETATM   13  C4  UNL     1       3.873  -0.506  -0.063  1.00  0.00     0.164 A 
ATOM     14  H5  UNL     1       4.887   0.023  -1.832  1.00  0.00     0.183 HD
HETATM   15  C5  UNL     1       2.516  -0.350   0.219  1.00  0.00     0.194 A 
BRANCH  15  16
HETATM   16  O2  UNL     1       1.885  -0.708   1.388  1.00  0.00    -0.343 OA
ATOM     17  H2  UNL     1       2.323  -1.105   2.132  1.00  0.00     0.219 HD
ENDBRANCH  15  16
ENDBRANCH   1  10
TORSDOF 5
