REMARK  3 active torsions:
REMARK  status: ('A' for Active; 'I' for Inactive)
REMARK    1  A    between atoms: C4_5  and  C5_6 
REMARK    2  A    between atoms: N2_7  and  C6_9 
REMARK    3  A    between atoms: C10_17  and  N4_18 
ROOT
HETATM    1  C1  UNL     1       6.311  -0.820  -0.088  1.00  0.00     0.156 C 
HETATM    2  N1  UNL     1       4.982  -0.196  -0.203  1.00  0.00    -0.352 N 
HETATM    3  C2  UNL     1       4.695   1.005  -0.731  1.00  0.00     0.092 A 
HETATM    4  C3  UNL     1       3.342   1.251  -0.665  1.00  0.00     0.033 A 
HETATM    5  C4  UNL     1       2.764   0.140  -0.063  1.00  0.00     0.018 A 
HETATM    6  C13 UNL     1       3.810  -0.715   0.199  1.00  0.00     0.127 A 
HETATM    7  C14 UNL     1       3.670  -2.007   0.827  1.00  0.00     0.118 C 
HETATM    8  N7  UNL     1       3.557  -3.036   1.341  1.00  0.00    -0.190 NA
ENDROOT
BRANCH   5   9
HETATM    9  C5  UNL     1       1.340  -0.051   0.219  1.00  0.00     0.104 C 
HETATM   10  N2  UNL     1       0.462   0.839  -0.083  1.00  0.00    -0.349 N 
ATOM     11  H2  UNL     1       0.788   1.696  -0.531  1.00  0.00     0.167 HD
BRANCH  10  12
HETATM   12  C6  UNL     1      -0.909   0.712   0.161  1.00  0.00     0.149 A 
HETATM   13  C7  UNL     1      -1.652   1.150   1.238  1.00  0.00     0.180 A 
HETATM   14  F1  UNL     1      -1.161   1.810   2.297  1.00  0.00    -0.201 F 
HETATM   15  C8  UNL     1      -2.986   0.800   1.053  1.00  0.00     0.119 A 
HETATM   16  C9  UNL     1      -4.137   0.995   1.819  1.00  0.00     0.276 A 
HETATM   17  C11 UNL     1      -3.025   0.143  -0.158  1.00  0.00     0.143 A 
HETATM   18  O1  UNL     1      -4.049   1.601   2.918  1.00  0.00    -0.267 OA
HETATM   19  N3  UNL     1      -5.279   0.516   1.327  1.00  0.00    -0.155 N 
HETATM   20  C10 UNL     1      -5.340  -0.123   0.156  1.00  0.00     0.680 A 
ATOM     21  H3  UNL     1      -6.137   0.642   1.864  1.00  0.00     0.187 HD
HETATM   22  N5  UNL     1      -4.212  -0.305  -0.578  1.00  0.00    -0.175 N 
ATOM     23  H5  UNL     1      -4.272  -0.795  -1.471  1.00  0.00     0.186 HD
HETATM   24  N6  UNL     1      -1.772   0.101  -0.676  1.00  0.00    -0.320 N 
HETATM   25  C12 UNL     1      -1.432  -0.511  -1.937  1.00  0.00     0.159 C 
BRANCH  20  26
HETATM   26  N4  UNL     1      -6.424  -0.587  -0.329  1.00  0.00    -0.234 N 
ATOM     27  H42 UNL     1      -7.271  -0.450   0.222  1.00  0.00     0.174 HD
ATOM     28  H41 UNL     1      -6.471  -1.075  -1.223  1.00  0.00     0.174 HD
ENDBRANCH  20  26
ENDBRANCH  10  12
ENDBRANCH   5   9
TORSDOF 3
