REMARK  11 active torsions:
REMARK  status: ('A' for Active; 'I' for Inactive)
REMARK    1  A    between atoms: N1_2  and  C2_3 
REMARK    2  A    between atoms: N1_2  and  C7_12 
REMARK    3  A    between atoms: C2_3  and  C3_4 
REMARK    4  A    between atoms: C3_4  and  C4_5 
REMARK    5  A    between atoms: C4_5  and  C5_6 
REMARK    6  A    between atoms: C5_6  and  C6_7 
REMARK    7  A    between atoms: C6_7  and  N2_8 
REMARK    8  A    between atoms: C7_12  and  C8_13 
REMARK    9  A    between atoms: C8_13  and  N3_14 
REMARK   10  A    between atoms: C12_18  and  O1_19 
REMARK   11  A    between atoms: C19_27  and  O2_28 
ROOT
HETATM    1  N3  UNL     1      -0.092  -0.859  -0.681  1.00  0.00    -0.375 N 
HETATM    2  C9  UNL     1      -0.413  -0.524   0.657  1.00  0.00     0.091 C 
HETATM    3  C10 UNL     1      -0.061  -1.648   1.590  1.00  0.00     0.028 C 
HETATM    4  C11 UNL     1      -0.193  -3.003   0.971  1.00  0.00     0.036 C 
HETATM    5  C12 UNL     1      -1.171  -3.022  -0.177  1.00  0.00     0.146 C 
HETATM    6  C13 UNL     1      -0.713  -2.015  -1.216  1.00  0.00     0.054 C 
HETATM    7  C14 UNL     1       0.131  -2.829  -2.178  1.00  0.00     0.041 C 
HETATM    8  C15 UNL     1      -1.891  -1.540  -2.033  1.00  0.00     0.034 C 
HETATM    9  C16 UNL     1      -2.991  -0.947  -1.189  1.00  0.00     0.008 C 
HETATM   10  C17 UNL     1      -2.550   0.289  -0.443  1.00  0.00     0.003 C 
HETATM   11  C18 UNL     1      -1.836  -0.048   0.861  1.00  0.00     0.042 C 
HETATM   12  C19 UNL     1      -1.754   1.201   1.728  1.00  0.00     0.125 C 
HETATM   13  C20 UNL     1      -3.069   1.760   2.124  1.00  0.00     0.037 C 
HETATM   14  C21 UNL     1      -4.147   1.469   1.129  1.00  0.00    -0.004 C 
HETATM   15  C22 UNL     1      -5.089   0.401   1.549  1.00  0.00     0.005 C 
HETATM   16  C23 UNL     1      -6.352   0.558   0.689  1.00  0.00     0.000 C 
HETATM   17  C24 UNL     1      -5.892   0.306  -0.731  1.00  0.00     0.001 C 
HETATM   18  C25 UNL     1      -4.808   1.223  -1.161  1.00  0.00     0.010 C 
HETATM   19  C26 UNL     1      -3.607   1.314  -0.286  1.00  0.00    -0.036 C 
HETATM   20  C27 UNL     1      -2.962   2.680  -0.602  1.00  0.00     0.016 C 
ENDROOT
BRANCH   1  21
HETATM   21  C8  UNL     1       1.123  -0.434  -1.198  1.00  0.00     0.089 C 
BRANCH  21  22
HETATM   22  C7  UNL     1       2.396  -1.077  -0.787  1.00  0.00     0.316 C 
BRANCH  22  23
HETATM   23  N1  UNL     1       3.554  -0.485  -1.409  1.00  0.00     0.088 N 
HETATM   24  C1  UNL     1       4.668  -1.425  -1.271  1.00  0.00     0.310 C 
BRANCH  23  25
HETATM   25  C2  UNL     1       3.934   0.788  -0.825  1.00  0.00     0.272 C 
BRANCH  25  26
HETATM   26  C3  UNL     1       4.168   0.719   0.641  1.00  0.00     0.030 C 
BRANCH  26  27
HETATM   27  C4  UNL     1       4.638   2.034   1.253  1.00  0.00     0.003 C 
BRANCH  27  28
HETATM   28  C5  UNL     1       5.915   2.519   0.602  1.00  0.00     0.027 C 
BRANCH  28  29
HETATM   29  C6  UNL     1       7.041   1.540   0.667  1.00  0.00     0.229 C 
BRANCH  29  30
HETATM   30  N2  UNL     1       8.240   2.071   0.050  1.00  0.00    -0.079 N 
ATOM     31  H23 UNL     1       8.064   2.375  -0.908  1.00  0.00     0.274 HD
ATOM     32  H22 UNL     1       8.502   2.970   0.455  1.00  0.00     0.274 HD
ATOM     33  H21 UNL     1       9.009   1.402   0.094  1.00  0.00     0.274 HD
ENDBRANCH  29  30
ENDBRANCH  28  29
ENDBRANCH  27  28
ENDBRANCH  26  27
ENDBRANCH  25  26
ENDBRANCH  23  25
ENDBRANCH  22  23
ENDBRANCH  21  22
ENDBRANCH   1  21
BRANCH   5  34
HETATM   34  O1  UNL     1      -1.155  -4.338  -0.696  1.00  0.00    -0.393 OA
ATOM     35  H1  UNL     1      -1.771  -4.350  -1.419  1.00  0.00     0.210 HD
ENDBRANCH   5  34
BRANCH  12  36
HETATM   36  O2  UNL     1      -1.057   0.875   2.893  1.00  0.00    -0.395 OA
ATOM     37  H2  UNL     1      -1.006   1.654   3.434  1.00  0.00     0.210 HD
ENDBRANCH  12  36
TORSDOF 11
