REMARK  11 active torsions:
REMARK  status: ('A' for Active; 'I' for Inactive)
REMARK    1  A    between atoms: N3_11  and  C6_12 
REMARK    2  A    between atoms: C7_14  and  C8_15 
REMARK    3  A    between atoms: C8_15  and  N4_16 
REMARK       I    between atoms: N4_16  and  C9_18 
REMARK    4  A    between atoms: C9_18  and  C10_20 
REMARK    5  A    between atoms: C10_20  and  N5_21 
REMARK    6  A    between atoms: C11_25  and  O5_26 
REMARK    7  A    between atoms: C11_25  and  O6_28 
REMARK    8  A    between atoms: C12_30  and  O7_31 
REMARK    9  A    between atoms: C12_30  and  C13_33 
REMARK   10  A    between atoms: C13_33  and  O8_34 
REMARK   11  A    between atoms: C13_33  and  O9_36 
ROOT
HETATM    1  C6  UNL     1      -0.520   0.022  -0.085  1.00  0.00     0.277 C 
HETATM    2  O3  UNL     1       0.367   0.888   0.502  1.00  0.00    -0.350 OA
HETATM    3  C7  UNL     1       1.592   0.271   0.176  1.00  0.00     0.207 C 
HETATM    4  C11 UNL     1       1.358  -1.171   0.512  1.00  0.00     0.229 C 
HETATM    5  C12 UNL     1      -0.186  -1.273   0.550  1.00  0.00     0.210 C 
ENDROOT
BRANCH   1   6
HETATM    6  N3  UNL     1      -1.873   0.467   0.018  1.00  0.00    -0.274 N 
HETATM    7  C3  UNL     1      -2.858   0.733  -1.020  1.00  0.00     0.141 A 
HETATM    8  C2  UNL     1      -3.796   1.070  -0.106  1.00  0.00     0.140 A 
HETATM    9  C4  UNL     1      -3.219   0.788  -2.355  1.00  0.00     0.279 A 
HETATM   10  N1  UNL     1      -5.062   1.453  -0.480  1.00  0.00    -0.297 N 
HETATM   11  C14 UNL     1      -2.844   0.816   0.961  1.00  0.00     0.280 A 
HETATM   12  C1  UNL     1      -6.038   1.806   0.517  1.00  0.00     0.161 C 
HETATM   13  C5  UNL     1      -5.402   1.503  -1.775  1.00  0.00     0.329 A 
HETATM   14  N2  UNL     1      -4.467   1.168  -2.682  1.00  0.00    -0.273 N 
HETATM   15  O2  UNL     1      -6.568   1.857  -2.113  1.00  0.00    -0.246 OA
ATOM     16  H2  UNL     1      -4.718   1.204  -3.670  1.00  0.00     0.173 HD
HETATM   17  O10 UNL     1      -2.940   0.903   2.191  1.00  0.00    -0.265 OA
HETATM   18  O1  UNL     1      -2.377   0.483  -3.216  1.00  0.00    -0.265 OA
ENDBRANCH   1   6
BRANCH   5  19
HETATM   19  O7  UNL     1      -0.590  -2.297  -0.278  1.00  0.00    -0.376 OA
ATOM     20  H7  UNL     1      -0.376  -3.128   0.129  1.00  0.00     0.211 HD
ENDBRANCH   5  19
BRANCH   5  21
HETATM   21  C13 UNL     1      -0.655  -1.537   1.925  1.00  0.00     0.298 C 
BRANCH  21  22
HETATM   22  O8  UNL     1      -0.092  -2.795   2.295  1.00  0.00    -0.368 OA
ATOM     23  H8  UNL     1      -0.394  -2.965   3.180  1.00  0.00     0.212 HD
ENDBRANCH  21  22
BRANCH  21  24
HETATM   24  O9  UNL     1      -0.110  -0.661   2.873  1.00  0.00    -0.368 OA
ATOM     25  H9  UNL     1      -0.412  -0.831   3.758  1.00  0.00     0.212 HD
ENDBRANCH  21  24
ENDBRANCH   5  21
BRANCH   3  26
HETATM   26  C8  UNL     1       2.685   0.896   0.977  1.00  0.00     0.160 C 
BRANCH  26  27
HETATM   27  N4  UNL     1       3.984   0.351   0.740  1.00  0.00    -0.357 N 
HETATM   28  C9  UNL     1       4.580   0.400  -0.541  1.00  0.00     0.243 C 
HETATM   29  O4  UNL     1       4.009   0.917  -1.514  1.00  0.00    -0.272 OA
ATOM     30  H4  UNL     1       4.492  -0.082   1.511  1.00  0.00     0.162 HD
BRANCH  28  31
HETATM   31  C10 UNL     1       5.926  -0.181  -0.734  1.00  0.00     0.331 C 
BRANCH  31  32
HETATM   32  N5  UNL     1       6.374  -0.040  -2.104  1.00  0.00    -0.071 N 
ATOM     33  H53 UNL     1       5.700  -0.435  -2.760  1.00  0.00     0.274 HD
ATOM     34  H52 UNL     1       6.340   0.933  -2.409  1.00  0.00     0.274 HD
ATOM     35  H51 UNL     1       7.302  -0.441  -2.237  1.00  0.00     0.274 HD
ENDBRANCH  31  32
ENDBRANCH  28  31
ENDBRANCH  26  27
ENDBRANCH   3  26
BRANCH   4  36
HETATM   36  O5  UNL     1       1.822  -1.949  -0.559  1.00  0.00    -0.361 OA
ATOM     37  H5  UNL     1       1.674  -2.863  -0.346  1.00  0.00     0.213 HD
ENDBRANCH   4  36
BRANCH   4  38
HETATM   38  O6  UNL     1       1.910  -1.535   1.717  1.00  0.00    -0.361 OA
ATOM     39  H6  UNL     1       1.762  -2.449   1.930  1.00  0.00     0.213 HD
ENDBRANCH   4  38
TORSDOF 11
