REMARK  4 active torsions:
REMARK  status: ('A' for Active; 'I' for Inactive)
REMARK       I    between atoms: C1_2  and  N1_4 
REMARK    1  A    between atoms: N1_4  and  N2_6 
REMARK    2  A    between atoms: C2_8  and  C3_9 
REMARK    3  A    between atoms: C6_12  and  C7_13 
REMARK    4  A    between atoms: N4_22  and  S1_23 
ROOT
HETATM    1  C3  UNL     1       2.047   0.313   0.089  1.00  0.00     0.011 A 
HETATM    2  C4  UNL     1       1.623  -0.777  -0.613  1.00  0.00     0.016 A 
HETATM    3  C5  UNL     1       0.263  -1.095  -0.798  1.00  0.00     0.015 A 
HETATM    4  C6  UNL     1      -0.694  -0.286  -0.256  1.00  0.00     0.005 A 
HETATM    5  C13 UNL     1      -0.301   0.830   0.463  1.00  0.00     0.090 A 
HETATM    6  N3  UNL     1      -1.015   1.779   1.092  1.00  0.00    -0.266 N 
ATOM      7  H3  UNL     1      -2.033   1.830   1.142  1.00  0.00     0.190 HD
HETATM    8  N4  UNL     1      -0.177   2.623   1.628  1.00  0.00    -0.101 N 
HETATM    9  N5  UNL     1       1.050   2.249   1.365  1.00  0.00    -0.266 N 
ATOM     10  H5  UNL     1       1.893   2.737   1.669  1.00  0.00     0.190 HD
HETATM   11  C14 UNL     1       1.027   1.125   0.634  1.00  0.00     0.091 A 
ENDROOT
BRANCH   1  12
HETATM   12  C2  UNL     1       3.423   0.688   0.311  1.00  0.00     0.121 C 
HETATM   13  N2  UNL     1       4.438   0.122  -0.074  1.00  0.00    -0.306 N 
ATOM     14  H2  UNL     1       5.286   0.604   0.225  1.00  0.00     0.186 HD
BRANCH  13  15
HETATM   15  N1  UNL     1       4.704  -0.973  -0.790  1.00  0.00    -0.244 N 
HETATM   16  C1  UNL     1       5.251  -2.197  -0.267  1.00  0.00     0.303 C 
HETATM   17  O1  UNL     1       5.489  -2.210   0.970  1.00  0.00    -0.628 OA
HETATM   18  O2  UNL     1       5.509  -3.304  -1.039  1.00  0.00    -0.628 OA
ATOM     19  H1  UNL     1       4.503  -0.939  -1.789  1.00  0.00     0.193 HD
ENDBRANCH  13  15
ENDBRANCH   1  12
BRANCH   4  20
HETATM   20  C7  UNL     1      -2.099  -0.576  -0.422  1.00  0.00    -0.024 A 
HETATM   21  C8  UNL     1      -2.958  -0.484   0.675  1.00  0.00     0.012 A 
HETATM   22  C9  UNL     1      -4.306  -0.751   0.561  1.00  0.00     0.001 A 
HETATM   23  C10 UNL     1      -4.795  -1.116  -0.670  1.00  0.00     0.000 A 
HETATM   24  C11 UNL     1      -3.990  -1.222  -1.788  1.00  0.00     0.001 A 
HETATM   25  C12 UNL     1      -2.649  -0.948  -1.642  1.00  0.00     0.012 A 
ENDBRANCH   4  20
BRANCH   8  26
HETATM   26  S1  UNL     1      -0.648   4.016   2.542  1.00  0.00     0.395 S 
HETATM   27  O3  UNL     1       0.402   5.291   2.239  1.00  0.00    -0.184 OA
HETATM   28  O4  UNL     1      -2.195   4.495   2.124  1.00  0.00    -0.184 OA
ENDBRANCH   8  26
TORSDOF 4
