REMARK  9 active torsions:
REMARK  status: ('A' for Active; 'I' for Inactive)
REMARK    1  A    between atoms: N2_4  and  C2_6 
REMARK       I    between atoms: N3_7  and  C3_9 
REMARK    2  A    between atoms: C3_9  and  C4_11 
REMARK    3  A    between atoms: C6_15  and  C7_16 
REMARK    4  A    between atoms: C7_16  and  C8_17 
REMARK    5  A    between atoms: C8_17  and  C9_18 
REMARK    6  A    between atoms: C15_24  and  C16_25 
REMARK    7  A    between atoms: C16_25  and  N5_26 
REMARK    8  A    between atoms: N5_26  and  S1_28 
REMARK    9  A    between atoms: S1_28  and  C17_31 
ROOT
HETATM    1  C9  UNL     1       1.158   1.702   0.777  1.00  0.00    -0.057 A 
HETATM    2  C10 UNL     1       1.015   3.063   0.596  1.00  0.00     0.008 A 
HETATM    3  C11 UNL     1      -0.121   3.746   0.920  1.00  0.00     0.018 A 
HETATM    4  C12 UNL     1      -1.219   3.069   1.465  1.00  0.00     0.040 A 
HETATM    5  C13 UNL     1      -1.110   1.720   1.656  1.00  0.00    -0.018 A 
HETATM    6  C14 UNL     1       0.076   1.044   1.312  1.00  0.00     0.017 A 
HETATM    7  C15 UNL     1      -2.373   1.204   2.237  1.00  0.00     0.137 A 
HETATM    8  N6  UNL     1      -3.209   2.356   2.363  1.00  0.00    -0.347 N 
ATOM      9  H6  UNL     1      -4.159   2.349   2.734  1.00  0.00     0.163 HD
HETATM   10  C24 UNL     1      -2.530   3.507   1.899  1.00  0.00     0.252 A 
HETATM   11  O4  UNL     1      -2.956   4.677   1.862  1.00  0.00    -0.268 OA
ENDROOT
BRANCH   1  12
HETATM   12  C8  UNL     1       2.401   0.987   0.417  1.00  0.00     0.044 C 
BRANCH  12  13
HETATM   13  C7  UNL     1       2.375   0.489  -1.013  1.00  0.00     0.061 C 
BRANCH  13  14
HETATM   14  C6  UNL     1       3.683  -0.212  -1.252  1.00  0.00     0.010 A 
HETATM   15  N4  UNL     1       4.811   0.338  -1.708  1.00  0.00    -0.368 N 
HETATM   16  C5  UNL     1       5.782  -0.558  -1.804  1.00  0.00     0.105 A 
ATOM     17  H4  UNL     1       4.912   1.323  -1.952  1.00  0.00     0.165 HD
HETATM   18  C4  UNL     1       5.268  -1.768  -1.390  1.00  0.00     0.049 A 
HETATM   19  C25 UNL     1       3.951  -1.538  -1.046  1.00  0.00     0.043 A 
BRANCH  18  20
HETATM   20  C3  UNL     1       6.013  -3.010  -1.343  1.00  0.00     0.258 C 
HETATM   21  N3  UNL     1       7.368  -3.062  -1.735  1.00  0.00    -0.318 N 
HETATM   22  C2  UNL     1       8.286  -2.329  -1.228  1.00  0.00     0.199 C 
ATOM     23  H3  UNL     1       7.631  -3.723  -2.466  1.00  0.00     0.169 HD
HETATM   24  O1  UNL     1       5.455  -4.058  -0.951  1.00  0.00    -0.267 OA
BRANCH  22  25
HETATM   25  N2  UNL     1       9.629  -2.414  -1.650  1.00  0.00    -0.301 N 
HETATM   26  N1  UNL     1      10.511  -1.604  -1.272  1.00  0.00    -0.340 N 
HETATM   27  C1  UNL     1      10.172  -0.525  -0.363  1.00  0.00     0.167 C 
ATOM     28  H1  UNL     1      11.470  -1.705  -1.605  1.00  0.00     0.179 HD
ATOM     29  H2  UNL     1       9.895  -3.164  -2.288  1.00  0.00     0.187 HD
ENDBRANCH  22  25
ENDBRANCH  18  20
ENDBRANCH  13  14
ENDBRANCH  12  13
ENDBRANCH   1  12
BRANCH   7  30
HETATM   30  C16 UNL     1      -2.990   0.275   1.203  1.00  0.00     0.162 C 
BRANCH  30  31
HETATM   31  N5  UNL     1      -3.234   1.054   0.005  1.00  0.00    -0.313 N 
ATOM     32  H5  UNL     1      -3.023   2.046  -0.107  1.00  0.00     0.172 HD
BRANCH  31  33
HETATM   33  S1  UNL     1      -3.941   0.035  -1.210  1.00  0.00     0.258 S 
HETATM   34  O2  UNL     1      -2.957  -1.079  -1.459  1.00  0.00    -0.201 OA
HETATM   35  O3  UNL     1      -4.111   0.858  -2.462  1.00  0.00    -0.201 OA
BRANCH  33  36
HETATM   36  C17 UNL     1      -5.483  -0.592  -0.649  1.00  0.00     0.079 A 
HETATM   37  C18 UNL     1      -5.582  -1.779   0.047  1.00  0.00     0.026 A 
HETATM   38  C19 UNL     1      -6.811  -2.240   0.473  1.00  0.00     0.008 A 
HETATM   39  C20 UNL     1      -7.982  -1.553   0.230  1.00  0.00    -0.062 A 
HETATM   40  C21 UNL     1      -9.299  -2.085   0.708  1.00  0.00     0.048 C 
HETATM   41  C22 UNL     1      -7.884  -0.366  -0.465  1.00  0.00     0.008 A 
HETATM   42  C23 UNL     1      -6.658   0.099  -0.893  1.00  0.00     0.026 A 
ENDBRANCH  33  36
ENDBRANCH  31  33
ENDBRANCH  30  31
ENDBRANCH   7  30
TORSDOF 9
