REMARK  8 active torsions:
REMARK  status: ('A' for Active; 'I' for Inactive)
REMARK    1  A    between atoms: O1_2  and  C2_3 
REMARK    2  A    between atoms: C3_4  and  C4_5 
REMARK    3  A    between atoms: C4_5  and  C6_8 
REMARK    4  A    between atoms: C9_12  and  O2_13 
REMARK    5  A    between atoms: C14_19  and  C15_20 
REMARK    6  A    between atoms: C15_20  and  C16_21 
REMARK    7  A    between atoms: C16_21  and  C17_22 
REMARK    8  A    between atoms: C20_27  and  O5_29 
ROOT
HETATM    1  C4  UNL     1      -2.540  -1.199   1.399  1.00  0.00     0.087 C 
HETATM    2  C5  UNL     1      -1.723  -2.623   0.684  1.00  0.00     0.103 C 
HETATM    3  N1  UNL     1      -1.206  -3.594   0.236  1.00  0.00    -0.191 NA
ENDROOT
BRANCH   1   4
HETATM    4  C3  UNL     1      -1.617  -0.316   0.720  1.00  0.00     0.005 C 
HETATM    5  C2  UNL     1      -1.890   0.984   1.071  1.00  0.00     0.088 C 
HETATM    6  C20 UNL     1      -1.112   2.097   0.538  1.00  0.00     0.107 C 
HETATM    7  C12 UNL     1       0.139   1.745  -0.175  1.00  0.00     0.033 C 
HETATM    8  C21 UNL     1      -0.836   3.075   1.692  1.00  0.00     0.053 C 
HETATM    9  C11 UNL     1       0.097   1.961  -1.674  1.00  0.00     0.023 C 
HETATM   10  C13 UNL     1       0.617   0.364   0.206  1.00  0.00     0.015 C 
HETATM   11  C10 UNL     1       0.186   0.592  -2.333  1.00  0.00     0.085 C 
HETATM   12  C9  UNL     1      -0.920  -0.237  -1.662  1.00  0.00     0.138 C 
HETATM   13  C19 UNL     1       1.521   0.027  -1.976  1.00  0.00     0.138 C 
HETATM   14  C8  UNL     1      -0.525  -0.571  -0.232  1.00  0.00     0.057 C 
HETATM   15  C14 UNL     1       1.913   0.069  -0.558  1.00  0.00     0.061 C 
HETATM   16  O4  UNL     1       2.221  -0.430  -2.819  1.00  0.00    -0.297 OA
BRANCH   5  17
HETATM   17  O1  UNL     1      -2.951   1.254   1.974  1.00  0.00    -0.356 OA
HETATM   18  C1  UNL     1      -4.042   2.067   1.591  1.00  0.00     0.209 C 
ENDBRANCH   5  17
BRANCH   6  19
HETATM   19  O5  UNL     1      -1.945   2.833  -0.327  1.00  0.00    -0.383 OA
ATOM     20  H5  UNL     1      -1.438   3.558  -0.674  1.00  0.00     0.211 HD
ENDBRANCH   6  19
BRANCH  12  21
HETATM   21  O2  UNL     1      -1.000  -1.388  -2.447  1.00  0.00    -0.394 OA
ATOM     22  H2  UNL     1      -1.247  -1.179  -3.340  1.00  0.00     0.210 HD
ENDBRANCH  12  21
BRANCH  15  23
HETATM   23  C15 UNL     1       2.505  -1.163   0.017  1.00  0.00     0.020 C 
BRANCH  23  24
HETATM   24  C16 UNL     1       3.778  -1.574  -0.616  1.00  0.00     0.078 C 
BRANCH  24  25
HETATM   25  C17 UNL     1       4.861  -0.600  -0.500  1.00  0.00     0.123 C 
HETATM   26  C18 UNL     1       6.175  -0.947  -1.143  1.00  0.00     0.091 C 
HETATM   27  O3  UNL     1       4.774   0.445   0.066  1.00  0.00    -0.298 OA
ENDBRANCH  24  25
ENDBRANCH  23  24
ENDBRANCH  15  23
ENDBRANCH   1   4
BRANCH   1  28
HETATM   28  C6  UNL     1      -3.299  -1.927   1.958  1.00  0.00     0.111 C 
HETATM   29  C7  UNL     1      -3.488  -3.390   1.972  1.00  0.00     0.084 C 
HETATM   30  F1  UNL     1      -4.250  -1.296   2.830  1.00  0.00    -0.210 F 
ENDBRANCH   1  28
TORSDOF 8
