REMARK  5 active torsions:
REMARK  status: ('A' for Active; 'I' for Inactive)
REMARK    1  A    between atoms: C2_2  and  N1_3 
REMARK    2  A    between atoms: N1_3  and  C3_5 
REMARK    3  A    between atoms: C6_11  and  C7_12 
REMARK    4  A    between atoms: C7_12  and  C8_13 
REMARK    5  A    between atoms: C9_14  and  C10_15 
ROOT
HETATM    1  C1  UNL     1      -2.408   1.218   1.715  1.00  0.00     0.043 C 
HETATM    2  C2  UNL     1      -1.896   0.383   0.546  1.00  0.00     0.090 C 
HETATM    3  C6  UNL     1      -0.383   0.201   0.656  1.00  0.00     0.224 C 
HETATM    4  N4  UNL     1      -0.585  -1.205   0.438  1.00  0.00    -0.057 N 
HETATM    5  C14 UNL     1      -0.386  -1.659  -0.927  1.00  0.00     0.273 C 
HETATM    6  C15 UNL     1       0.087  -2.137   1.322  1.00  0.00     0.273 C 
HETATM    7  C16 UNL     1      -1.960  -1.054   0.832  1.00  0.00     0.149 C 
HETATM    8  C17 UNL     1      -2.959  -1.885   0.064  1.00  0.00     0.049 C 
HETATM    9  C18 UNL     1      -2.131  -1.341   2.320  1.00  0.00     0.049 C 
ENDROOT
BRANCH   3  10
HETATM   10  C7  UNL     1       0.365   0.938  -0.392  1.00  0.00     0.063 C 
BRANCH  10  11
HETATM   11  C8  UNL     1       1.829   0.901  -0.367  1.00  0.00    -0.026 C 
HETATM   12  C9  UNL     1       2.641   0.344   0.491  1.00  0.00     0.012 C 
BRANCH  12  13
HETATM   13  C10 UNL     1       4.119   0.420   0.330  1.00  0.00     0.269 C 
HETATM   14  N3  UNL     1       4.503   1.405  -0.658  1.00  0.00    -0.058 N 
HETATM   15  C11 UNL     1       5.946   1.583  -0.536  1.00  0.00     0.255 C 
ATOM     16  H32 UNL     1       4.206   1.163  -1.603  1.00  0.00     0.278 HD
ATOM     17  H31 UNL     1       3.982   2.278  -0.579  1.00  0.00     0.278 HD
HETATM   18  C12 UNL     1       6.719   0.522  -1.265  1.00  0.00     0.117 C 
HETATM   19 CL1  UNL     1       8.436   0.965  -1.222  1.00  0.00    -0.122 Cl
HETATM   20  C13 UNL     1       6.572  -0.840  -0.644  1.00  0.00     0.098 C 
HETATM   21  S2  UNL     1       4.830  -1.170  -0.174  1.00  0.00    -0.131 SA
ENDBRANCH  12  13
ENDBRANCH  10  11
ENDBRANCH   3  10
BRANCH   2  22
HETATM   22  N1  UNL     1      -2.375   0.860  -0.713  1.00  0.00    -0.357 N 
ATOM     23  H1  UNL     1      -1.729   1.173  -1.438  1.00  0.00     0.162 HD
BRANCH  22  24
HETATM   24  C3  UNL     1      -3.798   0.884  -0.925  1.00  0.00     0.140 C 
HETATM   25  N2  UNL     1      -4.723   1.168  -0.115  1.00  0.00    -0.350 N 
HETATM   26  C4  UNL     1      -6.060   1.137  -0.496  1.00  0.00     0.073 C 
ATOM     27  H2  UNL     1      -4.484   1.427   0.842  1.00  0.00     0.167 HD
HETATM   28  C5  UNL     1      -6.223   1.259  -2.000  1.00  0.00     0.127 C 
HETATM   29  S1  UNL     1      -4.610   0.502  -2.474  1.00  0.00    -0.089 SA
ENDBRANCH  22  24
ENDBRANCH   2  22
TORSDOF 5
