REMARK  12 active torsions:
REMARK  status: ('A' for Active; 'I' for Inactive)
REMARK    1  A    between atoms: C2_2  and  O1_3 
REMARK    2  A    between atoms: O1_3  and  C3_4 
REMARK    3  A    between atoms: C3_4  and  C4_6 
REMARK    4  A    between atoms: C7_11  and  C8_12 
REMARK    5  A    between atoms: C8_12  and  N2_13 
REMARK    6  A    between atoms: C8_12  and  S3_39 
REMARK    7  A    between atoms: N3_15  and  C9_17 
REMARK    8  A    between atoms: C12_24  and  N6_25 
REMARK    9  A    between atoms: N6_25  and  C13_27 
REMARK   10  A    between atoms: C15_29  and  S1_30 
REMARK   11  A    between atoms: S1_30  and  N7_31 
REMARK   12  A    between atoms: S3_39  and  O5_40 
ROOT
HETATM    1  C9  UNL     1       2.167  -1.707   1.093  1.00  0.00     0.164 A 
HETATM    2  N4  UNL     1       2.513  -2.815   1.806  1.00  0.00    -0.282 N 
ATOM      3  H4  UNL     1       2.212  -3.771   1.616  1.00  0.00     0.188 HD
HETATM    4  N5  UNL     1       3.314  -2.425   2.795  1.00  0.00    -0.301 N 
ATOM      5  H5  UNL     1       3.732  -3.039   3.494  1.00  0.00     0.186 HD
HETATM    6  C10 UNL     1       3.486  -1.079   2.724  1.00  0.00     0.052 A 
HETATM    7  C11 UNL     1       4.325  -0.324   3.682  1.00  0.00     0.072 C 
HETATM    8  C12 UNL     1       2.766  -0.603   1.650  1.00  0.00     0.103 A 
ENDROOT
BRANCH   1   9
HETATM    9  N3  UNL     1       1.311  -1.778  -0.041  1.00  0.00    -0.281 N 
HETATM   10  N2  UNL     1       0.072  -1.738   0.157  1.00  0.00    -0.289 N 
ATOM     11  H2  UNL     1      -0.270  -1.658   1.115  1.00  0.00     0.188 HD
ATOM     12  H3  UNL     1       1.691  -1.859  -0.984  1.00  0.00     0.188 HD
BRANCH  10  13
HETATM   13  C8  UNL     1      -0.879  -1.801  -0.910  1.00  0.00     0.140 C 
BRANCH  13  14
HETATM   14  C7  UNL     1      -2.273  -1.507  -0.605  1.00  0.00     0.095 A 
HETATM   15  N1  UNL     1      -3.291  -2.375  -0.548  1.00  0.00    -0.355 N 
HETATM   16  C5  UNL     1      -4.451  -1.748  -0.234  1.00  0.00     0.024 A 
ATOM     17  H1  UNL     1      -3.205  -3.377  -0.719  1.00  0.00     0.166 HD
HETATM   18  C4  UNL     1      -4.160  -0.412  -0.083  1.00  0.00     0.088 A 
HETATM   19  C6  UNL     1      -5.785  -2.371  -0.081  1.00  0.00     0.069 C 
HETATM   20  C17 UNL     1      -2.811  -0.252  -0.311  1.00  0.00     0.094 A 
HETATM   21  N8  UNL     1      -2.068   0.952  -0.265  1.00  0.00    -0.099 NA
BRANCH  18  22
HETATM   22  C3  UNL     1      -5.109   0.654   0.258  1.00  0.00     0.297 C 
HETATM   23  O2  UNL     1      -6.329   0.413   0.449  1.00  0.00    -0.259 OA
BRANCH  22  24
HETATM   24  O1  UNL     1      -4.710   1.973   0.387  1.00  0.00    -0.318 OA
BRANCH  24  25
HETATM   25  C2  UNL     1      -5.664   2.988   0.722  1.00  0.00     0.174 C 
HETATM   26  C1  UNL     1      -6.704   2.991  -0.365  1.00  0.00     0.034 C 
ENDBRANCH  24  25
ENDBRANCH  22  24
ENDBRANCH  18  22
ENDBRANCH  13  14
BRANCH  13  27
HETATM   27  S3  UNL     1      -0.429  -2.187  -2.413  1.00  0.00     0.048 SA
BRANCH  27  28
HETATM   28  O5  UNL     1      -1.608  -2.252  -3.665  1.00  0.00    -0.324 OA
ATOM     29  H5  UNL     1      -1.343  -2.479  -4.549  1.00  0.00     0.228 HD
ENDBRANCH  27  28
ENDBRANCH  13  27
ENDBRANCH  10  13
ENDBRANCH   1   9
BRANCH   8  30
HETATM   30  N6  UNL     1       2.656   0.740   1.201  1.00  0.00    -0.350 N 
ATOM     31  H6  UNL     1       1.909   1.328   1.571  1.00  0.00     0.166 HD
BRANCH  30  32
HETATM   32  C13 UNL     1       3.585   1.302   0.223  1.00  0.00     0.063 A 
HETATM   33  C14 UNL     1       4.605   0.597  -0.322  1.00  0.00     0.064 A 
HETATM   34  C15 UNL     1       5.398   1.249  -1.227  1.00  0.00     0.123 A 
HETATM   35  S2  UNL     1       4.720   2.805  -1.299  1.00  0.00    -0.062 SA
HETATM   36  C16 UNL     1       3.450   2.601  -0.188  1.00  0.00     0.102 A 
HETATM   37 CL1  UNL     1       2.237   3.798   0.315  1.00  0.00    -0.074 Cl
BRANCH  34  38
HETATM   38  S1  UNL     1       6.799   0.589  -2.097  1.00  0.00     0.263 S 
HETATM   39  O3  UNL     1       6.490   0.769  -3.560  1.00  0.00    -0.200 OA
HETATM   40  O4  UNL     1       6.934  -0.835  -1.707  1.00  0.00    -0.200 OA
BRANCH  38  41
HETATM   41  N7  UNL     1       8.204   1.511  -1.705  1.00  0.00    -0.324 N 
ATOM     42  H72 UNL     1       8.212   2.309  -1.070  1.00  0.00     0.169 HD
ATOM     43  H71 UNL     1       9.008   1.132  -2.205  1.00  0.00     0.169 HD
ENDBRANCH  38  41
ENDBRANCH  34  38
ENDBRANCH  30  32
ENDBRANCH   8  30
TORSDOF 12
