REMARK  5 active torsions:
REMARK  status: ('A' for Active; 'I' for Inactive)
REMARK    1  A    between atoms: C4_4  and  C5_5 
REMARK    2  A    between atoms: C5_5  and  S1_6 
REMARK    3  A    between atoms: S1_6  and  C6_7 
REMARK    4  A    between atoms: C6_7  and  C7_8 
REMARK    5  A    between atoms: C6_7  and  C13_14 
ROOT
HETATM    1  C6  UNL     1      -0.536  -0.022  -0.369  1.00  0.00     0.113 C 
ENDROOT
BRANCH   1   2
HETATM    2  S1  UNL     1       0.163  -1.699  -0.592  1.00  0.00    -0.150 SA
BRANCH   2   3
HETATM    3  C5  UNL     1       1.415  -1.946   0.674  1.00  0.00     0.113 C 
BRANCH   3   4
HETATM    4  C4  UNL     1       2.604  -1.060   0.473  1.00  0.00    -0.049 A 
HETATM    5  C3  UNL     1       2.724   0.198   1.015  1.00  0.00     0.008 A 
HETATM    6  C2  UNL     1       3.849   0.980   0.797  1.00  0.00     0.001 A 
HETATM    7  C1  UNL     1       4.899   0.529   0.027  1.00  0.00     0.000 A 
HETATM    8  C20 UNL     1       4.788  -0.731  -0.520  1.00  0.00     0.001 A 
HETATM    9  C19 UNL     1       3.675  -1.510  -0.309  1.00  0.00     0.008 A 
ENDBRANCH   3   4
ENDBRANCH   2   3
ENDBRANCH   1   2
BRANCH   1  10
HETATM   10  C7  UNL     1      -1.257  -0.056   0.933  1.00  0.00    -0.040 A 
HETATM   11  C8  UNL     1      -1.315   1.064   1.703  1.00  0.00     0.009 A 
HETATM   12  C9  UNL     1      -1.970   1.058   2.920  1.00  0.00     0.001 A 
HETATM   13  C10 UNL     1      -2.588  -0.065   3.404  1.00  0.00     0.000 A 
HETATM   14  C11 UNL     1      -2.532  -1.203   2.624  1.00  0.00     0.001 A 
HETATM   15  C12 UNL     1      -1.873  -1.201   1.399  1.00  0.00     0.009 A 
ENDBRANCH   1  10
BRANCH   1  16
HETATM   16  C13 UNL     1      -1.373   0.361  -1.509  1.00  0.00    -0.040 A 
HETATM   17  C14 UNL     1      -1.901  -0.524  -2.417  1.00  0.00     0.009 A 
HETATM   18  C15 UNL     1      -2.674  -0.065  -3.450  1.00  0.00     0.001 A 
HETATM   19  C16 UNL     1      -2.953   1.271  -3.626  1.00  0.00     0.000 A 
HETATM   20  C17 UNL     1      -2.428   2.190  -2.715  1.00  0.00     0.001 A 
HETATM   21  C18 UNL     1      -1.654   1.712  -1.684  1.00  0.00     0.009 A 
ENDBRANCH   1  16
TORSDOF 5
