REMARK  10 active torsions:
REMARK  status: ('A' for Active; 'I' for Inactive)
REMARK    1  A    between atoms: C6_7  and  O1_8 
REMARK    2  A    between atoms: O1_8  and  C7_9 
REMARK    3  A    between atoms: C8_10  and  O2_11 
REMARK    4  A    between atoms: C9_14  and  O4_15 
REMARK    5  A    between atoms: O4_15  and  C10_16 
REMARK    6  A    between atoms: C12_19  and  O6_20 
REMARK    7  A    between atoms: C13_22  and  O7_23 
REMARK    8  A    between atoms: C14_25  and  N2_26 
REMARK       I    between atoms: N2_26  and  C15_28 
REMARK    9  A    between atoms: C15_28  and  C16_30 
REMARK   10  A    between atoms: C22_36  and  O9_37 
ROOT
HETATM    1  C10 UNL     1       1.268  -1.291   1.821  1.00  0.00     0.288 C 
HETATM    2  O5  UNL     1       1.736  -1.884   2.990  1.00  0.00    -0.356 OA
HETATM    3  C11 UNL     1       2.227  -3.139   2.855  1.00  0.00     0.205 C 
HETATM    4  C12 UNL     1       2.723  -3.608   1.558  1.00  0.00     0.172 C 
HETATM    5  C13 UNL     1       2.489  -2.754   0.360  1.00  0.00     0.176 C 
HETATM    6  C14 UNL     1       2.411  -1.326   0.848  1.00  0.00     0.171 C 
ENDROOT
BRANCH   1   7
HETATM    7  O4  UNL     1       0.213  -2.089   1.392  1.00  0.00    -0.327 OA
BRANCH   7   8
HETATM    8  C9  UNL     1      -1.013  -1.492   1.397  1.00  0.00     0.297 C 
HETATM    9  O3  UNL     1      -1.938  -2.121   2.236  1.00  0.00    -0.326 OA
HETATM   10  C8  UNL     1      -3.096  -1.412   2.031  1.00  0.00     0.292 C 
HETATM   11  C7  UNL     1      -3.100  -0.906   0.583  1.00  0.00     0.217 C 
HETATM   12  C22 UNL     1      -1.778  -1.568   0.097  1.00  0.00     0.207 C 
BRANCH  10  13
HETATM   13  O2  UNL     1      -4.243  -2.214   2.214  1.00  0.00    -0.368 OA
ATOM     14  H2  UNL     1      -4.241  -2.527   3.111  1.00  0.00     0.212 HD
ENDBRANCH  10  13
BRANCH  11  15
HETATM   15  O1  UNL     1      -2.890   0.429   0.513  1.00  0.00    -0.336 OA
BRANCH  15  16
HETATM   16  C6  UNL     1      -3.424   1.498  -0.095  1.00  0.00     0.093 A 
HETATM   17  C1  UNL     1      -4.502   1.498  -0.943  1.00  0.00     0.079 A 
HETATM   18  N1  UNL     1      -5.167   0.260  -1.249  1.00  0.00    -0.100 NA
HETATM   19  C2  UNL     1      -5.015   2.650  -1.549  1.00  0.00     0.029 A 
HETATM   20  C3  UNL     1      -4.419   3.860  -1.292  1.00  0.00     0.002 A 
HETATM   21  C4  UNL     1      -3.331   3.902  -0.443  1.00  0.00     0.003 A 
HETATM   22  C5  UNL     1      -2.844   2.777   0.138  1.00  0.00     0.039 A 
ENDBRANCH  15  16
ENDBRANCH  11  15
BRANCH  12  23
HETATM   23  O9  UNL     1      -1.238  -0.852  -0.936  1.00  0.00    -0.388 OA
ATOM     24  H9  UNL     1      -0.431  -1.256  -1.233  1.00  0.00     0.210 HD
ENDBRANCH  12  23
ENDBRANCH   7   8
ENDBRANCH   1   7
BRANCH   6  25
HETATM   25  N2  UNL     1       2.395  -0.338  -0.160  1.00  0.00    -0.345 N 
HETATM   26  C15 UNL     1       3.422   0.650  -0.306  1.00  0.00     0.252 C 
HETATM   27  O8  UNL     1       4.376   0.599   0.533  1.00  0.00    -0.268 OA
ATOM     28  H2  UNL     1       1.614  -0.327  -0.816  1.00  0.00     0.163 HD
BRANCH  26  29
HETATM   29  C16 UNL     1       3.410   1.659  -1.331  1.00  0.00     0.032 A 
HETATM   30  C17 UNL     1       4.443   2.571  -1.395  1.00  0.00     0.017 A 
HETATM   31  C18 UNL     1       4.509   3.570  -2.345  1.00  0.00     0.001 A 
HETATM   32  C19 UNL     1       3.512   3.694  -3.290  1.00  0.00     0.000 A 
HETATM   33  C20 UNL     1       2.475   2.787  -3.234  1.00  0.00     0.001 A 
HETATM   34  C21 UNL     1       2.420   1.778  -2.267  1.00  0.00     0.017 A 
ENDBRANCH  26  29
ENDBRANCH   6  25
BRANCH   5  35
HETATM   35  O7  UNL     1       3.507  -2.861  -0.584  1.00  0.00    -0.391 OA
ATOM     36  H7  UNL     1       3.358  -2.316  -1.348  1.00  0.00     0.210 HD
ENDBRANCH   5  35
BRANCH   4  37
HETATM   37  O6  UNL     1       4.114  -3.870   1.594  1.00  0.00    -0.391 OA
ATOM     38  H6  UNL     1       4.435  -4.174   0.753  1.00  0.00     0.210 HD
ENDBRANCH   4  37
TORSDOF 10
