REMARK  2 active torsions:
REMARK  status: ('A' for Active; 'I' for Inactive)
REMARK    1  A    between atoms: C1_2  and  C2_4 
REMARK    2  A    between atoms: N4_9  and  N5_10 
ROOT
HETATM    1  C2  UNL     1       0.975  -0.080   0.213  1.00  0.00     0.143 A 
HETATM    2  N2  UNL     1       0.045  -0.928  -0.288  1.00  0.00    -0.321 N 
ATOM      3  H2  UNL     1       0.349  -1.807  -0.706  1.00  0.00     0.169 HD
HETATM    4  C3  UNL     1      -1.247  -0.645  -0.249  1.00  0.00     0.230 A 
HETATM    5  N3  UNL     1      -2.255  -1.523  -0.772  1.00  0.00    -0.060 NA
HETATM    6  N4  UNL     1      -1.657   0.510   0.301  1.00  0.00    -0.170 N 
HETATM    7  N6  UNL     1      -0.773   1.357   0.798  1.00  0.00    -0.262 N 
ATOM      8  H6  UNL     1      -1.100   2.230   1.212  1.00  0.00     0.190 HD
HETATM    9  C4  UNL     1       0.542   1.099   0.773  1.00  0.00     0.164 A 
HETATM   10  N7  UNL     1       1.477   2.049   1.326  1.00  0.00    -0.079 NA
ENDROOT
BRANCH   1  11
HETATM   11  C1  UNL     1       2.392  -0.372   0.179  1.00  0.00     0.284 C 
HETATM   12  N1  UNL     1       2.862  -1.574  -0.389  1.00  0.00    -0.056 NA
HETATM   13  O1  UNL     1       3.212   0.439   0.654  1.00  0.00    -0.269 OA
ENDBRANCH   1  11
BRANCH   6  14
HETATM   14  N5  UNL     1      -3.030   0.838   0.356  1.00  0.00    -0.321 N 
ATOM     15  H52 UNL     1      -3.712   0.184  -0.028  1.00  0.00     0.179 HD
ATOM     16  H51 UNL     1      -3.341   1.715   0.774  1.00  0.00     0.179 HD
ENDBRANCH   6  14
TORSDOF 2
