REMARK  11 active torsions:
REMARK  status: ('A' for Active; 'I' for Inactive)
REMARK    1  A    between atoms: C2_2  and  O1_4 
REMARK    2  A    between atoms: C2_2  and  C4_6 
REMARK    3  A    between atoms: C4_6  and  C5_7 
REMARK    4  A    between atoms: C5_7  and  C6_8 
REMARK    5  A    between atoms: C7_9  and  C8_10 
REMARK    6  A    between atoms: C8_10  and  C9_11 
REMARK    7  A    between atoms: C9_11  and  C10_12 
REMARK    8  A    between atoms: C10_12  and  C11_13 
REMARK    9  A    between atoms: C19_22  and  O3_24 
REMARK   10  A    between atoms: C23_28  and  O4_29 
REMARK   11  A    between atoms: C24_31  and  O5_32 
ROOT
HETATM    1  C8  UNL     1      -0.397   0.991  -0.140  1.00  0.00    -0.002 C 
HETATM    2  C15 UNL     1      -0.895   0.249  -1.325  1.00  0.00    -0.016 C 
HETATM    3  C16 UNL     1      -1.970  -0.486  -1.320  1.00  0.00    -0.014 C 
HETATM    4  C17 UNL     1      -2.778  -0.629  -0.106  1.00  0.00     0.038 C 
HETATM    5  C18 UNL     1      -3.819   0.503  -0.109  1.00  0.00     0.026 C 
HETATM    6  C19 UNL     1      -3.586  -1.904  -0.194  1.00  0.00     0.068 C 
HETATM    7  C20 UNL     1      -4.027  -2.112  -1.647  1.00  0.00     0.047 C 
HETATM    8  C21 UNL     1      -2.838  -3.129   0.205  1.00  0.00     0.041 C 
HETATM    9  C22 UNL     1      -1.381  -2.909   0.444  1.00  0.00     0.038 C 
HETATM   10  C23 UNL     1      -1.183  -1.815   1.441  1.00  0.00     0.153 C 
HETATM   11  C24 UNL     1      -1.946  -0.550   1.124  1.00  0.00     0.098 C 
HETATM   12  C25 UNL     1      -0.986   0.596   1.158  1.00  0.00     0.059 C 
ENDROOT
BRANCH   1  13
HETATM   13  C7  UNL     1       1.076   0.706  -0.090  1.00  0.00    -0.017 C 
HETATM   14  C6  UNL     1       1.650  -0.240  -0.795  1.00  0.00    -0.029 C 
BRANCH  14  15
HETATM   15  C5  UNL     1       3.109  -0.464  -0.694  1.00  0.00     0.030 C 
BRANCH  15  16
HETATM   16  C4  UNL     1       3.377  -1.852  -0.216  1.00  0.00     0.040 C 
BRANCH  16  17
HETATM   17  C2  UNL     1       4.856  -2.152  -0.090  1.00  0.00     0.051 C 
HETATM   18  C1  UNL     1       5.585  -2.014  -1.385  1.00  0.00     0.045 C 
HETATM   19  C3  UNL     1       5.516  -1.257   0.941  1.00  0.00     0.045 C 
BRANCH  17  20
HETATM   20  O1  UNL     1       5.012  -3.464   0.355  1.00  0.00    -0.391 OA
ATOM     21  H1  UNL     1       4.548  -3.552   1.179  1.00  0.00     0.210 HD
ENDBRANCH  17  20
ENDBRANCH  16  17
ENDBRANCH  15  16
ENDBRANCH  14  15
ENDBRANCH   1  13
BRANCH   1  22
HETATM   22  C9  UNL     1      -0.538   2.477  -0.405  1.00  0.00     0.022 C 
BRANCH  22  23
HETATM   23  C10 UNL     1       0.074   3.359   0.628  1.00  0.00     0.042 C 
BRANCH  23  24
HETATM   24  C11 UNL     1      -0.180   4.763   0.184  1.00  0.00    -0.034 A 
HETATM   25  C12 UNL     1      -1.225   5.588   0.462  1.00  0.00     0.033 A 
HETATM   26  C13 UNL     1      -0.947   6.761  -0.207  1.00  0.00     0.142 A 
HETATM   27  O2  UNL     1       0.192   6.630  -0.838  1.00  0.00    -0.334 OA
HETATM   28  C14 UNL     1       0.683   5.457  -0.633  1.00  0.00     0.148 A 
ENDBRANCH  23  24
ENDBRANCH  22  23
ENDBRANCH   1  22
BRANCH  11  29
HETATM   29  O5  UNL     1      -2.842  -0.363   2.208  1.00  0.00    -0.386 OA
ATOM     30  H5  UNL     1      -2.310  -0.313   2.994  1.00  0.00     0.210 HD
ENDBRANCH  11  29
BRANCH  10  31
HETATM   31  O4  UNL     1      -1.454  -2.297   2.718  1.00  0.00    -0.393 OA
ATOM     32  H4  UNL     1      -1.328  -1.601   3.352  1.00  0.00     0.210 HD
ENDBRANCH  10  31
BRANCH   6  33
HETATM   33  O3  UNL     1      -4.752  -1.855   0.566  1.00  0.00    -0.389 OA
ATOM     34  H3  UNL     1      -5.260  -2.656   0.511  1.00  0.00     0.210 HD
ENDBRANCH   6  33
TORSDOF 11
