REMARK  11 active torsions:
REMARK  status: ('A' for Active; 'I' for Inactive)
REMARK    1  A    between atoms: C2_2  and  C3_3 
REMARK    2  A    between atoms: C3_3  and  C6_6 
REMARK    3  A    between atoms: C7_7  and  C8_8 
REMARK    4  A    between atoms: C8_8  and  C9_9 
REMARK    5  A    between atoms: C13_13  and  O1_14 
REMARK    6  A    between atoms: C14_16  and  C15_17 
REMARK    7  A    between atoms: C15_17  and  O2_18 
REMARK    8  A    between atoms: O2_18  and  C16_19 
REMARK    9  A    between atoms: C20_23  and  O3_24 
REMARK   10  A    between atoms: C24_29  and  O4_30 
REMARK   11  A    between atoms: C25_32  and  O5_33 
ROOT
HETATM    1  C6  UNL     1      -2.671   0.044   0.541  1.00  0.00    -0.006 A 
HETATM    2  C7  UNL     1      -3.119   1.316   0.508  1.00  0.00    -0.045 A 
HETATM    3  C12 UNL     1      -2.182   2.344   0.270  1.00  0.00     0.045 A 
HETATM    4  C13 UNL     1      -0.853   2.115   0.069  1.00  0.00     0.077 A 
HETATM    5  C14 UNL     1      -0.370   0.796   0.095  1.00  0.00     0.032 A 
HETATM    6  C25 UNL     1      -1.285  -0.198   0.328  1.00  0.00     0.084 A 
ENDROOT
BRANCH   5   7
HETATM    7  C15 UNL     1       1.055   0.630  -0.139  1.00  0.00     0.212 C 
BRANCH   7   8
HETATM    8  O2  UNL     1       1.627  -0.591  -0.115  1.00  0.00    -0.378 OA
BRANCH   8   9
HETATM    9  C16 UNL     1       2.984  -0.518  -0.349  1.00  0.00     0.154 C 
HETATM   10  C17 UNL     1       3.746  -0.926   0.921  1.00  0.00     0.069 C 
HETATM   11  C18 UNL     1       5.193  -0.724   0.660  1.00  0.00    -0.074 C 
HETATM   12  C19 UNL     1       6.108   0.021   1.253  1.00  0.00     0.008 C 
HETATM   13  C22 UNL     1       5.793  -1.475  -0.475  1.00  0.00     0.019 C 
HETATM   14  C20 UNL     1       7.439  -0.138   0.587  1.00  0.00     0.142 C 
HETATM   15  C21 UNL     1       7.164  -0.891  -0.693  1.00  0.00     0.045 C 
HETATM   16  C23 UNL     1       4.949  -1.159  -1.686  1.00  0.00     0.043 C 
HETATM   17  C24 UNL     1       3.473  -1.403  -1.452  1.00  0.00     0.148 C 
BRANCH  14  18
HETATM   18  O3  UNL     1       7.980   1.108   0.243  1.00  0.00    -0.392 OA
ATOM     19  H3  UNL     1       8.825   1.007  -0.180  1.00  0.00     0.210 HD
ENDBRANCH  14  18
BRANCH  17  20
HETATM   20  O4  UNL     1       2.832  -1.128  -2.671  1.00  0.00    -0.393 OA
ATOM     21  H4  UNL     1       3.142  -1.690  -3.371  1.00  0.00     0.210 HD
ENDBRANCH  17  20
ENDBRANCH   8   9
ENDBRANCH   7   8
ENDBRANCH   5   7
BRANCH   4  22
HETATM   22  O1  UNL     1       0.050   3.133  -0.159  1.00  0.00    -0.360 OA
ATOM     23  H1  UNL     1       0.976   2.973  -0.299  1.00  0.00     0.217 HD
ENDBRANCH   4  22
BRANCH   6  24
HETATM   24  O5  UNL     1      -0.822  -1.476   0.349  1.00  0.00    -0.359 OA
ATOM     25  H5  UNL     1       0.103  -1.638   0.207  1.00  0.00     0.217 HD
ENDBRANCH   6  24
BRANCH   1  26
HETATM   26  C3  UNL     1      -3.568  -1.041   0.895  1.00  0.00    -0.000 C 
HETATM   27  C4  UNL     1      -4.054  -0.843   2.362  1.00  0.00     0.024 C 
HETATM   28  C5  UNL     1      -2.865  -2.376   0.946  1.00  0.00     0.024 C 
BRANCH  26  29
HETATM   29  C2  UNL     1      -4.744  -1.282   0.034  1.00  0.00    -0.023 C 
HETATM   30  C1  UNL     1      -5.807  -1.925   0.480  1.00  0.00     0.008 C 
ENDBRANCH  26  29
ENDBRANCH   1  26
BRANCH   2  31
HETATM   31  C8  UNL     1      -4.489   1.850   0.591  1.00  0.00     0.044 C 
BRANCH  31  32
HETATM   32  C9  UNL     1      -5.009   2.284  -0.748  1.00  0.00    -0.010 A 
HETATM   33  C10 UNL     1      -6.381   2.929  -0.781  1.00  0.00     0.005 A 
HETATM   34  C11 UNL     1      -6.077   1.700  -1.541  1.00  0.00     0.005 A 
ENDBRANCH  31  32
ENDBRANCH   2  31
TORSDOF 11
