REMARK  19 active torsions:
REMARK  status: ('A' for Active; 'I' for Inactive)
REMARK    1  A    between atoms: N1_1  and  C1_4 
REMARK    2  A    between atoms: C1_4  and  N2_5 
REMARK    3  A    between atoms: C1_4  and  C17_32 
REMARK    4  A    between atoms: N2_5  and  C2_7 
REMARK    5  A    between atoms: C5_10  and  N3_11 
REMARK    6  A    between atoms: N3_11  and  C6_13 
REMARK    7  A    between atoms: C6_13  and  C7_14 
REMARK       I    between atoms: C7_14  and  N4_16 
REMARK    8  A    between atoms: N4_16  and  N5_18 
REMARK       I    between atoms: N5_18  and  C8_20 
REMARK    9  A    between atoms: C8_20  and  C9_22 
REMARK   10  A    between atoms: C12_25  and  O3_26 
REMARK   11  A    between atoms: C17_32  and  N6_33 
REMARK   12  A    between atoms: C17_32  and  C22_44 
REMARK   13  A    between atoms: N6_33  and  C18_36 
REMARK   14  A    between atoms: C18_36  and  C19_37 
REMARK   15  A    between atoms: C19_37  and  C20_38 
REMARK   16  A    between atoms: C20_38  and  N7_39 
REMARK       I    between atoms: N7_39  and  C21_41 
REMARK       I    between atoms: C22_44  and  N8_46 
REMARK   17  A    between atoms: N8_46  and  C23_48 
REMARK   18  A    between atoms: C24_51  and  N10_52 
REMARK   19  A    between atoms: N10_52  and  O7_54 
ROOT
HETATM    1  C17 UNL     1      -4.675  -0.942  -0.537  1.00  0.00     0.344 C 
ENDROOT
BRANCH   1   2
HETATM    2  C1  UNL     1      -3.472  -0.083  -0.575  1.00  0.00     0.116 C 
BRANCH   2   3
HETATM    3  N1  UNL     1      -3.487   0.944   0.227  1.00  0.00    -0.387 N 
ATOM      4  H12 UNL     1      -2.657   1.537   0.201  1.00  0.00     0.157 HD
ATOM      5  H11 UNL     1      -4.280   1.114   0.845  1.00  0.00     0.157 HD
ENDBRANCH   2   3
BRANCH   2   6
HETATM    6  N2  UNL     1      -2.386  -0.315  -1.421  1.00  0.00    -0.344 N 
ATOM      7  H2  UNL     1      -2.604  -0.538  -2.392  1.00  0.00     0.167 HD
BRANCH   6   8
HETATM    8  C2  UNL     1      -1.012  -0.273  -1.074  1.00  0.00     0.033 A 
HETATM    9  C3  UNL     1      -0.016  -0.362  -2.045  1.00  0.00     0.031 A 
HETATM   10  C4  UNL     1       1.324  -0.320  -1.761  1.00  0.00     0.031 A 
HETATM   11  C5  UNL     1       1.748  -0.184  -0.454  1.00  0.00     0.028 A 
HETATM   12  C15 UNL     1       0.787  -0.095   0.525  1.00  0.00     0.031 A 
HETATM   13  C16 UNL     1      -0.559  -0.139   0.222  1.00  0.00     0.031 A 
BRANCH  11  14
HETATM   14  N3  UNL     1       3.166  -0.136  -0.159  1.00  0.00    -0.381 N 
ATOM     15  H3  UNL     1       3.875  -0.253  -0.882  1.00  0.00     0.160 HD
BRANCH  14  16
HETATM   16  C6  UNL     1       3.506   0.086   1.212  1.00  0.00     0.224 C 
BRANCH  16  17
HETATM   17  C7  UNL     1       4.939   0.161   1.432  1.00  0.00     0.253 C 
HETATM   18  O1  UNL     1       5.331   0.353   2.633  1.00  0.00    -0.270 OA
HETATM   19  N4  UNL     1       5.916   0.041   0.453  1.00  0.00    -0.266 N 
ATOM     20  H4  UNL     1       5.625  -0.115  -0.512  1.00  0.00     0.190 HD
BRANCH  19  21
HETATM   21  N5  UNL     1       7.296   0.126   0.738  1.00  0.00    -0.263 N 
HETATM   22  C8  UNL     1       8.248  -0.302  -0.196  1.00  0.00     0.270 C 
HETATM   23  O2  UNL     1       7.827  -0.772  -1.307  1.00  0.00    -0.266 OA
ATOM     24  H5  UNL     1       7.603   0.503   1.634  1.00  0.00     0.190 HD
BRANCH  22  25
HETATM   25  C9  UNL     1       9.689  -0.242   0.027  1.00  0.00     0.033 A 
HETATM   26  C10 UNL     1      10.540  -0.853  -0.872  1.00  0.00     0.020 A 
HETATM   27  C11 UNL     1      11.896  -0.794  -0.669  1.00  0.00     0.037 A 
HETATM   28  C12 UNL     1      12.404  -0.137   0.414  1.00  0.00     0.065 A 
HETATM   29  C13 UNL     1      11.560   0.486   1.332  1.00  0.00     0.037 A 
HETATM   30  C14 UNL     1      10.198   0.421   1.117  1.00  0.00     0.020 A 
BRANCH  28  31
HETATM   31  O3  UNL     1      13.777  -0.066   0.637  1.00  0.00    -0.361 OA
ATOM     32  H3  UNL     1      14.131   0.391   1.391  1.00  0.00     0.217 HD
ENDBRANCH  28  31
ENDBRANCH  22  25
ENDBRANCH  19  21
ENDBRANCH  16  17
ENDBRANCH  14  16
ENDBRANCH  11  14
ENDBRANCH   6   8
ENDBRANCH   2   6
ENDBRANCH   1   2
BRANCH   1  33
HETATM   33  N6  UNL     1      -5.333  -0.986  -1.834  1.00  0.00    -0.055 N 
ATOM     34  H62 UNL     1      -4.741  -1.441  -2.529  1.00  0.00     0.278 HD
ATOM     35  H61 UNL     1      -6.114  -1.642  -1.826  1.00  0.00     0.278 HD
BRANCH  33  36
HETATM   36  C18 UNL     1      -5.757   0.317  -2.289  1.00  0.00     0.235 C 
BRANCH  36  37
HETATM   37  C19 UNL     1      -6.479   0.141  -3.600  1.00  0.00     0.047 C 
BRANCH  37  38
HETATM   38  C20 UNL     1      -5.646  -0.511  -4.652  1.00  0.00     0.127 C 
BRANCH  38  39
HETATM   39  N7  UNL     1      -4.468   0.260  -4.938  1.00  0.00    -0.335 N 
HETATM   40  C21 UNL     1      -3.508  -0.158  -5.912  1.00  0.00     0.283 C 
HETATM   41  O4  UNL     1      -3.735  -1.252  -6.529  1.00  0.00    -0.630 OA
HETATM   42  O5  UNL     1      -2.364   0.543  -6.222  1.00  0.00    -0.630 OA
ATOM     43  H7  UNL     1      -4.312   1.131  -4.431  1.00  0.00     0.165 HD
ENDBRANCH  38  39
ENDBRANCH  37  38
ENDBRANCH  36  37
ENDBRANCH  33  36
ENDBRANCH   1  33
BRANCH   1  44
HETATM   44  C22 UNL     1      -5.580  -0.710   0.591  1.00  0.00     0.274 C 
HETATM   45  O6  UNL     1      -6.805  -0.526   0.361  1.00  0.00    -0.270 OA
HETATM   46  N8  UNL     1      -5.120  -0.692   1.903  1.00  0.00    -0.157 N 
ATOM     47  H8  UNL     1      -4.478  -1.444   2.155  1.00  0.00     0.187 HD
BRANCH  46  48
HETATM   48  C23 UNL     1      -5.391   0.136   2.834  1.00  0.00     0.702 C 
HETATM   49  N9  UNL     1      -4.781  -0.104   4.041  1.00  0.00    -0.020 N 
HETATM   50  C24 UNL     1      -5.277   0.075   5.273  1.00  0.00     0.719 C 
ATOM     51  H9  UNL     1      -3.828  -0.465   3.994  1.00  0.00     0.203 HD
HETATM   52  N11 UNL     1      -6.353   0.793   5.648  1.00  0.00    -0.149 N 
HETATM   53  C25 UNL     1      -7.118   1.590   4.867  1.00  0.00     0.328 C 
ATOM     54  H11 UNL     1      -6.621   0.729   6.630  1.00  0.00     0.188 HD
HETATM   55  O8  UNL     1      -8.072   2.119   5.473  1.00  0.00    -0.261 OA
HETATM   56  C26 UNL     1      -6.947   1.857   3.527  1.00  0.00     0.328 C 
HETATM   57  O9  UNL     1      -7.553   2.884   3.117  1.00  0.00    -0.261 OA
HETATM   58  N12 UNL     1      -6.228   1.174   2.610  1.00  0.00    -0.151 N 
ATOM     59  H12 UNL     1      -6.328   1.475   1.640  1.00  0.00     0.188 HD
BRANCH  50  60
HETATM   60  N10 UNL     1      -4.657  -0.516   6.240  1.00  0.00    -0.098 N 
ATOM     61  H10 UNL     1      -4.990  -0.415   7.199  1.00  0.00     0.213 HD
BRANCH  60  62
HETATM   62  O7  UNL     1      -3.541  -1.286   5.973  1.00  0.00    -0.276 OA
ATOM     63  H7  UNL     1      -3.085  -1.721   6.684  1.00  0.00     0.245 HD
ENDBRANCH  60  62
ENDBRANCH  50  60
ENDBRANCH  46  48
ENDBRANCH   1  44
TORSDOF 19
