REMARK  8 active torsions:
REMARK  status: ('A' for Active; 'I' for Inactive)
REMARK    1  A    between atoms: C2_2  and  C3_3 
REMARK    2  A    between atoms: C3_3  and  C4_4 
REMARK    3  A    between atoms: C4_4  and  C5_5 
REMARK    4  A    between atoms: C5_5  and  N1_6 
REMARK    5  A    between atoms: C5_5  and  C6_10 
REMARK    6  A    between atoms: C5_5  and  C9_13 
REMARK    7  A    between atoms: C6_10  and  C7_11 
REMARK    8  A    between atoms: C9_13  and  N2_14 
ROOT
HETATM    1  C5  UNL     1       0.019   0.427  -0.010  1.00  0.00     0.143 C 
ENDROOT
BRANCH   1   2
HETATM    2  C4  UNL     1      -0.310  -0.881  -0.634  1.00  0.00     0.044 C 
BRANCH   2   3
HETATM    3  C3  UNL     1      -1.772  -1.195  -0.423  1.00  0.00     0.029 C 
BRANCH   3   4
HETATM    4  C2  UNL     1      -2.127  -2.518  -1.032  1.00  0.00    -0.037 C 
HETATM    5  C1  UNL     1      -3.035  -2.630  -1.980  1.00  0.00     0.007 C 
ENDBRANCH   3   4
ENDBRANCH   2   3
ENDBRANCH   1   2
BRANCH   1   6
HETATM    6  N1  UNL     1      -0.270   0.359   1.390  1.00  0.00    -0.069 N 
ATOM      7  H13 UNL     1      -1.231   0.070   1.575  1.00  0.00     0.275 HD
ATOM      8  H12 UNL     1       0.203  -0.420   1.847  1.00  0.00     0.275 HD
ATOM      9  H11 UNL     1      -0.044   1.257   1.818  1.00  0.00     0.275 HD
ENDBRANCH   1   6
BRANCH   1  10
HETATM   10  C6  UNL     1      -0.731   1.531  -0.719  1.00  0.00     0.066 C 
BRANCH  10  11
HETATM   11  C7  UNL     1      -0.464   2.881  -0.168  1.00  0.00    -0.034 C 
HETATM   12  C8  UNL     1      -1.458   3.597   0.342  1.00  0.00     0.007 C 
ENDBRANCH  10  11
ENDBRANCH   1  10
BRANCH   1  13
HETATM   13  C9  UNL     1       1.491   0.782  -0.125  1.00  0.00     0.168 C 
BRANCH  13  14
HETATM   14  N2  UNL     1       2.352  -0.189   0.508  1.00  0.00    -0.349 N 
HETATM   15  C10 UNL     1       2.761  -0.177   1.776  1.00  0.00     0.108 A 
HETATM   16  C11 UNL     1       3.561  -1.274   1.955  1.00  0.00     0.106 A 
HETATM   17  N3  UNL     1       3.608  -1.914   0.778  1.00  0.00    -0.361 N 
HETATM   18  C12 UNL     1       2.866  -1.253  -0.121  1.00  0.00     0.182 A 
ATOM     19  H3  UNL     1       4.128  -2.772   0.595  1.00  0.00     0.166 HD
ENDBRANCH  13  14
ENDBRANCH   1  13
TORSDOF 8
