REMARK  14 active torsions:
REMARK  status: ('A' for Active; 'I' for Inactive)
REMARK    1  A    between atoms: C2_2  and  C3_3 
REMARK    2  A    between atoms: C3_3  and  N1_4 
REMARK    3  A    between atoms: N1_4  and  C5_6 
REMARK    4  A    between atoms: C5_6  and  C6_7 
REMARK    5  A    between atoms: C6_7  and  O1_8 
REMARK    6  A    between atoms: O1_8  and  N2_9 
REMARK    7  A    between atoms: N2_9  and  C7_10 
REMARK    8  A    between atoms: C7_10  and  C8_11 
REMARK    9  A    between atoms: C7_10  and  C15_22 
REMARK   10  A    between atoms: C8_11  and  C9_12 
REMARK   11  A    between atoms: C9_12  and  O2_13 
REMARK   12  A    between atoms: C9_12  and  C10_15 
REMARK   13  A    between atoms: C10_15  and  C11_16 
REMARK   14  A    between atoms: C11_16  and  C12_18 
ROOT
HETATM    1  C15 UNL     1      -1.125  -3.322  -0.988  1.00  0.00     0.110 C 
HETATM    2  C16 UNL     1      -0.038  -4.459  -1.120  1.00  0.00     0.027 C 
HETATM    3  C17 UNL     1      -2.131  -4.060  -0.136  1.00  0.00     0.065 C 
HETATM    4  N3  UNL     1      -2.891  -4.673   0.534  1.00  0.00    -0.197 NA
ENDROOT
BRANCH   1   5
HETATM    5  C7  UNL     1      -0.514  -2.180  -0.305  1.00  0.00     0.126 C 
BRANCH   5   6
HETATM    6  N2  UNL     1       0.768  -1.846  -1.087  1.00  0.00    -0.095 NA
BRANCH   6   7
HETATM    7  O1  UNL     1       1.362  -0.905  -0.362  1.00  0.00    -0.284 OA
BRANCH   7   8
HETATM    8  C6  UNL     1       2.292  -1.389   0.529  1.00  0.00     0.226 C 
BRANCH   8   9
HETATM    9  C5  UNL     1       2.935  -0.245   1.329  1.00  0.00     0.300 C 
BRANCH   9  10
HETATM   10  N1  UNL     1       3.560   0.606   0.361  1.00  0.00     0.089 N 
HETATM   11  C4  UNL     1       4.305  -0.084  -0.637  1.00  0.00     0.310 C 
BRANCH  10  12
HETATM   12  C3  UNL     1       4.220   1.757   0.905  1.00  0.00     0.298 C 
BRANCH  12  13
HETATM   13  C2  UNL     1       4.367   2.864  -0.044  1.00  0.00    -0.007 C 
HETATM   14  C1  UNL     1       5.582   3.308  -0.357  1.00  0.00     0.008 C 
ENDBRANCH  12  13
ENDBRANCH  10  12
ENDBRANCH   9  10
ENDBRANCH   8   9
ENDBRANCH   7   8
ENDBRANCH   6   7
ENDBRANCH   5   6
BRANCH   5  15
HETATM   15  C8  UNL     1      -1.217  -0.881  -0.227  1.00  0.00     0.057 C 
BRANCH  15  16
HETATM   16  C9  UNL     1      -2.530  -0.812   0.426  1.00  0.00     0.126 C 
BRANCH  16  17
HETATM   17  O2  UNL     1      -3.551  -1.521  -0.211  1.00  0.00    -0.395 OA
ATOM     18  H2  UNL     1      -4.401  -1.476   0.212  1.00  0.00     0.210 HD
ENDBRANCH  16  17
BRANCH  16  19
HETATM   19  C10 UNL     1      -3.048   0.568   0.703  1.00  0.00     0.110 C 
BRANCH  19  20
HETATM   20  C11 UNL     1      -3.251   1.405  -0.496  1.00  0.00     0.137 C 
HETATM   21  O3  UNL     1      -3.102   1.022  -1.635  1.00  0.00    -0.297 OA
BRANCH  20  22
HETATM   22  C12 UNL     1      -3.671   2.837  -0.324  1.00  0.00     0.103 C 
HETATM   23  C13 UNL     1      -3.835   3.575  -1.631  1.00  0.00     0.181 C 
HETATM   24  O4  UNL     1      -4.941   4.219  -1.048  1.00  0.00    -0.389 OA
HETATM   25  C14 UNL     1      -5.170   3.030  -0.333  1.00  0.00     0.181 C 
ENDBRANCH  20  22
ENDBRANCH  19  20
ENDBRANCH  16  19
ENDBRANCH  15  16
ENDBRANCH   5  15
ENDBRANCH   1   5
TORSDOF 14
