REMARK  11 active torsions:
REMARK  status: ('A' for Active; 'I' for Inactive)
REMARK    1  A    between atoms: C2_2  and  C3_3 
REMARK    2  A    between atoms: C3_3  and  C4_4 
REMARK    3  A    between atoms: C4_4  and  C5_5 
REMARK    4  A    between atoms: C8_8  and  C9_9 
REMARK    5  A    between atoms: C9_9  and  C10_10 
REMARK    6  A    between atoms: C10_10  and  C11_11 
REMARK    7  A    between atoms: C10_10  and  C12_14 
REMARK    8  A    between atoms: C11_11  and  O1_12 
REMARK    9  A    between atoms: C12_14  and  O2_15 
REMARK   10  A    between atoms: O2_15  and  C13_16 
REMARK   11  A    between atoms: C13_16  and  O3_17 
ROOT
HETATM    1  C9  UNL     1      -0.337  -0.823   0.275  1.00  0.00     0.014 C 
ENDROOT
BRANCH   1   2
HETATM    2  C8  UNL     1      -0.094   0.368  -0.550  1.00  0.00    -0.010 C 
HETATM    3  C5  UNL     1      -1.192   1.317  -0.821  1.00  0.00    -0.010 C 
HETATM    4  C6  UNL     1      -0.650   2.369   0.054  1.00  0.00     0.005 C 
HETATM    5  C7  UNL     1       0.587   1.517   0.234  1.00  0.00     0.005 C 
BRANCH   3   6
HETATM    6  C4  UNL     1      -2.612   0.983  -0.801  1.00  0.00     0.009 C 
BRANCH   6   7
HETATM    7  C3  UNL     1      -3.302   0.541   0.409  1.00  0.00     0.027 C 
BRANCH   7   8
HETATM    8  C2  UNL     1      -4.745   0.273   0.152  1.00  0.00    -0.037 C 
HETATM    9  C1  UNL     1      -5.245   0.426  -1.043  1.00  0.00     0.007 C 
ENDBRANCH   7   8
ENDBRANCH   6   7
ENDBRANCH   3   6
ENDBRANCH   1   2
BRANCH   1  10
HETATM   10  C10 UNL     1       0.790  -1.755   0.455  1.00  0.00     0.033 C 
BRANCH  10  11
HETATM   11  C11 UNL     1       0.396  -2.926   1.394  1.00  0.00     0.170 C 
BRANCH  11  12
HETATM   12  O1  UNL     1       1.442  -3.797   1.567  1.00  0.00    -0.400 OA
ATOM     13  H1  UNL     1       1.201  -4.514   2.142  1.00  0.00     0.209 HD
ENDBRANCH  11  12
ENDBRANCH  10  11
BRANCH  10  14
HETATM   14  C12 UNL     1       2.176  -1.314   0.656  1.00  0.00     0.177 C 
BRANCH  14  15
HETATM   15  O2  UNL     1       2.692  -0.627  -0.443  1.00  0.00    -0.367 OA
BRANCH  15  16
HETATM   16  C13 UNL     1       4.036  -0.312  -0.219  1.00  0.00     0.337 C 
BRANCH  16  17
HETATM   17  O3  UNL     1       4.589   0.318  -1.279  1.00  0.00    -0.372 OA
HETATM   18  C14 UNL     1       4.046   1.501  -1.673  1.00  0.00     0.204 C 
ENDBRANCH  16  17
ENDBRANCH  15  16
ENDBRANCH  14  15
ENDBRANCH  10  14
ENDBRANCH   1  10
TORSDOF 11
