REMARK  13 active torsions:
REMARK  status: ('A' for Active; 'I' for Inactive)
REMARK    1  A    between atoms: C2_2  and  O1_3 
REMARK    2  A    between atoms: O1_3  and  N1_4 
REMARK    3  A    between atoms: C3_6  and  O2_7 
REMARK    4  A    between atoms: C3_6  and  C17_38 
REMARK    5  A    between atoms: O2_7  and  C4_8 
REMARK    6  A    between atoms: C6_11  and  N2_12 
REMARK    7  A    between atoms: C8_14  and  O4_15 
REMARK    8  A    between atoms: C9_17  and  N3_18 
REMARK       I    between atoms: N4_20  and  C10_22 
REMARK       I    between atoms: C10_22  and  N5_24 
REMARK    9  A    between atoms: C16_33  and  O6_34 
REMARK   10  A    between atoms: C17_38  and  N8_39 
REMARK   11  A    between atoms: C17_38  and  C18_43 
REMARK   12  A    between atoms: C18_43  and  S3_44 
REMARK   13  A    between atoms: S3_44  and  C19_45 
ROOT
HETATM    1  C4  UNL     1      -2.231   1.352  -0.363  1.00  0.00     0.343 C 
HETATM    2  O3  UNL     1      -1.723   0.733  -1.503  1.00  0.00    -0.348 OA
HETATM    3  C5  UNL     1      -0.607  -0.021  -1.263  1.00  0.00     0.209 C 
HETATM    4  C6  UNL     1       0.718   0.662  -1.524  1.00  0.00     0.188 C 
HETATM    5  S1  UNL     1       0.444   2.493  -1.448  1.00  0.00    -0.065 SA
HETATM    6  S2  UNL     1      -1.062   2.647   0.116  1.00  0.00    -0.035 SA
ENDROOT
BRANCH   4   7
HETATM    7  N2  UNL     1       1.676   0.385  -0.433  1.00  0.00    -0.316 N 
HETATM    8  C7  UNL     1       2.081   1.212   0.541  1.00  0.00     0.133 A 
HETATM    9  C8  UNL     1       3.006   0.632   1.341  1.00  0.00     0.113 A 
HETATM   10  C9  UNL     1       3.202  -0.666   0.837  1.00  0.00     0.134 A 
HETATM   11  C16 UNL     1       2.368  -0.761  -0.247  1.00  0.00     0.175 A 
BRANCH   9  12
HETATM   12  O4  UNL     1       3.626   1.209   2.437  1.00  0.00    -0.357 OA
ATOM     13  H4  UNL     1       4.275   0.802   2.998  1.00  0.00     0.218 HD
ENDBRANCH   9  12
BRANCH  10  14
HETATM   14  N3  UNL     1       4.127  -1.535   1.443  1.00  0.00    -0.290 N 
HETATM   15  N4  UNL     1       5.268  -1.623   1.039  1.00  0.00    -0.251 N 
HETATM   16  C10 UNL     1       5.931  -0.972  -0.013  1.00  0.00     0.344 C 
ATOM     17  H4  UNL     1       5.847  -2.286   1.554  1.00  0.00     0.191 HD
HETATM   18  O5  UNL     1       5.364  -0.933  -1.119  1.00  0.00    -0.245 OA
HETATM   19  N5  UNL     1       7.200  -0.362   0.111  1.00  0.00    -0.261 N 
HETATM   20  C11 UNL     1       7.962  -0.159   1.337  1.00  0.00     0.195 C 
HETATM   21  C13 UNL     1       8.118   0.107  -0.912  1.00  0.00     0.053 C 
HETATM   22  N6  UNL     1       7.345   0.186   2.574  1.00  0.00    -0.063 NA
HETATM   23  N7  UNL     1       9.230  -0.342   1.049  1.00  0.00    -0.362 N 
HETATM   24  C12 UNL     1       9.364  -0.665  -0.375  1.00  0.00     0.153 C 
ATOM     25  H7  UNL     1      10.001  -0.271   1.712  1.00  0.00     0.162 HD
HETATM   26  C14 UNL     1       8.492   1.543  -0.853  1.00  0.00     0.040 C 
HETATM   27  C15 UNL     1       7.777  -0.388  -2.283  1.00  0.00     0.040 C 
ATOM     28  H3  UNL     1       3.833  -2.103   2.238  1.00  0.00     0.187 HD
ENDBRANCH  10  14
BRANCH  11  29
HETATM   29  O6  UNL     1       2.244  -1.885  -1.066  1.00  0.00    -0.344 OA
ATOM     30  H6  UNL     1       2.730  -2.691  -0.935  1.00  0.00     0.219 HD
ENDBRANCH  11  29
ENDBRANCH   4   7
BRANCH   1  31
HETATM   31  O2  UNL     1      -2.554   0.443   0.624  1.00  0.00    -0.294 OA
BRANCH  31  32
HETATM   32  C3  UNL     1      -3.619  -0.413   0.578  1.00  0.00     0.172 C 
HETATM   33  N1  UNL     1      -4.703   0.118   0.844  1.00  0.00    -0.247 N 
ATOM     34  H1  UNL     1      -5.370  -0.647   0.745  1.00  0.00     0.196 HD
BRANCH  33  35
HETATM   35  O1  UNL     1      -5.428   1.094   1.171  1.00  0.00    -0.279 OA
BRANCH  35  36
HETATM   36  C2  UNL     1      -5.768   1.332   2.598  1.00  0.00     0.197 C 
HETATM   37  C1  UNL     1      -7.261   1.017   2.646  1.00  0.00     0.036 C 
ENDBRANCH  35  36
ENDBRANCH  33  35
BRANCH  32  38
HETATM   38  C17 UNL     1      -3.704  -1.880   0.280  1.00  0.00     0.269 C 
BRANCH  38  39
HETATM   39  N8  UNL     1      -3.634  -2.667   1.472  1.00  0.00    -0.067 N 
ATOM     40  H83 UNL     1      -2.800  -2.446   2.015  1.00  0.00     0.275 HD
ATOM     41  H82 UNL     1      -4.344  -2.383   2.147  1.00  0.00     0.275 HD
ATOM     42  H81 UNL     1      -3.692  -3.665   1.269  1.00  0.00     0.275 HD
ENDBRANCH  38  39
BRANCH  38  43
HETATM   43  C18 UNL     1      -5.115  -2.077  -0.346  1.00  0.00     0.123 C 
BRANCH  43  44
HETATM   44  S3  UNL     1      -5.301  -0.986  -1.777  1.00  0.00    -0.092 SA
BRANCH  44  45
HETATM   45  C19 UNL     1      -6.986  -0.272  -1.762  1.00  0.00     0.136 C 
HETATM   46  N9  UNL     1      -7.234   0.975  -1.734  1.00  0.00    -0.369 N 
HETATM   47  C20 UNL     1      -8.657   1.261  -1.723  1.00  0.00     0.141 C 
ATOM     48  H9  UNL     1      -6.512   1.695  -1.721  1.00  0.00     0.161 HD
HETATM   49  C21 UNL     1      -9.264  -0.079  -1.417  1.00  0.00     0.141 C 
HETATM   50  N10 UNL     1      -8.189  -0.988  -1.729  1.00  0.00    -0.369 N 
ATOM     51  H10 UNL     1      -8.289  -1.989  -1.898  1.00  0.00     0.161 HD
ENDBRANCH  44  45
ENDBRANCH  43  44
ENDBRANCH  38  43
ENDBRANCH  32  38
ENDBRANCH  31  32
ENDBRANCH   1  31
TORSDOF 13
