REMARK  4 active torsions:
REMARK  status: ('A' for Active; 'I' for Inactive)
REMARK    1  A    between atoms: C1_2  and  C2_3 
REMARK       I    between atoms: C1_2  and  N2_16 
REMARK    2  A    between atoms: C2_3  and  C3_4 
REMARK    3  A    between atoms: C3_4  and  N1_5 
REMARK    4  A    between atoms: C9_12  and  O3_13 
ROOT
HETATM    1  N1  UNL     1      -1.545   0.506  -0.618  1.00  0.00     0.098 N 
HETATM    2  C4  UNL     1      -2.634   1.437  -0.639  1.00  0.00     0.280 C 
HETATM    3  C5  UNL     1      -3.922   0.664  -0.706  1.00  0.00     0.040 C 
HETATM    4  C6  UNL     1      -4.379   0.456   0.742  1.00  0.00     0.174 C 
HETATM    5  O2  UNL     1      -3.360   0.693   1.618  1.00  0.00    -0.388 OA
HETATM    6  C7  UNL     1      -2.331  -0.194   1.610  1.00  0.00     0.206 C 
HETATM    7  C8  UNL     1      -1.817  -0.579   0.252  1.00  0.00     0.275 C 
HETATM    8  C9  UNL     1      -2.792  -1.518  -0.467  1.00  0.00     0.154 C 
HETATM    9  C10 UNL     1      -3.730  -0.702  -1.299  1.00  0.00     0.042 C 
ENDROOT
BRANCH   1  10
HETATM   10  C3  UNL     1      -0.268   1.118  -0.530  1.00  0.00     0.282 C 
BRANCH  10  11
HETATM   11  C2  UNL     1       0.903   0.208  -0.508  1.00  0.00     0.133 C 
BRANCH  11  12
HETATM   12  C1  UNL     1       2.147   1.053  -0.417  1.00  0.00     0.221 C 
HETATM   13  O1  UNL     1       2.076   2.302  -0.374  1.00  0.00    -0.273 OA
HETATM   14  N2  UNL     1       3.421   0.437  -0.378  1.00  0.00    -0.352 N 
HETATM   15  C11 UNL     1       3.667  -0.994  -0.420  1.00  0.00     0.126 C 
HETATM   16  C14 UNL     1       4.690   1.116  -0.293  1.00  0.00     0.126 C 
HETATM   17  C12 UNL     1       4.884  -1.140   0.467  1.00  0.00     0.021 C 
HETATM   18  C13 UNL     1       5.700   0.061   0.116  1.00  0.00     0.021 C 
ENDBRANCH  11  12
ENDBRANCH  10  11
ENDBRANCH   1  10
BRANCH   8  19
HETATM   19  O3  UNL     1      -3.406  -2.392   0.397  1.00  0.00    -0.393 OA
ATOM     20  H3  UNL     1      -4.010  -2.974  -0.049  1.00  0.00     0.210 HD
ENDBRANCH   8  19
TORSDOF 4
