REMARK  3 active torsions:
REMARK  status: ('A' for Active; 'I' for Inactive)
REMARK    1  A    between atoms: N1_1  and  C1_4 
REMARK    2  A    between atoms: C1_4  and  C2_5 
REMARK    3  A    between atoms: C2_5  and  C3_6 
ROOT
HETATM    1  C3  UNL     1       0.942  -0.115   0.608  1.00  0.00     0.003 C 
HETATM    2  C4  UNL     1       0.767   1.153  -0.170  1.00  0.00     0.036 C 
HETATM    3  C5  UNL     1      -0.584   1.744  -0.123  1.00  0.00     0.272 C 
HETATM    4  N2  UNL     1      -1.670   0.836  -0.011  1.00  0.00     0.088 N 
HETATM    5  C6  UNL     1      -1.818   0.209   1.259  1.00  0.00     0.272 C 
HETATM    6  C7  UNL     1      -1.162  -1.158   1.316  1.00  0.00     0.035 C 
HETATM    7  C8  UNL     1      -0.078  -1.167   0.261  1.00  0.00    -0.006 C 
HETATM    8  C9  UNL     1      -0.626  -1.035  -1.129  1.00  0.00     0.035 C 
HETATM    9  C10 UNL     1      -1.745  -0.035  -1.137  1.00  0.00     0.272 C 
ENDROOT
BRANCH   1  10
HETATM   10  C2  UNL     1       2.271  -0.688   0.398  1.00  0.00     0.109 C 
BRANCH  10  11
HETATM   11  C1  UNL     1       2.917  -0.319  -0.699  1.00  0.00    -0.077 C 
BRANCH  11  12
HETATM   12  N1  UNL     1       3.615   0.213  -1.619  1.00  0.00    -0.370 N 
ATOM     13  H12 UNL     1       3.896   0.943  -0.964  1.00  0.00     0.165 HD
ATOM     14  H11 UNL     1       4.112   0.497  -2.463  1.00  0.00     0.165 HD
ENDBRANCH  11  12
ENDBRANCH  10  11
ENDBRANCH   1  10
TORSDOF 3
