REMARK  4 active torsions:
REMARK  status: ('A' for Active; 'I' for Inactive)
REMARK    1  A    between atoms: N1_1  and  C1_4 
REMARK    2  A    between atoms: C2_7  and  N3_8 
REMARK    3  A    between atoms: C3_14  and  N6_15 
REMARK    4  A    between atoms: C7_22  and  N8_23 
ROOT
HETATM    1  C1  UNL     1       4.317  -0.220  -0.763  1.00  0.00     0.159 A 
HETATM    2  N2  UNL     1       4.064   0.249   0.463  1.00  0.00    -0.169 N 
ATOM      3  H2  UNL     1       4.882   0.463   1.034  1.00  0.00     0.186 HD
HETATM    4  C2  UNL     1       2.891   0.472   1.032  1.00  0.00     0.700 A 
HETATM    5  N4  UNL     1       1.674   0.273   0.495  1.00  0.00    -0.075 N 
HETATM    6  N5  UNL     1       0.442   0.481   1.023  1.00  0.00    -0.261 N 
ATOM      7  H5  UNL     1       0.263   0.840   1.961  1.00  0.00     0.190 HD
HETATM    8  C3  UNL     1      -0.507   0.147   0.137  1.00  0.00     0.157 A 
HETATM    9  C7  UNL     1       0.108  -0.292  -1.006  1.00  0.00     0.184 A 
HETATM   10  C8  UNL     1       1.479  -0.198  -0.740  1.00  0.00     0.155 A 
HETATM   11  S1  UNL     1       2.888  -0.550  -1.645  1.00  0.00    -0.031 SA
ENDROOT
BRANCH   8  12
HETATM   12  N6  UNL     1      -1.905   0.220   0.313  1.00  0.00    -0.339 N 
HETATM   13  C4  UNL     1      -2.908   0.957  -0.407  1.00  0.00     0.154 C 
HETATM   14  C5  UNL     1      -4.147   0.127  -0.229  1.00  0.00     0.254 C 
HETATM   15  N7  UNL     1      -3.791  -0.967   0.654  1.00  0.00    -0.058 N 
HETATM   16  C6  UNL     1      -2.595  -0.511   1.354  1.00  0.00     0.358 C 
ATOM     17  H72 UNL     1      -4.546  -1.261   1.274  1.00  0.00     0.279 HD
ATOM     18  H71 UNL     1      -3.676  -1.862   0.178  1.00  0.00     0.279 HD
ENDBRANCH   8  12
BRANCH   9  19
HETATM   19  N8  UNL     1      -0.396  -0.757  -2.229  1.00  0.00    -0.109 N 
HETATM   20  O1  UNL     1      -0.906  -1.909  -2.241  1.00  0.00    -0.532 OA
HETATM   21  O2  UNL     1      -0.387  -0.082  -3.411  1.00  0.00    -0.532 OA
ENDBRANCH   9  19
BRANCH   4  22
HETATM   22  N3  UNL     1       2.875   0.942   2.264  1.00  0.00    -0.233 N 
ATOM     23  H32 UNL     1       3.798   1.093   2.671  1.00  0.00     0.174 HD
ATOM     24  H31 UNL     1       1.970   1.114   2.703  1.00  0.00     0.174 HD
ENDBRANCH   4  22
BRANCH   1  25
HETATM   25  N1  UNL     1       5.519  -0.377  -1.157  1.00  0.00    -0.379 N 
ATOM     26  H12 UNL     1       6.371  -0.180  -0.631  1.00  0.00     0.158 HD
ATOM     27  H11 UNL     1       5.712  -0.735  -2.092  1.00  0.00     0.158 HD
ENDBRANCH   1  25
TORSDOF 4
