REMARK  10 active torsions:
REMARK  status: ('A' for Active; 'I' for Inactive)
REMARK    1  A    between atoms: C2_2  and  O1_3 
REMARK    2  A    between atoms: O1_3  and  C3_4 
REMARK    3  A    between atoms: C4_5  and  O2_6 
REMARK    4  A    between atoms: C6_8  and  O3_9 
REMARK    5  A    between atoms: C7_11  and  O4_12 
REMARK    6  A    between atoms: C10_17  and  O5_18 
REMARK    7  A    between atoms: C10_17  and  C11_20 
REMARK    8  A    between atoms: C11_20  and  O6_21 
REMARK    9  A    between atoms: O6_21  and  C12_22 
REMARK   10  A    between atoms: C12_22  and  C13_24 
ROOT
HETATM    1  C3  UNL     1      -2.681  -0.276   0.163  1.00  0.00     0.122 A 
HETATM    2  C4  UNL     1      -3.409   0.792   0.615  1.00  0.00     0.139 A 
HETATM    3  C6  UNL     1      -2.915   2.054   0.440  1.00  0.00     0.136 A 
HETATM    4  C7  UNL     1      -1.675   2.300  -0.195  1.00  0.00     0.117 A 
HETATM    5  C8  UNL     1      -0.922   1.217  -0.661  1.00  0.00     0.074 A 
HETATM    6  C9  UNL     1      -1.467  -0.040  -0.459  1.00  0.00     0.057 A 
HETATM    7  S1  UNL     1      -0.591  -1.527  -1.019  1.00  0.00    -0.077 SA
HETATM    8  C10 UNL     1       1.202  -0.961  -1.125  1.00  0.00     0.202 C 
HETATM    9  C16 UNL     1       1.152   0.323  -1.806  1.00  0.00     0.247 C 
HETATM   10  O8  UNL     1       1.836   0.461  -2.879  1.00  0.00    -0.284 OA
HETATM   11  C17 UNL     1       0.357   1.442  -1.316  1.00  0.00     0.236 C 
HETATM   12  O9  UNL     1       0.817   2.627  -1.480  1.00  0.00    -0.283 OA
ENDROOT
BRANCH   8  13
HETATM   13  O5  UNL     1       1.767  -1.986  -1.903  1.00  0.00    -0.370 OA
ATOM     14  H5  UNL     1       2.671  -1.700  -1.956  1.00  0.00     0.212 HD
ENDBRANCH   8  13
BRANCH   8  15
HETATM   15  C11 UNL     1       1.671  -1.005   0.289  1.00  0.00     0.237 C 
BRANCH  15  16
HETATM   16  O6  UNL     1       3.015  -0.993   0.548  1.00  0.00    -0.317 OA
BRANCH  16  17
HETATM   17  C12 UNL     1       3.964  -0.070   0.336  1.00  0.00     0.262 C 
HETATM   18  O7  UNL     1       3.674   1.024  -0.182  1.00  0.00    -0.265 OA
BRANCH  17  19
HETATM   19  C13 UNL     1       5.413  -0.268   0.694  1.00  0.00     0.077 C 
HETATM   20  C14 UNL     1       5.892  -1.468  -0.094  1.00  0.00     0.020 C 
HETATM   21  C15 UNL     1       6.191   0.983   0.388  1.00  0.00     0.020 C 
ENDBRANCH  17  19
ENDBRANCH  16  17
ENDBRANCH  15  16
ENDBRANCH   8  15
BRANCH   1  22
HETATM   22  O1  UNL     1      -3.156  -1.584   0.325  1.00  0.00    -0.347 OA
BRANCH  22  23
HETATM   23  C2  UNL     1      -3.951  -2.251  -0.599  1.00  0.00     0.171 C 
HETATM   24  C1  UNL     1      -5.261  -1.610  -0.904  1.00  0.00     0.034 C 
ENDBRANCH  22  23
ENDBRANCH   1  22
BRANCH   2  25
HETATM   25  O2  UNL     1      -4.628   0.591   1.242  1.00  0.00    -0.351 OA
HETATM   26  C5  UNL     1      -4.731   0.413   2.636  1.00  0.00     0.210 C 
ENDBRANCH   2  25
BRANCH   4  27
HETATM   27  O4  UNL     1      -1.324   3.594  -0.293  1.00  0.00    -0.357 OA
ATOM     28  H4  UNL     1      -0.491   3.759  -0.719  1.00  0.00     0.217 HD
ENDBRANCH   4  27
BRANCH   3  29
HETATM   29  O3  UNL     1      -3.679   3.116   0.911  1.00  0.00    -0.356 OA
ATOM     30  H3  UNL     1      -3.336   3.993   0.789  1.00  0.00     0.218 HD
ENDBRANCH   3  29
TORSDOF 10
