REMARK  10 active torsions:
REMARK  status: ('A' for Active; 'I' for Inactive)
REMARK    1  A    between atoms: O1_2  and  N1_3 
REMARK    2  A    between atoms: C2_5  and  C3_6 
REMARK    3  A    between atoms: C4_8  and  C5_9 
REMARK    4  A    between atoms: C6_10  and  C7_11 
REMARK    5  A    between atoms: C7_11  and  N2_12 
REMARK    6  A    between atoms: C12_18  and  O4_19 
REMARK    7  A    between atoms: C14_22  and  O5_23 
REMARK    8  A    between atoms: C15_26  and  C16_27 
REMARK    9  A    between atoms: C18_30  and  O8_31 
REMARK   10  A    between atoms: C21_34  and  O9_35 
ROOT
HETATM    1  C5  UNL     1      -0.229  -0.812  -0.381  1.00  0.00     0.043 A 
HETATM    2  C6  UNL     1      -1.372  -0.174   0.004  1.00  0.00     0.009 A 
HETATM    3  C12 UNL     1      -2.614  -0.802  -0.118  1.00  0.00     0.090 A 
HETATM    4  C13 UNL     1      -2.707  -2.068  -0.619  1.00  0.00     0.072 A 
HETATM    5  C14 UNL     1      -3.755  -2.946  -0.831  1.00  0.00     0.198 A 
HETATM    6  O6  UNL     1      -3.275  -4.045  -1.305  1.00  0.00    -0.283 OA
HETATM    7  C15 UNL     1      -1.943  -3.991  -1.439  1.00  0.00     0.130 A 
HETATM    8  C17 UNL     1      -1.546  -2.760  -1.026  1.00  0.00     0.053 A 
HETATM    9  C18 UNL     1      -0.367  -2.114  -0.901  1.00  0.00     0.096 A 
ENDROOT
BRANCH   1  10
HETATM   10  C4  UNL     1       1.113  -0.242  -0.283  1.00  0.00     0.092 A 
HETATM   11  O2  UNL     1       2.216  -0.999  -0.230  1.00  0.00    -0.305 OA
HETATM   12  C3  UNL     1       3.316  -0.285  -0.148  1.00  0.00     0.126 A 
HETATM   13  C21 UNL     1       2.971   1.012  -0.145  1.00  0.00     0.103 A 
HETATM   14  C20 UNL     1       1.553   1.020  -0.233  1.00  0.00     0.077 A 
BRANCH  12  15
HETATM   15  C2  UNL     1       4.662  -0.841  -0.075  1.00  0.00     0.154 C 
HETATM   16  N1  UNL     1       5.703  -0.228   0.005  1.00  0.00    -0.276 N 
ATOM     17  H1  UNL     1       6.466  -0.904   0.040  1.00  0.00     0.193 HD
BRANCH  16  18
HETATM   18  O1  UNL     1       6.225   0.978   0.064  1.00  0.00    -0.286 OA
HETATM   19  C1  UNL     1       7.618   1.263  -0.077  1.00  0.00     0.237 C 
ENDBRANCH  16  18
ENDBRANCH  12  15
BRANCH  13  20
HETATM   20  O9  UNL     1       3.770   2.124  -0.073  1.00  0.00    -0.358 OA
ATOM     21  H9  UNL     1       3.526   3.042  -0.071  1.00  0.00     0.217 HD
ENDBRANCH  13  20
ENDBRANCH   1  10
BRANCH   2  22
HETATM   22  C7  UNL     1      -1.350   1.192   0.500  1.00  0.00     0.159 C 
BRANCH  22  23
HETATM   23  N2  UNL     1      -2.558   1.710   1.031  1.00  0.00    -0.404 N 
HETATM   24  C8  UNL     1      -2.857   1.346   2.400  1.00  0.00     0.143 C 
HETATM   25  C9  UNL     1      -2.290   2.470   3.280  1.00  0.00     0.187 C 
HETATM   26  O3  UNL     1      -1.378   3.258   2.586  1.00  0.00    -0.388 OA
HETATM   27  C10 UNL     1      -1.986   3.968   1.555  1.00  0.00     0.187 C 
HETATM   28  C11 UNL     1      -2.849   3.058   0.693  1.00  0.00     0.143 C 
ENDBRANCH  22  23
ENDBRANCH   2  22
BRANCH   9  29
HETATM   29  O8  UNL     1       0.835  -2.728  -1.322  1.00  0.00    -0.354 OA
HETATM   30  C19 UNL     1       1.261  -2.363  -2.684  1.00  0.00     0.210 C 
ENDBRANCH   9  29
BRANCH   3  31
HETATM   31  O4  UNL     1      -3.777  -0.185   0.244  1.00  0.00    -0.359 OA
ATOM     32  H4  UNL     1      -4.622  -0.612   0.161  1.00  0.00     0.217 HD
ENDBRANCH   3  31
BRANCH   7  33
HETATM   33  C16 UNL     1      -1.172  -5.110  -1.937  1.00  0.00     0.296 C 
HETATM   34  O7  UNL     1       0.035  -5.239  -2.025  1.00  0.00    -0.299 OA
ENDBRANCH   7  33
BRANCH   5  35
HETATM   35  O5  UNL     1      -5.103  -2.653  -0.563  1.00  0.00    -0.340 OA
ATOM     36  H5  UNL     1      -5.823  -3.256  -0.709  1.00  0.00     0.220 HD
ENDBRANCH   5  35
TORSDOF 10
