REMARK  9 active torsions:
REMARK  status: ('A' for Active; 'I' for Inactive)
REMARK    1  A    between atoms: C2_2  and  C3_3 
REMARK    2  A    between atoms: C3_3  and  N1_4 
REMARK       I    between atoms: N1_4  and  C4_6 
REMARK       I    between atoms: C4_6  and  N2_8 
REMARK    3  A    between atoms: N2_8  and  N3_10 
REMARK       I    between atoms: N3_10  and  C5_12 
REMARK    4  A    between atoms: C5_12  and  O3_14 
REMARK    5  A    between atoms: O3_14  and  N4_15 
REMARK    6  A    between atoms: C6_17  and  C7_18 
REMARK    7  A    between atoms: C6_17  and  C9_20 
REMARK    8  A    between atoms: N7_24  and  C10_25 
REMARK    9  A    between atoms: C11_31  and  N10_32 
ROOT
HETATM    1  N4  UNL     1       0.873  -2.278   0.235  1.00  0.00    -0.253 N 
ATOM      2  H4  UNL     1       0.429  -3.166   0.001  1.00  0.00     0.195 HD
HETATM    3  C6  UNL     1       2.118  -2.148   0.080  1.00  0.00     0.100 C 
ENDROOT
BRANCH   3   4
HETATM    4  C7  UNL     1       2.886  -3.268  -0.427  1.00  0.00     0.025 C 
HETATM    5  C8  UNL     1       2.354  -4.430  -0.739  1.00  0.00     0.014 C 
ENDBRANCH   3   4
BRANCH   3   6
HETATM    6  C9  UNL     1       2.808  -0.914   0.400  1.00  0.00     0.163 A 
HETATM    7  N5  UNL     1       2.319   0.238   0.889  1.00  0.00    -0.265 N 
HETATM    8  N6  UNL     1       3.324   1.101   1.020  1.00  0.00     0.004 NA
ATOM      9  H5  UNL     1       1.343   0.420   1.121  1.00  0.00     0.186 HD
HETATM   10  N7  UNL     1       4.463   0.550   0.630  1.00  0.00    -0.156 N 
HETATM   11  N11 UNL     1       4.149  -0.671   0.255  1.00  0.00    -0.261 N 
ATOM     12  H11 UNL     1       4.820  -1.352  -0.100  1.00  0.00     0.190 HD
BRANCH  10  13
HETATM   13  C10 UNL     1       5.736   1.187   0.628  1.00  0.00     0.210 A 
HETATM   14  N8  UNL     1       6.606   1.304   1.625  1.00  0.00    -0.219 N 
HETATM   15  O4  UNL     1       7.661   1.961   1.216  1.00  0.00    -0.153 OA
ATOM     16  H8  UNL     1       6.472   0.937   2.567  1.00  0.00     0.198 HD
HETATM   17  N9  UNL     1       7.550   2.300  -0.025  1.00  0.00    -0.222 N 
HETATM   18  C11 UNL     1       6.349   1.839  -0.461  1.00  0.00     0.170 A 
ATOM     19  H9  UNL     1       8.236   2.817  -0.575  1.00  0.00     0.198 HD
BRANCH  18  20
HETATM   20  N10 UNL     1       5.794   1.916  -1.564  1.00  0.00    -0.381 N 
ATOM     21 2H10 UNL     1       4.892   1.570  -1.891  1.00  0.00     0.157 HD
ATOM     22 1H10 UNL     1       6.238   2.388  -2.352  1.00  0.00     0.157 HD
ENDBRANCH  18  20
ENDBRANCH  10  13
ENDBRANCH   3   6
BRANCH   1  23
HETATM   23  O3  UNL     1       0.106  -1.249   0.712  1.00  0.00    -0.179 OA
BRANCH  23  24
HETATM   24  C5  UNL     1      -1.065  -0.936  -0.013  1.00  0.00     0.401 C 
HETATM   25  N3  UNL     1      -1.939   0.095   0.373  1.00  0.00    -0.240 N 
ATOM     26  H3  UNL     1      -1.741   0.650   1.206  1.00  0.00     0.192 HD
HETATM   27  O2  UNL     1      -1.325  -1.612  -1.039  1.00  0.00    -0.235 OA
BRANCH  25  28
HETATM   28  N2  UNL     1      -3.072   0.353  -0.385  1.00  0.00    -0.247 N 
HETATM   29  C4  UNL     1      -4.410   0.178   0.039  1.00  0.00     0.335 C 
HETATM   30  N1  UNL     1      -5.464   0.483  -0.853  1.00  0.00    -0.338 N 
HETATM   31  O1  UNL     1      -4.646  -0.240   1.182  1.00  0.00    -0.246 OA
ATOM     32  H1  UNL     1      -5.245   0.816  -1.792  1.00  0.00     0.164 HD
ATOM     33  H2  UNL     1      -2.927   0.700  -1.333  1.00  0.00     0.192 HD
BRANCH  30  34
HETATM   34  C3  UNL     1      -6.822   0.335  -0.466  1.00  0.00     0.151 C 
BRANCH  34  35
HETATM   35  C2  UNL     1      -7.221   1.249   0.602  1.00  0.00    -0.018 C 
HETATM   36  C1  UNL     1      -6.462   2.183   1.120  1.00  0.00     0.008 C 
ENDBRANCH  34  35
ENDBRANCH  30  34
ENDBRANCH  25  28
ENDBRANCH  23  24
ENDBRANCH   1  23
TORSDOF 9
