REMARK  9 active torsions:
REMARK  status: ('A' for Active; 'I' for Inactive)
REMARK    1  A    between atoms: C2_2  and  C3_3 
REMARK    2  A    between atoms: C3_3  and  C4_4 
REMARK    3  A    between atoms: C4_4  and  C5_5 
REMARK    4  A    between atoms: C5_5  and  C6_6 
REMARK    5  A    between atoms: C6_6  and  C7_7 
REMARK    6  A    between atoms: C7_7  and  N1_8 
REMARK       I    between atoms: N1_8  and  C8_10 
REMARK    7  A    between atoms: C8_10  and  S1_12 
REMARK    8  A    between atoms: S1_12  and  S2_13 
REMARK    9  A    between atoms: S2_13  and  C9_14 
REMARK       I    between atoms: C9_14  and  N2_16 
ROOT
HETATM    1  N1  UNL     1      -0.755  -1.297  -0.149  1.00  0.00    -0.351 N 
ATOM      2  H1  UNL     1      -1.024  -2.186  -0.571  1.00  0.00     0.163 HD
HETATM    3  C8  UNL     1      -1.565  -0.763   0.881  1.00  0.00     0.290 C 
HETATM    4  O1  UNL     1      -1.254   0.320   1.408  1.00  0.00    -0.260 OA
ENDROOT
BRANCH   3   5
HETATM    5  S1  UNL     1      -3.009  -1.654   1.398  1.00  0.00     0.013 SA
BRANCH   5   6
HETATM    6  S2  UNL     1      -4.054  -0.661   2.945  1.00  0.00     0.013 SA
BRANCH   6   7
HETATM    7  C9  UNL     1      -5.287   0.467   2.294  1.00  0.00     0.293 C 
HETATM    8  O2  UNL     1      -5.953   1.100   3.170  1.00  0.00    -0.259 OA
HETATM    9  N2  UNL     1      -5.502   0.640   0.908  1.00  0.00    -0.342 N 
HETATM   10  C10 UNL     1      -4.932   0.088  -0.295  1.00  0.00     0.128 C 
HETATM   11  C12 UNL     1      -6.386   1.442   0.098  1.00  0.00     0.128 C 
HETATM   12  C11 UNL     1      -6.079   0.645  -1.140  1.00  0.00     0.040 C 
ENDBRANCH   6   7
ENDBRANCH   5   6
ENDBRANCH   3   5
BRANCH   1  13
HETATM   13  C7  UNL     1       0.430  -0.640  -0.625  1.00  0.00     0.123 C 
BRANCH  13  14
HETATM   14  C6  UNL     1       1.489  -0.437   0.438  1.00  0.00     0.020 C 
BRANCH  14  15
HETATM   15  C5  UNL     1       2.653   0.267  -0.268  1.00  0.00     0.002 C 
BRANCH  15  16
HETATM   16  C4  UNL     1       3.786   0.527   0.699  1.00  0.00     0.000 C 
BRANCH  16  17
HETATM   17  C3  UNL     1       4.886   1.215  -0.054  1.00  0.00    -0.000 C 
BRANCH  17  18
HETATM   18  C2  UNL     1       5.407   0.386  -1.200  1.00  0.00    -0.005 C 
HETATM   19  C1  UNL     1       5.969  -0.931  -0.770  1.00  0.00     0.005 C 
ENDBRANCH  17  18
ENDBRANCH  16  17
ENDBRANCH  15  16
ENDBRANCH  14  15
ENDBRANCH  13  14
ENDBRANCH   1  13
TORSDOF 9
