REMARK  4 active torsions:
REMARK  status: ('A' for Active; 'I' for Inactive)
REMARK    1  A    between atoms: C2_2  and  C3_3 
REMARK    2  A    between atoms: C3_3  and  N1_4 
REMARK    3  A    between atoms: C4_5  and  N2_6 
REMARK    4  A    between atoms: C5_11  and  N4_12 
ROOT
HETATM    1  N1  UNL     1       0.935   0.329  -0.531  1.00  0.00    -0.158 N 
HETATM    2  C4  UNL     1       1.239   1.654  -0.663  1.00  0.00     0.684 A 
HETATM    3  N3  UNL     1       0.411   2.667  -0.487  1.00  0.00    -0.176 N 
ATOM      4  H3  UNL     1       0.749   3.621  -0.613  1.00  0.00     0.186 HD
HETATM    5  C5  UNL     1      -0.861   2.460  -0.147  1.00  0.00     0.129 A 
HETATM    6  C6  UNL     1      -1.269   1.152   0.011  1.00  0.00     0.066 A 
HETATM    7  C7  UNL     1      -2.579   0.870   0.361  1.00  0.00     0.102 A 
HETATM    8  N5  UNL     1      -3.472   1.963   0.552  1.00  0.00    -0.098 NA
HETATM    9  C8  UNL     1      -2.982  -0.439   0.515  1.00  0.00     0.150 A 
HETATM   10  F1  UNL     1      -4.262  -0.722   0.857  1.00  0.00    -0.203 F 
HETATM   11  C9  UNL     1      -2.112  -1.456   0.327  1.00  0.00     0.019 A 
HETATM   12  C10 UNL     1      -2.478  -2.900   0.476  1.00  0.00     0.055 C 
HETATM   13  C11 UNL     1      -0.782  -1.181  -0.028  1.00  0.00     0.154 A 
HETATM   14  F2  UNL     1       0.064  -2.201  -0.216  1.00  0.00    -0.203 F 
HETATM   15  C12 UNL     1      -0.372   0.099  -0.181  1.00  0.00     0.111 A 
ENDROOT
BRANCH   1  16
HETATM   16  C3  UNL     1       1.925  -0.641  -0.755  1.00  0.00     0.088 C 
BRANCH  16  17
HETATM   17  C2  UNL     1       2.785  -0.994   0.457  1.00  0.00     0.041 C 
HETATM   18  C1  UNL     1       3.796  -2.042   0.111  1.00  0.00     0.010 C 
ENDBRANCH  16  17
ENDBRANCH   1  16
BRANCH   2  19
HETATM   19  N2  UNL     1       2.488   1.933  -0.996  1.00  0.00    -0.234 N 
ATOM     20  H22 UNL     1       3.128   1.150  -1.132  1.00  0.00     0.174 HD
ATOM     21  H21 UNL     1       2.715   2.923  -1.095  1.00  0.00     0.174 HD
ENDBRANCH   2  19
BRANCH   5  22
HETATM   22  N4  UNL     1      -1.694   3.427   0.032  1.00  0.00    -0.384 N 
ATOM     23  H42 UNL     1      -1.392   4.394  -0.085  1.00  0.00     0.157 HD
ATOM     24  H41 UNL     1      -2.667   3.269   0.292  1.00  0.00     0.157 HD
ENDBRANCH   5  22
TORSDOF 4
