REMARK  2 active torsions:
REMARK  status: ('A' for Active; 'I' for Inactive)
REMARK    1  A    between atoms: C1_4  and  N2_5 
REMARK    2  A    between atoms: N2_5  and  C2_7 
ROOT
HETATM    1  N2  UNL     1       0.426  -0.409  -0.035  1.00  0.00    -0.358 N 
ATOM      2  H2  UNL     1       0.181  -0.691  -0.984  1.00  0.00     0.162 HD
ENDROOT
BRANCH   1   3
HETATM    3  C1  UNL     1       1.769  -0.497   0.427  1.00  0.00     0.170 C 
HETATM    4  N1  UNL     1       2.532   0.563   0.450  1.00  0.00    -0.395 N 
ATOM      5  H12 UNL     1       2.147   1.452   0.131  1.00  0.00     0.156 HD
ATOM      6  H11 UNL     1       3.495   0.500   0.781  1.00  0.00     0.156 HD
ENDBRANCH   1   3
BRANCH   1   7
HETATM    7  C2  UNL     1      -0.582   0.090   0.873  1.00  0.00     0.245 A 
HETATM    8  C3  UNL     1      -1.993   0.162   0.328  1.00  0.00     0.224 A 
HETATM    9  O1  UNL     1      -1.603  -0.797   1.280  1.00  0.00    -0.360 OA
ENDBRANCH   1   7
TORSDOF 2
