REMARK  6 active torsions:
REMARK  status: ('A' for Active; 'I' for Inactive)
REMARK    1  A    between atoms: N1_1  and  C1_5 
REMARK    2  A    between atoms: C1_5  and  C2_6 
REMARK    3  A    between atoms: C2_6  and  N2_7 
REMARK       I    between atoms: N2_7  and  C3_9 
REMARK    4  A    between atoms: C3_9  and  C4_11 
REMARK    5  A    between atoms: C4_11  and  C5_12 
REMARK    6  A    between atoms: N3_18  and  C10_19 
ROOT
HETATM    1  N2  UNL     1       1.676  -0.392   0.249  1.00  0.00    -0.359 N 
ATOM      2  H2  UNL     1       1.959  -0.774  -0.654  1.00  0.00     0.162 HD
HETATM    3  C3  UNL     1       0.321  -0.554   0.736  1.00  0.00     0.219 C 
HETATM    4  O1  UNL     1       0.065  -0.055   1.851  1.00  0.00    -0.274 OA
ENDROOT
BRANCH   3   5
HETATM    5  C4  UNL     1      -0.680  -1.265  -0.044  1.00  0.00     0.128 C 
BRANCH   5   6
HETATM    6  C5  UNL     1      -2.006  -1.497   0.544  1.00  0.00     0.096 C 
HETATM    7  C6  UNL     1      -1.872  -2.329   1.795  1.00  0.00     0.026 C 
HETATM    8  C7  UNL     1      -3.111  -2.294   2.668  1.00  0.00     0.011 C 
HETATM    9  C8  UNL     1      -3.097  -0.945   3.357  1.00  0.00     0.103 C 
HETATM   10  C9  UNL     1      -2.944   0.064   2.247  1.00  0.00     0.220 C 
HETATM   11  O2  UNL     1      -2.954   1.284   2.591  1.00  0.00    -0.273 OA
HETATM   12  N3  UNL     1      -2.795  -0.316   0.870  1.00  0.00    -0.342 N 
BRANCH  12  13
HETATM   13  C10 UNL     1      -3.459   0.481  -0.106  1.00  0.00     0.087 C 
HETATM   14  C11 UNL     1      -2.559   1.157  -1.122  1.00  0.00     0.025 C 
HETATM   15  C12 UNL     1      -3.257   2.373  -1.719  1.00  0.00     0.002 C 
HETATM   16  C13 UNL     1      -4.691   1.973  -1.973  1.00  0.00     0.000 C 
HETATM   17  C14 UNL     1      -4.823   0.495  -2.186  1.00  0.00     0.002 C 
HETATM   18  C15 UNL     1      -4.495  -0.255  -0.929  1.00  0.00     0.025 C 
ENDBRANCH  12  13
ENDBRANCH   5   6
ENDBRANCH   3   5
BRANCH   1  19
HETATM   19  C2  UNL     1       2.599   0.315   1.067  1.00  0.00     0.161 C 
BRANCH  19  20
HETATM   20  C1  UNL     1       3.974   0.427   0.464  1.00  0.00     0.139 C 
HETATM   21  C16 UNL     1       4.547  -0.929   0.144  1.00  0.00     0.040 C 
HETATM   22  C17 UNL     1       5.811  -0.833  -0.652  1.00  0.00     0.002 C 
HETATM   23  C18 UNL     1       5.678   0.078  -1.852  1.00  0.00     0.000 C 
HETATM   24  C19 UNL     1       5.163   1.453  -1.429  1.00  0.00     0.002 C 
HETATM   25  C20 UNL     1       3.821   1.241  -0.807  1.00  0.00     0.040 C 
BRANCH  20  26
HETATM   26  N1  UNL     1       4.852   1.158   1.355  1.00  0.00    -0.069 N 
ATOM     27  H13 UNL     1       4.469   2.070   1.604  1.00  0.00     0.275 HD
ATOM     28  H12 UNL     1       4.877   0.746   2.288  1.00  0.00     0.275 HD
ATOM     29  H11 UNL     1       5.784   1.234   0.946  1.00  0.00     0.275 HD
ENDBRANCH  20  26
ENDBRANCH  19  20
ENDBRANCH   1  19
TORSDOF 6
