REMARK  14 active torsions:
REMARK  status: ('A' for Active; 'I' for Inactive)
REMARK    1  A    between atoms: C2_2  and  C4_4 
REMARK    2  A    between atoms: C4_4  and  C5_5 
REMARK    3  A    between atoms: C5_5  and  C7_8 
REMARK       I    between atoms: C7_8  and  N1_10 
REMARK       I    between atoms: N1_10  and  C9_12 
REMARK    4  A    between atoms: N3_14  and  C10_16 
REMARK    5  A    between atoms: C10_16  and  C11_17 
REMARK    6  A    between atoms: C11_17  and  C12_18 
REMARK    7  A    between atoms: C12_18  and  C13_19 
REMARK    8  A    between atoms: C13_19  and  C14_20 
REMARK    9  A    between atoms: C14_20  and  C15_21 
REMARK   10  A    between atoms: C15_21  and  N4_22 
REMARK       I    between atoms: N4_22  and  C16_24 
REMARK   11  A    between atoms: C16_24  and  C17_26 
REMARK   12  A    between atoms: C17_26  and  C18_27 
REMARK   13  A    between atoms: C18_27  and  C19_28 
REMARK   14  A    between atoms: C23_32  and  C24_33 
ROOT
HETATM    1  C13 UNL     1       0.254  -1.597  -0.413  1.00  0.00     0.002 C 
ENDROOT
BRANCH   1   2
HETATM    2  C12 UNL     1       0.516  -0.216  -0.909  1.00  0.00     0.002 C 
BRANCH   2   3
HETATM    3  C11 UNL     1       1.996   0.037  -1.023  1.00  0.00     0.020 C 
BRANCH   3   4
HETATM    4  C10 UNL     1       2.666  -0.104   0.320  1.00  0.00     0.122 C 
BRANCH   4   5
HETATM    5  N3  UNL     1       4.084   0.179   0.115  1.00  0.00    -0.364 N 
HETATM    6  C9  UNL     1       4.914  -0.789   0.171  1.00  0.00     0.192 C 
HETATM    7  N1  UNL     1       6.339  -0.631  -0.016  1.00  0.00    -0.295 N 
HETATM    8  N2  UNL     1       4.430  -2.093   0.429  1.00  0.00    -0.063 NA
HETATM    9  C7  UNL     1       6.852   0.660  -0.276  1.00  0.00     0.245 C 
HETATM   10  C8  UNL     1       7.114  -1.840   0.090  1.00  0.00     0.162 C 
HETATM   11  O1  UNL     1       5.962   1.606  -0.328  1.00  0.00    -0.271 OA
ATOM     12  H3  UNL     1       4.404   1.130  -0.069  1.00  0.00     0.162 HD
BRANCH   9  13
HETATM   13  C5  UNL     1       8.269   1.042  -0.490  1.00  0.00     0.096 C 
HETATM   14  C6  UNL     1       8.243   2.512  -0.893  1.00  0.00     0.038 C 
HETATM   15 BR1  UNL     1       8.968   0.098  -2.038  1.00  0.00    -0.075 Br
BRANCH  13  16
HETATM   16  C4  UNL     1       9.056   0.768   0.734  1.00  0.00     0.034 C 
BRANCH  16  17
HETATM   17  C2  UNL     1      10.505   1.106   0.718  1.00  0.00    -0.021 C 
HETATM   18  C1  UNL     1      10.889   2.518   0.499  1.00  0.00     0.009 C 
HETATM   19  C3  UNL     1      11.054   0.675   2.093  1.00  0.00     0.009 C 
ENDBRANCH  16  17
ENDBRANCH  13  16
ENDBRANCH   9  13
ENDBRANCH   4   5
ENDBRANCH   3   4
ENDBRANCH   2   3
ENDBRANCH   1   2
BRANCH   1  20
HETATM   20  C14 UNL     1      -1.246  -1.831  -0.307  1.00  0.00     0.020 C 
BRANCH  20  21
HETATM   21  C15 UNL     1      -1.962  -1.690  -1.601  1.00  0.00     0.122 C 
BRANCH  21  22
HETATM   22  N4  UNL     1      -3.360  -1.938  -1.459  1.00  0.00    -0.361 N 
HETATM   23  C16 UNL     1      -4.192  -1.161  -0.641  1.00  0.00     0.217 C 
HETATM   24  O2  UNL     1      -3.738  -0.177   0.021  1.00  0.00    -0.274 OA
ATOM     25  H4  UNL     1      -3.772  -2.715  -1.976  1.00  0.00     0.162 HD
BRANCH  23  26
HETATM   26  C17 UNL     1      -5.651  -1.441  -0.500  1.00  0.00     0.103 C 
BRANCH  26  27
HETATM   27  C18 UNL     1      -6.255  -0.428   0.443  1.00  0.00     0.014 C 
BRANCH  27  28
HETATM   28  C19 UNL     1      -7.726  -0.726   0.577  1.00  0.00    -0.014 C 
HETATM   29  C20 UNL     1      -8.374   0.257   1.506  1.00  0.00     0.005 C 
HETATM   30  C21 UNL     1      -8.545   1.552   0.772  1.00  0.00     0.001 C 
HETATM   31  C22 UNL     1      -9.952   1.758   0.272  1.00  0.00     0.013 C 
HETATM   32  C23 UNL     1     -10.301   0.887  -0.893  1.00  0.00     0.093 C 
HETATM   33  C25 UNL     1      -9.808  -0.513  -0.827  1.00  0.00     0.014 C 
HETATM   34  C26 UNL     1      -8.335  -0.706  -0.809  1.00  0.00     0.005 C 
BRANCH  32  35
HETATM   35  C24 UNL     1     -10.040   1.563  -2.222  1.00  0.00     0.391 C 
HETATM   36  F1  UNL     1     -10.821   2.727  -2.296  1.00  0.00    -0.171 F 
HETATM   37  F2  UNL     1      -8.741   2.011  -2.360  1.00  0.00    -0.171 F 
HETATM   38  F3  UNL     1     -10.453   0.760  -3.263  1.00  0.00    -0.171 F 
ENDBRANCH  32  35
ENDBRANCH  27  28
ENDBRANCH  26  27
ENDBRANCH  23  26
ENDBRANCH  21  22
ENDBRANCH  20  21
ENDBRANCH   1  20
TORSDOF 14
