REMARK  14 active torsions:
REMARK  status: ('A' for Active; 'I' for Inactive)
REMARK    1  A    between atoms: N1_2  and  C2_3 
REMARK    2  A    between atoms: C2_3  and  C3_4 
REMARK       I    between atoms: C3_4  and  N2_6 
REMARK    3  A    between atoms: N2_6  and  C4_8 
REMARK    4  A    between atoms: C7_12  and  C8_13 
REMARK       I    between atoms: C8_13  and  N3_15 
REMARK    5  A    between atoms: N3_15  and  C9_17 
REMARK    6  A    between atoms: C9_17  and  C10_18 
REMARK    7  A    between atoms: C10_18  and  C11_19 
REMARK    8  A    between atoms: C11_19  and  C12_20 
REMARK    9  A    between atoms: C12_20  and  C13_21 
REMARK   10  A    between atoms: C13_21  and  C14_22 
REMARK   11  A    between atoms: C14_22  and  C15_23 
REMARK   12  A    between atoms: C15_23  and  C16_24 
REMARK   13  A    between atoms: C16_24  and  N4_25 
REMARK   14  A    between atoms: N4_25  and  C19_28 
ROOT
HETATM    1  C8  UNL     1       1.061   2.183  -0.508  1.00  0.00     0.254 C 
HETATM    2  O2  UNL     1       0.475   2.199   0.606  1.00  0.00    -0.268 OA
HETATM    3  N3  UNL     1       0.517   2.791  -1.629  1.00  0.00    -0.357 N 
ATOM      4  H3  UNL     1       1.089   2.769  -2.473  1.00  0.00     0.162 HD
ENDROOT
BRANCH   1   5
HETATM    5  C7  UNL     1       2.372   1.475  -0.548  1.00  0.00     0.073 A 
HETATM    6  C6  UNL     1       2.840   0.781  -1.620  1.00  0.00     0.134 A 
HETATM    7  C5  UNL     1       4.081   0.172  -1.645  1.00  0.00     0.076 A 
HETATM    8  F1  UNL     1       2.010   0.657  -2.717  1.00  0.00    -0.205 F 
HETATM    9  C4  UNL     1       4.910   0.241  -0.573  1.00  0.00     0.076 A 
HETATM   10  C25 UNL     1       4.440   0.954   0.541  1.00  0.00     0.144 A 
HETATM   11  C24 UNL     1       3.206   1.557   0.561  1.00  0.00     0.065 A 
HETATM   12  F4  UNL     1       5.228   1.064   1.664  1.00  0.00    -0.204 F 
BRANCH   9  13
HETATM   13  N2  UNL     1       6.203  -0.325  -0.497  1.00  0.00    -0.320 N 
HETATM   14  C3  UNL     1       6.831  -1.209  -1.382  1.00  0.00     0.269 C 
HETATM   15  O1  UNL     1       6.132  -1.566  -2.410  1.00  0.00    -0.267 OA
ATOM     16  H2  UNL     1       6.755  -0.051   0.316  1.00  0.00     0.169 HD
BRANCH  14  17
HETATM   17  C2  UNL     1       8.145  -1.784  -1.320  1.00  0.00     0.276 C 
BRANCH  17  18
HETATM   18  N1  UNL     1       9.047  -1.477  -0.249  1.00  0.00    -0.046 N 
HETATM   19  C1  UNL     1      10.232  -2.336  -0.638  1.00  0.00     0.278 C 
HETATM   20  C26 UNL     1       8.698  -1.970   1.014  1.00  0.00     0.243 C 
HETATM   21  C27 UNL     1       9.037  -1.295   2.257  1.00  0.00     0.028 C 
HETATM   22  C28 UNL     1      10.480  -0.881   2.439  1.00  0.00     0.002 C 
HETATM   23  C29 UNL     1      10.899   0.277   1.606  1.00  0.00     0.002 C 
HETATM   24  C30 UNL     1       9.759   0.715   0.753  1.00  0.00     0.028 C 
HETATM   25  C31 UNL     1       9.560  -0.170  -0.400  1.00  0.00     0.243 C 
ENDBRANCH  17  18
ENDBRANCH  14  17
ENDBRANCH   9  13
ENDBRANCH   1   5
BRANCH   3  26
HETATM   26  C9  UNL     1      -0.734   3.437  -1.744  1.00  0.00     0.123 C 
BRANCH  26  27
HETATM   27  C10 UNL     1      -1.962   2.630  -1.771  1.00  0.00     0.020 C 
BRANCH  27  28
HETATM   28  C11 UNL     1      -2.272   1.775  -0.622  1.00  0.00     0.002 C 
BRANCH  28  29
HETATM   29  C12 UNL     1      -3.598   1.020  -0.879  1.00  0.00     0.000 C 
BRANCH  29  30
HETATM   30  C13 UNL     1      -4.764   1.913  -1.083  1.00  0.00     0.000 C 
BRANCH  30  31
HETATM   31  C14 UNL     1      -6.037   1.181  -1.362  1.00  0.00     0.002 C 
BRANCH  31  32
HETATM   32  C15 UNL     1      -6.465   0.236  -0.264  1.00  0.00     0.028 C 
BRANCH  32  33
HETATM   33  C16 UNL     1      -7.759  -0.398  -0.748  1.00  0.00     0.237 C 
BRANCH  33  34
HETATM   34  N4  UNL     1      -8.331  -1.337   0.155  1.00  0.00    -0.070 N 
HETATM   35  C17 UNL     1      -9.473  -1.939  -0.523  1.00  0.00     0.272 C 
HETATM   36  C18 UNL     1      -7.396  -2.416   0.423  1.00  0.00     0.272 C 
BRANCH  34  37
HETATM   37  C19 UNL     1      -8.684  -0.727   1.409  1.00  0.00     0.195 C 
HETATM   38  C20 UNL     1      -9.505  -1.660   2.274  1.00  0.00     0.039 C 
HETATM   39  C21 UNL     1     -10.860  -0.980   2.397  1.00  0.00     0.081 C 
HETATM   40  C22 UNL     1     -10.459   0.499   2.409  1.00  0.00     0.245 C 
HETATM   41  F2  UNL     1     -11.540   1.303   2.124  1.00  0.00    -0.206 F 
HETATM   42  F3  UNL     1      -9.903   0.875   3.597  1.00  0.00    -0.206 F 
HETATM   43  C23 UNL     1      -9.484   0.531   1.248  1.00  0.00     0.112 C 
ENDBRANCH  34  37
ENDBRANCH  33  34
ENDBRANCH  32  33
ENDBRANCH  31  32
ENDBRANCH  30  31
ENDBRANCH  29  30
ENDBRANCH  28  29
ENDBRANCH  27  28
ENDBRANCH  26  27
ENDBRANCH   3  26
TORSDOF 14
