REMARK  5 active torsions:
REMARK  status: ('A' for Active; 'I' for Inactive)
REMARK    1  A    between atoms: N1_1  and  C1_5 
REMARK    2  A    between atoms: C1_5  and  C2_6 
REMARK    3  A    between atoms: C2_6  and  O1_7 
REMARK    4  A    between atoms: O1_7  and  C3_8 
REMARK    5  A    between atoms: N2_9  and  N3_10 
ROOT
HETATM    1  C3  UNL     1      -0.884   0.559   0.689  1.00  0.00     0.271 A 
HETATM    2  N2  UNL     1      -1.572  -0.308   0.037  1.00  0.00    -0.147 N 
HETATM    3  N4  UNL     1      -2.659   0.303  -0.593  1.00  0.00     0.018 NA
HETATM    4  N5  UNL     1      -2.604   1.679  -0.362  1.00  0.00    -0.004 NA
HETATM    5  N6  UNL     1      -1.504   1.799   0.509  1.00  0.00    -0.248 N 
ATOM      6  H6  UNL     1      -1.202   2.669   0.947  1.00  0.00     0.187 HD
ENDROOT
BRANCH   1   7
HETATM    7  O1  UNL     1       0.229   0.246   1.398  1.00  0.00    -0.317 OA
BRANCH   7   8
HETATM    8  C2  UNL     1       1.203  -0.692   1.001  1.00  0.00     0.206 C 
BRANCH   8   9
HETATM    9  C1  UNL     1       1.868  -0.339  -0.304  1.00  0.00     0.256 C 
BRANCH   9  10
HETATM   10  N1  UNL     1       2.547   0.966  -0.214  1.00  0.00    -0.077 N 
ATOM     11  H13 UNL     1       1.911   1.701   0.095  1.00  0.00     0.274 HD
ATOM     12  H12 UNL     1       3.206   0.995   0.564  1.00  0.00     0.274 HD
ATOM     13  H11 UNL     1       2.997   1.205  -1.098  1.00  0.00     0.274 HD
ENDBRANCH   9  10
ENDBRANCH   8   9
ENDBRANCH   7   8
ENDBRANCH   1   7
BRANCH   2  14
HETATM   14  N3  UNL     1      -1.263  -1.657  -0.020  1.00  0.00    -0.322 N 
ATOM     15  H32 UNL     1      -0.469  -2.103   0.440  1.00  0.00     0.178 HD
ATOM     16  H31 UNL     1      -1.809  -2.345  -0.538  1.00  0.00     0.178 HD
ENDBRANCH   2  14
TORSDOF 5
