REMARK  4 active torsions:
REMARK  status: ('A' for Active; 'I' for Inactive)
REMARK    1  A    between atoms: C10_10  and  N1_11 
REMARK       I    between atoms: N1_11  and  C11_13 
REMARK    2  A    between atoms: C11_13  and  C12_15 
REMARK    3  A    between atoms: C12_15  and  N2_16 
REMARK       I    between atoms: N2_16  and  C13_18 
REMARK    4  A    between atoms: C13_18  and  C14_20 
ROOT
HETATM    1  N1  UNL     1       0.660  -0.210  -1.238  1.00  0.00    -0.355 N 
ATOM      2  H1  UNL     1       1.300   0.244  -0.586  1.00  0.00     0.162 HD
HETATM    3  C11 UNL     1       1.156  -1.174  -2.132  1.00  0.00     0.235 C 
HETATM    4  O1  UNL     1       0.299  -1.697  -2.916  1.00  0.00    -0.272 OA
ENDROOT
BRANCH   1   5
HETATM    5  C10 UNL     1      -0.737   0.151  -1.224  1.00  0.00     0.087 C 
HETATM    6  C9  UNL     1      -0.833   1.602  -1.630  1.00  0.00     0.025 C 
HETATM    7  C8  UNL     1      -2.231   2.159  -1.405  1.00  0.00     0.005 C 
HETATM    8  C7  UNL     1      -2.526   1.984   0.074  1.00  0.00     0.045 C 
HETATM    9  C6  UNL     1      -2.658   0.499   0.321  1.00  0.00     0.116 C 
HETATM   10  C5  UNL     1      -3.683  -0.127  -0.541  1.00  0.00     0.013 C 
HETATM   11  C18 UNL     1      -1.309  -0.131   0.127  1.00  0.00     0.070 C 
HETATM   12  O4  UNL     1      -3.072   0.330   1.642  1.00  0.00    -0.224 OA
HETATM   13  C4  UNL     1      -4.929  -0.189  -0.100  1.00  0.00     0.012 C 
HETATM   14  C2  UNL     1      -5.277   0.363   1.236  1.00  0.00     0.107 C 
HETATM   15  C1  UNL     1      -5.730  -0.711   2.193  1.00  0.00     0.053 C 
HETATM   16  C3  UNL     1      -6.444   1.306   1.030  1.00  0.00     0.053 C 
HETATM   17  O5  UNL     1      -4.178   1.029   1.778  1.00  0.00    -0.225 OA
ENDBRANCH   1   5
BRANCH   3  18
HETATM   18  C12 UNL     1       2.540  -1.633  -2.254  1.00  0.00     0.225 C 
BRANCH  18  19
HETATM   19  N2  UNL     1       3.489  -1.035  -1.367  1.00  0.00    -0.350 N 
HETATM   20  C13 UNL     1       4.869  -1.381  -1.369  1.00  0.00     0.247 C 
HETATM   21  O2  UNL     1       5.242  -2.256  -2.201  1.00  0.00    -0.271 OA
ATOM     22  H2  UNL     1       3.163  -0.331  -0.705  1.00  0.00     0.163 HD
BRANCH  20  23
HETATM   23  C14 UNL     1       5.779  -0.728  -0.433  1.00  0.00     0.213 C 
HETATM   24  C15 UNL     1       6.404  -1.715   0.562  1.00  0.00     0.043 C 
HETATM   25  C16 UNL     1       6.973  -0.717   1.562  1.00  0.00     0.029 C 
HETATM   26  C17 UNL     1       5.962   0.384   1.497  1.00  0.00     0.168 C 
HETATM   27  O3  UNL     1       5.181   0.189   0.385  1.00  0.00    -0.376 OA
ENDBRANCH  20  23
ENDBRANCH  18  19
ENDBRANCH   3  18
TORSDOF 4
