REMARK  9 active torsions:
REMARK  status: ('A' for Active; 'I' for Inactive)
REMARK    1  A    between atoms: C2_2  and  O1_3 
REMARK    2  A    between atoms: O1_3  and  C3_4 
REMARK    3  A    between atoms: C9_10  and  C10_11 
REMARK    4  A    between atoms: C10_11  and  O2_12 
REMARK    5  A    between atoms: C12_16  and  O4_17 
REMARK    6  A    between atoms: O4_17  and  C13_18 
REMARK    7  A    between atoms: C15_21  and  C16_22 
REMARK    8  A    between atoms: C16_22  and  C17_23 
REMARK    9  A    between atoms: C19_26  and  O7_28 
ROOT
HETATM    1  C3  UNL     1      -2.139   0.531   0.219  1.00  0.00     0.169 C 
HETATM    2  C4  UNL     1      -3.597   0.838  -0.069  1.00  0.00     0.073 C 
HETATM    3  C5  UNL     1      -4.146  -0.593  -0.237  1.00  0.00    -0.013 C 
HETATM    4  C6  UNL     1      -5.512  -0.607  -0.819  1.00  0.00     0.010 C 
HETATM    5  C7  UNL     1      -3.077  -1.016  -1.272  1.00  0.00     0.015 C 
HETATM    6  C8  UNL     1      -1.896  -0.857  -0.356  1.00  0.00     0.062 C 
HETATM    7  C9  UNL     1      -0.560  -0.852  -1.032  1.00  0.00     0.028 C 
HETATM    8  C11 UNL     1      -0.173   0.559  -0.914  1.00  0.00     0.167 C 
HETATM    9  O3  UNL     1      -1.263   1.294  -0.465  1.00  0.00    -0.346 OA
HETATM   10  C12 UNL     1       1.017   0.940  -0.070  1.00  0.00     0.169 C 
HETATM   11  C15 UNL     1       1.697  -0.191   0.571  1.00  0.00     0.059 C 
HETATM   12  C19 UNL     1       1.761  -1.474  -0.236  1.00  0.00     0.068 C 
HETATM   13  C20 UNL     1       2.771  -1.327  -1.308  1.00  0.00     0.047 C 
HETATM   14  C21 UNL     1       0.393  -1.915  -0.586  1.00  0.00    -0.004 C 
HETATM   15  C22 UNL     1      -0.171  -2.568   0.706  1.00  0.00     0.019 C 
HETATM   16  C23 UNL     1       0.470  -3.137  -1.466  1.00  0.00     0.019 C 
ENDROOT
BRANCH  10  17
HETATM   17  O4  UNL     1       1.936   1.687  -0.868  1.00  0.00    -0.313 OA
BRANCH  17  18
HETATM   18  C13 UNL     1       2.211   3.023  -0.721  1.00  0.00     0.255 C 
HETATM   19  C14 UNL     1       3.202   3.732  -1.595  1.00  0.00     0.126 C 
HETATM   20  O5  UNL     1       1.629   3.689   0.164  1.00  0.00    -0.266 OA
ENDBRANCH  17  18
ENDBRANCH  10  17
BRANCH  11  21
HETATM   21  C16 UNL     1       3.073   0.082   1.094  1.00  0.00     0.088 C 
BRANCH  21  22
HETATM   22  C17 UNL     1       3.162   1.092   2.162  1.00  0.00     0.123 C 
HETATM   23  C18 UNL     1       4.476   1.535   2.636  1.00  0.00     0.091 C 
HETATM   24  O6  UNL     1       2.155   1.552   2.644  1.00  0.00    -0.298 OA
ENDBRANCH  21  22
ENDBRANCH  11  21
BRANCH   7  25
HETATM   25  C10 UNL     1      -0.845  -1.100  -2.525  1.00  0.00     0.177 C 
BRANCH  25  26
HETATM   26  O2  UNL     1       0.321  -1.104  -3.286  1.00  0.00    -0.400 OA
ATOM     27  H2  UNL     1       0.145  -1.257  -4.207  1.00  0.00     0.209 HD
ENDBRANCH  25  26
ENDBRANCH   7  25
BRANCH  12  28
HETATM   28  O7  UNL     1       2.332  -2.391   0.691  1.00  0.00    -0.389 OA
ATOM     29  H7  UNL     1       2.372  -3.194   0.186  1.00  0.00     0.210 HD
ENDBRANCH  12  28
BRANCH   1  30
HETATM   30  O1  UNL     1      -1.993   0.499   1.577  1.00  0.00    -0.355 OA
BRANCH  30  31
HETATM   31  C2  UNL     1      -2.093   1.672   2.256  1.00  0.00     0.167 C 
HETATM   32  C1  UNL     1      -1.914   1.514   3.757  1.00  0.00     0.033 C 
ENDBRANCH  30  31
ENDBRANCH   1  30
TORSDOF 9
