REMARK  9 active torsions:
REMARK  status: ('A' for Active; 'I' for Inactive)
REMARK    1  A    between atoms: O1_2  and  C2_3 
REMARK       I    between atoms: C2_3  and  N1_5 
REMARK    2  A    between atoms: N1_5  and  C3_7 
REMARK    3  A    between atoms: C3_7  and  C4_8 
REMARK    4  A    between atoms: C4_8  and  O3_9 
REMARK    5  A    between atoms: O3_9  and  N2_10 
REMARK    6  A    between atoms: C9_16  and  O4_17 
REMARK    7  A    between atoms: O4_17  and  C10_18 
REMARK    8  A    between atoms: C10_18  and  C11_20 
REMARK    9  A    between atoms: C11_20  and  O6_21 
ROOT
HETATM    1  N2  UNL     1       2.128  -1.619   1.357  1.00  0.00    -0.275 N 
ATOM      2  H2  UNL     1       2.335  -2.508   1.813  1.00  0.00     0.193 HD
HETATM    3  C5  UNL     1       0.932  -1.517   1.066  1.00  0.00     0.011 C 
HETATM    4  C6  UNL     1       0.313  -0.350   0.395  1.00  0.00     0.059 C 
HETATM    5  C7  UNL     1      -1.042  -0.128   0.963  1.00  0.00    -0.002 C 
HETATM    6  C8  UNL     1      -1.258   1.361   1.064  1.00  0.00     0.038 C 
HETATM    7  C9  UNL     1      -1.334   1.876  -0.355  1.00  0.00     0.132 C 
HETATM    8  C12 UNL     1      -2.469   1.240  -1.029  1.00  0.00     0.037 C 
HETATM    9  C13 UNL     1      -2.554  -0.243  -1.022  1.00  0.00    -0.011 C 
HETATM   10  C14 UNL     1      -4.020  -0.539  -1.386  1.00  0.00     0.010 C 
HETATM   11  C15 UNL     1      -2.177  -0.852   0.309  1.00  0.00    -0.001 C 
HETATM   12  C16 UNL     1      -2.106  -2.302   0.386  1.00  0.00    -0.001 C 
HETATM   13  C17 UNL     1      -2.863  -3.089  -0.637  1.00  0.00     0.006 C 
HETATM   14  C18 UNL     1      -2.508  -4.522  -0.258  1.00  0.00     0.001 C 
HETATM   15  C19 UNL     1      -1.317  -4.449   0.653  1.00  0.00     0.010 C 
HETATM   16  C20 UNL     1      -0.801  -3.020   0.361  1.00  0.00    -0.035 C 
HETATM   17  C21 UNL     1      -0.093  -3.092  -0.931  1.00  0.00     0.016 C 
HETATM   18  C22 UNL     1       0.126  -2.733   1.483  1.00  0.00     0.064 C 
ENDROOT
BRANCH   1  19
HETATM   19  O3  UNL     1       3.222  -0.856   1.225  1.00  0.00    -0.279 OA
BRANCH  19  20
HETATM   20  C4  UNL     1       4.339  -1.224   0.482  1.00  0.00     0.220 C 
BRANCH  20  21
HETATM   21  C3  UNL     1       5.486  -0.295   0.459  1.00  0.00     0.153 C 
BRANCH  21  22
HETATM   22  N1  UNL     1       5.259   1.009  -0.063  1.00  0.00    -0.335 N 
HETATM   23  C2  UNL     1       4.408   2.007   0.446  1.00  0.00     0.360 C 
HETATM   24  O2  UNL     1       3.727   1.829   1.479  1.00  0.00    -0.239 OA
ATOM     25  H1  UNL     1       5.776   1.249  -0.909  1.00  0.00     0.164 HD
BRANCH  23  26
HETATM   26  O1  UNL     1       4.316   3.250  -0.225  1.00  0.00    -0.309 OA
HETATM   27  C1  UNL     1       3.459   4.217   0.323  1.00  0.00     0.215 C 
ENDBRANCH  23  26
ENDBRANCH  21  22
ENDBRANCH  20  21
ENDBRANCH  19  20
ENDBRANCH   1  19
BRANCH   7  28
HETATM   28  O4  UNL     1      -1.664   3.270  -0.210  1.00  0.00    -0.314 OA
BRANCH  28  29
HETATM   29  C10 UNL     1      -0.827   4.256  -0.698  1.00  0.00     0.282 C 
HETATM   30  O5  UNL     1       0.226   3.821  -1.272  1.00  0.00    -0.263 OA
BRANCH  29  31
HETATM   31  C11 UNL     1      -1.099   5.713  -0.582  1.00  0.00     0.275 C 
BRANCH  31  32
HETATM   32  O6  UNL     1      -0.039   6.413  -1.192  1.00  0.00    -0.391 OA
ATOM     33  H6  UNL     1      -0.213   7.344  -1.118  1.00  0.00     0.210 HD
ENDBRANCH  31  32
ENDBRANCH  29  31
ENDBRANCH  28  29
ENDBRANCH   7  28
TORSDOF 9
