REMARK  13 active torsions:
REMARK  status: ('A' for Active; 'I' for Inactive)
REMARK    1  A    between atoms: O1_2  and  C2_3 
REMARK    2  A    between atoms: C6_10  and  O3_11 
REMARK    3  A    between atoms: C7_13  and  C8_14 
REMARK    4  A    between atoms: C9_15  and  C10_16 
REMARK    5  A    between atoms: C10_16  and  C11_17 
REMARK    6  A    between atoms: C11_17  and  C12_18 
REMARK    7  A    between atoms: C12_18  and  N2_19 
REMARK    8  A    between atoms: C14_21  and  O4_22 
REMARK    9  A    between atoms: C15_24  and  O5_25 
REMARK   10  A    between atoms: C16_27  and  O6_28 
REMARK   11  A    between atoms: C17_30  and  O7_31 
REMARK   12  A    between atoms: O7_31  and  C18_32 
REMARK   13  A    between atoms: C18_32  and  C19_33 
ROOT
HETATM    1  N2  UNL     1      -1.681   0.478  -0.610  1.00  0.00    -0.363 N 
HETATM    2  C13 UNL     1      -1.423   1.824  -0.651  1.00  0.00     0.159 C 
HETATM    3  C14 UNL     1      -2.722   2.649  -0.652  1.00  0.00     0.167 C 
HETATM    4  C15 UNL     1      -3.582   2.260  -1.801  1.00  0.00     0.181 C 
HETATM    5  C16 UNL     1      -3.199   0.904  -2.364  1.00  0.00     0.198 C 
HETATM    6  C17 UNL     1      -2.934   0.039  -1.119  1.00  0.00     0.254 C 
ENDROOT
BRANCH   1   7
HETATM    7  C12 UNL     1      -0.841  -0.480  -0.062  1.00  0.00     0.061 C 
BRANCH   7   8
HETATM    8  C11 UNL     1       0.402  -0.785  -0.798  1.00  0.00     0.048 C 
BRANCH   8   9
HETATM    9  C10 UNL     1       1.448   0.241  -1.000  1.00  0.00     0.032 C 
BRANCH   9  10
HETATM   10  C9  UNL     1       2.051   0.829   0.184  1.00  0.00    -0.025 C 
HETATM   11  C8  UNL     1       3.203   0.805   0.697  1.00  0.00     0.013 C 
BRANCH  11  12
HETATM   12  C7  UNL     1       4.510   0.256   0.500  1.00  0.00     0.033 A 
HETATM   13  C2  UNL     1       5.624   0.938   1.054  1.00  0.00     0.083 A 
HETATM   14  C3  UNL     1       6.861   0.395   0.953  1.00  0.00     0.072 A 
HETATM   15  C4  UNL     1       7.117  -0.806   0.332  1.00  0.00     0.096 A 
HETATM   16  N1  UNL     1       7.935  -1.810  -0.092  1.00  0.00    -0.258 N 
HETATM   17  C5  UNL     1       6.069  -1.467  -0.199  1.00  0.00     0.161 A 
HETATM   18  O2  UNL     1       6.900  -2.405  -0.585  1.00  0.00    -0.232 OA
ATOM     19  H1  UNL     1       8.935  -2.007  -0.042  1.00  0.00     0.195 HD
HETATM   20  C6  UNL     1       4.767  -0.943  -0.117  1.00  0.00     0.117 A 
BRANCH  13  21
HETATM   21  O1  UNL     1       5.427   2.148   1.690  1.00  0.00    -0.355 OA
HETATM   22  C1  UNL     1       6.468   2.891   2.268  1.00  0.00     0.210 C 
ENDBRANCH  13  21
BRANCH  20  23
HETATM   23  O3  UNL     1       3.793  -1.735  -0.693  1.00  0.00    -0.357 OA
ATOM     24  H3  UNL     1       2.913  -1.381  -0.638  1.00  0.00     0.217 HD
ENDBRANCH  20  23
ENDBRANCH  11  12
ENDBRANCH   9  10
ENDBRANCH   8   9
ENDBRANCH   7   8
ENDBRANCH   1   7
BRANCH   6  25
HETATM   25  O7  UNL     1      -3.085  -1.279  -1.387  1.00  0.00    -0.361 OA
BRANCH  25  26
HETATM   26  C18 UNL     1      -4.098  -2.023  -0.970  1.00  0.00     0.202 C 
BRANCH  26  27
HETATM   27  C19 UNL     1      -4.390  -2.354   0.424  1.00  0.00     0.145 C 
HETATM   28  C20 UNL     1      -4.558  -1.268   1.427  1.00  0.00     0.036 C 
HETATM   29  C21 UNL     1      -4.787  -2.148   2.679  1.00  0.00     0.029 C 
HETATM   30  C22 UNL     1      -3.863  -3.304   2.362  1.00  0.00     0.168 C 
HETATM   31  O8  UNL     1      -3.386  -3.120   1.064  1.00  0.00    -0.384 OA
ENDBRANCH  26  27
ENDBRANCH  25  26
ENDBRANCH   6  25
BRANCH   3  32
HETATM   32  O4  UNL     1      -3.350   2.454   0.551  1.00  0.00    -0.391 OA
ATOM     33  H4  UNL     1      -4.152   2.963   0.550  1.00  0.00     0.210 HD
ENDBRANCH   3  32
BRANCH   5  34
HETATM   34  O6  UNL     1      -2.042   0.911  -3.109  1.00  0.00    -0.388 OA
ATOM     35  H6  UNL     1      -1.802   0.062  -3.461  1.00  0.00     0.210 HD
ENDBRANCH   5  34
BRANCH   4  36
HETATM   36  O5  UNL     1      -3.559   3.252  -2.757  1.00  0.00    -0.390 OA
ATOM     37  H5  UNL     1      -4.108   3.003  -3.491  1.00  0.00     0.210 HD
ENDBRANCH   4  36
TORSDOF 13
