REMARK  3 active torsions:
REMARK  status: ('A' for Active; 'I' for Inactive)
REMARK    1  A    between atoms: N2_4  and  C1_6 
REMARK    2  A    between atoms: C1_6  and  C2_7 
REMARK    3  A    between atoms: C4_12  and  C5_13 
ROOT
HETATM    1  C2  UNL     1      -0.330   0.521   0.551  1.00  0.00     0.215 C 
HETATM    2  N3  UNL     1       0.062  -0.656   1.303  1.00  0.00    -0.068 N 
ATOM      3  H31 UNL     1      -0.636  -1.239   1.765  1.00  0.00     0.277 HD
ATOM      4  H32 UNL     1       0.552  -0.569   2.193  1.00  0.00     0.277 HD
HETATM    5  C3  UNL     1       0.744  -1.116   0.131  1.00  0.00     0.244 C 
HETATM    6  C4  UNL     1       0.922   0.348  -0.267  1.00  0.00     0.081 C 
ENDROOT
BRANCH   1   7
HETATM    7  C1  UNL     1      -1.584   0.311  -0.227  1.00  0.00     0.172 C 
BRANCH   7   8
HETATM    8  N2  UNL     1      -2.709  -0.023   0.604  1.00  0.00    -0.341 N 
HETATM    9  N1  UNL     1      -3.105  -1.209   0.745  1.00  0.00    -0.349 N 
ATOM     10  H12 UNL     1      -2.602  -1.944   0.248  1.00  0.00     0.176 HD
ATOM     11  H11 UNL     1      -3.903  -1.446   1.334  1.00  0.00     0.176 HD
ATOM     12  H2  UNL     1      -3.201   0.724   1.094  1.00  0.00     0.179 HD
ENDBRANCH   7   8
ENDBRANCH   1   7
BRANCH   6  13
HETATM   13  C5  UNL     1       2.162   0.850   0.333  1.00  0.00     0.061 C 
HETATM   14  N4  UNL     1       3.270   0.573  -0.237  1.00  0.00    -0.411 N 
ATOM     15  H42 UNL     1       3.275   0.014  -1.090  1.00  0.00     0.155 HD
ATOM     16  H41 UNL     1       4.133   0.922   0.180  1.00  0.00     0.155 HD
ENDBRANCH   6  13
TORSDOF 3
