REMARK  10 active torsions:
REMARK  status: ('A' for Active; 'I' for Inactive)
REMARK    1  A    between atoms: C5_9  and  C6_10 
REMARK    2  A    between atoms: C6_10  and  C7_11 
REMARK    3  A    between atoms: C6_10  and  N11_33 
REMARK    4  A    between atoms: C7_11  and  N4_12 
REMARK    5  A    between atoms: C9_14  and  C10_15 
REMARK    6  A    between atoms: C12_19  and  N6_20 
REMARK    7  A    between atoms: N11_33  and  S1_35 
REMARK    8  A    between atoms: S1_35  and  N12_38 
REMARK    9  A    between atoms: N12_38  and  C14_40 
REMARK   10  A    between atoms: C18_47  and  N15_48 
ROOT
HETATM    1  C1  UNL     1      -0.616  -4.676  -1.232  1.00  0.00     0.157 C 
HETATM    2  N1  UNL     1       0.509  -3.902  -1.660  1.00  0.00    -0.346 N 
HETATM    3  C2  UNL     1       1.534  -4.410  -2.397  1.00  0.00     0.133 A 
HETATM    4  C3  UNL     1       2.442  -3.399  -2.636  1.00  0.00     0.131 A 
HETATM    5  C4  UNL     1       3.687  -3.500  -3.385  1.00  0.00     0.119 C 
HETATM    6  N2  UNL     1       4.681  -3.575  -3.973  1.00  0.00    -0.190 NA
HETATM    7  N3  UNL     1       1.945  -2.311  -2.039  1.00  0.00    -0.334 N 
ATOM      8  H3  UNL     1       2.384  -1.391  -2.032  1.00  0.00     0.168 HD
HETATM    9  C5  UNL     1       0.751  -2.624  -1.436  1.00  0.00     0.109 A 
ENDROOT
BRANCH   9  10
HETATM   10  C6  UNL     1       0.023  -1.564  -0.702  1.00  0.00     0.182 C 
BRANCH  10  11
HETATM   11  C7  UNL     1      -1.075  -2.043   0.185  1.00  0.00     0.183 C 
BRANCH  11  12
HETATM   12  N4  UNL     1      -1.776  -0.989   0.889  1.00  0.00    -0.284 N 
HETATM   13  C8  UNL     1      -2.883  -0.313   0.464  1.00  0.00     0.143 A 
HETATM   14  C9  UNL     1      -3.227   0.581   1.419  1.00  0.00     0.082 A 
HETATM   15  N9  UNL     1      -2.293   0.418   2.418  1.00  0.00    -0.284 N 
HETATM   16  N10 UNL     1      -1.480  -0.501   2.062  1.00  0.00    -0.240 N 
ATOM     17  H9  UNL     1      -2.257   0.942   3.293  1.00  0.00     0.188 HD
ATOM     18  H10 UNL     1      -0.692  -0.816   2.628  1.00  0.00     0.208 HD
BRANCH  14  19
HETATM   19  C10 UNL     1      -4.256   1.609   1.512  1.00  0.00     0.053 A 
HETATM   20  C11 UNL     1      -4.034   2.703   2.366  1.00  0.00     0.123 A 
HETATM   21  N5  UNL     1      -4.934   3.685   2.521  1.00  0.00    -0.201 N 
HETATM   22  C12 UNL     1      -6.102   3.648   1.848  1.00  0.00     0.677 A 
ATOM     23  H5  UNL     1      -4.734   4.463   3.150  1.00  0.00     0.183 HD
HETATM   24  N7  UNL     1      -6.353   2.633   1.035  1.00  0.00    -0.176 N 
HETATM   25  C13 UNL     1      -5.440   1.595   0.851  1.00  0.00     0.128 A 
ATOM     26  H7  UNL     1      -7.239   2.610   0.529  1.00  0.00     0.186 HD
HETATM   27  N8  UNL     1      -5.834   0.657   0.103  1.00  0.00    -0.384 N 
ATOM     28  H82 UNL     1      -5.166  -0.102  -0.032  1.00  0.00     0.157 HD
ATOM     29  H81 UNL     1      -6.725   0.646  -0.394  1.00  0.00     0.157 HD
BRANCH  22  30
HETATM   30  N6  UNL     1      -6.963   4.619   2.017  1.00  0.00    -0.234 N 
ATOM     31  H62 UNL     1      -6.770   5.401   2.643  1.00  0.00     0.174 HD
ATOM     32  H61 UNL     1      -7.846   4.591   1.508  1.00  0.00     0.174 HD
ENDBRANCH  22  30
ENDBRANCH  14  19
ENDBRANCH  11  12
ENDBRANCH  10  11
BRANCH  10  33
HETATM   33  N11 UNL     1       0.941  -0.773   0.087  1.00  0.00    -0.289 N 
ATOM     34  H11 UNL     1       1.445  -1.168   0.881  1.00  0.00     0.174 HD
BRANCH  33  35
HETATM   35  S1  UNL     1       1.133   0.834  -0.374  1.00  0.00     0.321 S 
HETATM   36  O1  UNL     1      -0.095   1.201  -1.219  1.00  0.00    -0.182 OA
HETATM   37  O2  UNL     1       1.036   1.733   0.823  1.00  0.00    -0.182 OA
BRANCH  35  38
HETATM   38  N12 UNL     1       2.479   1.130  -1.371  1.00  0.00    -0.252 N 
ATOM     39  H12 UNL     1       2.340   1.161  -2.381  1.00  0.00     0.182 HD
BRANCH  38  40
HETATM   40  C14 UNL     1       3.776   1.334  -0.863  1.00  0.00     0.134 A 
HETATM   41  C15 UNL     1       4.080   1.297   0.479  1.00  0.00     0.091 A 
HETATM   42  C16 UNL     1       5.377   1.495   0.966  1.00  0.00     0.133 A 
HETATM   43  C17 UNL     1       5.614   1.440   2.382  1.00  0.00     0.118 C 
HETATM   44  N14 UNL     1       6.359   1.729   0.093  1.00  0.00    -0.182 N 
HETATM   45  N13 UNL     1       5.822   1.395   3.534  1.00  0.00    -0.190 NA
HETATM   46  C18 UNL     1       6.093   1.771  -1.220  1.00  0.00     0.678 A 
ATOM     47  H14 UNL     1       7.312   1.876   0.425  1.00  0.00     0.185 HD
HETATM   48  N16 UNL     1       4.838   1.580  -1.688  1.00  0.00    -0.176 N 
ATOM     49  H16 UNL     1       4.678   1.621  -2.695  1.00  0.00     0.186 HD
BRANCH  46  50
HETATM   50  N15 UNL     1       7.083   2.003  -2.023  1.00  0.00    -0.234 N 
ATOM     51 2H15 UNL     1       8.029   2.147  -1.670  1.00  0.00     0.174 HD
ATOM     52 1H15 UNL     1       6.881   2.035  -3.022  1.00  0.00     0.174 HD
ENDBRANCH  46  50
ENDBRANCH  38  40
ENDBRANCH  35  38
ENDBRANCH  33  35
ENDBRANCH  10  33
ENDBRANCH   9  10
TORSDOF 10
