REMARK  4 active torsions:
REMARK  status: ('A' for Active; 'I' for Inactive)
REMARK    1  A    between atoms: C4_4  and  C5_5 
REMARK    2  A    between atoms: C5_5  and  C6_6 
REMARK    3  A    between atoms: C12_12  and  O1_13 
REMARK    4  A    between atoms: C16_18  and  C17_19 
ROOT
HETATM    1  C6  UNL     1       1.680  -0.639   0.091  1.00  0.00     0.033 C 
HETATM    2  C7  UNL     1       2.250  -1.864   0.771  1.00  0.00    -0.007 C 
HETATM    3  C8  UNL     1       1.954  -1.873   2.264  1.00  0.00     0.011 C 
HETATM    4  C9  UNL     1       1.838  -3.167   0.201  1.00  0.00    -0.012 C 
HETATM    5  C10 UNL     1       2.281  -3.398  -1.206  1.00  0.00     0.010 C 
HETATM    6  C11 UNL     1       0.311  -3.208   0.336  1.00  0.00     0.039 C 
HETATM    7  C12 UNL     1      -0.183  -2.160  -0.593  1.00  0.00     0.156 C 
HETATM    8  C13 UNL     1       0.242  -0.744  -0.244  1.00  0.00     0.126 C 
HETATM    9  C14 UNL     1      -0.136   0.064  -1.479  1.00  0.00     0.047 C 
HETATM   10  C15 UNL     1      -1.498   0.661  -1.437  1.00  0.00     0.039 C 
HETATM   11  C16 UNL     1      -2.159   0.701  -0.100  1.00  0.00     0.168 C 
HETATM   12  O2  UNL     1      -1.813  -0.407   0.630  1.00  0.00    -0.234 OA
HETATM   13  O3  UNL     1      -0.519  -0.358   0.856  1.00  0.00    -0.226 OA
ENDROOT
BRANCH   1  14
HETATM   14  C5  UNL     1       2.072   0.513   0.988  1.00  0.00     0.035 C 
BRANCH  14  15
HETATM   15  C4  UNL     1       1.646   1.844   0.521  1.00  0.00    -0.024 C 
HETATM   16  C2  UNL     1       2.538   2.779   0.256  1.00  0.00    -0.091 C 
HETATM   17  C1  UNL     1       2.080   4.120  -0.216  1.00  0.00     0.042 C 
HETATM   18  C3  UNL     1       3.975   2.504   0.423  1.00  0.00     0.042 C 
ENDBRANCH  14  15
ENDBRANCH   1  14
BRANCH   7  19
HETATM   19  O1  UNL     1      -1.538  -2.268  -0.745  1.00  0.00    -0.392 OA
ATOM     20  H1  UNL     1      -1.854  -1.598  -1.339  1.00  0.00     0.210 HD
ENDBRANCH   7  19
BRANCH  11  21
HETATM   21  C17 UNL     1      -3.621   0.983  -0.106  1.00  0.00    -0.022 C 
HETATM   22  C18 UNL     1      -3.936   2.319  -0.734  1.00  0.00     0.017 C 
HETATM   23  C19 UNL     1      -4.444  -0.091  -0.722  1.00  0.00     0.017 C 
HETATM   24  C20 UNL     1      -4.028   1.136   1.373  1.00  0.00     0.017 C 
ENDBRANCH  11  21
TORSDOF 4
