REMARK  11 active torsions:
REMARK  status: ('A' for Active; 'I' for Inactive)
REMARK    1  A    between atoms: C2_2  and  C3_3 
REMARK    2  A    between atoms: C2_2  and  N4_19 
REMARK    3  A    between atoms: C3_3  and  N2_7 
REMARK    4  A    between atoms: N2_7  and  C4_9 
REMARK    5  A    between atoms: C5_11  and  O2_12 
REMARK    6  A    between atoms: C7_16  and  O3_17 
REMARK       I    between atoms: N4_19  and  C8_20 
REMARK    7  A    between atoms: N4_19  and  C9_23 
REMARK    8  A    between atoms: C9_23  and  O5_24 
REMARK    9  A    between atoms: C9_23  and  C10_26 
REMARK   10  A    between atoms: N8_31  and  C11_32 
REMARK   11  A    between atoms: C12_38  and  N11_39 
ROOT
HETATM    1  N4  UNL     1       0.415  -2.276   0.102  1.00  0.00    -0.268 N 
HETATM    2  C8  UNL     1      -0.405  -3.447   0.255  1.00  0.00     0.337 C 
HETATM    3  N5  UNL     1       0.100  -4.679   0.703  1.00  0.00    -0.039 NA
HETATM    4  O4  UNL     1      -1.621  -3.388  -0.016  1.00  0.00    -0.250 OA
ENDROOT
BRANCH   1   5
HETATM    5  C2  UNL     1      -0.169  -1.035  -0.326  1.00  0.00     0.159 C 
HETATM    6  C1  UNL     1      -0.809  -1.244  -1.670  1.00  0.00     0.041 C 
BRANCH   5   7
HETATM    7  C3  UNL     1      -1.117  -0.436   0.680  1.00  0.00     0.100 C 
HETATM    8  N1  UNL     1      -1.454  -0.942   1.785  1.00  0.00    -0.387 N 
ATOM      9  H12 UNL     1      -1.102  -1.869   2.024  1.00  0.00     0.157 HD
ATOM     10  H11 UNL     1      -2.096  -0.536   2.466  1.00  0.00     0.157 HD
BRANCH   7  11
HETATM   11  N2  UNL     1      -1.604   0.847   0.349  1.00  0.00    -0.323 N 
ATOM     12  H2  UNL     1      -0.923   1.600   0.441  1.00  0.00     0.169 HD
BRANCH  11  13
HETATM   13  C4  UNL     1      -2.867   1.250  -0.084  1.00  0.00     0.187 A 
HETATM   14  O1  UNL     1      -3.125   2.547  -0.340  1.00  0.00    -0.266 OA
HETATM   15  C5  UNL     1      -4.335   2.720  -0.725  1.00  0.00     0.212 A 
HETATM   16  C6  UNL     1      -4.987   1.515  -0.754  1.00  0.00     0.142 A 
HETATM   17  N3  UNL     1      -6.314   1.249  -1.113  1.00  0.00    -0.094 NA
HETATM   18  C7  UNL     1      -4.014   0.580  -0.334  1.00  0.00     0.147 A 
BRANCH  15  19
HETATM   19  O2  UNL     1      -4.857   3.982  -1.055  1.00  0.00    -0.339 OA
ATOM     20  H2  UNL     1      -5.754   4.110  -1.340  1.00  0.00     0.220 HD
ENDBRANCH  15  19
BRANCH  18  21
HETATM   21  O3  UNL     1      -4.258  -0.757  -0.224  1.00  0.00    -0.355 OA
ATOM     22  H3  UNL     1      -5.064  -1.228  -0.400  1.00  0.00     0.218 HD
ENDBRANCH  18  21
ENDBRANCH  11  13
ENDBRANCH   7  11
ENDBRANCH   5   7
ENDBRANCH   1   5
BRANCH   1  23
HETATM   23  C9  UNL     1       1.767  -2.406   0.398  1.00  0.00     0.195 C 
BRANCH  23  24
HETATM   24  O5  UNL     1       2.175  -3.588   0.757  1.00  0.00    -0.343 OA
ATOM     25  H5  UNL     1       3.099  -3.677   0.959  1.00  0.00     0.219 HD
ENDBRANCH  23  24
BRANCH  23  26
HETATM   26  C10 UNL     1       2.797  -1.407   0.367  1.00  0.00     0.190 A 
HETATM   27  N6  UNL     1       4.116  -1.677   0.689  1.00  0.00    -0.265 N 
HETATM   28  N7  UNL     1       4.847  -0.596   0.586  1.00  0.00    -0.218 N 
ATOM     29  H6  UNL     1       4.470  -2.592   0.968  1.00  0.00     0.190 HD
HETATM   30  N8  UNL     1       4.044   0.390   0.202  1.00  0.00    -0.158 N 
ATOM     31  H7  UNL     1       5.848  -0.524   0.767  1.00  0.00     0.210 HD
HETATM   32  N12 UNL     1       2.832  -0.112   0.077  1.00  0.00    -0.256 N 
ATOM     33  H12 UNL     1       2.017   0.430  -0.209  1.00  0.00     0.191 HD
BRANCH  30  34
HETATM   34  C11 UNL     1       4.444   1.734  -0.027  1.00  0.00     0.214 A 
HETATM   35  N9  UNL     1       3.663   2.760  -0.389  1.00  0.00    -0.219 N 
HETATM   36  O6  UNL     1       4.412   3.831  -0.497  1.00  0.00    -0.153 OA
ATOM     37  H9  UNL     1       2.657   2.716  -0.553  1.00  0.00     0.198 HD
HETATM   38  N10 UNL     1       5.655   3.565  -0.223  1.00  0.00    -0.222 N 
HETATM   39  C12 UNL     1       5.715   2.238   0.081  1.00  0.00     0.171 A 
ATOM     40  H10 UNL     1       6.435   4.223  -0.234  1.00  0.00     0.198 HD
BRANCH  39  41
HETATM   41  N11 UNL     1       6.766   1.608   0.403  1.00  0.00    -0.381 N 
ATOM     42 2H11 UNL     1       6.811   0.615   0.631  1.00  0.00     0.157 HD
ATOM     43 1H11 UNL     1       7.711   1.983   0.483  1.00  0.00     0.157 HD
ENDBRANCH  39  41
ENDBRANCH  30  34
ENDBRANCH  23  26
ENDBRANCH   1  23
TORSDOF 11
