REMARK  5 active torsions:
REMARK  status: ('A' for Active; 'I' for Inactive)
REMARK    1  A    between atoms: C6_9  and  O2_10 
REMARK    2  A    between atoms: O2_10  and  C7_11 
REMARK    3  A    between atoms: C7_11  and  C8_12 
REMARK    4  A    between atoms: C8_12  and  C9_13 
REMARK    5  A    between atoms: C9_13  and  C10_14 
ROOT
HETATM    1  C1  UNL     1       5.678   0.413   0.465  1.00  0.00     0.078 C 
HETATM    2  C2  UNL     1       4.244   0.358   0.094  1.00  0.00     0.075 A 
HETATM    3  O1  UNL     1       3.519  -0.632   0.577  1.00  0.00    -0.311 OA
HETATM    4  C3  UNL     1       2.249  -0.731   0.283  1.00  0.00     0.113 A 
HETATM    5  C4  UNL     1       1.532  -1.777   0.807  1.00  0.00     0.093 A 
HETATM    6 CL1  UNL     1       2.339  -2.941   1.849  1.00  0.00    -0.079 Cl
HETATM    7  C5  UNL     1       0.204  -1.907   0.519  1.00  0.00     0.091 A 
HETATM    8 CL2  UNL     1      -0.701  -3.250   1.198  1.00  0.00    -0.079 Cl
HETATM    9  C6  UNL     1      -0.502  -1.018  -0.303  1.00  0.00     0.093 A 
HETATM   10  C11 UNL     1       0.248   0.017  -0.812  1.00  0.00     0.057 A 
HETATM   11  C12 UNL     1       1.611   0.177  -0.533  1.00  0.00     0.054 A 
HETATM   12  C13 UNL     1       2.349   1.217  -1.048  1.00  0.00     0.209 A 
HETATM   13  O5  UNL     1       1.811   2.072  -1.798  1.00  0.00    -0.286 OA
HETATM   14  C14 UNL     1       3.675   1.309  -0.733  1.00  0.00     0.114 A 
HETATM   15 CL3  UNL     1       4.707   2.589  -1.331  1.00  0.00    -0.077 Cl
ENDROOT
BRANCH   9  16
HETATM   16  O2  UNL     1      -1.813  -1.260  -0.513  1.00  0.00    -0.349 OA
BRANCH  16  17
HETATM   17  C7  UNL     1      -2.759  -0.568  -1.233  1.00  0.00     0.176 C 
BRANCH  17  18
HETATM   18  C8  UNL     1      -3.047   0.776  -0.660  1.00  0.00     0.037 C 
BRANCH  18  19
HETATM   19  C9  UNL     1      -3.547   0.648   0.744  1.00  0.00     0.115 C 
BRANCH  19  20
HETATM   20  C10 UNL     1      -4.787  -0.086   0.908  1.00  0.00     0.172 C 
HETATM   21  O3  UNL     1      -5.511  -0.590   0.027  1.00  0.00    -0.648 OA
HETATM   22  O4  UNL     1      -5.256  -0.268   2.227  1.00  0.00    -0.648 OA
ENDBRANCH  19  20
ENDBRANCH  18  19
ENDBRANCH  17  18
ENDBRANCH  16  17
ENDBRANCH   9  16
TORSDOF 5
