REMARK  7 active torsions:
REMARK  status: ('A' for Active; 'I' for Inactive)
REMARK    1  A    between atoms: C2_2  and  N1_3 
REMARK    2  A    between atoms: C2_2  and  C3_7 
REMARK       I    between atoms: C3_7  and  N2_9 
REMARK    3  A    between atoms: N2_9  and  C4_10 
REMARK    4  A    between atoms: N2_9  and  N3_12 
REMARK    5  A    between atoms: N3_12  and  C5_13 
REMARK    6  A    between atoms: C7_15  and  O3_16 
REMARK    7  A    between atoms: C8_18  and  N4_19 
REMARK       I    between atoms: N4_19  and  C9_21 
ROOT
HETATM    1  C5  UNL     1      -0.355   0.052  -0.829  1.00  0.00     0.099 C 
HETATM    2  C6  UNL     1      -0.141   0.992   0.370  1.00  0.00     0.056 C 
HETATM    3  C7  UNL     1      -1.455   1.740   0.328  1.00  0.00     0.142 C 
HETATM    4  C8  UNL     1      -2.443   0.611   0.221  1.00  0.00     0.114 C 
HETATM    5  C10 UNL     1      -1.814  -0.329  -0.751  1.00  0.00     0.050 C 
ENDROOT
BRANCH   1   6
HETATM    6  N3  UNL     1       0.544  -1.057  -0.657  1.00  0.00    -0.145 NA
BRANCH   6   7
HETATM    7  N2  UNL     1       1.890  -0.534  -0.651  1.00  0.00    -0.105 NA
HETATM    8  C3  UNL     1       2.534  -0.876   0.547  1.00  0.00     0.251 C 
HETATM    9  O1  UNL     1       2.010  -1.601   1.407  1.00  0.00    -0.276 OA
BRANCH   8  10
HETATM   10  C2  UNL     1       3.887  -0.401   0.893  1.00  0.00     0.266 C 
HETATM   11  C1  UNL     1       4.933  -1.490   0.730  1.00  0.00     0.049 C 
BRANCH  10  12
HETATM   12  N1  UNL     1       4.271   0.725   0.103  1.00  0.00    -0.067 N 
ATOM     13  H13 UNL     1       5.212   1.052   0.321  1.00  0.00     0.275 HD
ATOM     14  H12 UNL     1       4.430   0.480  -0.874  1.00  0.00     0.275 HD
ATOM     15  H11 UNL     1       3.569   1.456   0.212  1.00  0.00     0.275 HD
ENDBRANCH  10  12
ENDBRANCH   8  10
BRANCH   7  16
HETATM   16  C4  UNL     1       2.524  -1.207  -1.735  1.00  0.00     0.347 C 
HETATM   17  O2  UNL     1       3.658  -1.026  -2.056  1.00  0.00    -0.288 OA
ENDBRANCH   7  16
ENDBRANCH   6   7
ENDBRANCH   1   6
BRANCH   3  18
HETATM   18  O3  UNL     1      -1.641   2.507   1.470  1.00  0.00    -0.393 OA
ATOM     19  H3  UNL     1      -2.466   2.977   1.444  1.00  0.00     0.210 HD
ENDBRANCH   3  18
BRANCH   4  20
HETATM   20  N4  UNL     1      -3.710   1.137  -0.229  1.00  0.00    -0.358 N 
HETATM   21  C9  UNL     1      -4.862   0.372  -0.486  1.00  0.00     0.182 C 
HETATM   22  N5  UNL     1      -5.761   0.798  -1.284  1.00  0.00    -0.374 N 
HETATM   23  N6  UNL     1      -5.031  -0.881   0.139  1.00  0.00    -0.064 NA
ATOM     24  H52 UNL     1      -5.639   1.704  -1.736  1.00  0.00     0.158 HD
ATOM     25  H51 UNL     1      -6.596   0.243  -1.470  1.00  0.00     0.158 HD
ATOM     26  H4  UNL     1      -3.775   2.145  -0.372  1.00  0.00     0.162 HD
ENDBRANCH   4  20
TORSDOF 7
