REMARK  6 active torsions:
REMARK  status: ('A' for Active; 'I' for Inactive)
REMARK    1  A    between atoms: C1_2  and  N1_3 
REMARK    2  A    between atoms: C11_16  and  N3_17 
REMARK    3  A    between atoms: N3_17  and  C12_19 
REMARK    4  A    between atoms: C12_19  and  C13_20 
REMARK    5  A    between atoms: C13_20  and  C14_21 
REMARK    6  A    between atoms: C14_21  and  O2_22 
ROOT
HETATM    1  N1  UNL     1      -1.035   3.217   0.712  1.00  0.00    -0.335 N 
ATOM      2  H1  UNL     1      -0.099   3.093   1.097  1.00  0.00     0.168 HD
HETATM    3  C2  UNL     1      -1.505   2.269  -0.037  1.00  0.00     0.055 C 
HETATM    4  C3  UNL     1      -2.845   2.326  -0.655  1.00  0.00     0.063 C 
HETATM    5  C4  UNL     1      -3.379   1.008  -1.075  1.00  0.00     0.037 C 
HETATM    6  C5  UNL     1      -2.675  -0.180  -0.476  1.00  0.00     0.032 C 
HETATM    7  C6  UNL     1      -3.120  -0.318   0.955  1.00  0.00     0.031 C 
HETATM    8  C7  UNL     1      -4.382  -1.070   1.143  1.00  0.00     0.002 C 
HETATM    9  C8  UNL     1      -4.496  -2.318   0.315  1.00  0.00     0.000 C 
HETATM   10  C9  UNL     1      -4.378  -1.907  -1.139  1.00  0.00     0.002 C 
HETATM   11  C10 UNL     1      -2.972  -1.380  -1.314  1.00  0.00     0.031 C 
HETATM   12  N2  UNL     1      -1.232  -0.019  -0.463  1.00  0.00    -0.366 N 
ATOM     13  H2  UNL     1      -0.650  -0.842  -0.621  1.00  0.00     0.162 HD
HETATM   14  C11 UNL     1      -0.651   1.113  -0.261  1.00  0.00     0.120 C 
ENDROOT
BRANCH  14  15
HETATM   15  N3  UNL     1       0.791   1.205  -0.260  1.00  0.00    -0.375 N 
ATOM     16  H3  UNL     1       1.289   1.394  -1.130  1.00  0.00     0.161 HD
BRANCH  15  17
HETATM   17  C12 UNL     1       1.523   1.032   0.956  1.00  0.00     0.124 C 
BRANCH  17  18
HETATM   18  C13 UNL     1       3.011   1.093   0.817  1.00  0.00     0.059 C 
BRANCH  18  19
HETATM   19  C14 UNL     1       3.574   0.022  -0.059  1.00  0.00     0.083 C 
HETATM   20  C15 UNL     1       3.297  -1.346   0.548  1.00  0.00     0.041 C 
HETATM   21  C16 UNL     1       4.552  -2.158   0.723  1.00  0.00     0.030 C 
HETATM   22  C17 UNL     1       5.526  -2.053  -0.406  1.00  0.00     0.232 C 
HETATM   23  N4  UNL     1       5.618  -0.764  -1.016  1.00  0.00    -0.072 N 
HETATM   24  C18 UNL     1       5.090   0.256  -0.121  1.00  0.00     0.269 C 
ATOM     25  H42 UNL     1       6.570  -0.552  -1.316  1.00  0.00     0.277 HD
ATOM     26  H41 UNL     1       5.164  -0.742  -1.929  1.00  0.00     0.277 HD
BRANCH  19  27
HETATM   27  O2  UNL     1       3.130   0.008  -1.359  1.00  0.00    -0.388 OA
ATOM     28  H2  UNL     1       3.488  -0.673  -1.916  1.00  0.00     0.210 HD
ENDBRANCH  19  27
ENDBRANCH  18  19
ENDBRANCH  17  18
ENDBRANCH  15  17
ENDBRANCH  14  15
BRANCH   1  29
HETATM   29  C1  UNL     1      -1.717   4.404   1.035  1.00  0.00     0.353 C 
HETATM   30  O1  UNL     1      -2.355   4.456   2.117  1.00  0.00    -0.283 OA
ENDBRANCH   1  29
TORSDOF 6
