REMARK  8 active torsions:
REMARK  status: ('A' for Active; 'I' for Inactive)
REMARK    1  A    between atoms: C2_2  and  N1_3 
REMARK    2  A    between atoms: N1_3  and  C3_4 
REMARK    3  A    between atoms: N1_3  and  C5_7 
REMARK    4  A    between atoms: C5_7  and  C6_8 
REMARK    5  A    between atoms: C6_8  and  C7_9 
REMARK    6  A    between atoms: C7_9  and  C8_10 
REMARK    7  A    between atoms: C12_16  and  C13_17 
REMARK    8  A    between atoms: C13_17  and  N4_18 
ROOT
HETATM    1  C3  UNL     1      -4.707   0.169  -2.614  1.00  0.00     0.395 C 
HETATM    2  C4  UNL     1      -5.597   1.340  -2.483  1.00  0.00     0.089 C 
HETATM    3  N2  UNL     1      -6.312   2.253  -2.373  1.00  0.00    -0.195 NA
ENDROOT
BRANCH   1   4
HETATM    4  N1  UNL     1      -3.965  -0.029  -1.353  1.00  0.00     0.100 N 
BRANCH   4   5
HETATM    5  C2  UNL     1      -4.912  -0.435  -0.393  1.00  0.00     0.269 C 
HETATM    6  C1  UNL     1      -4.480  -0.665   1.003  1.00  0.00     0.037 C 
ENDBRANCH   4   5
BRANCH   4   7
HETATM    7  C5  UNL     1      -2.853  -0.842  -1.646  1.00  0.00     0.273 C 
BRANCH   7   8
HETATM    8  C6  UNL     1      -1.788  -0.955  -0.580  1.00  0.00     0.031 C 
BRANCH   8   9
HETATM    9  C7  UNL     1      -1.231   0.411  -0.288  1.00  0.00     0.017 C 
BRANCH   9  10
HETATM   10  C8  UNL     1      -0.194   0.480   0.786  1.00  0.00     0.072 C 
HETATM   11  C9  UNL     1       0.990  -0.306   0.494  1.00  0.00     0.030 A 
HETATM   12  N3  UNL     1       0.698  -1.598   0.703  1.00  0.00    -0.361 N 
HETATM   13  C16 UNL     1       2.261  -0.013   0.051  1.00  0.00     0.010 A 
HETATM   14  C10 UNL     1       1.517  -2.605   0.521  1.00  0.00     0.014 A 
ATOM     15  H3  UNL     1      -0.243  -1.816   1.032  1.00  0.00     0.165 HD
HETATM   16  C11 UNL     1       1.142  -4.025   0.760  1.00  0.00     0.068 C 
HETATM   17  C12 UNL     1       2.830  -2.343   0.065  1.00  0.00    -0.004 A 
HETATM   18  C14 UNL     1       3.196  -1.052  -0.172  1.00  0.00    -0.039 A 
HETATM   19  C15 UNL     1       4.529  -0.741  -0.761  1.00  0.00     0.050 C 
HETATM   20  C17 UNL     1       2.877   1.277  -0.166  1.00  0.00     0.116 C 
HETATM   21  N5  UNL     1       2.291   2.447   0.395  1.00  0.00    -0.271 N 
HETATM   22  C18 UNL     1       3.040   3.608   0.437  1.00  0.00     0.331 A 
HETATM   23  C24 UNL     1       1.129   2.716   0.944  1.00  0.00     0.079 A 
HETATM   24  O1  UNL     1       4.198   3.774   0.017  1.00  0.00    -0.246 OA
HETATM   25  N6  UNL     1       2.291   4.549   1.019  1.00  0.00    -0.305 N 
HETATM   26  C19 UNL     1       1.089   4.061   1.360  1.00  0.00     0.086 A 
ATOM     27  H6  UNL     1       2.593   5.510   1.182  1.00  0.00     0.171 HD
HETATM   28  C20 UNL     1      -0.024   4.560   1.960  1.00  0.00     0.063 A 
HETATM   29 CL1  UNL     1      -0.028   6.234   2.462  1.00  0.00    -0.082 Cl
HETATM   30  C21 UNL     1      -1.109   3.727   2.152  1.00  0.00     0.027 A 
HETATM   31  C22 UNL     1      -1.070   2.406   1.742  1.00  0.00     0.012 A 
HETATM   32  C23 UNL     1       0.058   1.896   1.133  1.00  0.00    -0.018 A 
BRANCH  17  33
HETATM   33  C13 UNL     1       3.713  -3.502  -0.077  1.00  0.00     0.270 C 
BRANCH  33  34
HETATM   34  N4  UNL     1       5.042  -3.287  -0.498  1.00  0.00    -0.075 N 
ATOM     35  H43 UNL     1       5.032  -2.768  -1.376  1.00  0.00     0.274 HD
ATOM     36  H42 UNL     1       5.482  -2.610   0.125  1.00  0.00     0.274 HD
ATOM     37  H41 UNL     1       5.657  -4.095  -0.597  1.00  0.00     0.274 HD
ENDBRANCH  33  34
ENDBRANCH  17  33
ENDBRANCH   9  10
ENDBRANCH   8   9
ENDBRANCH   7   8
ENDBRANCH   4   7
ENDBRANCH   1   4
TORSDOF 8
