REMARK  7 active torsions:
REMARK  status: ('A' for Active; 'I' for Inactive)
REMARK    1  A    between atoms: N1_2  and  C2_5 
REMARK    2  A    between atoms: C2_5  and  C3_6 
REMARK    3  A    between atoms: C3_6  and  C4_7 
REMARK    4  A    between atoms: C4_7  and  C5_8 
REMARK    5  A    between atoms: C5_8  and  N2_9 
REMARK    6  A    between atoms: N2_9  and  C6_11 
REMARK    7  A    between atoms: C8_15  and  N4_16 
ROOT
HETATM    1  C6  UNL     1       2.082   0.116  -0.820  1.00  0.00     0.692 A 
HETATM    2  N3  UNL     1       3.019  -0.194  -1.735  1.00  0.00    -0.197 N 
ATOM      3  H3  UNL     1       2.730  -0.389  -2.693  1.00  0.00     0.183 HD
HETATM    4  C7  UNL     1       4.327  -0.254  -1.422  1.00  0.00     0.155 A 
HETATM    5  C8  UNL     1       4.750   0.008  -0.129  1.00  0.00     0.130 A 
HETATM    6  N5  UNL     1       3.796   0.316   0.767  1.00  0.00    -0.270 N 
ATOM      7  H5  UNL     1       4.063   0.516   1.731  1.00  0.00     0.189 HD
HETATM    8  N6  UNL     1       2.514   0.366   0.425  1.00  0.00    -0.131 N 
ATOM      9  H6  UNL     1       1.827   0.605   1.141  1.00  0.00     0.205 HD
ENDROOT
BRANCH   1  10
HETATM   10  N2  UNL     1       0.848   0.157  -1.180  1.00  0.00    -0.225 N 
ATOM     11  H2  UNL     1       0.619  -0.049  -2.152  1.00  0.00     0.177 HD
BRANCH  10  12
HETATM   12  C5  UNL     1      -0.232   0.481  -0.272  1.00  0.00     0.138 C 
BRANCH  12  13
HETATM   13  C4  UNL     1      -0.725  -0.718   0.487  1.00  0.00     0.022 C 
BRANCH  13  14
HETATM   14  C3  UNL     1      -1.840  -0.265   1.400  1.00  0.00     0.029 C 
BRANCH  14  15
HETATM   15  C2  UNL     1      -2.989   0.333   0.645  1.00  0.00     0.231 C 
BRANCH  15  16
HETATM   16  N1  UNL     1      -3.561  -0.627  -0.290  1.00  0.00    -0.079 N 
HETATM   17  C1  UNL     1      -4.664   0.042  -0.973  1.00  0.00     0.266 C 
ATOM     18  H12 UNL     1      -3.838  -1.502   0.155  1.00  0.00     0.276 HD
ATOM     19  H11 UNL     1      -2.872  -1.019  -0.932  1.00  0.00     0.276 HD
ENDBRANCH  15  16
ENDBRANCH  14  15
ENDBRANCH  13  14
ENDBRANCH  12  13
ENDBRANCH  10  12
ENDBRANCH   1  10
BRANCH   5  20
HETATM   20  N4  UNL     1       6.003  -0.038   0.215  1.00  0.00    -0.383 N 
ATOM     21  H42 UNL     1       6.727  -0.272  -0.465  1.00  0.00     0.157 HD
ATOM     22  H41 UNL     1       6.314   0.155   1.167  1.00  0.00     0.157 HD
ENDBRANCH   5  20
TORSDOF 7
