REMARK  8 active torsions:
REMARK  status: ('A' for Active; 'I' for Inactive)
REMARK    1  A    between atoms: C3_3  and  C4_4 
REMARK    2  A    between atoms: C4_4  and  C5_5 
REMARK    3  A    between atoms: C5_5  and  N1_6 
REMARK    4  A    between atoms: N1_6  and  O1_8 
REMARK    5  A    between atoms: C6_10  and  N2_11 
REMARK    6  A    between atoms: N4_18  and  C8_19 
REMARK    7  A    between atoms: C8_19  and  O2_20 
REMARK    8  A    between atoms: C8_19  and  C9_22 
ROOT
HETATM    1  C1  UNL     1       1.615   1.194   0.700  1.00  0.00     0.070 C 
HETATM    2  C2  UNL     1       1.169  -0.175   0.447  1.00  0.00     0.032 A 
HETATM    3  C3  UNL     1       2.129  -1.184   0.486  1.00  0.00     0.039 A 
HETATM    4  C6  UNL     1       1.796  -2.488   0.263  1.00  0.00     0.114 A 
HETATM    5  N3  UNL     1       0.518  -2.734   0.010  1.00  0.00    -0.318 N 
ATOM      6  H3  UNL     1       0.222  -3.695  -0.163  1.00  0.00     0.170 HD
HETATM    7  C7  UNL     1      -0.419  -1.728  -0.025  1.00  0.00     0.186 A 
HETATM    8  S1  UNL     1      -1.912  -2.286  -0.357  1.00  0.00    -0.040 SA
HETATM    9  N4  UNL     1      -0.160  -0.442   0.183  1.00  0.00    -0.275 N 
ENDROOT
BRANCH   9  10
HETATM   10  C8  UNL     1      -1.108   0.581   0.144  1.00  0.00     0.132 C 
BRANCH  10  11
HETATM   11  O2  UNL     1      -0.558   1.778   0.380  1.00  0.00    -0.348 OA
ATOM     12  H2  UNL     1      -1.203   2.475   0.353  1.00  0.00     0.219 HD
ENDBRANCH  10  11
BRANCH  10  13
HETATM   13  C9  UNL     1      -2.516   0.745  -0.074  1.00  0.00     0.014 C 
HETATM   14  C10 UNL     1      -2.737   2.335   0.038  1.00  0.00     0.023 C 
HETATM   15  C11 UNL     1      -2.981   0.491  -1.486  1.00  0.00     0.023 C 
HETATM   16  C12 UNL     1      -3.471   0.168   0.919  1.00  0.00     0.023 C 
ENDBRANCH  10  13
ENDBRANCH   9  10
BRANCH   3  17
HETATM   17  C4  UNL     1       3.523  -0.887   0.766  1.00  0.00     0.093 C 
BRANCH  17  18
HETATM   18  C5  UNL     1       4.307  -0.706  -0.268  1.00  0.00    -0.019 C 
BRANCH  18  19
HETATM   19  N1  UNL     1       4.995  -0.214  -1.241  1.00  0.00    -0.233 N 
ATOM     20  H1  UNL     1       5.651  -0.801  -1.757  1.00  0.00     0.204 HD
BRANCH  19  21
HETATM   21  O1  UNL     1       4.837   1.097  -1.572  1.00  0.00    -0.282 OA
ATOM     22  H1  UNL     1       5.344   1.460  -2.289  1.00  0.00     0.245 HD
ENDBRANCH  19  21
ENDBRANCH  18  19
ENDBRANCH  17  18
ENDBRANCH   3  17
BRANCH   4  23
HETATM   23  N2  UNL     1       2.696  -3.435   0.299  1.00  0.00    -0.385 N 
ATOM     24  H22 UNL     1       3.679  -3.246   0.494  1.00  0.00     0.157 HD
ATOM     25  H21 UNL     1       2.447  -4.410   0.132  1.00  0.00     0.157 HD
ENDBRANCH   4  23
TORSDOF 8
