REMARK  4 active torsions:
REMARK  status: ('A' for Active; 'I' for Inactive)
REMARK    1  A    between atoms: N1_2  and  C2_4 
REMARK    2  A    between atoms: C2_4  and  C3_5 
REMARK    3  A    between atoms: C3_5  and  N2_6 
REMARK    4  A    between atoms: N2_6  and  C4_8 
ROOT
HETATM    1  C4  UNL     1      -0.888  -0.061   0.695  1.00  0.00     0.118 A 
HETATM    2  C5  UNL     1      -1.269  -0.369   2.026  1.00  0.00     0.068 A 
HETATM    3  C6  UNL     1      -2.574   0.038   2.115  1.00  0.00     0.111 A 
HETATM    4  N3  UNL     1      -2.997   0.553   0.971  1.00  0.00    -0.308 N 
ATOM      5  H3  UNL     1      -3.927   0.926   0.780  1.00  0.00     0.186 HD
HETATM    6  N4  UNL     1      -1.961   0.490   0.105  1.00  0.00    -0.282 N 
HETATM    7  C7  UNL     1      -2.022   0.951  -1.274  1.00  0.00     0.179 C 
ENDROOT
BRANCH   1   8
HETATM    8  N2  UNL     1       0.409  -0.340   0.199  1.00  0.00    -0.374 N 
ATOM      9  H2  UNL     1       1.066  -0.798   0.831  1.00  0.00     0.161 HD
BRANCH   8  10
HETATM   10  C3  UNL     1       0.870  -0.028  -1.123  1.00  0.00     0.141 C 
BRANCH  10  11
HETATM   11  C2  UNL     1       2.298  -0.556  -1.337  1.00  0.00     0.137 C 
BRANCH  11  12
HETATM   12  N1  UNL     1       3.110   0.085  -0.361  1.00  0.00    -0.406 N 
HETATM   13  C1  UNL     1       3.760  -0.525   0.536  1.00  0.00     0.112 C 
ATOM     14  H1  UNL     1       3.172   1.103  -0.386  1.00  0.00     0.158 HD
ENDBRANCH  11  12
ENDBRANCH  10  11
ENDBRANCH   8  10
ENDBRANCH   1   8
TORSDOF 4
