REMARK  1 active torsions:
REMARK  status: ('A' for Active; 'I' for Inactive)
REMARK    1  A    between atoms: C2_2  and  N1_3 
ROOT
HETATM    1  N1  UNL     1      -1.555   0.255   0.087  1.00  0.00    -0.344 N 
HETATM    2  C3  UNL     1      -0.117   0.117   0.087  1.00  0.00     0.048 A 
HETATM    3  C4  UNL     1       0.418  -1.130   0.120  1.00  0.00     0.057 A 
HETATM    4  C5  UNL     1       1.789  -1.265   0.123  1.00  0.00     0.054 A 
HETATM    5  N2  UNL     1       2.386  -2.538   0.156  1.00  0.00    -0.102 NA
HETATM    6  C6  UNL     1       2.591  -0.134   0.091  1.00  0.00    -0.037 A 
HETATM    7  C7  UNL     1       4.067  -0.302   0.095  1.00  0.00     0.050 C 
HETATM    8  C8  UNL     1       2.052   1.123   0.056  1.00  0.00     0.026 A 
HETATM    9  C9  UNL     1       0.686   1.253   0.053  1.00  0.00     0.039 A 
HETATM   10  C10 UNL     1      -0.007   2.513   0.019  1.00  0.00     0.185 C 
HETATM   11  O1  UNL     1       0.568   3.516   0.521  1.00  0.00    -0.290 OA
HETATM   12  C11 UNL     1      -1.350   2.624  -0.587  1.00  0.00     0.216 C 
HETATM   13 CL1  UNL     1      -2.196   3.968   0.210  1.00  0.00    -0.111 Cl
HETATM   14  C12 UNL     1      -2.195   1.399  -0.486  1.00  0.00     0.212 C 
HETATM   15 CL2  UNL     1      -3.661   1.802   0.486  1.00  0.00    -0.075 Cl
HETATM   16 CL3  UNL     1      -2.824   1.091  -2.150  1.00  0.00    -0.075 Cl
ENDROOT
BRANCH   1  17
HETATM   17  C2  UNL     1      -2.331  -0.791   0.693  1.00  0.00     0.122 C 
HETATM   18  C1  UNL     1      -3.147  -1.625  -0.225  1.00  0.00     0.026 C 
ENDBRANCH   1  17
TORSDOF 1
