REMARK  17 active torsions:
REMARK  status: ('A' for Active; 'I' for Inactive)
REMARK    1  A    between atoms: C2_2  and  N1_3 
REMARK    2  A    between atoms: N1_3  and  C3_6 
REMARK    3  A    between atoms: C3_6  and  C4_7 
REMARK    4  A    between atoms: C4_7  and  C5_8 
REMARK    5  A    between atoms: C5_8  and  N2_9 
REMARK    6  A    between atoms: N2_9  and  C6_10 
REMARK    7  A    between atoms: N2_9  and  C18_25 
REMARK    8  A    between atoms: C6_10  and  C7_11 
REMARK    9  A    between atoms: C7_11  and  N3_12 
REMARK   10  A    between atoms: N3_12  and  C8_13 
REMARK   11  A    between atoms: N3_12  and  C14_21 
REMARK   12  A    between atoms: C8_13  and  C9_14 
REMARK   13  A    between atoms: C9_14  and  C10_15 
REMARK   14  A    between atoms: C10_15  and  C11_16 
REMARK   15  A    between atoms: C11_16  and  N4_18 
REMARK   16  A    between atoms: C14_21  and  C15_22 
REMARK   17  A    between atoms: C18_25  and  C20_27 
ROOT
HETATM    1  C6  UNL     1      -0.613   0.186  -1.185  1.00  0.00     0.152 C 
ENDROOT
BRANCH   1   2
HETATM    2  N2  UNL     1      -2.053   0.335  -1.017  1.00  0.00    -0.387 N 
BRANCH   2   3
HETATM    3  C5  UNL     1      -2.748  -0.850  -1.111  1.00  0.00     0.060 C 
BRANCH   3   4
HETATM    4  C4  UNL     1      -4.201  -1.012  -1.177  1.00  0.00     0.072 C 
BRANCH   4   5
HETATM    5  C3  UNL     1      -5.019  -0.598  -0.031  1.00  0.00     0.237 C 
BRANCH   5   6
HETATM    6  N1  UNL     1      -6.445  -0.977  -0.372  1.00  0.00    -0.075 N 
ATOM      7  H12 UNL     1      -6.540  -1.959  -0.630  1.00  0.00     0.277 HD
ATOM      8  H11 UNL     1      -6.760  -0.572  -1.254  1.00  0.00     0.277 HD
BRANCH   6   9
HETATM    9  C2  UNL     1      -7.292  -0.608   0.748  1.00  0.00     0.228 C 
HETATM   10  C1  UNL     1      -7.333   0.894   0.846  1.00  0.00     0.034 C 
ENDBRANCH   6   9
ENDBRANCH   5   6
ENDBRANCH   4   5
ENDBRANCH   3   4
ENDBRANCH   2   3
BRANCH   2  11
HETATM   11  C18 UNL     1      -2.404   1.369  -0.148  1.00  0.00     0.079 C 
HETATM   12  C19 UNL     1      -2.355   0.981   1.341  1.00  0.00     0.032 C 
BRANCH  11  13
HETATM   13  C20 UNL     1      -1.504   2.608  -0.286  1.00  0.00     0.020 C 
HETATM   14  C21 UNL     1      -1.995   3.678   0.702  1.00  0.00     0.007 C 
ENDBRANCH  11  13
ENDBRANCH   2  11
ENDBRANCH   1   2
BRANCH   1  15
HETATM   15  C7  UNL     1       0.119  -0.485  -0.112  1.00  0.00     0.292 C 
BRANCH  15  16
HETATM   16  N3  UNL     1       1.573  -0.615  -0.337  1.00  0.00     0.090 N 
BRANCH  16  17
HETATM   17  C8  UNL     1       2.193   0.668  -0.313  1.00  0.00     0.272 C 
BRANCH  17  18
HETATM   18  C9  UNL     1       3.671   0.634  -0.502  1.00  0.00     0.032 C 
BRANCH  18  19
HETATM   19  C10 UNL     1       4.418  -0.139   0.552  1.00  0.00     0.026 C 
BRANCH  19  20
HETATM   20  C11 UNL     1       5.902  -0.064   0.225  1.00  0.00     0.072 C 
HETATM   21  C12 UNL     1       6.729  -0.803   1.231  1.00  0.00     0.031 C 
BRANCH  20  22
HETATM   22  N4  UNL     1       6.374   1.243  -0.062  1.00  0.00    -0.422 N 
HETATM   23  C13 UNL     1       6.287   2.212   0.974  1.00  0.00     0.140 C 
ATOM     24  H4  UNL     1       6.761   1.478  -0.976  1.00  0.00     0.153 HD
ENDBRANCH  20  22
ENDBRANCH  19  20
ENDBRANCH  18  19
ENDBRANCH  17  18
ENDBRANCH  16  17
BRANCH  16  25
HETATM   25  C14 UNL     1       1.863  -1.438  -1.461  1.00  0.00     0.277 C 
BRANCH  25  26
HETATM   26  C15 UNL     1       1.435  -2.887  -1.206  1.00  0.00     0.014 A 
HETATM   27  C16 UNL     1       2.071  -3.613  -0.010  1.00  0.00     0.007 A 
HETATM   28  C17 UNL     1       2.453  -3.956  -1.396  1.00  0.00     0.007 A 
ENDBRANCH  25  26
ENDBRANCH  16  25
ENDBRANCH  15  16
ENDBRANCH   1  15
TORSDOF 17
