REMARK  6 active torsions:
REMARK  status: ('A' for Active; 'I' for Inactive)
REMARK    1  A    between atoms: C2_2  and  N1_3 
REMARK    2  A    between atoms: N1_3  and  C3_5 
REMARK    3  A    between atoms: C3_5  and  N2_7 
REMARK    4  A    between atoms: N2_7  and  N3_9 
REMARK       I    between atoms: N3_9  and  C4_11 
REMARK    5  A    between atoms: C4_11  and  C5_13 
REMARK    6  A    between atoms: C5_13  and  C6_14 
ROOT
HETATM    1  N3  UNL     1       1.458  -0.503  -0.538  1.00  0.00    -0.268 N 
ATOM      2  H3  UNL     1       1.709  -0.646  -1.516  1.00  0.00     0.190 HD
HETATM    3  C4  UNL     1       0.107  -0.460  -0.134  1.00  0.00     0.240 C 
HETATM    4  O1  UNL     1      -0.183  -0.289   1.066  1.00  0.00    -0.272 OA
ENDROOT
BRANCH   3   5
HETATM    5  C5  UNL     1      -0.950  -0.621  -1.158  1.00  0.00     0.145 C 
BRANCH   5   6
HETATM    6  C6  UNL     1      -2.292  -0.567  -0.589  1.00  0.00    -0.026 A 
HETATM    7  C7  UNL     1      -2.867   0.604  -0.170  1.00  0.00    -0.053 A 
HETATM    8  C8  UNL     1      -2.128   1.878  -0.258  1.00  0.00     0.049 C 
HETATM    9  C9  UNL     1      -4.150   0.602   0.347  1.00  0.00     0.014 A 
HETATM   10  C10 UNL     1      -4.851  -0.589   0.440  1.00  0.00    -0.060 A 
HETATM   11  C11 UNL     1      -6.229  -0.567   0.997  1.00  0.00     0.048 C 
HETATM   12  C12 UNL     1      -4.303  -1.783   0.028  1.00  0.00     0.026 A 
HETATM   13  C13 UNL     1      -3.025  -1.734  -0.479  1.00  0.00     0.018 A 
HETATM   14 BR1  UNL     1      -2.246  -3.393  -1.061  1.00  0.00    -0.051 Br
ENDBRANCH   5   6
ENDBRANCH   3   5
BRANCH   1  15
HETATM   15  N2  UNL     1       2.449  -0.343   0.448  1.00  0.00    -0.274 N 
ATOM     16  H2  UNL     1       2.218  -0.349   1.442  1.00  0.00     0.189 HD
BRANCH  15  17
HETATM   17  C3  UNL     1       3.786  -0.173  -0.003  1.00  0.00     0.186 C 
HETATM   18  S1  UNL     1       4.169  -0.166  -1.586  1.00  0.00    -0.040 SA
BRANCH  17  19
HETATM   19  N1  UNL     1       4.812  -0.006   0.956  1.00  0.00    -0.366 N 
ATOM     20  H1  UNL     1       4.587  -0.010   1.951  1.00  0.00     0.161 HD
BRANCH  19  21
HETATM   21  C2  UNL     1       6.190   0.171   0.522  1.00  0.00     0.117 C 
HETATM   22  C1  UNL     1       6.275   1.514  -0.161  1.00  0.00     0.026 C 
ENDBRANCH  19  21
ENDBRANCH  17  19
ENDBRANCH  15  17
ENDBRANCH   1  15
TORSDOF 6
