REMARK  19 active torsions:
REMARK  status: ('A' for Active; 'I' for Inactive)
REMARK    1  A    between atoms: C2_2  and  N1_3 
REMARK    2  A    between atoms: N1_3  and  C3_4 
REMARK    3  A    between atoms: N1_3  and  C13_17 
REMARK    4  A    between atoms: C3_4  and  C4_5 
REMARK    5  A    between atoms: C4_5  and  C5_6 
REMARK    6  A    between atoms: C5_6  and  C6_7 
REMARK    7  A    between atoms: C6_7  and  C7_8 
REMARK    8  A    between atoms: C7_8  and  C8_9 
REMARK    9  A    between atoms: C8_9  and  C9_10 
REMARK   10  A    between atoms: C9_10  and  C10_11 
REMARK   11  A    between atoms: C10_11  and  N2_12 
REMARK   12  A    between atoms: C13_17  and  O1_18 
REMARK   13  A    between atoms: C13_17  and  N4_20 
REMARK   14  A    between atoms: N4_20  and  C14_21 
REMARK   15  A    between atoms: C14_21  and  C15_22 
REMARK   16  A    between atoms: C15_22  and  C16_23 
REMARK   17  A    between atoms: C16_23  and  C17_24 
REMARK   18  A    between atoms: C17_24  and  N5_25 
REMARK       I    between atoms: N5_25  and  C18_27 
REMARK       I    between atoms: N7_29  and  C19_31 
REMARK   19  A    between atoms: C19_31  and  C20_33 
REMARK       I    between atoms: N8_35  and  C22_36 
ROOT
HETATM    1  C14 UNL     1       1.073   1.582  -0.652  1.00  0.00     0.159 C 
ENDROOT
BRANCH   1   2
HETATM    2  N4  UNL     1       0.419   1.035   0.424  1.00  0.00    -0.382 NA
BRANCH   2   3
HETATM    3  C13 UNL     1      -0.206   0.517   1.462  1.00  0.00     0.299 C 
BRANCH   3   4
HETATM    4  N1  UNL     1      -1.120  -0.676   1.474  1.00  0.00    -0.312 N 
BRANCH   4   5
HETATM    5  C2  UNL     1      -1.538  -0.992   2.814  1.00  0.00     0.128 C 
HETATM    6  C1  UNL     1      -2.619  -0.113   3.335  1.00  0.00     0.027 C 
ENDBRANCH   4   5
BRANCH   4   7
HETATM    7  C3  UNL     1      -1.326  -1.339   0.246  1.00  0.00     0.095 C 
BRANCH   7   8
HETATM    8  C4  UNL     1      -2.333  -1.017  -0.746  1.00  0.00     0.013 C 
BRANCH   8   9
HETATM    9  C5  UNL     1      -3.738  -1.365  -0.612  1.00  0.00    -0.025 C 
BRANCH   9  10
HETATM   10  C6  UNL     1      -4.591  -0.985   0.500  1.00  0.00     0.027 C 
BRANCH  10  11
HETATM   11  C7  UNL     1      -6.052  -1.416   0.348  1.00  0.00     0.004 C 
BRANCH  11  12
HETATM   12  C8  UNL     1      -6.751  -0.774  -0.806  1.00  0.00     0.002 C 
BRANCH  12  13
HETATM   13  C9  UNL     1      -8.194  -1.244  -0.916  1.00  0.00     0.020 C 
BRANCH  13  14
HETATM   14  C10 UNL     1      -8.885  -0.537  -2.050  1.00  0.00     0.120 C 
BRANCH  14  15
HETATM   15  N2  UNL     1      -8.920   0.905  -1.855  1.00  0.00    -0.382 N 
HETATM   16  C11 UNL     1      -9.601   1.461  -0.908  1.00  0.00     0.085 C 
HETATM   17  C12 UNL     1      -9.563   2.937  -0.802  1.00  0.00     0.085 C 
HETATM   18  N3  UNL     1     -10.371   0.701   0.020  1.00  0.00    -0.088 NA
ATOM     19  H2  UNL     1      -8.387   1.499  -2.490  1.00  0.00     0.160 HD
ENDBRANCH  14  15
ENDBRANCH  13  14
ENDBRANCH  12  13
ENDBRANCH  11  12
ENDBRANCH  10  11
ENDBRANCH   9  10
ENDBRANCH   8   9
ENDBRANCH   7   8
ENDBRANCH   4   7
ENDBRANCH   3   4
BRANCH   3  20
HETATM   20  O1  UNL     1      -0.146   0.965   2.688  1.00  0.00    -0.321 OA
ATOM     21  H1  UNL     1       0.432   1.719   2.680  1.00  0.00     0.222 HD
ENDBRANCH   3  20
ENDBRANCH   2   3
ENDBRANCH   1   2
BRANCH   1  22
HETATM   22  C15 UNL     1       1.163   0.946  -1.993  1.00  0.00     0.061 C 
BRANCH  22  23
HETATM   23  C16 UNL     1       1.867  -0.382  -2.022  1.00  0.00     0.026 C 
BRANCH  23  24
HETATM   24  C17 UNL     1       3.219  -0.401  -1.424  1.00  0.00     0.122 C 
BRANCH  24  25
HETATM   25  N5  UNL     1       4.230   0.434  -1.969  1.00  0.00    -0.364 N 
HETATM   26  C18 UNL     1       5.509   0.447  -1.250  1.00  0.00     0.190 C 
HETATM   27  N6  UNL     1       5.972   1.657  -0.713  1.00  0.00    -0.063 NA
HETATM   28  N7  UNL     1       6.094  -0.665  -1.166  1.00  0.00    -0.301 N 
HETATM   29  C19 UNL     1       7.269  -1.075  -0.595  1.00  0.00     0.231 C 
ATOM     30  H7  UNL     1       5.583  -1.422  -1.620  1.00  0.00     0.171 HD
HETATM   31  O2  UNL     1       7.249  -2.230  -0.013  1.00  0.00    -0.273 OA
ATOM     32  H5  UNL     1       4.076   0.991  -2.810  1.00  0.00     0.162 HD
BRANCH  29  33
HETATM   33  C20 UNL     1       8.532  -0.360  -0.568  1.00  0.00     0.114 C 
HETATM   34  C21 UNL     1       9.679  -1.148   0.087  1.00  0.00     0.141 C 
HETATM   35  N8  UNL     1      10.160   0.094   0.629  1.00  0.00    -0.354 N 
HETATM   36  C22 UNL     1      11.416   0.587   1.052  1.00  0.00     0.184 C 
HETATM   37  C23 UNL     1       8.802   0.607   0.542  1.00  0.00     0.141 C 
HETATM   38  N9  UNL     1      11.730   0.538   2.297  1.00  0.00    -0.374 N 
HETATM   39  N10 UNL     1      12.366   1.140   0.157  1.00  0.00    -0.064 NA
ATOM     40  H92 UNL     1      11.046   0.140   2.941  1.00  0.00     0.158 HD
ATOM     41  H91 UNL     1      12.636   0.894   2.602  1.00  0.00     0.158 HD
ENDBRANCH  29  33
ENDBRANCH  24  25
ENDBRANCH  23  24
ENDBRANCH  22  23
ENDBRANCH   1  22
TORSDOF 19
