REMARK  20 active torsions:
REMARK  status: ('A' for Active; 'I' for Inactive)
REMARK    1  A    between atoms: C2_2  and  C3_3 
REMARK    2  A    between atoms: C3_3  and  C4_4 
REMARK    3  A    between atoms: C4_4  and  C5_5 
REMARK    4  A    between atoms: C5_5  and  C6_6 
REMARK    5  A    between atoms: C6_6  and  C7_7 
REMARK    6  A    between atoms: C7_7  and  C8_8 
REMARK    7  A    between atoms: C8_8  and  C9_9 
REMARK    8  A    between atoms: C9_9  and  C10_10 
REMARK    9  A    between atoms: C10_10  and  C11_11 
REMARK   10  A    between atoms: C11_11  and  C12_12 
REMARK   11  A    between atoms: C12_12  and  C13_13 
REMARK   12  A    between atoms: C14_14  and  C15_15 
REMARK   13  A    between atoms: C16_16  and  C17_17 
REMARK   14  A    between atoms: C17_17  and  C18_18 
REMARK   15  A    between atoms: C18_18  and  N1_19 
REMARK   16  A    between atoms: N1_19  and  C19_21 
REMARK   17  A    between atoms: C19_21  and  O1_22 
REMARK   18  A    between atoms: C20_24  and  N2_25 
REMARK   19  A    between atoms: N3_28  and  C23_29 
REMARK   20  A    between atoms: C23_29  and  C24_30 
ROOT
HETATM    1  C19 UNL     1      -5.104  -1.398   3.085  1.00  0.00     0.162 C 
HETATM    2  C20 UNL     1      -5.712  -0.144   2.792  1.00  0.00     0.287 C 
ENDROOT
BRANCH   1   3
HETATM    3  N1  UNL     1      -4.405  -2.299   2.313  1.00  0.00    -0.369 N 
ATOM      4  H1  UNL     1      -4.257  -2.109   1.322  1.00  0.00     0.161 HD
BRANCH   3   5
HETATM    5  C18 UNL     1      -3.873  -3.529   2.906  1.00  0.00     0.134 C 
BRANCH   5   6
HETATM    6  C17 UNL     1      -2.876  -3.304   3.985  1.00  0.00     0.114 C 
BRANCH   6   7
HETATM    7  C16 UNL     1      -1.721  -2.505   3.505  1.00  0.00    -0.091 C 
HETATM    8  C15 UNL     1      -0.802  -1.828   3.115  1.00  0.00    -0.015 C 
BRANCH   8   9
HETATM    9  C14 UNL     1       0.253  -1.003   2.657  1.00  0.00    -0.015 C 
HETATM   10  C13 UNL     1       1.136  -0.270   2.265  1.00  0.00    -0.092 C 
BRANCH  10  11
HETATM   11  C12 UNL     1       2.170   0.639   1.797  1.00  0.00     0.095 C 
BRANCH  11  12
HETATM   12  C11 UNL     1       2.867   0.037   0.603  1.00  0.00     0.012 C 
BRANCH  12  13
HETATM   13  C10 UNL     1       3.501  -1.260   1.027  1.00  0.00     0.001 C 
BRANCH  13  14
HETATM   14  C9  UNL     1       4.230  -1.954  -0.121  1.00  0.00     0.000 C 
BRANCH  14  15
HETATM   15  C8  UNL     1       5.308  -1.047  -0.664  1.00  0.00     0.000 C 
BRANCH  15  16
HETATM   16  C7  UNL     1       6.038  -1.763  -1.787  1.00  0.00     0.000 C 
BRANCH  16  17
HETATM   17  C6  UNL     1       7.110  -0.891  -2.398  1.00  0.00     0.000 C 
BRANCH  17  18
HETATM   18  C5  UNL     1       8.162  -0.484  -1.401  1.00  0.00     0.000 C 
BRANCH  18  19
HETATM   19  C4  UNL     1       9.188   0.393  -2.031  1.00  0.00     0.000 C 
BRANCH  19  20
HETATM   20  C3  UNL     1       9.914  -0.292  -3.160  1.00  0.00    -0.000 C 
BRANCH  20  21
HETATM   21  C2  UNL     1      10.954   0.660  -3.753  1.00  0.00    -0.005 C 
HETATM   22  C1  UNL     1      11.726   0.057  -4.884  1.00  0.00     0.005 C 
ENDBRANCH  20  21
ENDBRANCH  19  20
ENDBRANCH  18  19
ENDBRANCH  17  18
ENDBRANCH  16  17
ENDBRANCH  15  16
ENDBRANCH  14  15
ENDBRANCH  13  14
ENDBRANCH  12  13
ENDBRANCH  11  12
ENDBRANCH  10  11
ENDBRANCH   8   9
ENDBRANCH   6   7
ENDBRANCH   5   6
ENDBRANCH   3   5
ENDBRANCH   1   3
BRANCH   1  23
HETATM   23  O1  UNL     1      -5.243  -1.760   4.340  1.00  0.00    -0.345 OA
ATOM     24  H1  UNL     1      -5.725  -1.138   4.873  1.00  0.00     0.219 HD
ENDBRANCH   1  23
BRANCH   2  25
HETATM   25  N2  UNL     1      -5.742   0.532   1.570  1.00  0.00     0.065 N 
HETATM   26  C21 UNL     1      -5.312   1.954   1.738  1.00  0.00     0.304 C 
HETATM   27  C22 UNL     1      -5.902   2.802   0.656  1.00  0.00     0.303 C 
HETATM   28  N3  UNL     1      -7.344   2.965   0.893  1.00  0.00     0.102 N 
HETATM   29  C25 UNL     1      -7.916   1.726   1.334  1.00  0.00     0.330 C 
HETATM   30  C26 UNL     1      -7.083   0.502   1.041  1.00  0.00     0.350 C 
HETATM   31  N5  UNL     1      -7.036   0.166  -0.337  1.00  0.00    -0.330 N 
HETATM   32  C27 UNL     1      -5.759  -0.419  -0.553  1.00  0.00     0.196 C 
ATOM     33  H5  UNL     1      -7.769   0.314  -1.031  1.00  0.00     0.164 HD
HETATM   34  N6  UNL     1      -5.399  -1.173  -1.533  1.00  0.00    -0.370 N 
HETATM   35  N7  UNL     1      -4.967   0.009   0.554  1.00  0.00    -0.180 N 
ATOM     36  H62 UNL     1      -5.965  -1.479  -2.324  1.00  0.00     0.159 HD
ATOM     37  H61 UNL     1      -4.482  -1.593  -1.688  1.00  0.00     0.159 HD
ATOM     38  H7  UNL     1      -3.950  -0.063   0.590  1.00  0.00     0.197 HD
BRANCH  28  39
HETATM   39  C23 UNL     1      -7.922   3.428  -0.336  1.00  0.00     0.371 C 
BRANCH  39  40
HETATM   40  C24 UNL     1      -9.342   3.761  -0.171  1.00  0.00     0.259 C 
HETATM   41  N4  UNL     1     -10.106   4.221  -1.287  1.00  0.00    -0.061 NA
HETATM   42  O2  UNL     1      -9.944   3.667   0.913  1.00  0.00    -0.275 OA
ENDBRANCH  39  40
ENDBRANCH  28  39
ENDBRANCH   2  25
TORSDOF 20
