REMARK  2 active torsions:
REMARK  status: ('A' for Active; 'I' for Inactive)
REMARK    1  A    between atoms: N3_13  and  C7_14 
REMARK    2  A    between atoms: N4_20  and  O1_22 
ROOT
HETATM    1  C1  UNL     1       3.530  -1.466   0.401  1.00  0.00     0.038 C 
HETATM    2  C2  UNL     1       3.123  -0.513  -0.703  1.00  0.00     0.129 C 
HETATM    3  N1  UNL     1       3.861   0.716  -0.581  1.00  0.00    -0.362 N 
ATOM      4  H1  UNL     1       4.683   0.867  -1.165  1.00  0.00     0.162 HD
HETATM    5  C3  UNL     1       3.466   1.715   0.333  1.00  0.00     0.135 C 
HETATM    6  N2  UNL     1       4.299   2.479   0.952  1.00  0.00    -0.380 N 
ATOM      7  H21 UNL     1       4.013   3.201   1.613  1.00  0.00     0.158 HD
ATOM      8  H22 UNL     1       5.296   2.355   0.775  1.00  0.00     0.158 HD
HETATM    9  S1  UNL     1       1.723   1.932   0.643  1.00  0.00    -0.078 SA
HETATM   10  C4  UNL     1       0.790   0.496  -0.022  1.00  0.00     0.061 C 
HETATM   11  C5  UNL     1      -0.244   1.057  -0.929  1.00  0.00     0.057 C 
HETATM   12  C6  UNL     1      -1.641   1.105  -0.364  1.00  0.00     0.275 C 
HETATM   13  N3  UNL     1      -1.939  -0.196   0.145  1.00  0.00     0.092 N 
HETATM   14  C10 UNL     1      -1.165  -0.374   1.343  1.00  0.00     0.275 C 
HETATM   15  C11 UNL     1       0.296  -0.332   1.117  1.00  0.00     0.057 C 
HETATM   16  C12 UNL     1       1.678  -0.384  -0.833  1.00  0.00     0.051 C 
HETATM   17  N4  UNL     1       1.046  -1.100  -1.736  1.00  0.00    -0.274 N 
ATOM     18  H4  UNL     1       0.034  -1.017  -1.834  1.00  0.00     0.193 HD
ENDROOT
BRANCH  17  19
HETATM   19  O1  UNL     1       1.746  -1.960  -2.548  1.00  0.00    -0.290 OA
ATOM     20  H1  UNL     1       1.289  -2.478  -3.201  1.00  0.00     0.244 HD
ENDBRANCH  17  19
BRANCH  13  21
HETATM   21  C7  UNL     1      -3.312  -0.516   0.265  1.00  0.00     0.215 C 
HETATM   22  C8  UNL     1      -4.092   0.330   1.208  1.00  0.00     0.042 C 
HETATM   23  C9  UNL     1      -3.961  -0.490  -1.103  1.00  0.00     0.042 C 
ENDBRANCH  13  21
TORSDOF 2
