REMARK  5 active torsions:
REMARK  status: ('A' for Active; 'I' for Inactive)
REMARK       I    between atoms: C1_2  and  N1_3 
REMARK    1  A    between atoms: C1_2  and  C9_12 
REMARK    2  A    between atoms: N1_3  and  C2_5 
REMARK    3  A    between atoms: N2_15  and  S1_16 
REMARK    4  A    between atoms: S1_16  and  C12_19 
REMARK    5  A    between atoms: N4_24  and  C15_26 
ROOT
HETATM    1  C9  UNL     1      -0.761   1.175  -0.574  1.00  0.00     0.080 C 
HETATM    2  C10 UNL     1      -0.008  -0.082  -0.191  1.00  0.00     0.029 C 
HETATM    3  C11 UNL     1       1.471   0.303  -0.160  1.00  0.00     0.108 C 
HETATM    4  N2  UNL     1       1.702   1.350   0.831  1.00  0.00    -0.206 NA
HETATM    5  C18 UNL     1       0.506   1.688   1.536  1.00  0.00     0.108 C 
HETATM    6  C19 UNL     1      -0.591   2.136   0.610  1.00  0.00     0.029 C 
ENDROOT
BRANCH   4   7
HETATM    7  S1  UNL     1       2.913   0.772   1.896  1.00  0.00     0.251 S 
HETATM    8  O2  UNL     1       2.440  -0.518   2.491  1.00  0.00    -0.205 OA
HETATM    9  O3  UNL     1       3.087   1.764   2.994  1.00  0.00    -0.205 OA
BRANCH   7  10
HETATM   10  C12 UNL     1       4.411   0.468   1.040  1.00  0.00     0.134 A 
HETATM   11  C13 UNL     1       5.067  -0.722   0.938  1.00  0.00     0.122 A 
HETATM   12  N3  UNL     1       6.186  -0.751   0.247  1.00  0.00    -0.345 N 
HETATM   13  C14 UNL     1       6.635   0.356  -0.319  1.00  0.00     0.146 A 
ATOM     14  H3  UNL     1       6.705  -1.624   0.148  1.00  0.00     0.167 HD
HETATM   15  N4  UNL     1       7.677   0.598  -1.032  1.00  0.00    -0.366 N 
HETATM   16  S2  UNL     1       5.416   1.512   0.143  1.00  0.00    -0.040 SA
ATOM     17  H4  UNL     1       7.747   1.572  -1.327  1.00  0.00     0.162 HD
BRANCH  15  18
HETATM   18  C15 UNL     1       8.734  -0.195  -1.487  1.00  0.00     0.083 A 
HETATM   19  C16 UNL     1       8.643  -1.588  -1.977  1.00  0.00     0.027 A 
HETATM   20  C17 UNL     1       9.423  -1.266  -0.742  1.00  0.00     0.027 A 
ENDBRANCH  15  18
ENDBRANCH   7  10
ENDBRANCH   4   7
BRANCH   1  21
HETATM   21  C1  UNL     1      -2.164   0.935  -0.888  1.00  0.00     0.222 C 
HETATM   22  O1  UNL     1      -2.606   1.218  -2.036  1.00  0.00    -0.273 OA
HETATM   23  N1  UNL     1      -3.108   0.388   0.027  1.00  0.00    -0.356 N 
ATOM     24  H1  UNL     1      -2.785   0.148   0.964  1.00  0.00     0.162 HD
BRANCH  23  25
HETATM   25  C2  UNL     1      -4.484   0.156  -0.292  1.00  0.00     0.084 C 
HETATM   26  C3  UNL     1      -5.428   1.007   0.522  1.00  0.00     0.025 C 
HETATM   27  C4  UNL     1      -6.834   0.508   0.503  1.00  0.00     0.002 C 
HETATM   28  C5  UNL     1      -7.305   0.043  -0.840  1.00  0.00     0.000 C 
HETATM   29  C6  UNL     1      -7.161  -1.453  -1.029  1.00  0.00     0.000 C 
HETATM   30  C7  UNL     1      -5.713  -1.780  -1.319  1.00  0.00     0.002 C 
HETATM   31  C8  UNL     1      -4.798  -1.303  -0.215  1.00  0.00     0.025 C 
ENDBRANCH  23  25
ENDBRANCH   1  21
TORSDOF 5
