REMARK  12 active torsions:
REMARK  status: ('A' for Active; 'I' for Inactive)
REMARK    1  A    between atoms: C4_8  and  S1_9 
REMARK    2  A    between atoms: S1_9  and  S2_10 
REMARK    3  A    between atoms: S2_10  and  C5_11 
REMARK    4  A    between atoms: C5_11  and  C6_12 
REMARK    5  A    between atoms: C6_12  and  N3_13 
REMARK    6  A    between atoms: N3_13  and  C7_14 
REMARK    7  A    between atoms: N3_13  and  C9_20 
REMARK    8  A    between atoms: C7_14  and  C8_15 
REMARK    9  A    between atoms: C8_15  and  O2_16 
REMARK   10  A    between atoms: C8_15  and  O3_18 
REMARK   11  A    between atoms: C10_21  and  O4_22 
REMARK   12  A    between atoms: N5_27  and  O5_29 
ROOT
HETATM    1  C9  UNL     1      -3.878  -0.063   0.353  1.00  0.00     0.156 C 
HETATM    2  C10 UNL     1      -4.367   1.107   0.732  1.00  0.00     0.187 C 
HETATM    3  N4  UNL     1      -5.523   1.346   1.545  1.00  0.00    -0.319 N 
ATOM      4  H4  UNL     1      -5.635   2.289   1.917  1.00  0.00     0.169 HD
HETATM    5  C11 UNL     1      -6.528   0.402   1.885  1.00  0.00     0.129 C 
HETATM    6  N5  UNL     1      -7.596   0.900   2.378  1.00  0.00    -0.253 N 
ATOM      7  H5  UNL     1      -8.369   0.292   2.649  1.00  0.00     0.196 HD
HETATM    8  C12 UNL     1      -6.525  -1.051   1.757  1.00  0.00     0.091 C 
HETATM    9  C13 UNL     1      -5.574  -1.828   1.213  1.00  0.00     0.119 C 
HETATM   10  C14 UNL     1      -5.830  -3.247   1.218  1.00  0.00     0.117 C 
HETATM   11  N6  UNL     1      -6.053  -4.389   1.219  1.00  0.00    -0.190 NA
HETATM   12  N7  UNL     1      -4.359  -1.367   0.644  1.00  0.00    -0.330 N 
ATOM     13  H7  UNL     1      -3.708  -2.113   0.397  1.00  0.00     0.168 HD
ENDROOT
BRANCH   1  14
HETATM   14  N3  UNL     1      -2.679   0.041  -0.478  1.00  0.00    -0.358 N 
BRANCH  14  15
HETATM   15  C6  UNL     1      -1.474   0.493   0.162  1.00  0.00     0.136 C 
BRANCH  15  16
HETATM   16  C5  UNL     1      -0.410  -0.500   0.420  1.00  0.00     0.106 C 
BRANCH  16  17
HETATM   17  S2  UNL     1       0.295  -1.256  -1.035  1.00  0.00    -0.088 SA
BRANCH  17  18
HETATM   18  S1  UNL     1       1.505   0.197  -2.003  1.00  0.00    -0.021 SA
BRANCH  18  19
HETATM   19  C4  UNL     1       3.140   0.037  -1.342  1.00  0.00     0.157 A 
HETATM   20  N2  UNL     1       4.075  -0.777  -1.887  1.00  0.00    -0.329 N 
HETATM   21  C3  UNL     1       5.228  -0.720  -1.204  1.00  0.00     0.148 A 
ATOM     22  H2  UNL     1       3.922  -1.359  -2.711  1.00  0.00     0.168 HD
HETATM   23  C2  UNL     1       6.474  -1.315  -1.306  1.00  0.00     0.281 A 
HETATM   24  C15 UNL     1       5.010   0.174  -0.179  1.00  0.00     0.146 A 
HETATM   25  N1  UNL     1       7.485  -1.056  -0.441  1.00  0.00    -0.269 N 
HETATM   26  O1  UNL     1       6.691  -2.129  -2.230  1.00  0.00    -0.265 OA
HETATM   27  C1  UNL     1       8.791  -1.695  -0.566  1.00  0.00     0.164 C 
HETATM   28  C17 UNL     1       7.228  -0.178   0.544  1.00  0.00     0.332 A 
HETATM   29  N9  UNL     1       6.020   0.419   0.667  1.00  0.00    -0.287 N 
HETATM   30  O6  UNL     1       8.174   0.060   1.348  1.00  0.00    -0.246 OA
HETATM   31  C16 UNL     1       5.793   1.358   1.747  1.00  0.00     0.163 C 
HETATM   32  N8  UNL     1       3.746   0.610  -0.290  1.00  0.00    -0.320 N 
ATOM     33  H8  UNL     1       3.307   1.283   0.338  1.00  0.00     0.169 HD
ENDBRANCH  18  19
ENDBRANCH  17  18
ENDBRANCH  16  17
ENDBRANCH  15  16
ENDBRANCH  14  15
BRANCH  14  34
HETATM   34  C7  UNL     1      -2.827  -0.325  -1.859  1.00  0.00     0.184 C 
BRANCH  34  35
HETATM   35  C8  UNL     1      -2.804   0.845  -2.814  1.00  0.00     0.271 C 
BRANCH  35  36
HETATM   36  O2  UNL     1      -1.685   1.606  -2.790  1.00  0.00    -0.370 OA
ATOM     37  H2  UNL     1      -1.671   2.342  -3.391  1.00  0.00     0.212 HD
ENDBRANCH  35  36
BRANCH  35  38
HETATM   38  O3  UNL     1      -2.953   0.370  -4.140  1.00  0.00    -0.370 OA
ATOM     39  H3  UNL     1      -2.939   1.106  -4.741  1.00  0.00     0.212 HD
ENDBRANCH  35  38
ENDBRANCH  34  35
ENDBRANCH  14  34
ENDBRANCH   1  14
BRANCH   6  40
HETATM   40  O5  UNL     1      -7.696   2.250   2.539  1.00  0.00    -0.288 OA
ATOM     41  H5  UNL     1      -8.490   2.620   2.906  1.00  0.00     0.244 HD
ENDBRANCH   6  40
BRANCH   2  42
HETATM   42  O4  UNL     1      -3.679   2.225   0.291  1.00  0.00    -0.343 OA
ATOM     43  H4  UNL     1      -4.030   3.065   0.563  1.00  0.00     0.219 HD
ENDBRANCH   2  42
TORSDOF 12
