REMARK  13 active torsions:
REMARK  status: ('A' for Active; 'I' for Inactive)
REMARK    1  A    between atoms: N1_2  and  C2_3 
REMARK    2  A    between atoms: N1_2  and  C6_9 
REMARK    3  A    between atoms: C2_3  and  O1_4 
REMARK    4  A    between atoms: C2_3  and  C3_6 
REMARK    5  A    between atoms: C8_14  and  N4_15 
REMARK    6  A    between atoms: N4_15  and  C9_17 
REMARK    7  A    between atoms: C10_20  and  S1_21 
REMARK    8  A    between atoms: S1_21  and  C11_22 
REMARK    9  A    between atoms: C11_22  and  S2_23 
REMARK   10  A    between atoms: S2_23  and  C12_24 
REMARK   11  A    between atoms: C13_27  and  N7_28 
REMARK   12  A    between atoms: C14_38  and  C15_39 
REMARK   13  A    between atoms: C17_44  and  N13_45 
ROOT
HETATM    1  C9  UNL     1       1.473  -2.170   1.539  1.00  0.00     0.156 A 
HETATM    2  N5  UNL     1       2.418  -1.808   0.619  1.00  0.00    -0.319 N 
ATOM      3  H5  UNL     1       2.578  -0.811   0.475  1.00  0.00     0.169 HD
HETATM    4  C10 UNL     1       3.141  -2.653  -0.098  1.00  0.00     0.161 A 
HETATM    5  N9  UNL     1       2.927  -3.974   0.097  1.00  0.00    -0.279 N 
ATOM      6  H9  UNL     1       3.465  -4.657  -0.436  1.00  0.00     0.189 HD
HETATM    7  N10 UNL     1       2.029  -4.387   0.971  1.00  0.00    -0.291 N 
ATOM      8  H10 UNL     1       1.890  -5.390   1.096  1.00  0.00     0.187 HD
HETATM    9  C14 UNL     1       1.281  -3.523   1.713  1.00  0.00     0.158 A 
ENDROOT
BRANCH   1  10
HETATM   10  N4  UNL     1       0.747  -1.174   2.247  1.00  0.00    -0.174 N 
ATOM     11  H4  UNL     1       0.993  -0.939   3.209  1.00  0.00     0.186 HD
BRANCH  10  12
HETATM   12  C8  UNL     1      -0.218  -0.578   1.660  1.00  0.00     0.688 A 
HETATM   13  N3  UNL     1      -0.531  -0.899   0.400  1.00  0.00    -0.176 N 
HETATM   14  C7  UNL     1      -1.547  -0.289  -0.276  1.00  0.00     0.162 A 
ATOM     15  H3  UNL     1       0.008  -1.625  -0.072  1.00  0.00     0.185 HD
HETATM   16  C6  UNL     1      -2.246   0.684   0.402  1.00  0.00     0.122 A 
HETATM   17  N2  UNL     1      -1.828  -0.673  -1.602  1.00  0.00    -0.080 NA
HETATM   18  C17 UNL     1      -1.908   0.996   1.694  1.00  0.00     0.147 A 
HETATM   19  N12 UNL     1      -0.893   0.366   2.325  1.00  0.00    -0.170 N 
HETATM   20  C16 UNL     1      -0.574   0.728   3.683  1.00  0.00     0.177 C 
BRANCH  16  21
HETATM   21  N1  UNL     1      -3.333   1.355  -0.288  1.00  0.00    -0.330 N 
HETATM   22  C1  UNL     1      -2.919   2.240  -1.334  1.00  0.00     0.158 C 
BRANCH  21  23
HETATM   23  C2  UNL     1      -4.623   1.086   0.137  1.00  0.00     0.122 C 
BRANCH  23  24
HETATM   24  O1  UNL     1      -4.754   0.273   1.156  1.00  0.00    -0.349 OA
ATOM     25  H1  UNL     1      -5.639   0.088   1.448  1.00  0.00     0.219 HD
ENDBRANCH  23  24
BRANCH  23  26
HETATM   26  C3  UNL     1      -5.900   1.582  -0.386  1.00  0.00     0.060 A 
HETATM   27  C4  UNL     1      -6.074   2.852  -1.144  1.00  0.00     0.013 A 
HETATM   28  C5  UNL     1      -6.227   1.546  -1.853  1.00  0.00     0.013 A 
ENDBRANCH  23  26
ENDBRANCH  21  23
ENDBRANCH  16  21
BRANCH  18  29
HETATM   29  N13 UNL     1      -2.562   1.921   2.345  1.00  0.00    -0.383 N 
ATOM     30 2H13 UNL     1      -3.328   2.397   1.869  1.00  0.00     0.157 HD
ATOM     31 1H13 UNL     1      -2.311   2.153   3.306  1.00  0.00     0.157 HD
ENDBRANCH  18  29
ENDBRANCH  10  12
ENDBRANCH   1  10
BRANCH   9  32
HETATM   32  C15 UNL     1       0.315  -4.012   2.678  1.00  0.00     0.286 C 
HETATM   33  N11 UNL     1      -0.445  -3.149   3.485  1.00  0.00    -0.056 NA
HETATM   34  O3  UNL     1       0.143  -5.260   2.808  1.00  0.00    -0.269 OA
ENDBRANCH   9  32
BRANCH   4  35
HETATM   35  S1  UNL     1       4.390  -2.180  -1.282  1.00  0.00    -0.082 SA
BRANCH  35  36
HETATM   36  C11 UNL     1       5.964  -2.098  -0.342  1.00  0.00     0.165 C 
BRANCH  36  37
HETATM   37  S2  UNL     1       7.251  -1.594  -1.517  1.00  0.00    -0.073 SA
BRANCH  37  38
HETATM   38  C12 UNL     1       6.911   0.077  -2.012  1.00  0.00     0.224 A 
HETATM   39  N6  UNL     1       6.158   0.498  -3.033  1.00  0.00    -0.161 N 
HETATM   40  C13 UNL     1       6.165   1.844  -3.056  1.00  0.00     0.698 A 
ATOM     41  H6  UNL     1       5.659  -0.103  -3.689  1.00  0.00     0.187 HD
HETATM   42  N8  UNL     1       6.942   2.217  -2.022  1.00  0.00    -0.089 N 
HETATM   43  O2  UNL     1       7.376   1.142  -1.414  1.00  0.00    -0.197 OA
ATOM     44  H8  UNL     1       7.157   3.178  -1.756  1.00  0.00     0.213 HD
BRANCH  40  45
HETATM   45  N7  UNL     1       5.567   2.608  -3.876  1.00  0.00    -0.233 N 
ATOM     46  H72 UNL     1       4.978   2.325  -4.660  1.00  0.00     0.174 HD
ATOM     47  H71 UNL     1       5.572   3.628  -3.893  1.00  0.00     0.174 HD
ENDBRANCH  40  45
ENDBRANCH  37  38
ENDBRANCH  36  37
ENDBRANCH  35  36
ENDBRANCH   4  35
TORSDOF 13
