REMARK  15 active torsions:
REMARK  status: ('A' for Active; 'I' for Inactive)
REMARK    1  A    between atoms: C3_5  and  C4_6 
REMARK    2  A    between atoms: C7_9  and  C8_10 
REMARK    3  A    between atoms: C8_10  and  C9_11 
REMARK    4  A    between atoms: C9_11  and  C10_12 
REMARK    5  A    between atoms: C10_12  and  N2_13 
REMARK    6  A    between atoms: N2_13  and  C11_14 
REMARK    7  A    between atoms: N2_13  and  N5_30 
REMARK    8  A    between atoms: C11_14  and  C12_15 
REMARK    9  A    between atoms: C13_16  and  C14_17 
REMARK   10  A    between atoms: C17_22  and  C18_23 
REMARK   11  A    between atoms: C18_23  and  C19_24 
REMARK   12  A    between atoms: C19_24  and  C20_25 
REMARK   13  A    between atoms: C20_25  and  O1_26 
REMARK   14  A    between atoms: N5_30  and  C22_32 
REMARK   15  A    between atoms: C23_33  and  C24_34 
ROOT
HETATM    1  N2  UNL     1      -1.172   0.222   0.199  1.00  0.00    -0.212 NA
ENDROOT
BRANCH   1   2
HETATM    2  C10 UNL     1      -0.802  -1.018  -0.404  1.00  0.00     0.119 C 
BRANCH   2   3
HETATM    3  C9  UNL     1      -1.133  -2.161   0.535  1.00  0.00     0.044 C 
BRANCH   3   4
HETATM    4  C8  UNL     1      -0.755  -3.436  -0.096  1.00  0.00    -0.012 C 
BRANCH   4   5
HETATM    5  C7  UNL     1      -1.624  -4.394  -0.285  1.00  0.00    -0.012 A 
HETATM    6  C2  UNL     1      -1.340  -5.621  -0.873  1.00  0.00     0.033 A 
HETATM    7  C1  UNL     1      -0.147  -5.957  -1.310  1.00  0.00     0.044 C 
HETATM    8  N1  UNL     1      -2.485  -6.308  -0.879  1.00  0.00    -0.360 N 
HETATM    9  C3  UNL     1      -3.470  -5.601  -0.337  1.00  0.00     0.010 A 
ATOM     10  H1  UNL     1      -2.589  -7.252  -1.251  1.00  0.00     0.166 HD
HETATM   11  C6  UNL     1      -2.958  -4.371   0.054  1.00  0.00     0.038 A 
BRANCH   9  12
HETATM   12  C4  UNL     1      -4.882  -6.056  -0.181  1.00  0.00     0.052 C 
HETATM   13  C5  UNL     1      -4.974  -6.737   1.163  1.00  0.00     0.011 C 
ENDBRANCH   9  12
ENDBRANCH   4   5
ENDBRANCH   3   4
ENDBRANCH   2   3
ENDBRANCH   1   2
BRANCH   1  14
HETATM   14  C11 UNL     1      -0.393   0.581   1.328  1.00  0.00     0.208 C 
BRANCH  14  15
HETATM   15  C12 UNL     1       0.985   0.878   0.858  1.00  0.00    -0.083 C 
HETATM   16  C13 UNL     1       2.100   1.104   0.461  1.00  0.00    -0.045 C 
BRANCH  16  17
HETATM   17  C14 UNL     1       3.422   1.358  -0.035  1.00  0.00     0.112 A 
HETATM   18  C15 UNL     1       4.032   2.567  -0.286  1.00  0.00     0.042 A 
HETATM   19  C16 UNL     1       3.391   3.890  -0.071  1.00  0.00     0.071 C 
HETATM   20  N3  UNL     1       5.273   2.383  -0.746  1.00  0.00    -0.347 N 
HETATM   21  C17 UNL     1       5.485   1.039  -0.799  1.00  0.00     0.084 A 
ATOM     22  H3  UNL     1       5.937   3.112  -1.008  1.00  0.00     0.167 HD
HETATM   23  N4  UNL     1       4.358   0.427  -0.367  1.00  0.00    -0.332 N 
HETATM   24  C21 UNL     1       4.164  -1.007  -0.278  1.00  0.00     0.158 C 
BRANCH  21  25
HETATM   25  C18 UNL     1       6.747   0.457  -1.279  1.00  0.00     0.079 C 
BRANCH  25  26
HETATM   26  C19 UNL     1       7.813   0.284  -0.256  1.00  0.00     0.033 C 
BRANCH  26  27
HETATM   27  C20 UNL     1       7.440  -0.606   0.903  1.00  0.00     0.164 C 
BRANCH  27  28
HETATM   28  O1  UNL     1       8.516  -0.719   1.805  1.00  0.00    -0.401 OA
ATOM     29  H1  UNL     1       8.281  -1.280   2.535  1.00  0.00     0.209 HD
ENDBRANCH  27  28
ENDBRANCH  26  27
ENDBRANCH  25  26
ENDBRANCH  21  25
ENDBRANCH  16  17
ENDBRANCH  14  15
ENDBRANCH   1  14
BRANCH   1  30
HETATM   30  N5  UNL     1      -2.536   0.386   0.321  1.00  0.00    -0.277 N 
ATOM     31  H5  UNL     1      -3.150  -0.423   0.417  1.00  0.00     0.191 HD
BRANCH  30  32
HETATM   32  C22 UNL     1      -3.069   1.703   0.310  1.00  0.00     0.027 C 
HETATM   33  C23 UNL     1      -3.538   2.818   0.286  1.00  0.00    -0.043 C 
BRANCH  33  34
HETATM   34  C24 UNL     1      -4.114   4.133   0.241  1.00  0.00     0.019 A 
HETATM   35  C25 UNL     1      -3.320   5.231  -0.042  1.00  0.00     0.021 A 
HETATM   36  C26 UNL     1      -3.812   6.519  -0.101  1.00  0.00     0.008 A 
HETATM   37  C27 UNL     1      -5.167   6.695   0.136  1.00  0.00    -0.062 A 
HETATM   38  C28 UNL     1      -5.711   8.084   0.072  1.00  0.00     0.048 C 
HETATM   39  C29 UNL     1      -6.000   5.639   0.422  1.00  0.00     0.008 A 
HETATM   40  C30 UNL     1      -5.458   4.378   0.469  1.00  0.00     0.021 A 
ENDBRANCH  33  34
ENDBRANCH  30  32
ENDBRANCH   1  30
TORSDOF 15
