REMARK  14 active torsions:
REMARK  status: ('A' for Active; 'I' for Inactive)
REMARK    1  A    between atoms: C2_2  and  C3_3 
REMARK    2  A    between atoms: C3_3  and  C5_5 
REMARK    3  A    between atoms: N3_15  and  C9_16 
REMARK    4  A    between atoms: C9_16  and  C10_17 
REMARK    5  A    between atoms: C10_17  and  C11_18 
REMARK    6  A    between atoms: C11_18  and  C12_19 
REMARK    7  A    between atoms: C12_19  and  N4_20 
REMARK    8  A    between atoms: C13_22  and  C14_23 
REMARK    9  A    between atoms: C14_23  and  O3_24 
REMARK   10  A    between atoms: C14_23  and  C15_26 
REMARK   11  A    between atoms: C15_26  and  C16_27 
REMARK   12  A    between atoms: C15_26  and  C18_29 
REMARK   13  A    between atoms: C18_29  and  C19_30 
REMARK   14  A    between atoms: C19_30  and  C20_31 
ROOT
HETATM    1  C11 UNL     1      -0.999   1.417  -0.019  1.00  0.00     0.046 C 
ENDROOT
BRANCH   1   2
HETATM    2  C10 UNL     1      -2.130   0.390  -0.169  1.00  0.00     0.025 C 
BRANCH   2   3
HETATM    3  C9  UNL     1      -3.232   0.886  -1.059  1.00  0.00     0.137 C 
BRANCH   3   4
HETATM    4  N3  UNL     1      -4.251  -0.142  -1.139  1.00  0.00    -0.268 N 
HETATM    5  C8  UNL     1      -4.060  -1.083  -2.187  1.00  0.00     0.325 C 
HETATM    6  N2  UNL     1      -4.540  -2.390  -2.518  1.00  0.00    -0.334 N 
HETATM    7  O2  UNL     1      -3.246  -0.658  -3.068  1.00  0.00    -0.247 OA
HETATM    8  C7  UNL     1      -5.695  -3.116  -1.967  1.00  0.00     0.227 C 
ATOM      9  H2  UNL     1      -4.009  -2.886  -3.234  1.00  0.00     0.164 HD
HETATM   10  C6  UNL     1      -6.845  -2.195  -1.906  1.00  0.00     0.236 C 
HETATM   11  N1  UNL     1      -7.105  -0.965  -1.201  1.00  0.00    -0.346 N 
HETATM   12  O1  UNL     1      -7.799  -2.568  -2.627  1.00  0.00    -0.272 OA
HETATM   13  C5  UNL     1      -6.674  -0.329   0.009  1.00  0.00     0.181 C 
ATOM     14  H1  UNL     1      -7.782  -0.389  -1.701  1.00  0.00     0.163 HD
HETATM   15  C25 UNL     1      -5.237   0.041  -0.106  1.00  0.00     0.251 C 
HETATM   16  O4  UNL     1      -4.766   0.627   0.881  1.00  0.00    -0.271 OA
BRANCH  13  17
HETATM   17  C3  UNL     1      -7.581   0.713   0.510  1.00  0.00     0.013 C 
HETATM   18  C4  UNL     1      -6.975   1.550   1.646  1.00  0.00     0.012 C 
BRANCH  17  19
HETATM   19  C2  UNL     1      -8.928   0.292   0.919  1.00  0.00     0.002 C 
HETATM   20  C1  UNL     1      -9.716  -0.512  -0.040  1.00  0.00     0.005 C 
ENDBRANCH  17  19
ENDBRANCH  13  17
ENDBRANCH   3   4
ENDBRANCH   2   3
ENDBRANCH   1   2
BRANCH   1  21
HETATM   21  C12 UNL     1       0.001   0.759   0.905  1.00  0.00     0.060 C 
BRANCH  21  22
HETATM   22  N4  UNL     1       1.133   1.482   1.209  1.00  0.00    -0.380 N 
HETATM   23  C13 UNL     1       2.160   1.811   0.390  1.00  0.00     0.096 C 
ATOM     24  H4  UNL     1       1.207   1.811   2.172  1.00  0.00     0.164 HD
BRANCH  23  25
HETATM   25  C14 UNL     1       3.207   0.858  -0.100  1.00  0.00     0.185 C 
BRANCH  25  26
HETATM   26  O3  UNL     1       3.971   1.673  -0.994  1.00  0.00    -0.386 OA
ATOM     27  H3  UNL     1       4.635   1.069  -1.305  1.00  0.00     0.210 HD
ENDBRANCH  25  26
BRANCH  25  28
HETATM   28  C15 UNL     1       4.107   0.244   0.885  1.00  0.00    -0.047 C 
BRANCH  28  29
HETATM   29  C16 UNL     1       3.402  -0.631   1.924  1.00  0.00     0.033 C 
HETATM   30  C17 UNL     1       2.708  -1.824   1.306  1.00  0.00     0.010 C 
ENDBRANCH  28  29
BRANCH  28  31
HETATM   31  C18 UNL     1       5.219   1.001   1.479  1.00  0.00     0.004 C 
BRANCH  31  32
HETATM   32  C19 UNL     1       6.349   1.511   0.714  1.00  0.00     0.006 C 
BRANCH  32  33
HETATM   33  C20 UNL     1       7.328   0.641   0.060  1.00  0.00     0.208 C 
HETATM   34  C21 UNL     1       6.926  -0.334  -0.979  1.00  0.00     0.037 C 
HETATM   35  C22 UNL     1       8.125  -0.498  -1.945  1.00  0.00     0.004 C 
HETATM   36  C23 UNL     1       9.385  -0.312  -1.170  1.00  0.00     0.027 C 
HETATM   37  C24 UNL     1       9.192  -0.793   0.229  1.00  0.00     0.233 C 
HETATM   38  N5  UNL     1       8.209  -0.064   0.987  1.00  0.00    -0.068 N 
ATOM     39  H52 UNL     1       8.631   0.560   1.674  1.00  0.00     0.277 HD
ATOM     40  H51 UNL     1       7.695  -0.661   1.635  1.00  0.00     0.277 HD
ENDBRANCH  32  33
ENDBRANCH  31  32
ENDBRANCH  28  31
ENDBRANCH  25  28
ENDBRANCH  23  25
ENDBRANCH  21  22
ENDBRANCH   1  21
TORSDOF 14
