REMARK  9 active torsions:
REMARK  status: ('A' for Active; 'I' for Inactive)
REMARK    1  A    between atoms: C2_2  and  C3_3 
REMARK    2  A    between atoms: C3_3  and  C4_4 
REMARK    3  A    between atoms: C4_4  and  C5_5 
REMARK    4  A    between atoms: C5_5  and  N1_6 
REMARK    5  A    between atoms: C6_7  and  C7_8 
REMARK    6  A    between atoms: C7_8  and  C8_9 
REMARK    7  A    between atoms: C10_11  and  N2_12 
REMARK    8  A    between atoms: N5_19  and  C13_20 
REMARK    9  A    between atoms: C13_20  and  C14_21 
ROOT
HETATM    1  C14 UNL     1      -2.147   3.525  -0.653  1.00  0.00    -0.087 C 
HETATM    2  C15 UNL     1      -2.636   4.102  -1.587  1.00  0.00    -0.109 C 
HETATM    3  C16 UNL     1      -3.216   4.795  -2.741  1.00  0.00     0.112 C 
ENDROOT
BRANCH   1   4
HETATM    4  C13 UNL     1      -1.525   2.819   0.480  1.00  0.00     0.220 C 
BRANCH   4   5
HETATM    5  N5  UNL     1      -2.028   1.483   0.483  1.00  0.00    -0.335 N 
HETATM    6  C8  UNL     1      -1.414   0.362  -0.236  1.00  0.00     0.096 C 
HETATM    7  C9  UNL     1      -1.765  -0.783   0.682  1.00  0.00     0.060 C 
HETATM    8  C10 UNL     1      -3.269  -0.513   0.860  1.00  0.00     0.178 C 
HETATM    9  C12 UNL     1      -3.196   0.963   1.155  1.00  0.00     0.243 C 
HETATM   10  O1  UNL     1      -3.960   1.664   1.838  1.00  0.00    -0.271 OA
BRANCH   6  11
HETATM   11  C7  UNL     1       0.032   0.621  -0.399  1.00  0.00     0.084 C 
BRANCH  11  12
HETATM   12  C6  UNL     1       0.869  -0.407  -0.980  1.00  0.00     0.031 A 
HETATM   13  N1  UNL     1       2.222  -0.300  -0.916  1.00  0.00    -0.331 N 
HETATM   14  C20 UNL     1       2.946  -1.258  -1.515  1.00  0.00     0.169 A 
HETATM   15  C19 UNL     1       2.393  -2.318  -2.174  1.00  0.00     0.168 A 
HETATM   16  N8  UNL     1       4.144  -1.801  -1.856  1.00  0.00    -0.281 N 
HETATM   17  N6  UNL     1       1.067  -2.442  -2.248  1.00  0.00    -0.342 N 
HETATM   18  N7  UNL     1       3.600  -2.828  -2.495  1.00  0.00    -0.281 N 
HETATM   19  C17 UNL     1       0.310  -1.482  -1.649  1.00  0.00     0.117 A 
HETATM   20  C18 UNL     1       0.439  -3.571  -2.950  1.00  0.00     0.157 C 
ATOM     21  H7  UNL     1       3.943  -3.643  -3.004  1.00  0.00     0.188 HD
ATOM     22  H8  UNL     1       5.110  -1.521  -1.683  1.00  0.00     0.188 HD
BRANCH  13  23
HETATM   23  C5  UNL     1       2.864   0.779  -0.231  1.00  0.00     0.131 C 
BRANCH  23  24
HETATM   24  C4  UNL     1       3.163   0.452   1.205  1.00  0.00     0.024 C 
BRANCH  24  25
HETATM   25  C3  UNL     1       3.839   1.697   1.799  1.00  0.00     0.028 C 
BRANCH  25  26
HETATM   26  C2  UNL     1       4.184   1.497   3.221  1.00  0.00    -0.037 C 
HETATM   27  C1  UNL     1       5.437   1.577   3.634  1.00  0.00     0.007 C 
ENDBRANCH  25  26
ENDBRANCH  24  25
ENDBRANCH  23  24
ENDBRANCH  13  23
ENDBRANCH  11  12
ENDBRANCH   6  11
BRANCH   8  28
HETATM   28  N2  UNL     1      -3.802  -1.243   1.966  1.00  0.00    -0.354 N 
HETATM   29  C11 UNL     1      -4.319  -2.390   1.788  1.00  0.00     0.197 C 
HETATM   30  N3  UNL     1      -4.373  -2.968   0.473  1.00  0.00    -0.067 NA
HETATM   31  N4  UNL     1      -4.849  -3.119   2.882  1.00  0.00    -0.067 NA
ATOM     32  H2  UNL     1      -3.767  -0.842   2.903  1.00  0.00     0.162 HD
ENDBRANCH   8  28
ENDBRANCH   4   5
ENDBRANCH   1   4
TORSDOF 9
