REMARK  7 active torsions:
REMARK  status: ('A' for Active; 'I' for Inactive)
REMARK    1  A    between atoms: N2_5  and  C4_6 
REMARK    2  A    between atoms: C4_6  and  C5_7 
REMARK    3  A    between atoms: C5_7  and  C6_8 
REMARK    4  A    between atoms: C6_8  and  C7_9 
REMARK    5  A    between atoms: C7_9  and  C8_10 
REMARK    6  A    between atoms: C8_10  and  O1_11 
REMARK    7  A    between atoms: C12_19  and  O2_20 
ROOT
HETATM    1  C5  UNL     1      -0.603  -1.110   0.255  1.00  0.00     0.031 C 
ENDROOT
BRANCH   1   2
HETATM    2  C4  UNL     1       0.714  -0.997   0.956  1.00  0.00     0.276 C 
BRANCH   2   3
HETATM    3  N2  UNL     1       1.533   0.110   0.514  1.00  0.00     0.120 N 
HETATM    4  C3  UNL     1       2.737   0.092   1.325  1.00  0.00     0.306 C 
HETATM    5  C2  UNL     1       3.631   1.187   0.783  1.00  0.00     0.302 C 
HETATM    6  N1  UNL     1       4.219   0.670  -0.433  1.00  0.00     0.090 N 
HETATM    7  C1  UNL     1       5.422  -0.061  -0.007  1.00  0.00     0.310 C 
HETATM    8  C13 UNL     1       3.338  -0.220  -1.144  1.00  0.00     0.335 C 
HETATM    9  C12 UNL     1       1.883   0.032  -0.878  1.00  0.00     0.385 C 
BRANCH   9  10
HETATM   10  O2  UNL     1       1.492   1.199  -1.531  1.00  0.00    -0.366 OA
ATOM     11  H2  UNL     1       1.723   1.147  -2.451  1.00  0.00     0.212 HD
ENDBRANCH   9  10
ENDBRANCH   2   3
ENDBRANCH   1   2
BRANCH   1  12
HETATM   12  C6  UNL     1      -1.402   0.146   0.489  1.00  0.00     0.015 C 
BRANCH  12  13
HETATM   13  C7  UNL     1      -2.744   0.171  -0.151  1.00  0.00     0.006 C 
HETATM   14  C9  UNL     1      -3.685  -0.882   0.395  1.00  0.00     0.041 C 
HETATM   15  C10 UNL     1      -4.660  -1.035  -0.757  1.00  0.00     0.233 C 
HETATM   16  N3  UNL     1      -3.724  -1.123  -1.888  1.00  0.00    -0.074 N 
HETATM   17  C11 UNL     1      -2.777  -0.029  -1.623  1.00  0.00     0.243 C 
ATOM     18  H32 UNL     1      -3.292  -2.039  -2.012  1.00  0.00     0.277 HD
ATOM     19  H31 UNL     1      -4.164  -1.091  -2.808  1.00  0.00     0.277 HD
BRANCH  13  20
HETATM   20  C8  UNL     1      -3.379   1.519   0.207  1.00  0.00     0.175 C 
BRANCH  20  21
HETATM   21  O1  UNL     1      -2.615   2.581  -0.259  1.00  0.00    -0.400 OA
ATOM     22  H1  UNL     1      -3.009   3.417  -0.037  1.00  0.00     0.209 HD
ENDBRANCH  20  21
ENDBRANCH  13  20
ENDBRANCH  12  13
ENDBRANCH   1  12
TORSDOF 7
