REMARK  13 active torsions:
REMARK  status: ('A' for Active; 'I' for Inactive)
REMARK    1  A    between atoms: C2_2  and  C3_3 
REMARK    2  A    between atoms: C3_3  and  C4_4 
REMARK    3  A    between atoms: C4_4  and  N1_5 
REMARK    4  A    between atoms: C4_4  and  C27_38 
REMARK    5  A    between atoms: N1_5  and  C5_7 
REMARK    6  A    between atoms: C5_7  and  C6_8 
REMARK    7  A    between atoms: C5_7  and  C14_20 
REMARK    8  A    between atoms: N3_25  and  C17_26 
REMARK    9  A    between atoms: C17_26  and  O4_27 
REMARK   10  A    between atoms: C17_26  and  C18_29 
REMARK   11  A    between atoms: C21_32  and  C22_33 
REMARK   12  A    between atoms: C22_33  and  C23_34 
REMARK   13  A    between atoms: C27_38  and  C28_40 
ROOT
HETATM    1  C5  UNL     1      -1.519  -0.797  -0.029  1.00  0.00     0.141 C 
ENDROOT
BRANCH   1   2
HETATM    2  N1  UNL     1      -1.914   0.436  -0.567  1.00  0.00    -0.401 N 
ATOM      3  H1  UNL     1      -1.481   0.668  -1.461  1.00  0.00     0.154 HD
BRANCH   2   4
HETATM    4  C4  UNL     1      -2.783   1.380  -0.094  1.00  0.00     0.157 C 
BRANCH   4   5
HETATM    5  C3  UNL     1      -2.375   2.091   1.183  1.00  0.00     0.033 C 
BRANCH   5   6
HETATM    6  C2  UNL     1      -1.091   2.861   1.066  1.00  0.00    -0.002 C 
HETATM    7  C1  UNL     1      -0.792   3.533   2.414  1.00  0.00     0.005 C 
ENDBRANCH   5   6
ENDBRANCH   4   5
BRANCH   4   8
HETATM    8  C27 UNL     1      -2.913   2.493  -1.110  1.00  0.00     0.235 C 
HETATM    9  O5  UNL     1      -2.137   2.402  -2.122  1.00  0.00    -0.285 OA
BRANCH   8  10
HETATM   10  C28 UNL     1      -3.789   3.597  -1.053  1.00  0.00     0.302 C 
HETATM   11  N4  UNL     1      -3.787   4.595  -2.065  1.00  0.00    -0.054 NA
HETATM   12  O6  UNL     1      -4.606   3.758  -0.123  1.00  0.00    -0.268 OA
ENDBRANCH   8  10
ENDBRANCH   4   8
ENDBRANCH   2   4
ENDBRANCH   1   2
BRANCH   1  13
HETATM   13  C6  UNL     1      -2.622  -1.827   0.001  1.00  0.00     0.152 C 
HETATM   14  O1  UNL     1      -2.146  -3.114   0.346  1.00  0.00    -0.371 OA
HETATM   15  C7  UNL     1      -2.909  -4.104  -0.261  1.00  0.00     0.188 C 
HETATM   16  C8  UNL     1      -2.581  -5.458   0.322  1.00  0.00     0.048 C 
HETATM   17  C9  UNL     1      -4.351  -3.908  -0.274  1.00  0.00     0.170 C 
HETATM   18  O2  UNL     1      -4.987  -4.951  -0.119  1.00  0.00    -0.294 OA
HETATM   19  C10 UNL     1      -5.248  -2.734  -0.430  1.00  0.00     0.144 C 
HETATM   20 BR1  UNL     1      -7.099  -3.289  -0.414  1.00  0.00    -0.082 Br
HETATM   21  C11 UNL     1      -5.064  -1.718   0.649  1.00  0.00     0.086 C 
HETATM   22 BR2  UNL     1      -6.252  -2.202   2.107  1.00  0.00    -0.089 Br
HETATM   23  C12 UNL     1      -3.637  -1.593   1.122  1.00  0.00     0.029 C 
HETATM   24  C13 UNL     1      -3.343  -2.547   2.269  1.00  0.00     0.014 C 
ENDBRANCH   1  13
BRANCH   1  25
HETATM   25  C14 UNL     1      -0.317  -1.257  -0.836  1.00  0.00     0.229 C 
HETATM   26  C15 UNL     1       0.336  -2.504  -0.479  1.00  0.00     0.265 C 
HETATM   27  O3  UNL     1       0.497  -3.707  -0.789  1.00  0.00    -0.269 OA
HETATM   28  N2  UNL     1       0.893  -1.732   0.633  1.00  0.00    -0.259 N 
HETATM   29  C16 UNL     1       1.173  -2.106   1.991  1.00  0.00     0.181 C 
HETATM   30  N3  UNL     1       0.957  -0.701  -0.275  1.00  0.00    -0.250 N 
BRANCH  30  31
HETATM   31  C17 UNL     1       1.762   0.365  -0.607  1.00  0.00     0.164 C 
BRANCH  31  32
HETATM   32  O4  UNL     1       1.320   1.053  -1.634  1.00  0.00    -0.345 OA
ATOM     33  H4  UNL     1       1.876   1.789  -1.863  1.00  0.00     0.219 HD
ENDBRANCH  31  32
BRANCH  31  34
HETATM   34  C18 UNL     1       2.974   0.871  -0.061  1.00  0.00    -0.009 C 
HETATM   35  C19 UNL     1       3.691   0.447   0.949  1.00  0.00    -0.015 C 
HETATM   36  C20 UNL     1       4.907   1.301   1.170  1.00  0.00     0.033 C 
HETATM   37  C21 UNL     1       5.149   1.822  -0.290  1.00  0.00    -0.006 C 
HETATM   38  C26 UNL     1       3.712   2.085  -0.624  1.00  0.00     0.047 C 
BRANCH  37  39
HETATM   39  C22 UNL     1       5.837   0.743  -1.030  1.00  0.00     0.009 C 
BRANCH  39  40
HETATM   40  C23 UNL     1       6.238   0.949  -2.432  1.00  0.00    -0.022 C 
HETATM   41  C24 UNL     1       5.191   1.228  -3.444  1.00  0.00     0.009 C 
HETATM   42  C25 UNL     1       7.328   2.010  -2.581  1.00  0.00     0.009 C 
ENDBRANCH  39  40
ENDBRANCH  37  39
ENDBRANCH  31  34
ENDBRANCH  30  31
ENDBRANCH   1  25
TORSDOF 13
