REMARK  3 active torsions:
REMARK  status: ('A' for Active; 'I' for Inactive)
REMARK    1  A    between atoms: C3_4  and  N1_5 
REMARK    2  A    between atoms: N2_8  and  C6_9 
REMARK    3  A    between atoms: C12_21  and  N6_22 
ROOT
HETATM    1  O1  UNL     1       2.345  -1.836  -3.653  1.00  0.00    -0.268 OA
HETATM    2  C1  UNL     1       2.099  -1.307  -2.544  1.00  0.00     0.263 A 
HETATM    3  C2  UNL     1       0.806  -1.264  -2.026  1.00  0.00     0.123 A 
HETATM    4  C3  UNL     1       0.564  -0.678  -0.807  1.00  0.00     0.124 A 
HETATM    5  N5  UNL     1       1.602  -0.153  -0.135  1.00  0.00    -0.176 N 
ATOM      6  H5  UNL     1       1.447   0.287   0.772  1.00  0.00     0.186 HD
HETATM    7  C12 UNL     1       2.850  -0.203  -0.652  1.00  0.00     0.684 A 
HETATM    8  N7  UNL     1       3.109  -0.771  -1.842  1.00  0.00    -0.156 N 
ATOM      9  H7  UNL     1       4.061  -0.794  -2.207  1.00  0.00     0.187 HD
ENDROOT
BRANCH   4  10
HETATM   10  N1  UNL     1      -0.741  -0.608  -0.262  1.00  0.00    -0.364 N 
HETATM   11  C4  UNL     1      -1.360  -1.688   0.433  1.00  0.00     0.144 C 
HETATM   12  C5  UNL     1      -2.868  -1.705   0.313  1.00  0.00     0.144 C 
HETATM   13  N2  UNL     1      -3.416  -0.360   0.399  1.00  0.00    -0.364 N 
HETATM   14  C10 UNL     1      -2.568   0.781   0.581  1.00  0.00     0.144 C 
HETATM   15  C11 UNL     1      -1.445   0.656  -0.435  1.00  0.00     0.144 C 
BRANCH  13  16
HETATM   16  C6  UNL     1      -4.813  -0.207   0.288  1.00  0.00     0.105 A 
HETATM   17  C7  UNL     1      -5.490   0.971   0.514  1.00  0.00     0.065 A 
HETATM   18  C8  UNL     1      -6.872   1.061   0.375  1.00  0.00     0.092 A 
HETATM   19  N3  UNL     1      -7.585  -0.008   0.013  1.00  0.00    -0.362 N 
HETATM   20  C9  UNL     1      -6.927  -1.163  -0.209  1.00  0.00     0.181 A 
ATOM     21  H3  UNL     1      -8.598   0.048  -0.092  1.00  0.00     0.165 HD
HETATM   22  N4  UNL     1      -5.614  -1.255  -0.079  1.00  0.00    -0.339 N 
ATOM     23  H4  UNL     1      -5.174  -2.157  -0.262  1.00  0.00     0.168 HD
ENDBRANCH  13  16
ENDBRANCH   4  10
BRANCH   7  24
HETATM   24  N6  UNL     1       3.926   0.382   0.089  1.00  0.00    -0.213 N 
HETATM   25  C13 UNL     1       3.709   1.065   1.346  1.00  0.00     0.167 C 
HETATM   26  C14 UNL     1       4.889   2.008   1.540  1.00  0.00     0.188 C 
HETATM   27  O2  UNL     1       6.079   1.345   1.635  1.00  0.00    -0.388 OA
HETATM   28  C15 UNL     1       6.334   0.450   0.628  1.00  0.00     0.188 C 
HETATM   29  C16 UNL     1       5.277   0.299  -0.408  1.00  0.00     0.167 C 
ENDBRANCH   7  24
TORSDOF 3
