REMARK  4 active torsions:
REMARK  status: ('A' for Active; 'I' for Inactive)
REMARK    1  A    between atoms: C7_8  and  C8_9 
REMARK    2  A    between atoms: N1_13  and  C10_14 
REMARK    3  A    between atoms: C10_14  and  C11_15 
REMARK    4  A    between atoms: C17_21  and  O3_22 
ROOT
HETATM    1  C8  UNL     1      -0.486   0.089  -0.420  1.00  0.00     0.133 A 
HETATM    2  O1  UNL     1      -0.105   1.283  -0.795  1.00  0.00    -0.257 OA
HETATM    3  C9  UNL     1       0.989   1.612  -0.158  1.00  0.00     0.374 A 
HETATM    4  O2  UNL     1       1.608   2.716  -0.305  1.00  0.00    -0.237 OA
HETATM    5  N1  UNL     1       1.345   0.610   0.663  1.00  0.00    -0.267 N 
HETATM    6  C17 UNL     1       0.426  -0.353   0.507  1.00  0.00     0.182 A 
ENDROOT
BRANCH   1   7
HETATM    7  C7  UNL     1      -1.649  -0.677  -0.868  1.00  0.00     0.061 C 
HETATM    8  C6  UNL     1      -2.866  -0.163  -0.599  1.00  0.00     0.017 A 
HETATM    9  C2  UNL     1      -4.100  -0.669  -0.903  1.00  0.00    -0.027 A 
HETATM   10  S1  UNL     1      -3.226   1.293   0.209  1.00  0.00    -0.094 SA
HETATM   11  C1  UNL     1      -4.234  -1.844  -1.563  1.00  0.00     0.025 C 
HETATM   12  C3  UNL     1      -5.173   0.059  -0.513  1.00  0.00     0.026 A 
HETATM   13  C4  UNL     1      -4.920   1.232   0.148  1.00  0.00    -0.020 A 
HETATM   14  C5  UNL     1      -5.942   2.210   0.678  1.00  0.00     0.056 C 
ENDBRANCH   1   7
BRANCH   6  15
HETATM   15  O3  UNL     1       0.434  -1.578   1.191  1.00  0.00    -0.344 OA
ATOM     16  H3  UNL     1       1.065  -1.884   1.832  1.00  0.00     0.219 HD
ENDBRANCH   6  15
BRANCH   5  17
HETATM   17  C10 UNL     1       2.509   0.584   1.551  1.00  0.00     0.175 C 
BRANCH  17  18
HETATM   18  C11 UNL     1       3.692   0.004   0.820  1.00  0.00    -0.040 A 
HETATM   19  C12 UNL     1       4.537   0.827   0.110  1.00  0.00     0.009 A 
HETATM   20  C13 UNL     1       5.621   0.340  -0.566  1.00  0.00     0.001 A 
HETATM   21  C14 UNL     1       5.884  -1.014  -0.541  1.00  0.00     0.000 A 
HETATM   22  C15 UNL     1       5.042  -1.849   0.168  1.00  0.00     0.001 A 
HETATM   23  C16 UNL     1       3.952  -1.340   0.845  1.00  0.00     0.009 A 
ENDBRANCH  17  18
ENDBRANCH   5  17
TORSDOF 4
