REMARK  12 active torsions:
REMARK  status: ('A' for Active; 'I' for Inactive)
REMARK    1  A    between atoms: O1_2  and  C2_3 
REMARK    2  A    between atoms: C2_3  and  C3_5 
REMARK    3  A    between atoms: C3_5  and  C4_6 
REMARK    4  A    between atoms: C4_6  and  C5_7 
REMARK    5  A    between atoms: C5_7  and  C6_8 
REMARK    6  A    between atoms: C6_8  and  C7_9 
REMARK    7  A    between atoms: C7_9  and  N1_10 
REMARK    8  A    between atoms: N1_10  and  C8_12 
REMARK    9  A    between atoms: C16_24  and  O3_25 
REMARK   10  A    between atoms: N5_32  and  C21_34 
REMARK   11  A    between atoms: C21_34  and  C22_35 
REMARK   12  A    between atoms: C22_35  and  N6_36 
ROOT
HETATM    1  C8  UNL     1      -2.670   0.357   0.954  1.00  0.00     0.694 A 
HETATM    2  N2  UNL     1      -2.635   1.692   1.212  1.00  0.00    -0.175 N 
ATOM      3  H2  UNL     1      -3.346   2.081   1.832  1.00  0.00     0.186 HD
HETATM    4  C9  UNL     1      -1.710   2.535   0.693  1.00  0.00     0.147 A 
HETATM    5  C10 UNL     1      -1.666   3.932   1.070  1.00  0.00     0.023 A 
HETATM    6  C11 UNL     1      -2.376   4.294   2.212  1.00  0.00     0.033 A 
HETATM    7  C12 UNL     1      -2.453   5.584   2.684  1.00  0.00     0.089 A 
HETATM    8  N3  UNL     1      -1.811   6.523   2.005  1.00  0.00    -0.365 N 
ATOM      9  H3  UNL     1      -1.854   7.486   2.339  1.00  0.00     0.165 HD
HETATM   10  C13 UNL     1      -1.110   6.257   0.901  1.00  0.00     0.043 A 
HETATM   11  C14 UNL     1      -0.465   7.257   0.209  1.00  0.00     0.033 A 
HETATM   12  C15 UNL     1       0.247   7.010  -0.933  1.00  0.00     0.039 A 
HETATM   13  C16 UNL     1       0.317   5.727  -1.399  1.00  0.00     0.069 A 
HETATM   14  C18 UNL     1      -0.321   4.671  -0.733  1.00  0.00     0.051 A 
HETATM   15  C19 UNL     1      -1.028   4.950   0.415  1.00  0.00     0.007 A 
HETATM   16  N4  UNL     1      -0.820   1.952  -0.102  1.00  0.00    -0.175 N 
ATOM     17  H4  UNL     1      -0.101   2.544  -0.518  1.00  0.00     0.186 HD
HETATM   18  C20 UNL     1      -0.793   0.651  -0.399  1.00  0.00     0.694 A 
HETATM   19  N5  UNL     1       0.089   0.165  -1.182  1.00  0.00    -0.224 N 
ATOM     20  H5  UNL     1       0.026  -0.840  -1.346  1.00  0.00     0.177 HD
HETATM   21  N9  UNL     1      -1.753  -0.165   0.153  1.00  0.00    -0.022 N 
ATOM     22  H9  UNL     1      -1.759  -1.164  -0.053  1.00  0.00     0.203 HD
ENDROOT
BRANCH  19  23
HETATM   23  C21 UNL     1       1.150   0.832  -1.859  1.00  0.00     0.157 C 
BRANCH  23  24
HETATM   24  C22 UNL     1       2.409   0.996  -1.004  1.00  0.00     0.141 C 
BRANCH  24  25
HETATM   25  N6  UNL     1       2.846  -0.313  -0.653  1.00  0.00    -0.374 N 
HETATM   26  C23 UNL     1       3.957  -0.591  -0.058  1.00  0.00     0.113 C 
HETATM   27  C24 UNL     1       4.087  -2.088   0.153  1.00  0.00     0.133 C 
HETATM   28  N8  UNL     1       4.742   0.586   0.232  1.00  0.00    -0.366 N 
HETATM   29  N7  UNL     1       5.334  -2.641  -0.136  1.00  0.00    -0.390 N 
HETATM   30  C25 UNL     1       5.298  -3.649  -1.179  1.00  0.00     0.149 C 
HETATM   31  C26 UNL     1       6.343  -2.949   0.799  1.00  0.00     0.133 C 
HETATM   32  C27 UNL     1       7.383  -1.780   1.010  1.00  0.00     0.101 C 
HETATM   33  C28 UNL     1       6.659  -0.613   0.801  1.00  0.00    -0.162 C 
HETATM   34  C29 UNL     1       6.195   0.713   0.633  1.00  0.00     0.201 C 
ATOM     35  H8  UNL     1       4.238   1.469   0.154  1.00  0.00     0.162 HD
ATOM     36  H6  UNL     1       2.233  -1.092  -0.891  1.00  0.00     0.161 HD
ENDBRANCH  24  25
ENDBRANCH  23  24
ENDBRANCH  19  23
BRANCH   1  37
HETATM   37  N1  UNL     1      -3.597  -0.365   1.484  1.00  0.00    -0.226 N 
ATOM     38  H1  UNL     1      -4.296   0.068   2.088  1.00  0.00     0.177 HD
BRANCH  37  39
HETATM   39  C7  UNL     1      -3.651  -1.803   1.223  1.00  0.00     0.138 C 
BRANCH  39  40
HETATM   40  C6  UNL     1      -4.390  -2.515   2.304  1.00  0.00     0.020 C 
BRANCH  40  41
HETATM   41  C5  UNL     1      -4.562  -3.974   2.194  1.00  0.00     0.002 C 
BRANCH  41  42
HETATM   42  C4  UNL     1      -5.407  -4.591   1.168  1.00  0.00     0.010 C 
BRANCH  42  43
HETATM   43  C3  UNL     1      -5.157  -4.380  -0.267  1.00  0.00     0.111 C 
BRANCH  43  44
HETATM   44  C2  UNL     1      -6.141  -5.242  -1.062  1.00  0.00     0.258 C 
HETATM   45  O2  UNL     1      -6.936  -5.958  -0.423  1.00  0.00    -0.265 OA
BRANCH  44  46
HETATM   46  O1  UNL     1      -6.155  -5.233  -2.424  1.00  0.00    -0.326 OA
HETATM   47  C1  UNL     1      -7.095  -6.057  -3.123  1.00  0.00     0.213 C 
ENDBRANCH  44  46
ENDBRANCH  43  44
ENDBRANCH  42  43
ENDBRANCH  41  42
ENDBRANCH  40  41
ENDBRANCH  39  40
ENDBRANCH  37  39
ENDBRANCH   1  37
BRANCH  13  48
HETATM   48  O3  UNL     1       1.031   5.426  -2.560  1.00  0.00    -0.356 OA
HETATM   49  C17 UNL     1       1.684   6.485  -3.247  1.00  0.00     0.210 C 
ENDBRANCH  13  48
TORSDOF 12
