REMARK  0 active torsions:
REMARK  status: ('A' for Active; 'I' for Inactive)
ROOT
HETATM    1  C1  UNL     1      -1.922  -0.518  -0.953  1.00  0.00     0.046 C 
HETATM    2  C2  UNL     1      -0.751  -0.162  -0.080  1.00  0.00     0.120 C 
HETATM    3  C3  UNL     1      -1.099   0.906   0.941  1.00  0.00     0.046 C 
HETATM    4  C4  UNL     1       0.379   0.315  -0.979  1.00  0.00     0.059 C 
HETATM    5  C5  UNL     1       1.649  -0.055  -0.286  1.00  0.00     0.120 C 
HETATM    6  C6  UNL     1       2.391   1.120   0.179  1.00  0.00     0.065 C 
HETATM    7  N1  UNL     1       2.970   2.049   0.544  1.00  0.00    -0.197 NA
HETATM    8  C7  UNL     1       1.162  -0.849   0.901  1.00  0.00     0.252 C 
HETATM    9  N2  UNL     1      -0.180  -1.274   0.615  1.00  0.00    -0.066 N 
ATOM     10  H21 UNL     1      -0.242  -2.160   0.113  1.00  0.00     0.278 HD
ATOM     11  H22 UNL     1      -0.709  -1.575   1.434  1.00  0.00     0.278 HD
ENDROOT
TORSDOF 0
