REMARK  7 active torsions:
REMARK  status: ('A' for Active; 'I' for Inactive)
REMARK    1  A    between atoms: C2_2  and  C3_3 
REMARK    2  A    between atoms: C2_2  and  N1_10 
REMARK    3  A    between atoms: C3_3  and  O1_4 
REMARK    4  A    between atoms: O1_4  and  C4_5 
REMARK    5  A    between atoms: C4_5  and  C5_6 
REMARK    6  A    between atoms: N1_10  and  C6_12 
REMARK    7  A    between atoms: C9_20  and  C10_21 
ROOT
HETATM    1  C6  UNL     1       2.944   0.630   0.001  1.00  0.00     0.688 C 
HETATM    2  N2  UNL     1       2.262   1.370   0.948  1.00  0.00    -0.154 N 
ATOM      3  H2  UNL     1       2.860   1.905   1.577  1.00  0.00     0.187 HD
HETATM    4  C7  UNL     1       0.947   1.505   1.182  1.00  0.00     0.288 C 
HETATM    5  O2  UNL     1       0.600   2.448   1.982  1.00  0.00    -0.265 OA
HETATM    6  C8  UNL     1      -0.106   0.778   0.687  1.00  0.00     0.135 A 
HETATM    7  N3  UNL     1      -1.413   1.005   0.919  1.00  0.00    -0.339 N 
ATOM      8  H3  UNL     1      -1.800   1.754   1.494  1.00  0.00     0.167 HD
HETATM    9  C9  UNL     1      -2.119   0.067   0.257  1.00  0.00     0.091 A 
HETATM   10  N4  UNL     1      -1.223  -0.733  -0.377  1.00  0.00    -0.339 N 
ATOM     11  H4  UNL     1      -1.468  -1.535  -0.958  1.00  0.00     0.167 HD
HETATM   12  C20 UNL     1       0.035  -0.318  -0.131  1.00  0.00     0.135 A 
HETATM   13  C21 UNL     1       1.194  -0.908  -0.605  1.00  0.00     0.288 C 
HETATM   14  O3  UNL     1       1.026  -1.919  -1.331  1.00  0.00    -0.265 OA
HETATM   15  N5  UNL     1       2.488  -0.565  -0.408  1.00  0.00    -0.154 N 
ATOM     16  H5  UNL     1       3.187  -1.286  -0.588  1.00  0.00     0.187 HD
ENDROOT
BRANCH   1  17
HETATM   17  N1  UNL     1       3.974   1.116  -0.445  1.00  0.00    -0.197 N 
ATOM     18  H1  UNL     1       4.120   2.019   0.006  1.00  0.00     0.183 HD
BRANCH  17  19
HETATM   19  C2  UNL     1       5.022   0.903  -1.335  1.00  0.00     0.024 C 
HETATM   20  C1  UNL     1       5.231  -0.424  -1.936  1.00  0.00     0.066 C 
BRANCH  19  21
HETATM   21  C3  UNL     1       6.308   1.622  -0.880  1.00  0.00     0.220 C 
BRANCH  21  22
HETATM   22  O1  UNL     1       6.798   1.279   0.302  1.00  0.00    -0.377 OA
BRANCH  22  23
HETATM   23  C4  UNL     1       7.332   0.136   0.670  1.00  0.00     0.285 C 
BRANCH  23  24
HETATM   24  C5  UNL     1       8.673  -0.266   0.093  1.00  0.00     0.408 C 
HETATM   25  F1  UNL     1       9.641   0.695   0.450  1.00  0.00    -0.169 F 
HETATM   26  F2  UNL     1       9.079  -1.449   0.679  1.00  0.00    -0.169 F 
HETATM   27  F3  UNL     1       8.689  -0.459  -1.266  1.00  0.00    -0.169 F 
ENDBRANCH  23  24
ENDBRANCH  22  23
ENDBRANCH  21  22
ENDBRANCH  19  21
ENDBRANCH  17  19
ENDBRANCH   1  17
BRANCH   9  28
HETATM   28  C10 UNL     1      -3.588  -0.133   0.190  1.00  0.00     0.021 C 
HETATM   29  C11 UNL     1      -4.303   0.760   1.176  1.00  0.00     0.022 C 
HETATM   30  C12 UNL     1      -5.769   0.558   0.986  1.00  0.00    -0.012 C 
HETATM   31  C13 UNL     1      -6.194  -0.847   1.264  1.00  0.00     0.009 C 
HETATM   32  C17 UNL     1      -6.242   0.896  -0.422  1.00  0.00     0.025 C 
HETATM   33  C14 UNL     1      -5.445  -1.741   0.306  1.00  0.00    -0.012 C 
HETATM   34  C15 UNL     1      -5.806  -1.485  -1.117  1.00  0.00     0.025 C 
HETATM   35  C19 UNL     1      -3.959  -1.567   0.490  1.00  0.00     0.022 C 
HETATM   36  C16 UNL     1      -5.503  -0.012  -1.412  1.00  0.00     0.020 C 
HETATM   37 BR1  UNL     1      -6.020   0.453  -3.184  1.00  0.00    -0.085 Br
HETATM   38  C18 UNL     1      -4.050   0.260  -1.218  1.00  0.00     0.038 C 
ENDBRANCH   9  28
TORSDOF 7
