REMARK  11 active torsions:
REMARK  status: ('A' for Active; 'I' for Inactive)
REMARK    1  A    between atoms: O1_2  and  C2_3 
REMARK    2  A    between atoms: C2_3  and  O2_4 
REMARK    3  A    between atoms: C3_8  and  O5_9 
REMARK    4  A    between atoms: C3_8  and  O8_19 
REMARK    5  A    between atoms: O5_9  and  C4_10 
REMARK    6  A    between atoms: C4_10  and  C5_12 
REMARK    7  A    between atoms: C6_13  and  C7_14 
REMARK    8  A    between atoms: C7_14  and  O7_17 
REMARK    9  A    between atoms: O8_19  and  C10_20 
REMARK   10  A    between atoms: C13_23  and  O9_24 
REMARK   11  A    between atoms: C14_26  and  O10_27 
ROOT
HETATM    1  C2  UNL     1      -3.542   0.836   0.125  1.00  0.00     0.338 C 
HETATM    2  O3  UNL     1      -2.611   0.399   1.069  1.00  0.00    -0.163 OA
HETATM    3  O4  UNL     1      -2.170  -0.792   0.823  1.00  0.00    -0.162 OA
HETATM    4  C3  UNL     1      -1.227  -0.820  -0.222  1.00  0.00     0.348 C 
HETATM    5  C13 UNL     1      -1.912  -0.148  -1.389  1.00  0.00     0.251 C 
HETATM    6  C14 UNL     1      -3.394  -0.114  -1.059  1.00  0.00     0.250 C 
ENDROOT
BRANCH   4   7
HETATM    7  O5  UNL     1      -0.107  -0.170   0.253  1.00  0.00    -0.251 OA
BRANCH   7   8
HETATM    8  C4  UNL     1       1.070   0.060  -0.385  1.00  0.00     0.287 C 
HETATM    9  O6  UNL     1       1.186  -0.350  -1.537  1.00  0.00    -0.260 OA
BRANCH   8  10
HETATM   10  C5  UNL     1       2.145   0.765   0.275  1.00  0.00     0.081 C 
HETATM   11  C6  UNL     1       3.306   1.014  -0.303  1.00  0.00     0.016 C 
BRANCH  11  12
HETATM   12  C7  UNL     1       4.340   1.743   0.461  1.00  0.00     0.069 C 
HETATM   13  C8  UNL     1       4.074   3.221   0.328  1.00  0.00     0.050 C 
HETATM   14  C9  UNL     1       5.739   1.396   0.028  1.00  0.00     0.050 C 
BRANCH  12  15
HETATM   15  O7  UNL     1       4.240   1.395   1.827  1.00  0.00    -0.387 OA
ATOM     16  H7  UNL     1       4.905   1.864   2.318  1.00  0.00     0.211 HD
ENDBRANCH  12  15
ENDBRANCH  11  12
ENDBRANCH   8  10
ENDBRANCH   7   8
ENDBRANCH   4   7
BRANCH   4  17
HETATM   17  O8  UNL     1      -1.091  -2.130  -0.554  1.00  0.00    -0.324 OA
BRANCH  17  18
HETATM   18  C10 UNL     1      -0.674  -3.036   0.330  1.00  0.00     0.119 C 
HETATM   19  C11 UNL     1      -1.821  -3.994   0.633  1.00  0.00     0.039 C 
HETATM   20  C12 UNL     1       0.531  -3.846   0.043  1.00  0.00     0.039 C 
ENDBRANCH  17  18
ENDBRANCH   4  17
BRANCH   5  21
HETATM   21  O9  UNL     1      -1.811  -0.916  -2.559  1.00  0.00    -0.384 OA
ATOM     22  H9  UNL     1      -2.242  -0.493  -3.293  1.00  0.00     0.210 HD
ENDBRANCH   5  21
BRANCH   6  23
HETATM   23  O10 UNL     1      -4.147   0.321  -2.143  1.00  0.00    -0.384 OA
ATOM     24  H10 UNL     1      -4.055  -0.271  -2.880  1.00  0.00     0.210 HD
ENDBRANCH   6  23
BRANCH   1  25
HETATM   25  O1  UNL     1      -3.240   2.111  -0.345  1.00  0.00    -0.334 OA
HETATM   26  C1  UNL     1      -3.329   3.071   0.660  1.00  0.00     0.208 C 
ENDBRANCH   1  25
BRANCH   1  27
HETATM   27  O2  UNL     1      -4.847   0.778   0.641  1.00  0.00    -0.339 OA
ATOM     28  H2  UNL     1      -5.053  -0.092   0.962  1.00  0.00     0.215 HD
ENDBRANCH   1  27
TORSDOF 11
