REMARK  6 active torsions:
REMARK  status: ('A' for Active; 'I' for Inactive)
REMARK    1  A    between atoms: N1_9  and  C8_10 
REMARK    2  A    between atoms: C8_10  and  O1_12 
REMARK    3  A    between atoms: C8_10  and  C10_14 
REMARK    4  A    between atoms: C12_16  and  C13_17 
REMARK    5  A    between atoms: C13_17  and  O2_18 
REMARK    6  A    between atoms: O2_18  and  C14_19 
ROOT
HETATM    1  C1  UNL     1      -3.792   0.288   3.211  1.00  0.00     0.014 C 
HETATM    2  C2  UNL     1      -3.690   0.260   2.018  1.00  0.00    -0.092 C 
HETATM    3  C3  UNL     1      -3.591   0.247   0.603  1.00  0.00     0.164 C 
HETATM    4  C4  UNL     1      -4.284  -0.936  -0.082  1.00  0.00     0.075 C 
HETATM    5  C5  UNL     1      -3.721  -1.095  -1.475  1.00  0.00     0.174 C 
HETATM    6  F1  UNL     1      -4.670  -1.638  -2.326  1.00  0.00    -0.249 F 
HETATM    7  C6  UNL     1      -3.290   0.210  -2.113  1.00  0.00     0.057 C 
HETATM    8  C7  UNL     1      -2.399   1.035  -1.174  1.00  0.00     0.124 C 
HETATM    9  N1  UNL     1      -2.294   0.274   0.014  1.00  0.00    -0.363 N 
ENDROOT
BRANCH   9  10
HETATM   10  C8  UNL     1      -1.170   0.326   0.815  1.00  0.00     0.172 C 
HETATM   11  C9  UNL     1      -1.010  -0.877   1.740  1.00  0.00     0.078 C 
BRANCH  10  12
HETATM   12  O1  UNL     1      -1.179   1.518   1.560  1.00  0.00    -0.366 OA
ATOM     13  H1  UNL     1      -0.406   1.554   2.111  1.00  0.00     0.213 HD
ENDBRANCH  10  12
BRANCH  10  14
HETATM   14  C10 UNL     1       0.062   0.315   0.004  1.00  0.00     0.089 A 
HETATM   15  C11 UNL     1       1.281   0.830   0.374  1.00  0.00     0.069 A 
HETATM   16  C12 UNL     1       2.130   0.550  -0.696  1.00  0.00     0.102 A 
HETATM   17  O3  UNL     1       1.417  -0.077  -1.593  1.00  0.00    -0.240 OA
HETATM   18  N5  UNL     1       0.194  -0.224  -1.194  1.00  0.00    -0.260 N 
ATOM     19  H5  UNL     1      -0.549  -0.683  -1.721  1.00  0.00     0.194 HD
BRANCH  16  20
HETATM   20  C13 UNL     1       3.595   0.931  -0.741  1.00  0.00     0.244 C 
BRANCH  20  21
HETATM   21  O2  UNL     1       4.309  -0.151  -0.254  1.00  0.00    -0.327 OA
BRANCH  21  22
HETATM   22  C14 UNL     1       5.646  -0.280  -0.101  1.00  0.00     0.172 A 
HETATM   23  C15 UNL     1       6.353  -1.367   0.381  1.00  0.00     0.162 A 
HETATM   24  N2  UNL     1       7.653  -1.072   0.368  1.00  0.00    -0.291 N 
HETATM   25  N3  UNL     1       7.787   0.154  -0.104  1.00  0.00    -0.021 NA
ATOM     26  H2  UNL     1       8.410  -1.685   0.669  1.00  0.00     0.183 HD
HETATM   27  N4  UNL     1       6.587   0.656  -0.396  1.00  0.00    -0.263 N 
ATOM     28  H4  UNL     1       6.406   1.585  -0.776  1.00  0.00     0.186 HD
ENDBRANCH  21  22
ENDBRANCH  20  21
ENDBRANCH  16  20
ENDBRANCH  10  14
ENDBRANCH   9  10
TORSDOF 6
