REMARK  16 active torsions:
REMARK  status: ('A' for Active; 'I' for Inactive)
REMARK    1  A    between atoms: O1_2  and  C2_3 
REMARK    2  A    between atoms: C2_3  and  C3_5 
REMARK    3  A    between atoms: C6_16  and  N4_17 
REMARK    4  A    between atoms: N4_17  and  C7_19 
REMARK    5  A    between atoms: C7_19  and  O4_20 
REMARK    6  A    between atoms: C7_19  and  C8_22 
REMARK    7  A    between atoms: C8_22  and  N5_23 
REMARK    8  A    between atoms: C8_22  and  C18_41 
REMARK    9  A    between atoms: N5_23  and  O5_25 
REMARK   10  A    between atoms: O5_25  and  C9_26 
REMARK   11  A    between atoms: C9_26  and  C11_28 
REMARK   12  A    between atoms: C11_28  and  O6_29 
REMARK   13  A    between atoms: C11_28  and  C12_31 
REMARK   14  A    between atoms: C15_34  and  O7_35 
REMARK   15  A    between atoms: C16_37  and  O8_38 
REMARK   16  A    between atoms: C20_44  and  N6_45 
ROOT
HETATM    1  C8  UNL     1      -0.042   0.392  -0.274  1.00  0.00     0.132 C 
ENDROOT
BRANCH   1   2
HETATM    2  C7  UNL     1       1.316   0.820  -0.449  1.00  0.00     0.169 C 
BRANCH   2   3
HETATM    3  N4  UNL     1       2.513   0.443   0.133  1.00  0.00    -0.339 N 
ATOM      4  H4  UNL     1       2.496  -0.275   0.857  1.00  0.00     0.164 HD
BRANCH   3   5
HETATM    5  C6  UNL     1       3.808   1.028  -0.243  1.00  0.00     0.278 C 
HETATM    6  C5  UNL     1       4.374   1.641   1.028  1.00  0.00     0.292 C 
HETATM    7  N3  UNL     1       4.953   2.922   0.676  1.00  0.00    -0.196 N 
HETATM    8  O3  UNL     1       5.422   0.761   1.332  1.00  0.00    -0.299 OA
HETATM    9  C4  UNL     1       6.128   2.866  -0.130  1.00  0.00     0.674 C 
ATOM     10  H3  UNL     1       4.547   3.805   0.984  1.00  0.00     0.180 HD
HETATM   11  N1  UNL     1       6.571   1.555  -0.512  1.00  0.00    -0.160 N 
HETATM   12  N2  UNL     1       6.767   3.902  -0.503  1.00  0.00    -0.235 N 
HETATM   13  C3  UNL     1       5.923   0.412   0.059  1.00  0.00     0.359 C 
ATOM     14  H1  UNL     1       7.334   1.439  -1.179  1.00  0.00     0.184 HD
HETATM   15  O9  UNL     1       4.734   0.071  -0.620  1.00  0.00    -0.300 OA
ATOM     16  H22 UNL     1       7.607   3.862  -1.080  1.00  0.00     0.174 HD
ATOM     17  H21 UNL     1       6.452   4.833  -0.232  1.00  0.00     0.174 HD
BRANCH  13  18
HETATM   18  C2  UNL     1       6.805  -0.763   0.097  1.00  0.00     0.346 C 
HETATM   19  O2  UNL     1       8.002  -0.696  -0.349  1.00  0.00    -0.257 OA
BRANCH  18  20
HETATM   20  O1  UNL     1       6.430  -1.999   0.600  1.00  0.00    -0.321 OA
HETATM   21  C1  UNL     1       7.331  -3.111   0.613  1.00  0.00     0.213 C 
ENDBRANCH  18  20
ENDBRANCH  13  18
ENDBRANCH   3   5
ENDBRANCH   2   3
BRANCH   2  22
HETATM   22  O4  UNL     1       1.478   1.766  -1.353  1.00  0.00    -0.344 OA
ATOM     23  H4  UNL     1       0.656   2.025  -1.753  1.00  0.00     0.219 HD
ENDBRANCH   2  22
ENDBRANCH   1   2
BRANCH   1  24
HETATM   24  N5  UNL     1      -0.916   1.034  -0.961  1.00  0.00    -0.260 N 
ATOM     25  H5  UNL     1      -0.522   1.773  -1.544  1.00  0.00     0.194 HD
BRANCH  24  26
HETATM   26  O5  UNL     1      -2.235   0.919  -1.057  1.00  0.00    -0.272 OA
BRANCH  26  27
HETATM   27  C9  UNL     1      -2.918   0.341  -2.156  1.00  0.00     0.181 C 
HETATM   28  C10 UNL     1      -3.577   1.390  -3.037  1.00  0.00     0.045 C 
BRANCH  27  29
HETATM   29  C11 UNL     1      -3.842  -0.740  -1.768  1.00  0.00     0.182 C 
BRANCH  29  30
HETATM   30  O6  UNL     1      -4.434  -1.340  -2.909  1.00  0.00    -0.388 OA
ATOM     31  H6  UNL     1      -5.029  -2.037  -2.659  1.00  0.00     0.210 HD
ENDBRANCH  29  30
BRANCH  29  32
HETATM   32  C12 UNL     1      -4.914  -0.383  -0.808  1.00  0.00    -0.024 A 
HETATM   33  C13 UNL     1      -5.058   0.860  -0.287  1.00  0.00     0.013 A 
HETATM   34  C14 UNL     1      -6.094   1.126   0.624  1.00  0.00     0.040 A 
HETATM   35  C15 UNL     1      -6.986   0.157   1.017  1.00  0.00     0.098 A 
HETATM   36  C16 UNL     1      -6.821  -1.100   0.474  1.00  0.00     0.099 A 
HETATM   37  C17 UNL     1      -5.818  -1.381  -0.416  1.00  0.00     0.049 A 
BRANCH  35  38
HETATM   38  O7  UNL     1      -7.993   0.472   1.921  1.00  0.00    -0.358 OA
ATOM     39  H7  UNL     1      -8.610  -0.198   2.193  1.00  0.00     0.217 HD
ENDBRANCH  35  38
BRANCH  36  40
HETATM   40  O8  UNL     1      -7.739  -2.075   0.885  1.00  0.00    -0.358 OA
ATOM     41  H8  UNL     1      -7.625  -2.941   0.511  1.00  0.00     0.217 HD
ENDBRANCH  36  40
ENDBRANCH  29  32
ENDBRANCH  27  29
ENDBRANCH  26  27
ENDBRANCH  24  26
ENDBRANCH   1  24
BRANCH   1  42
HETATM   42  C18 UNL     1      -0.468  -0.666   0.694  1.00  0.00     0.074 A 
HETATM   43  C19 UNL     1       0.371  -1.684   1.061  1.00  0.00     0.085 A 
HETATM   44  S1  UNL     1      -0.540  -2.510   2.254  1.00  0.00    -0.064 SA
HETATM   45  C20 UNL     1      -1.925  -1.533   2.223  1.00  0.00     0.142 A 
HETATM   46  N7  UNL     1      -1.636  -0.616   1.306  1.00  0.00    -0.335 N 
ATOM     47  H7  UNL     1      -2.308   0.117   1.078  1.00  0.00     0.168 HD
BRANCH  45  48
HETATM   48  N6  UNL     1      -3.044  -1.627   2.927  1.00  0.00    -0.380 N 
ATOM     49  H62 UNL     1      -3.266  -2.331   3.631  1.00  0.00     0.158 HD
ATOM     50  H61 UNL     1      -3.877  -1.039   2.908  1.00  0.00     0.158 HD
ENDBRANCH  45  48
ENDBRANCH   1  42
TORSDOF 16
