REMARK  0 active torsions:
REMARK  status: ('A' for Active; 'I' for Inactive)
ROOT
HETATM    1  C1  UNL     1       0.583   1.250  -0.416  1.00  0.00     0.259 C 
HETATM    2  N1  UNL     1      -0.720   1.411   0.175  1.00  0.00    -0.059 N 
ATOM      3  H11 UNL     1      -1.420   1.629  -0.535  1.00  0.00     0.278 HD
ATOM      4  H12 UNL     1      -0.770   2.269   0.724  1.00  0.00     0.278 HD
HETATM    5  C2  UNL     1      -1.121   0.261   0.967  1.00  0.00     0.264 C 
HETATM    6  C3  UNL     1      -1.341  -0.879  -0.019  1.00  0.00     0.158 C 
HETATM    7  N2  UNL     1      -0.274  -0.961  -0.954  1.00  0.00    -0.412 N 
ATOM      8  H2  UNL     1      -0.345  -1.499  -1.817  1.00  0.00     0.153 HD
HETATM    9  C4  UNL     1       0.910  -0.233  -0.598  1.00  0.00     0.111 C 
HETATM   10  C5  UNL     1       1.536  -0.688   0.690  1.00  0.00     0.102 C 
HETATM   11  S1  UNL     1       0.288  -0.318   1.993  1.00  0.00    -0.133 SA
ENDROOT
TORSDOF 0
