REMARK  2 active torsions:
REMARK  status: ('A' for Active; 'I' for Inactive)
REMARK    1  A    between atoms: O1_1  and  C1_3 
REMARK    2  A    between atoms: C6_9  and  O2_10 
ROOT
HETATM    1  C1  UNL     1      -0.280   1.081  -0.863  1.00  0.00     0.363 C 
HETATM    2  C2  UNL     1       0.105   0.879   0.613  1.00  0.00     0.077 C 
HETATM    3  C3  UNL     1      -1.177   0.276   1.121  1.00  0.00     0.042 C 
HETATM    4  C4  UNL     1      -1.487  -0.712  -0.001  1.00  0.00     0.276 C 
HETATM    5  N1  UNL     1      -0.655  -0.321  -1.128  1.00  0.00     0.120 N 
HETATM    6  C5  UNL     1       0.661  -0.924  -0.841  1.00  0.00     0.307 C 
HETATM    7  C6  UNL     1       1.130  -0.218   0.439  1.00  0.00     0.155 C 
ENDROOT
BRANCH   1   8
HETATM    8  O1  UNL     1       0.881   1.365  -1.536  1.00  0.00    -0.367 OA
ATOM      9  H1  UNL     1       0.643   1.490  -2.447  1.00  0.00     0.212 HD
ENDBRANCH   1   8
BRANCH   7  10
HETATM   10  O2  UNL     1       2.360   0.397   0.207  1.00  0.00    -0.393 OA
ATOM     11  H2  UNL     1       3.004  -0.293   0.098  1.00  0.00     0.210 HD
ENDBRANCH   7  10
TORSDOF 2
