REMARK  5 active torsions:
REMARK  status: ('A' for Active; 'I' for Inactive)
REMARK    1  A    between atoms: C2_2  and  C9_11 
REMARK    2  A    between atoms: C3_3  and  C4_4 
REMARK    3  A    between atoms: C4_4  and  O1_5 
REMARK    4  A    between atoms: O1_5  and  C5_6 
REMARK    5  A    between atoms: C5_6  and  C6_8 
ROOT
HETATM    1  C9  UNL     1      -0.129   0.397   0.695  1.00  0.00     0.023 C 
HETATM    2  C10 UNL     1      -0.210   1.697   1.537  1.00  0.00     0.010 C 
HETATM    3  C11 UNL     1      -1.664   2.126   1.448  1.00  0.00     0.006 C 
HETATM    4  C12 UNL     1      -2.287   0.741   1.473  1.00  0.00    -0.001 C 
HETATM    5  C13 UNL     1      -3.736   0.685   1.533  1.00  0.00    -0.014 C 
HETATM    6  C14 UNL     1      -4.523   1.761   0.861  1.00  0.00     0.010 C 
HETATM    7  C15 UNL     1      -4.184  -0.721   1.188  1.00  0.00     0.005 C 
HETATM    8  C16 UNL     1      -3.504  -1.303   0.013  1.00  0.00     0.006 C 
HETATM    9  C17 UNL     1      -1.983  -1.229   0.037  1.00  0.00    -0.002 C 
HETATM   10  C18 UNL     1      -1.590  -1.498  -1.433  1.00  0.00     0.048 C 
HETATM   11  C19 UNL     1      -1.616  -0.153  -2.067  1.00  0.00     0.101 C 
HETATM   12  C20 UNL     1      -2.717  -0.085  -3.128  1.00  0.00     0.051 C 
HETATM   13  F1  UNL     1      -0.441   0.098  -2.787  1.00  0.00    -0.243 F 
HETATM   14  C21 UNL     1      -1.844   0.869  -0.985  1.00  0.00     0.054 C 
HETATM   15  C22 UNL     1      -1.561   0.136   0.309  1.00  0.00    -0.022 C 
ENDROOT
BRANCH   1  16
HETATM   16  C2  UNL     1       0.602  -0.643   1.393  1.00  0.00    -0.081 C 
HETATM   17  C1  UNL     1       0.201  -1.139   2.767  1.00  0.00     0.043 C 
HETATM   18  C3  UNL     1       1.684  -1.207   0.894  1.00  0.00     0.002 C 
BRANCH  18  19
HETATM   19  C4  UNL     1       2.307  -0.924  -0.415  1.00  0.00     0.206 C 
BRANCH  19  20
HETATM   20  O1  UNL     1       3.634  -0.471  -0.122  1.00  0.00    -0.317 OA
BRANCH  20  21
HETATM   21  C5  UNL     1       4.522  -0.109  -1.112  1.00  0.00     0.262 C 
HETATM   22  O2  UNL     1       4.163  -0.175  -2.309  1.00  0.00    -0.265 OA
BRANCH  21  23
HETATM   23  C6  UNL     1       5.877   0.349  -0.733  1.00  0.00     0.077 C 
HETATM   24  C7  UNL     1       6.543  -0.796   0.027  1.00  0.00     0.020 C 
HETATM   25  C8  UNL     1       6.690   0.727  -1.952  1.00  0.00     0.020 C 
ENDBRANCH  21  23
ENDBRANCH  20  21
ENDBRANCH  19  20
ENDBRANCH  18  19
ENDBRANCH   1  16
TORSDOF 5
