REMARK  5 active torsions:
REMARK  status: ('A' for Active; 'I' for Inactive)
REMARK    1  A    between atoms: C4_8  and  N3_9 
REMARK    2  A    between atoms: N3_9  and  C5_11 
REMARK    3  A    between atoms: C5_11  and  C6_12 
REMARK    4  A    between atoms: C10_17  and  N4_18 
REMARK    5  A    between atoms: N4_18  and  C11_20 
ROOT
HETATM    1  O1  UNL     1      -1.271  -5.069   1.958  1.00  0.00    -0.268 OA
HETATM    2  C1  UNL     1      -0.698  -4.134   1.351  1.00  0.00     0.260 A 
HETATM    3  C2  UNL     1       0.619  -4.297   0.911  1.00  0.00     0.095 A 
HETATM    4  C3  UNL     1       1.270  -3.286   0.242  1.00  0.00     0.140 A 
HETATM    5  N1  UNL     1       0.606  -2.141   0.026  1.00  0.00    -0.096 N 
HETATM    6  N2  UNL     1       1.197  -1.130  -0.619  1.00  0.00    -0.262 N 
ATOM      7  H2  UNL     1       2.158  -1.257  -0.937  1.00  0.00     0.190 HD
HETATM    8  C4  UNL     1       0.598   0.038  -0.870  1.00  0.00     0.162 A 
HETATM    9  C10 UNL     1      -0.699   0.211  -0.441  1.00  0.00     0.167 A 
HETATM   10  N5  UNL     1      -1.323  -0.774   0.206  1.00  0.00    -0.171 N 
ATOM     11  H5  UNL     1      -2.284  -0.653   0.526  1.00  0.00     0.186 HD
HETATM   12  C17 UNL     1      -0.668  -1.933   0.432  1.00  0.00     0.707 A 
HETATM   13  N6  UNL     1      -1.276  -2.955   1.088  1.00  0.00    -0.154 N 
ATOM     14  H6  UNL     1      -2.237  -2.815   1.401  1.00  0.00     0.187 HD
ENDROOT
BRANCH   8  15
HETATM   15  N3  UNL     1       1.152   1.012  -1.486  1.00  0.00    -0.366 N 
ATOM     16  H3  UNL     1       0.597   1.857  -1.621  1.00  0.00     0.161 HD
BRANCH  15  17
HETATM   17  C5  UNL     1       2.484   1.014  -2.000  1.00  0.00     0.186 C 
BRANCH  17  18
HETATM   18  C6  UNL     1       3.418   1.425  -0.937  1.00  0.00     0.070 A 
HETATM   19  C7  UNL     1       4.777   1.544  -1.054  1.00  0.00     0.036 A 
HETATM   20  C8  UNL     1       5.268   1.956   0.183  1.00  0.00     0.027 A 
HETATM   21  C9  UNL     1       4.164   2.064   0.989  1.00  0.00     0.142 A 
HETATM   22  O2  UNL     1       3.104   1.742   0.287  1.00  0.00    -0.325 OA
ENDBRANCH  17  18
ENDBRANCH  15  17
ENDBRANCH   8  15
BRANCH   9  23
HETATM   23  N4  UNL     1      -1.310   1.337  -0.670  1.00  0.00    -0.339 N 
ATOM     24  H4  UNL     1      -0.836   2.093  -1.165  1.00  0.00     0.167 HD
BRANCH  23  25
HETATM   25  C11 UNL     1      -2.645   1.496  -0.220  1.00  0.00     0.033 A 
HETATM   26  C12 UNL     1      -3.737   1.455  -1.084  1.00  0.00     0.029 A 
HETATM   27  C13 UNL     1      -5.033   1.610  -0.645  1.00  0.00     0.002 A 
HETATM   28  C14 UNL     1      -5.262   1.813   0.700  1.00  0.00     0.000 A 
HETATM   29  C15 UNL     1      -4.179   1.856   1.573  1.00  0.00     0.002 A 
HETATM   30  C16 UNL     1      -2.885   1.699   1.120  1.00  0.00     0.029 A 
ENDBRANCH  23  25
ENDBRANCH   9  23
TORSDOF 5
