REMARK  8 active torsions:
REMARK  status: ('A' for Active; 'I' for Inactive)
REMARK    1  A    between atoms: C2_2  and  C3_3 
REMARK    2  A    between atoms: C4_5  and  C5_6 
REMARK    3  A    between atoms: C5_6  and  S1_7 
REMARK    4  A    between atoms: S1_7  and  C6_8 
REMARK    5  A    between atoms: C7_13  and  C8_14 
REMARK    6  A    between atoms: C12_19  and  O2_20 
REMARK    7  A    between atoms: C13_22  and  O3_23 
REMARK    8  A    between atoms: C14_25  and  O4_26 
ROOT
HETATM    1  C3  UNL     1      -2.962  -0.191   0.935  1.00  0.00     0.153 C 
HETATM    2  O1  UNL     1      -2.185  -0.841   0.033  1.00  0.00    -0.374 OA
HETATM    3  C4  UNL     1      -1.838  -0.213  -1.106  1.00  0.00     0.163 C 
HETATM    4  C12 UNL     1      -2.535   1.089  -1.375  1.00  0.00     0.179 C 
HETATM    5  C13 UNL     1      -4.019   0.865  -1.072  1.00  0.00     0.180 C 
HETATM    6  C14 UNL     1      -4.085   0.633   0.419  1.00  0.00     0.178 C 
ENDROOT
BRANCH   3   7
HETATM    7  C5  UNL     1      -0.352   0.017  -1.275  1.00  0.00     0.117 C 
BRANCH   7   8
HETATM    8  S1  UNL     1       0.362   1.019   0.028  1.00  0.00    -0.090 SA
BRANCH   8   9
HETATM    9  C6  UNL     1       2.108   1.197  -0.310  1.00  0.00     0.162 A 
HETATM   10  N1  UNL     1       2.712   2.153  -1.038  1.00  0.00    -0.278 N 
HETATM   11  N2  UNL     1       4.017   1.945  -1.057  1.00  0.00    -0.286 N 
ATOM     12  H1  UNL     1       2.234   2.923  -1.506  1.00  0.00     0.189 HD
HETATM   13  C7  UNL     1       4.289   0.834  -0.332  1.00  0.00     0.103 A 
ATOM     14  H2  UNL     1       4.705   2.525  -1.538  1.00  0.00     0.188 HD
HETATM   15  N3  UNL     1       3.121   0.394   0.113  1.00  0.00    -0.319 N 
HETATM   16  C11 UNL     1       2.907  -0.774   0.935  1.00  0.00     0.159 C 
BRANCH  13  17
HETATM   17  C8  UNL     1       5.665   0.282  -0.129  1.00  0.00     0.047 C 
HETATM   18  C9  UNL     1       6.029   0.401   1.335  1.00  0.00     0.017 C 
HETATM   19  C10 UNL     1       5.767  -1.143  -0.559  1.00  0.00     0.017 C 
ENDBRANCH  13  17
ENDBRANCH   8   9
ENDBRANCH   7   8
ENDBRANCH   3   7
BRANCH   4  20
HETATM   20  O2  UNL     1      -2.426   1.412  -2.712  1.00  0.00    -0.390 OA
ATOM     21  H2  UNL     1      -2.867   2.236  -2.882  1.00  0.00     0.210 HD
ENDBRANCH   4  20
BRANCH   1  22
HETATM   22  C2  UNL     1      -3.573  -1.258   1.854  1.00  0.00     0.030 C 
HETATM   23  C1  UNL     1      -4.385  -2.194   0.985  1.00  0.00     0.007 C 
ENDBRANCH   1  22
BRANCH   5  24
HETATM   24  O3  UNL     1      -4.765   2.001  -1.399  1.00  0.00    -0.390 OA
ATOM     25  H3  UNL     1      -5.686   1.862  -1.211  1.00  0.00     0.210 HD
ENDBRANCH   5  24
BRANCH   6  26
HETATM   26  O4  UNL     1      -5.350   0.171   0.730  1.00  0.00    -0.390 OA
ATOM     27  H4  UNL     1      -6.068   0.698   0.400  1.00  0.00     0.210 HD
ENDBRANCH   6  26
TORSDOF 8
