REMARK  10 active torsions:
REMARK  status: ('A' for Active; 'I' for Inactive)
REMARK    1  A    between atoms: C2_2  and  O2_4 
REMARK    2  A    between atoms: O2_4  and  N1_5 
REMARK    3  A    between atoms: C3_7  and  O3_8 
REMARK    4  A    between atoms: C3_7  and  C4_10 
REMARK    5  A    between atoms: C4_10  and  C5_11 
REMARK    6  A    between atoms: C5_11  and  C6_12 
REMARK    7  A    between atoms: C6_12  and  C7_13 
REMARK    8  A    between atoms: C7_13  and  C8_14 
REMARK    9  A    between atoms: C9_15  and  C10_16 
REMARK   10  A    between atoms: N3_25  and  C15_26 
ROOT
HETATM    1  C10 UNL     1      -2.122  -0.314  -0.602  1.00  0.00     0.050 A 
HETATM    2  C11 UNL     1      -1.521  -1.035  -1.580  1.00  0.00     0.033 A 
HETATM    3  C12 UNL     1      -0.704  -0.407  -2.637  1.00  0.00     0.056 C 
HETATM    4  C13 UNL     1      -1.724  -2.407  -1.695  1.00  0.00     0.257 A 
HETATM    5  O4  UNL     1      -1.171  -3.069  -2.588  1.00  0.00    -0.267 OA
HETATM    6  N2  UNL     1      -2.540  -2.971  -0.798  1.00  0.00    -0.275 N 
ATOM      7  H2  UNL     1      -2.709  -3.975  -0.855  1.00  0.00     0.173 HD
HETATM    8  C14 UNL     1      -3.142  -2.276   0.168  1.00  0.00     0.330 A 
HETATM    9  O5  UNL     1      -3.879  -2.933   0.941  1.00  0.00    -0.246 OA
HETATM   10  N3  UNL     1      -2.948  -0.915   0.294  1.00  0.00    -0.292 N 
ENDROOT
BRANCH   1  11
HETATM   11  C9  UNL     1      -1.783   1.064  -0.395  1.00  0.00     0.026 C 
HETATM   12  C8  UNL     1      -0.659   1.670  -0.173  1.00  0.00    -0.024 C 
BRANCH  12  13
HETATM   13  C7  UNL     1       0.714   1.194  -0.038  1.00  0.00     0.027 C 
BRANCH  13  14
HETATM   14  C6  UNL     1       1.649   1.948  -0.950  1.00  0.00     0.004 C 
BRANCH  14  15
HETATM   15  C5  UNL     1       3.046   1.452  -0.800  1.00  0.00     0.008 C 
BRANCH  15  16
HETATM   16  C4  UNL     1       3.197   0.008  -1.137  1.00  0.00     0.086 C 
BRANCH  16  17
HETATM   17  C3  UNL     1       4.645  -0.359  -0.952  1.00  0.00     0.136 C 
HETATM   18  N1  UNL     1       5.512   0.499  -0.567  1.00  0.00    -0.239 N 
ATOM     19  H1  UNL     1       5.211   1.456  -0.382  1.00  0.00     0.197 HD
BRANCH  18  20
HETATM   20  O2  UNL     1       6.816   0.178  -0.397  1.00  0.00    -0.198 OA
BRANCH  20  21
HETATM   21  C2  UNL     1       7.336   0.080   0.895  1.00  0.00     0.277 C 
HETATM   22  C1  UNL     1       8.751  -0.265   1.170  1.00  0.00     0.128 C 
HETATM   23  O1  UNL     1       6.564   0.296   1.854  1.00  0.00    -0.264 OA
ENDBRANCH  20  21
ENDBRANCH  18  20
BRANCH  17  24
HETATM   24  O3  UNL     1       4.992  -1.671  -1.218  1.00  0.00    -0.348 OA
ATOM     25  H3  UNL     1       4.348  -2.308  -1.504  1.00  0.00     0.219 HD
ENDBRANCH  17  24
ENDBRANCH  16  17
ENDBRANCH  15  16
ENDBRANCH  14  15
ENDBRANCH  13  14
ENDBRANCH  12  13
ENDBRANCH   1  11
BRANCH  10  26
HETATM   26  C15 UNL     1      -3.612  -0.327   1.377  1.00  0.00     0.122 C 
HETATM   27  C16 UNL     1      -3.296   0.991   1.957  1.00  0.00     0.102 C 
HETATM   28  S1  UNL     1      -4.808   0.747   3.029  1.00  0.00    -0.155 SA
HETATM   29  C17 UNL     1      -5.037   0.078   1.303  1.00  0.00     0.022 C 
HETATM   30  C18 UNL     1      -6.113  -0.978   1.429  1.00  0.00     0.029 C 
HETATM   31  C19 UNL     1      -5.468   1.153   0.375  1.00  0.00     0.029 C 
ENDBRANCH  10  26
TORSDOF 10
