REMARK  4 active torsions:
REMARK  status: ('A' for Active; 'I' for Inactive)
REMARK    1  A    between atoms: O1_2  and  C2_3 
REMARK    2  A    between atoms: C6_9  and  O4_10 
REMARK    3  A    between atoms: C8_12  and  O5_13 
REMARK    4  A    between atoms: C9_15  and  O6_16 
ROOT
HETATM    1  C2  UNL     1       2.004   0.227  -0.277  1.00  0.00     0.264 C 
HETATM    2  C3  UNL     1       1.495  -1.024  -0.947  1.00  0.00     0.095 C 
HETATM    3  C4  UNL     1       0.431  -1.600  -0.007  1.00  0.00     0.160 C 
HETATM    4  O2  UNL     1       0.490  -0.819   1.154  1.00  0.00    -0.350 OA
HETATM    5  C5  UNL     1       0.102   0.501   0.899  1.00  0.00     0.294 C 
HETATM    6  O3  UNL     1       0.883   1.068  -0.115  1.00  0.00    -0.329 OA
HETATM    7  C6  UNL     1      -1.370   0.576   0.604  1.00  0.00     0.207 C 
HETATM    8  C8  UNL     1      -1.898  -0.834   0.401  1.00  0.00     0.183 C 
HETATM    9  C9  UNL     1      -0.939  -1.486  -0.588  1.00  0.00     0.178 C 
ENDROOT
BRANCH   1  10
HETATM   10  O1  UNL     1       3.041   0.831  -0.919  1.00  0.00    -0.366 OA
HETATM   11  C1  UNL     1       4.199   0.936  -0.163  1.00  0.00     0.204 C 
ENDBRANCH   1  10
BRANCH   9  12
HETATM   12  O6  UNL     1      -1.502  -2.708  -0.937  1.00  0.00    -0.390 OA
ATOM     13  H6  UNL     1      -2.374  -2.635  -1.307  1.00  0.00     0.210 HD
ENDBRANCH   9  12
BRANCH   7  14
HETATM   14  O4  UNL     1      -2.107   1.298   1.484  1.00  0.00    -0.383 OA
HETATM   15  C7  UNL     1      -2.755   2.398   0.956  1.00  0.00     0.202 C 
ENDBRANCH   7  14
BRANCH   8  16
HETATM   16  O5  UNL     1      -3.185  -0.827  -0.126  1.00  0.00    -0.390 OA
ATOM     17  H5  UNL     1      -3.515  -1.709  -0.253  1.00  0.00     0.210 HD
ENDBRANCH   8  16
TORSDOF 4
