REMARK  4 active torsions:
REMARK  status: ('A' for Active; 'I' for Inactive)
REMARK    1  A    between atoms: O1_1  and  C1_3 
REMARK    2  A    between atoms: C1_3  and  C2_4 
REMARK    3  A    between atoms: C4_7  and  N1_8 
REMARK    4  A    between atoms: C8_12  and  O3_13 
ROOT
HETATM    1  C2  UNL     1       3.066  -0.916  -0.089  1.00  0.00     0.207 C 
HETATM    2  C3  UNL     1       2.514  -0.227  -1.285  1.00  0.00     0.210 C 
HETATM    3  O2  UNL     1       1.166  -0.498  -1.523  1.00  0.00    -0.340 OA
HETATM    4  C4  UNL     1       0.530  -0.309  -0.293  1.00  0.00     0.406 C 
HETATM    5  O4  UNL     1       0.931  -1.317   0.534  1.00  0.00    -0.185 OA
HETATM    6  O5  UNL     1       2.168  -1.376   0.816  1.00  0.00    -0.227 OA
ENDROOT
BRANCH   4   7
HETATM    7  N1  UNL     1      -0.890  -0.227  -0.404  1.00  0.00    -0.342 N 
HETATM    8  C5  UNL     1      -1.393   0.816  -1.205  1.00  0.00     0.063 C 
HETATM    9  C6  UNL     1      -2.552   1.576  -0.652  1.00  0.00     0.047 C 
HETATM   10  C7  UNL     1      -3.543   0.767   0.095  1.00  0.00     0.038 C 
HETATM   11  C8  UNL     1      -3.098  -0.648   0.383  1.00  0.00     0.136 C 
HETATM   12  C9  UNL     1      -1.617  -0.561   0.761  1.00  0.00     0.158 C 
BRANCH  11  13
HETATM   13  O3  UNL     1      -3.827  -1.214   1.410  1.00  0.00    -0.394 OA
ATOM     14  H3  UNL     1      -3.547  -2.104   1.591  1.00  0.00     0.210 HD
ENDBRANCH  11  13
ENDBRANCH   4   7
BRANCH   1  15
HETATM   15  C1  UNL     1       3.970   0.089   0.638  1.00  0.00     0.201 C 
BRANCH  15  16
HETATM   16  O1  UNL     1       4.635  -0.495   1.688  1.00  0.00    -0.398 OA
ATOM     17  H1  UNL     1       5.195   0.127   2.138  1.00  0.00     0.209 HD
ENDBRANCH  15  16
ENDBRANCH   1  15
TORSDOF 4
