REMARK  8 active torsions:
REMARK  status: ('A' for Active; 'I' for Inactive)
REMARK       I    between atoms: C1_2  and  N1_3 
REMARK       I    between atoms: C1_2  and  N3_15 
REMARK    1  A    between atoms: N1_3  and  C2_5 
REMARK    2  A    between atoms: C2_5  and  C3_6 
REMARK    3  A    between atoms: C3_6  and  C4_7 
REMARK    4  A    between atoms: C5_8  and  C6_9 
REMARK    5  A    between atoms: C6_9  and  N2_10 
REMARK    6  A    between atoms: N3_15  and  C11_17 
REMARK    7  A    between atoms: C11_17  and  C12_18 
REMARK    8  A    between atoms: C12_18  and  N4_19 
ROOT
HETATM    1  O1  UNL     1      -1.630  -1.774   1.003  1.00  0.00    -0.247 OA
HETATM    2  C1  UNL     1      -1.343  -2.076  -0.170  1.00  0.00     0.316 C 
HETATM    3  N1  UNL     1      -0.354  -3.083  -0.448  1.00  0.00    -0.342 N 
ATOM      4  H1  UNL     1      -0.127  -3.319  -1.414  1.00  0.00     0.164 HD
HETATM    5  N3  UNL     1      -1.980  -1.441  -1.256  1.00  0.00    -0.341 N 
ATOM      6  H3  UNL     1      -1.736  -1.711  -2.209  1.00  0.00     0.164 HD
ENDROOT
BRANCH   3   7
HETATM    7  C2  UNL     1       0.317  -3.759   0.630  1.00  0.00     0.136 C 
BRANCH   7   8
HETATM    8  C3  UNL     1       1.108  -2.882   1.539  1.00  0.00     0.113 C 
BRANCH   8   9
HETATM    9  C4  UNL     1       2.140  -2.212   0.726  1.00  0.00    -0.103 C 
HETATM   10  C5  UNL     1       3.001  -1.667   0.081  1.00  0.00    -0.076 C 
BRANCH  10  11
HETATM   11  C6  UNL     1       4.077  -0.997  -0.686  1.00  0.00     0.365 C 
BRANCH  11  12
HETATM   12  N2  UNL     1       4.593   0.121   0.026  1.00  0.00     0.099 N 
HETATM   13  C7  UNL     1       3.721   1.241   0.166  1.00  0.00     0.273 C 
HETATM   14  C8  UNL     1       4.570   2.266   0.878  1.00  0.00     0.032 C 
HETATM   15  C9  UNL     1       5.981   1.842   0.552  1.00  0.00     0.032 C 
HETATM   16  C10 UNL     1       5.819   0.673  -0.434  1.00  0.00     0.273 C 
ENDBRANCH  11  12
ENDBRANCH  10  11
ENDBRANCH   8   9
ENDBRANCH   7   8
ENDBRANCH   3   7
BRANCH   5  17
HETATM   17  C11 UNL     1      -2.966  -0.420  -1.042  1.00  0.00     0.154 C 
BRANCH  17  18
HETATM   18  C12 UNL     1      -2.393   0.763  -0.359  1.00  0.00     0.292 C 
BRANCH  18  19
HETATM   19  N4  UNL     1      -3.386   1.812  -0.136  1.00  0.00     0.090 N 
HETATM   20  C13 UNL     1      -4.332   1.351   0.827  1.00  0.00     0.272 C 
HETATM   21  C14 UNL     1      -5.675   1.266   0.200  1.00  0.00     0.032 C 
HETATM   22  C15 UNL     1      -5.484   1.670  -1.230  1.00  0.00     0.032 C 
HETATM   23  C16 UNL     1      -4.096   2.203  -1.305  1.00  0.00     0.272 C 
ENDBRANCH  18  19
ENDBRANCH  17  18
ENDBRANCH   5  17
TORSDOF 8
