REMARK  8 active torsions:
REMARK  status: ('A' for Active; 'I' for Inactive)
REMARK    1  A    between atoms: C2_2  and  C3_3 
REMARK    2  A    between atoms: C3_3  and  N1_4 
REMARK    3  A    between atoms: N1_4  and  C4_6 
REMARK    4  A    between atoms: C4_6  and  N2_8 
REMARK    5  A    between atoms: C7_11  and  O1_12 
REMARK    6  A    between atoms: C7_11  and  C8_14 
REMARK    7  A    between atoms: C9_17  and  C10_18 
REMARK    8  A    between atoms: C10_18  and  C11_21 
ROOT
HETATM    1  N2  UNL     1       1.637  -0.608  -0.033  1.00  0.00    -0.358 N 
HETATM    2  C5  UNL     1       0.974  -1.904   0.208  1.00  0.00     0.128 C 
HETATM    3  C6  UNL     1      -0.459  -1.699   0.600  1.00  0.00     0.066 C 
HETATM    4  C7  UNL     1      -1.106  -0.737  -0.374  1.00  0.00     0.119 C 
HETATM    5  C13 UNL     1      -0.387   0.586  -0.274  1.00  0.00     0.066 C 
HETATM    6  C14 UNL     1       1.004   0.351  -0.896  1.00  0.00     0.128 C 
ENDROOT
BRANCH   4   7
HETATM    7  O1  UNL     1      -0.948  -1.225  -1.676  1.00  0.00    -0.382 OA
ATOM      8  H1  UNL     1      -1.354  -0.621  -2.287  1.00  0.00     0.211 HD
ENDBRANCH   4   7
BRANCH   4   9
HETATM    9  C8  UNL     1      -2.520  -0.505  -0.075  1.00  0.00     0.117 A 
HETATM   10  N3  UNL     1      -3.176   0.639  -0.305  1.00  0.00    -0.340 N 
HETATM   11  C9  UNL     1      -4.440   0.477   0.101  1.00  0.00     0.107 A 
ATOM     12  H3  UNL     1      -2.782   1.485  -0.717  1.00  0.00     0.167 HD
HETATM   13  C12 UNL     1      -4.574  -0.787   0.592  1.00  0.00     0.121 A 
HETATM   14  N4  UNL     1      -3.367  -1.384   0.475  1.00  0.00    -0.351 N 
ATOM     15  H4  UNL     1      -3.141  -2.338   0.757  1.00  0.00     0.166 HD
BRANCH  11  16
HETATM   16  C10 UNL     1      -5.463   1.558  -0.003  1.00  0.00     0.382 C 
HETATM   17  F1  UNL     1      -5.065   2.577   0.837  1.00  0.00    -0.189 F 
HETATM   18  F2  UNL     1      -5.555   1.961  -1.303  1.00  0.00    -0.189 F 
BRANCH  16  19
HETATM   19  C11 UNL     1      -6.808   1.088   0.479  1.00  0.00     0.460 C 
HETATM   20  F3  UNL     1      -7.698   2.131   0.350  1.00  0.00    -0.165 F 
HETATM   21  F4  UNL     1      -6.788   0.710   1.804  1.00  0.00    -0.165 F 
HETATM   22  F5  UNL     1      -7.266   0.070  -0.350  1.00  0.00    -0.165 F 
ENDBRANCH  16  19
ENDBRANCH  11  16
ENDBRANCH   4   9
BRANCH   1  23
HETATM   23  C4  UNL     1       2.859  -0.337   0.586  1.00  0.00     0.169 C 
HETATM   24  S1  UNL     1       3.464  -1.482   1.603  1.00  0.00    -0.041 SA
BRANCH  23  25
HETATM   25  N1  UNL     1       3.557   0.859   0.416  1.00  0.00    -0.367 N 
ATOM     26  H1  UNL     1       3.156   1.580  -0.183  1.00  0.00     0.161 HD
BRANCH  25  27
HETATM   27  C3  UNL     1       4.841   1.117   1.064  1.00  0.00     0.121 C 
BRANCH  27  28
HETATM   28  C2  UNL     1       5.898   0.284   0.409  1.00  0.00     0.015 C 
HETATM   29  C1  UNL     1       5.921   0.707  -1.058  1.00  0.00     0.006 C 
ENDBRANCH  27  28
ENDBRANCH  25  27
ENDBRANCH  23  25
ENDBRANCH   1  23
TORSDOF 8
