REMARK  3 active torsions:
REMARK  status: ('A' for Active; 'I' for Inactive)
REMARK    1  A    between atoms: O1_2  and  N1_3 
REMARK    2  A    between atoms: N1_3  and  C2_5 
REMARK    3  A    between atoms: C3_8  and  N3_9 
ROOT
HETATM    1  C2  UNL     1       0.155   0.616  -0.276  1.00  0.00     0.172 A 
HETATM    2  N2  UNL     1      -0.740   1.622  -0.240  1.00  0.00    -0.173 N 
ATOM      3  H2  UNL     1      -0.430   2.572  -0.445  1.00  0.00     0.186 HD
HETATM    4  C3  UNL     1      -2.027   1.405   0.059  1.00  0.00     0.679 A 
HETATM    5  N4  UNL     1      -2.452   0.155   0.331  1.00  0.00    -0.173 N 
ATOM      6  H4  UNL     1      -3.435   0.003   0.556  1.00  0.00     0.186 HD
HETATM    7  C4  UNL     1      -1.611  -0.902   0.314  1.00  0.00     0.167 A 
HETATM    8  N5  UNL     1      -1.365  -2.225   0.458  1.00  0.00    -0.282 N 
ATOM      9  H5  UNL     1      -1.915  -3.051   0.693  1.00  0.00     0.188 HD
HETATM   10  N6  UNL     1      -0.099  -1.979   0.160  1.00  0.00    -0.292 N 
ATOM     11  H6  UNL     1       0.725  -2.575   0.078  1.00  0.00     0.187 HD
HETATM   12  C5  UNL     1      -0.294  -0.658   0.005  1.00  0.00     0.140 A 
ENDROOT
BRANCH   1  13
HETATM   13  N1  UNL     1       1.383   0.784  -0.556  1.00  0.00    -0.248 N 
ATOM     14  H1  UNL     1       1.738   1.716  -0.768  1.00  0.00     0.196 HD
BRANCH  13  15
HETATM   15  O1  UNL     1       2.226  -0.293  -0.571  1.00  0.00    -0.284 OA
HETATM   16  C1  UNL     1       3.575  -0.271  -0.211  1.00  0.00     0.237 C 
ENDBRANCH  13  15
ENDBRANCH   1  13
BRANCH   4  17
HETATM   17  N3  UNL     1      -2.898   2.357   0.098  1.00  0.00    -0.234 N 
ATOM     18  H32 UNL     1      -2.576   3.303  -0.108  1.00  0.00     0.174 HD
ATOM     19  H31 UNL     1      -3.878   2.192   0.326  1.00  0.00     0.174 HD
ENDBRANCH   4  17
TORSDOF 3
