REMARK  6 active torsions:
REMARK  status: ('A' for Active; 'I' for Inactive)
REMARK    1  A    between atoms: C2_3  and  C3_4 
REMARK    2  A    between atoms: C5_10  and  C6_11 
REMARK    3  A    between atoms: C6_11  and  C7_12 
REMARK       I    between atoms: C7_12  and  N2_14 
REMARK    4  A    between atoms: N2_14  and  C8_16 
REMARK    5  A    between atoms: C8_16  and  C9_17 
REMARK       I    between atoms: C9_17  and  N3_19 
REMARK    6  A    between atoms: N3_19  and  C10_21 
ROOT
HETATM    1  C8  UNL     1       0.463  -1.252  -0.481  1.00  0.00     0.113 C 
HETATM    2  C16 UNL     1       0.012  -1.561   0.923  1.00  0.00     0.041 C 
HETATM    3  C17 UNL     1      -1.097  -2.572   0.899  1.00  0.00     0.003 C 
HETATM    4  C18 UNL     1      -0.542  -3.986   1.140  1.00  0.00     0.000 C 
HETATM    5  C19 UNL     1       0.147  -4.359  -0.161  1.00  0.00     0.000 C 
HETATM    6  C20 UNL     1       1.437  -3.572  -0.217  1.00  0.00     0.003 C 
HETATM    7  C21 UNL     1       1.363  -2.335  -1.037  1.00  0.00     0.041 C 
ENDROOT
BRANCH   1   8
HETATM    8  N2  UNL     1      -0.708  -1.134  -1.315  1.00  0.00    -0.343 N 
HETATM    9  C7  UNL     1      -1.756  -0.209  -1.132  1.00  0.00     0.223 C 
HETATM   10  O1  UNL     1      -1.767   0.622  -0.193  1.00  0.00    -0.273 OA
ATOM     11  H2  UNL     1      -0.784  -1.775  -2.105  1.00  0.00     0.163 HD
BRANCH   9  12
HETATM   12  C6  UNL     1      -2.935  -0.163  -2.061  1.00  0.00     0.151 C 
BRANCH  12  13
HETATM   13  C5  UNL     1      -3.894   0.917  -1.627  1.00  0.00     0.016 A 
HETATM   14  C1  UNL     1      -4.774   0.885  -0.582  1.00  0.00     0.075 A 
HETATM   15  N1  UNL     1      -4.839  -0.308   0.254  1.00  0.00    -0.100 NA
HETATM   16  C2  UNL     1      -5.537   1.984  -0.393  1.00  0.00     0.079 A 
HETATM   17  C4  UNL     1      -5.363   3.023  -1.257  1.00  0.00     0.068 A 
HETATM   18  S1  UNL     1      -4.151   2.458  -2.309  1.00  0.00    -0.103 SA
BRANCH  16  19
HETATM   19  C3  UNL     1      -6.554   2.083   0.729  1.00  0.00     0.419 C 
HETATM   20  F1  UNL     1      -7.445   1.050   0.507  1.00  0.00    -0.166 F 
HETATM   21  F2  UNL     1      -5.904   1.796   1.931  1.00  0.00    -0.166 F 
HETATM   22  F3  UNL     1      -7.146   3.301   0.748  1.00  0.00    -0.166 F 
ENDBRANCH  16  19
ENDBRANCH  12  13
ENDBRANCH   9  12
ENDBRANCH   1   8
BRANCH   1  23
HETATM   23  C9  UNL     1       1.222   0.020  -0.543  1.00  0.00     0.246 C 
HETATM   24  O2  UNL     1       0.821   0.957  -1.276  1.00  0.00    -0.271 OA
HETATM   25  N3  UNL     1       2.409   0.198   0.221  1.00  0.00    -0.354 N 
ATOM     26  H3  UNL     1       2.716  -0.577   0.808  1.00  0.00     0.162 HD
BRANCH  25  27
HETATM   27  C10 UNL     1       3.200   1.385   0.223  1.00  0.00     0.084 C 
HETATM   28  C11 UNL     1       3.279   2.056   1.574  1.00  0.00     0.025 C 
HETATM   29  C12 UNL     1       4.369   3.107   1.489  1.00  0.00     0.002 C 
HETATM   30  C13 UNL     1       4.557   3.562   0.039  1.00  0.00     0.000 C 
HETATM   31  C14 UNL     1       5.146   2.448  -0.797  1.00  0.00     0.002 C 
HETATM   32  C15 UNL     1       4.625   1.145  -0.234  1.00  0.00     0.025 C 
ENDBRANCH  25  27
ENDBRANCH   1  23
TORSDOF 6
