REMARK  10 active torsions:
REMARK  status: ('A' for Active; 'I' for Inactive)
REMARK    1  A    between atoms: N1_2  and  C2_4 
REMARK    2  A    between atoms: C4_8  and  C5_9 
REMARK    3  A    between atoms: C5_9  and  N3_10 
REMARK    4  A    between atoms: N3_10  and  N4_11 
REMARK    5  A    between atoms: N4_11  and  C6_13 
REMARK    6  A    between atoms: C6_13  and  C7_17 
REMARK    7  A    between atoms: C7_17  and  N6_18 
REMARK    8  A    between atoms: N6_18  and  C8_21 
REMARK    9  A    between atoms: C8_21  and  C9_22 
REMARK   10  A    between atoms: C9_22  and  N7_24 
ROOT
HETATM    1  C6  UNL     1      -0.975  -0.582  -0.612  1.00  0.00     0.127 C 
HETATM    2  N5  UNL     1      -1.182  -1.226  -1.705  1.00  0.00    -0.386 N 
ATOM      3  H51 UNL     1      -2.106  -1.594  -1.930  1.00  0.00     0.157 HD
ATOM      4  H52 UNL     1      -0.397  -1.361  -2.342  1.00  0.00     0.157 HD
ENDROOT
BRANCH   1   5
HETATM    5  N4  UNL     1       0.324  -0.065  -0.296  1.00  0.00    -0.223 N 
ATOM      6  H4  UNL     1       0.405   0.933  -0.100  1.00  0.00     0.203 HD
BRANCH   5   7
HETATM    7  N3  UNL     1       1.401  -0.782  -0.243  1.00  0.00    -0.334 NA
BRANCH   7   8
HETATM    8  C5  UNL     1       2.365  -1.469  -0.197  1.00  0.00     0.247 C 
BRANCH   8   9
HETATM    9  C4  UNL     1       3.766  -0.966  -0.101  1.00  0.00     0.125 A 
HETATM   10  C3  UNL     1       4.909  -1.713  -0.040  1.00  0.00     0.131 A 
HETATM   11  N2  UNL     1       5.920  -0.836   0.037  1.00  0.00    -0.329 N 
HETATM   12  C2  UNL     1       5.418   0.410   0.024  1.00  0.00     0.224 A 
ATOM     13  H2  UNL     1       6.910  -1.076   0.096  1.00  0.00     0.168 HD
HETATM   14  O1  UNL     1       4.115   0.296  -0.060  1.00  0.00    -0.276 OA
BRANCH  12  15
HETATM   15  N1  UNL     1       6.119   1.642   0.087  1.00  0.00    -0.360 N 
HETATM   16  C1  UNL     1       7.569   1.603   0.179  1.00  0.00     0.150 C 
ATOM     17  H1  UNL     1       5.619   2.531   0.068  1.00  0.00     0.162 HD
ENDBRANCH  12  15
ENDBRANCH   8   9
ENDBRANCH   7   8
ENDBRANCH   5   7
ENDBRANCH   1   5
BRANCH   1  18
HETATM   18  C7  UNL     1      -2.115  -0.386   0.314  1.00  0.00     0.310 C 
BRANCH  18  19
HETATM   19  N6  UNL     1      -3.281  -0.983  -0.246  1.00  0.00    -0.067 N 
ATOM     20  H62 UNL     1      -3.454  -0.625  -1.185  1.00  0.00     0.277 HD
ATOM     21  H61 UNL     1      -3.113  -1.965  -0.467  1.00  0.00     0.277 HD
BRANCH  19  22
HETATM   22  C8  UNL     1      -4.458  -0.839   0.582  1.00  0.00     0.264 C 
BRANCH  22  23
HETATM   23  C9  UNL     1      -4.921   0.602   0.656  1.00  0.00     0.205 C 
HETATM   24  C10 UNL     1      -5.255   1.103  -0.720  1.00  0.00     0.041 C 
BRANCH  23  25
HETATM   25  N7  UNL     1      -6.058   0.686   1.541  1.00  0.00    -0.074 N 
ATOM     26  H73 UNL     1      -6.808   0.050   1.270  1.00  0.00     0.274 HD
ATOM     27  H72 UNL     1      -5.863   0.293   2.462  1.00  0.00     0.274 HD
ATOM     28  H71 UNL     1      -6.370   1.656   1.591  1.00  0.00     0.274 HD
ENDBRANCH  23  25
ENDBRANCH  22  23
ENDBRANCH  19  22
ENDBRANCH  18  19
ENDBRANCH   1  18
TORSDOF 10
