REMARK  13 active torsions:
REMARK  status: ('A' for Active; 'I' for Inactive)
REMARK    1  A    between atoms: N1_2  and  C2_4 
REMARK    2  A    between atoms: C2_4  and  O1_5 
REMARK    3  A    between atoms: C2_4  and  C3_7 
REMARK    4  A    between atoms: C3_7  and  O2_8 
REMARK    5  A    between atoms: C3_7  and  N2_10 
REMARK    6  A    between atoms: N2_10  and  C4_12 
REMARK    7  A    between atoms: C4_12  and  C5_13 
REMARK    8  A    between atoms: C4_12  and  C13_27 
REMARK    9  A    between atoms: C5_13  and  C6_14 
REMARK   10  A    between atoms: C6_14  and  N3_16 
REMARK   11  A    between atoms: N3_16  and  C8_18 
REMARK   12  A    between atoms: C13_27  and  N7_28 
REMARK   13  A    between atoms: C13_27  and  O3_32 
ROOT
HETATM    1  C8  UNL     1      -3.093  -0.059  -0.715  1.00  0.00     0.141 A 
HETATM    2  N4  UNL     1      -4.143  -0.544  -0.030  1.00  0.00    -0.336 N 
ATOM      3  H4  UNL     1      -4.067  -1.139   0.795  1.00  0.00     0.168 HD
HETATM    4  C9  UNL     1      -5.307  -0.144  -0.572  1.00  0.00     0.185 A 
HETATM    5  N5  UNL     1      -5.029   0.625  -1.640  1.00  0.00    -0.336 N 
HETATM    6  C10 UNL     1      -5.980   1.278  -2.534  1.00  0.00     0.158 C 
HETATM    7  C11 UNL     1      -3.692   0.686  -1.740  1.00  0.00     0.161 A 
HETATM    8  C12 UNL     1      -2.980   1.404  -2.744  1.00  0.00     0.122 C 
HETATM    9  N6  UNL     1      -2.390   1.987  -3.564  1.00  0.00    -0.190 NA
ENDROOT
BRANCH   1  10
HETATM   10  N3  UNL     1      -1.715  -0.193  -0.546  1.00  0.00    -0.369 N 
ATOM     11  H3  UNL     1      -1.073   0.266  -1.192  1.00  0.00     0.161 HD
BRANCH  10  12
HETATM   12  C6  UNL     1      -1.196  -0.990   0.556  1.00  0.00     0.081 C 
HETATM   13  C7  UNL     1      -1.936  -0.700   1.831  1.00  0.00     0.032 C 
BRANCH  12  14
HETATM   14  C5  UNL     1       0.243  -1.076   0.628  1.00  0.00     0.054 C 
BRANCH  14  15
HETATM   15  C4  UNL     1       1.225  -0.071   0.978  1.00  0.00     0.137 C 
BRANCH  15  16
HETATM   16  N2  UNL     1       2.542  -0.783   0.909  1.00  0.00    -0.385 N 
ATOM     17  H2  UNL     1       3.174  -0.826   1.709  1.00  0.00     0.156 HD
BRANCH  16  18
HETATM   18  C3  UNL     1       2.855  -1.382  -0.307  1.00  0.00     0.262 C 
BRANCH  18  19
HETATM   19  C2  UNL     1       2.968  -0.437  -1.466  1.00  0.00     0.262 C 
BRANCH  19  20
HETATM   20  N1  UNL     1       4.123   0.404  -1.449  1.00  0.00    -0.398 N 
HETATM   21  C1  UNL     1       4.309   1.331  -0.431  1.00  0.00     0.142 C 
ATOM     22  H1  UNL     1       4.818   0.323  -2.191  1.00  0.00     0.155 HD
ENDBRANCH  19  20
BRANCH  19  23
HETATM   23  O1  UNL     1       3.155  -1.328  -2.601  1.00  0.00    -0.373 OA
ATOM     24  H1  UNL     1       2.387  -1.887  -2.612  1.00  0.00     0.212 HD
ENDBRANCH  19  23
ENDBRANCH  18  19
BRANCH  18  25
HETATM   25  O2  UNL     1       4.175  -1.985  -0.144  1.00  0.00    -0.373 OA
ATOM     26  H2  UNL     1       4.103  -2.584   0.590  1.00  0.00     0.212 HD
ENDBRANCH  18  25
ENDBRANCH  16  18
ENDBRANCH  15  16
BRANCH  15  27
HETATM   27  C13 UNL     1       1.243   0.542   2.337  1.00  0.00     0.338 C 
BRANCH  27  28
HETATM   28  N7  UNL     1       2.407   1.339   2.633  1.00  0.00    -0.051 N 
ATOM     29  H73 UNL     1       3.255   0.792   2.483  1.00  0.00     0.277 HD
ATOM     30  H72 UNL     1       2.530   2.059   1.921  1.00  0.00     0.277 HD
ATOM     31  H71 UNL     1       2.419   1.758   3.563  1.00  0.00     0.277 HD
ENDBRANCH  27  28
BRANCH  27  32
HETATM   32  O3  UNL     1       0.162   1.375   2.591  1.00  0.00    -0.368 OA
ATOM     33  H3  UNL     1       0.173   1.766   3.457  1.00  0.00     0.212 HD
ENDBRANCH  27  32
ENDBRANCH  15  27
ENDBRANCH  14  15
ENDBRANCH  12  14
ENDBRANCH  10  12
ENDBRANCH   1  10
TORSDOF 13
