REMARK  6 active torsions:
REMARK  status: ('A' for Active; 'I' for Inactive)
REMARK    1  A    between atoms: C2_3  and  C3_4 
REMARK    2  A    between atoms: C2_3  and  C4_6 
REMARK       I    between atoms: C4_6  and  N2_8 
REMARK    3  A    between atoms: N2_8  and  C5_10 
REMARK    4  A    between atoms: C5_10  and  C6_11 
REMARK    5  A    between atoms: C6_11  and  N3_12 
REMARK       I    between atoms: N3_12  and  C7_14 
REMARK       I    between atoms: C7_14  and  N4_16 
REMARK    6  A    between atoms: N4_16  and  C8_18 
ROOT
HETATM    1  N1  UNL     1       6.899  -0.983   3.255  1.00  0.00    -0.196 NA
HETATM    2  C1  UNL     1       6.651  -0.374   2.306  1.00  0.00     0.074 C 
HETATM    3  C2  UNL     1       6.326   0.402   1.133  1.00  0.00     0.198 C 
ENDROOT
BRANCH   3   4
HETATM    4  C3  UNL     1       6.530   1.883   1.355  1.00  0.00     0.143 C 
HETATM    5 CL1  UNL     1       8.237   2.169   1.765  1.00  0.00    -0.129 Cl
ENDBRANCH   3   4
BRANCH   3   6
HETATM    6  C4  UNL     1       4.890   0.214   0.731  1.00  0.00     0.236 C 
HETATM    7  O1  UNL     1       4.195  -0.546   1.421  1.00  0.00    -0.272 OA
HETATM    8  N2  UNL     1       4.400   0.892  -0.388  1.00  0.00    -0.358 N 
ATOM      9  H2  UNL     1       5.027   1.507  -0.907  1.00  0.00     0.162 HD
BRANCH   8  10
HETATM   10  C5  UNL     1       3.040   0.750  -0.831  1.00  0.00     0.142 C 
BRANCH  10  11
HETATM   11  C6  UNL     1       2.757  -0.656  -1.233  1.00  0.00     0.144 C 
BRANCH  11  12
HETATM   12  N3  UNL     1       1.417  -0.808  -1.698  1.00  0.00    -0.342 N 
HETATM   13  C7  UNL     1       0.297  -0.574  -0.860  1.00  0.00     0.316 C 
HETATM   14  O2  UNL     1       0.494  -0.240   0.327  1.00  0.00    -0.247 OA
HETATM   15  N4  UNL     1      -1.021  -0.727  -1.399  1.00  0.00    -0.334 N 
ATOM     16  H4  UNL     1      -1.114  -1.000  -2.377  1.00  0.00     0.165 HD
ATOM     17  H3  UNL     1       1.259  -1.094  -2.664  1.00  0.00     0.164 HD
BRANCH  15  18
HETATM   18  C8  UNL     1      -2.211  -0.518  -0.641  1.00  0.00     0.037 C 
HETATM   19  C9  UNL     1      -2.325  -1.439   0.544  1.00  0.00     0.035 C 
HETATM   20  C10 UNL     1      -3.587  -1.144   1.323  1.00  0.00    -0.010 C 
HETATM   21  C11 UNL     1      -4.752  -1.494   0.405  1.00  0.00     0.009 C 
HETATM   22  C15 UNL     1      -3.720   0.284   1.737  1.00  0.00     0.030 C 
HETATM   23  C12 UNL     1      -4.689  -0.607  -0.810  1.00  0.00    -0.010 C 
HETATM   24  C13 UNL     1      -4.803   0.841  -0.386  1.00  0.00     0.030 C 
HETATM   25  C17 UNL     1      -3.396  -0.735  -1.572  1.00  0.00     0.035 C 
HETATM   26  C14 UNL     1      -3.644   1.176   0.494  1.00  0.00     0.040 C 
HETATM   27 CL2  UNL     1      -3.765   2.878   0.957  1.00  0.00    -0.119 Cl
HETATM   28  C16 UNL     1      -2.296   0.908  -0.128  1.00  0.00     0.056 C 
ENDBRANCH  15  18
ENDBRANCH  11  12
ENDBRANCH  10  11
ENDBRANCH   8  10
ENDBRANCH   3   6
TORSDOF 6
