REMARK  10 active torsions:
REMARK  status: ('A' for Active; 'I' for Inactive)
REMARK    1  A    between atoms: C3_4  and  C4_5 
REMARK    2  A    between atoms: C4_5  and  O1_6 
REMARK    3  A    between atoms: C4_5  and  N2_8 
REMARK    4  A    between atoms: N2_8  and  O2_9 
REMARK    5  A    between atoms: C5_11  and  N3_12 
REMARK    6  A    between atoms: N5_19  and  C7_20 
REMARK    7  A    between atoms: C9_23  and  O4_24 
REMARK    8  A    between atoms: O4_24  and  N7_25 
REMARK    9  A    between atoms: C10_28  and  C11_29 
REMARK   10  A    between atoms: C11_29  and  O5_30 
ROOT
HETATM    1  N1  UNL     1       0.709  -0.605   2.721  1.00  0.00    -0.190 NA
HETATM    2  C1  UNL     1       1.035  -0.323   1.625  1.00  0.00     0.119 C 
HETATM    3  C2  UNL     1       1.409   0.012   0.270  1.00  0.00     0.140 A 
HETATM    4  C3  UNL     1       2.748   0.185  -0.001  1.00  0.00     0.070 A 
HETATM    5  C5  UNL     1       3.078   0.499  -1.311  1.00  0.00     0.116 A 
HETATM    6  N4  UNL     1       2.134   0.627  -2.269  1.00  0.00    -0.294 N 
ATOM      7  H4  UNL     1       2.394   0.858  -3.228  1.00  0.00     0.172 HD
HETATM    8  C6  UNL     1       0.852   0.445  -1.934  1.00  0.00     0.335 A 
HETATM    9  O3  UNL     1      -0.012   0.574  -2.864  1.00  0.00    -0.246 OA
HETATM   10  N5  UNL     1       0.446   0.140  -0.692  1.00  0.00    -0.231 N 
ENDROOT
BRANCH   4  11
HETATM   11  C4  UNL     1       3.806   0.048   1.026  1.00  0.00     0.278 C 
BRANCH  11  12
HETATM   12  O1  UNL     1       3.313   0.740   2.164  1.00  0.00    -0.373 OA
ATOM     13  H1  UNL     1       3.992   0.652   2.823  1.00  0.00     0.212 HD
ENDBRANCH  11  12
BRANCH  11  14
HETATM   14  N2  UNL     1       4.983   0.822   0.634  1.00  0.00    -0.066 NA
BRANCH  14  15
HETATM   15  O2  UNL     1       5.985   0.649   1.537  1.00  0.00    -0.293 OA
ATOM     16  H2  UNL     1       6.750   1.152   1.282  1.00  0.00     0.238 HD
ENDBRANCH  14  15
ENDBRANCH  11  14
ENDBRANCH   4  11
BRANCH  10  17
HETATM   17  C7  UNL     1      -0.918  -0.051  -0.353  1.00  0.00     0.178 C 
HETATM   18  C8  UNL     1      -1.622  -1.161  -0.452  1.00  0.00     0.109 C 
HETATM   19  N6  UNL     1      -1.128  -2.430  -0.937  1.00  0.00    -0.100 NA
HETATM   20  C9  UNL     1      -2.987  -0.855   0.027  1.00  0.00     0.234 C 
HETATM   21  C10 UNL     1      -3.082   0.627  -0.092  1.00  0.00     0.191 C 
HETATM   22  O6  UNL     1      -1.713   0.996   0.157  1.00  0.00    -0.323 OA
BRANCH  20  23
HETATM   23  O4  UNL     1      -3.964  -1.532  -0.693  1.00  0.00    -0.273 OA
BRANCH  23  24
HETATM   24  N7  UNL     1      -4.717  -2.340   0.066  1.00  0.00    -0.310 N 
ATOM     25  H72 UNL     1      -4.574  -2.437   1.071  1.00  0.00     0.184 HD
ATOM     26  H71 UNL     1      -5.434  -2.837  -0.462  1.00  0.00     0.184 HD
ENDBRANCH  23  24
ENDBRANCH  20  23
BRANCH  21  27
HETATM   27  C11 UNL     1      -3.896   1.266   1.007  1.00  0.00     0.199 C 
BRANCH  27  28
HETATM   28  O5  UNL     1      -3.698   2.644   0.916  1.00  0.00    -0.398 OA
ATOM     29  H5  UNL     1      -4.210   3.046   1.608  1.00  0.00     0.209 HD
ENDBRANCH  27  28
ENDBRANCH  21  27
ENDBRANCH  10  17
BRANCH   5  30
HETATM   30  N3  UNL     1       4.294   0.663  -1.633  1.00  0.00    -0.385 N 
ATOM     31  H32 UNL     1       5.007   0.566  -0.910  1.00  0.00     0.157 HD
ATOM     32  H31 UNL     1       4.537   0.894  -2.596  1.00  0.00     0.157 HD
ENDBRANCH   5  30
TORSDOF 10
