REMARK  17 active torsions:
REMARK  status: ('A' for Active; 'I' for Inactive)
REMARK    1  A    between atoms: N1_1  and  C1_5 
REMARK    2  A    between atoms: C1_5  and  C2_6 
REMARK    3  A    between atoms: C2_6  and  C3_7 
REMARK    4  A    between atoms: C3_7  and  C4_8 
REMARK    5  A    between atoms: C4_8  and  C5_9 
REMARK    6  A    between atoms: C5_9  and  C6_10 
REMARK    7  A    between atoms: C6_10  and  C7_11 
REMARK    8  A    between atoms: C7_11  and  C8_12 
REMARK    9  A    between atoms: C8_12  and  C9_13 
REMARK   10  A    between atoms: C9_13  and  C10_14 
REMARK   11  A    between atoms: C10_14  and  C11_15 
REMARK   12  A    between atoms: C12_16  and  C13_17 
REMARK   13  A    between atoms: C13_17  and  C14_18 
REMARK   14  A    between atoms: C14_18  and  C15_19 
REMARK   15  A    between atoms: C15_19  and  C16_20 
REMARK   16  A    between atoms: C16_20  and  N2_21 
REMARK   17  A    between atoms: N2_21  and  C17_23 
ROOT
HETATM    1  C11 UNL     1       0.367  -0.765  -0.837  1.00  0.00    -0.031 C 
HETATM    2  C12 UNL     1       1.192   0.381  -0.529  1.00  0.00    -0.031 C 
ENDROOT
BRANCH   1   3
HETATM    3  C10 UNL     1       0.106  -1.877   0.070  1.00  0.00     0.027 C 
BRANCH   3   4
HETATM    4  C9  UNL     1      -0.517  -1.571   1.376  1.00  0.00     0.004 C 
BRANCH   4   5
HETATM    5  C8  UNL     1      -1.849  -0.897   1.225  1.00  0.00     0.000 C 
BRANCH   5   6
HETATM    6  C7  UNL     1      -2.841  -1.742   0.481  1.00  0.00     0.000 C 
BRANCH   6   7
HETATM    7  C6  UNL     1      -4.185  -1.010   0.425  1.00  0.00     0.000 C 
BRANCH   7   8
HETATM    8  C5  UNL     1      -4.004   0.278  -0.284  1.00  0.00     0.000 C 
BRANCH   8   9
HETATM    9  C4  UNL     1      -5.325   1.073  -0.395  1.00  0.00     0.000 C 
BRANCH   9  10
HETATM   10  C3  UNL     1      -6.330   0.286  -1.166  1.00  0.00     0.002 C 
BRANCH  10  11
HETATM   11  C2  UNL     1      -7.621   1.004  -1.395  1.00  0.00     0.027 C 
BRANCH  11  12
HETATM   12  C1  UNL     1      -8.399   1.415  -0.199  1.00  0.00     0.229 C 
BRANCH  12  13
HETATM   13  N1  UNL     1      -7.799   2.344   0.690  1.00  0.00    -0.079 N 
ATOM     14  H13 UNL     1      -6.890   1.987   0.986  1.00  0.00     0.274 HD
ATOM     15  H12 UNL     1      -7.519   3.175   0.169  1.00  0.00     0.274 HD
ATOM     16  H11 UNL     1      -8.333   2.626   1.512  1.00  0.00     0.274 HD
ENDBRANCH  12  13
ENDBRANCH  11  12
ENDBRANCH  10  11
ENDBRANCH   9  10
ENDBRANCH   8   9
ENDBRANCH   7   8
ENDBRANCH   6   7
ENDBRANCH   5   6
ENDBRANCH   4   5
ENDBRANCH   3   4
ENDBRANCH   1   3
BRANCH   2  17
HETATM   17  C13 UNL     1       2.642   0.278  -0.228  1.00  0.00     0.027 C 
BRANCH  17  18
HETATM   18  C14 UNL     1       2.982  -0.523   0.964  1.00  0.00     0.005 C 
BRANCH  18  19
HETATM   19  C15 UNL     1       4.461  -0.546   1.293  1.00  0.00     0.020 C 
BRANCH  19  20
HETATM   20  C16 UNL     1       5.203  -1.151   0.137  1.00  0.00     0.121 C 
BRANCH  20  21
HETATM   21  N2  UNL     1       6.612  -1.235   0.348  1.00  0.00    -0.376 N 
ATOM     22  H2  UNL     1       7.024  -2.122   0.637  1.00  0.00     0.161 HD
BRANCH  21  23
HETATM   23  C17 UNL     1       7.366  -0.216   0.180  1.00  0.00     0.100 A 
HETATM   24  C18 UNL     1       6.849   0.986  -0.207  1.00  0.00     0.048 A 
HETATM   25  C19 UNL     1       7.736   2.049  -0.369  1.00  0.00     0.005 A 
HETATM   26  C20 UNL     1       9.083   1.883  -0.144  1.00  0.00     0.017 A 
HETATM   27  C21 UNL     1       9.521   0.637   0.244  1.00  0.00     0.089 A 
HETATM   28  N3  UNL     1       8.687  -0.400   0.406  1.00  0.00    -0.353 N 
ATOM     29  H3  UNL     1       9.042  -1.312   0.695  1.00  0.00     0.166 HD
ENDBRANCH  21  23
ENDBRANCH  20  21
ENDBRANCH  19  20
ENDBRANCH  18  19
ENDBRANCH  17  18
ENDBRANCH   2  17
TORSDOF 17
