REMARK  12 active torsions:
REMARK  status: ('A' for Active; 'I' for Inactive)
REMARK    1  A    between atoms: C2_2  and  C3_3 
REMARK    2  A    between atoms: C3_3  and  C4_4 
REMARK    3  A    between atoms: C4_4  and  C5_5 
REMARK    4  A    between atoms: C4_4  and  N1_10 
REMARK    5  A    between atoms: C5_5  and  C6_6 
REMARK    6  A    between atoms: C6_6  and  C7_7 
REMARK    7  A    between atoms: C7_7  and  S1_8 
REMARK    8  A    between atoms: N1_10  and  C9_12 
REMARK    9  A    between atoms: C9_12  and  C10_13 
REMARK   10  A    between atoms: C10_13  and  C11_14 
REMARK   11  A    between atoms: C10_13  and  C15_18 
REMARK   12  A    between atoms: C11_14  and  C12_15 
ROOT
HETATM    1  C9  UNL     1      -0.417   0.522  -0.635  1.00  0.00     0.123 C 
ENDROOT
BRANCH   1   2
HETATM    2  N1  UNL     1       0.432  -0.517  -0.251  1.00  0.00    -0.416 N 
ATOM      3  H1  UNL     1       0.053  -1.318   0.254  1.00  0.00     0.153 HD
BRANCH   2   4
HETATM    4  C4  UNL     1       1.834  -0.469  -0.560  1.00  0.00     0.080 C 
BRANCH   4   5
HETATM    5  C3  UNL     1       2.100  -1.694  -1.396  1.00  0.00     0.051 C 
BRANCH   5   6
HETATM    6  C2  UNL     1       1.547  -2.938  -0.787  1.00  0.00    -0.035 C 
HETATM    7  C1  UNL     1       2.319  -3.916  -0.347  1.00  0.00     0.007 C 
ENDBRANCH   5   6
ENDBRANCH   4   5
BRANCH   4   8
HETATM    8  C5  UNL     1       2.469  -0.510   0.823  1.00  0.00     0.026 C 
BRANCH   8   9
HETATM    9  C6  UNL     1       3.919  -0.658   0.898  1.00  0.00     0.012 C 
BRANCH   9  10
HETATM   10  C7  UNL     1       4.776   0.351   0.228  1.00  0.00     0.073 C 
BRANCH  10  11
HETATM   11  S1  UNL     1       4.552   2.049   0.815  1.00  0.00    -0.173 SA
HETATM   12  C8  UNL     1       5.756   3.083  -0.097  1.00  0.00     0.089 C 
ENDBRANCH  10  11
ENDBRANCH   9  10
ENDBRANCH   8   9
ENDBRANCH   4   8
ENDBRANCH   2   4
ENDBRANCH   1   2
BRANCH   1  13
HETATM   13  C10 UNL     1      -1.722   0.246   0.201  1.00  0.00     0.036 C 
BRANCH  13  14
HETATM   14  C11 UNL     1      -2.285  -1.074  -0.187  1.00  0.00     0.015 C 
BRANCH  14  15
HETATM   15  C12 UNL     1      -3.460  -1.418   0.679  1.00  0.00    -0.014 A 
HETATM   16  C13 UNL     1      -4.152  -2.738   0.405  1.00  0.00     0.005 A 
HETATM   17  C14 UNL     1      -4.830  -1.425   0.159  1.00  0.00     0.005 A 
ENDBRANCH  14  15
ENDBRANCH  13  14
BRANCH  13  18
HETATM   18  C15 UNL     1      -2.573   1.412   0.111  1.00  0.00    -0.052 A 
HETATM   19  C16 UNL     1      -2.865   2.007  -1.102  1.00  0.00     0.007 A 
HETATM   20  C17 UNL     1      -3.655   3.162  -1.173  1.00  0.00     0.001 A 
HETATM   21  C18 UNL     1      -4.169   3.743  -0.017  1.00  0.00     0.000 A 
HETATM   22  C19 UNL     1      -3.871   3.142   1.180  1.00  0.00     0.001 A 
HETATM   23  C20 UNL     1      -3.107   2.022   1.248  1.00  0.00     0.007 A 
ENDBRANCH  13  18
ENDBRANCH   1  13
TORSDOF 12
