REMARK  12 active torsions:
REMARK  status: ('A' for Active; 'I' for Inactive)
REMARK    1  A    between atoms: C2_2  and  C3_3 
REMARK    2  A    between atoms: C3_3  and  N1_4 
REMARK    3  A    between atoms: N1_4  and  C4_5 
REMARK    4  A    between atoms: N1_4  and  C6_7 
REMARK    5  A    between atoms: C6_7  and  C7_11 
REMARK    6  A    between atoms: C7_11  and  C8_12 
REMARK    7  A    between atoms: C8_12  and  C9_13 
REMARK    8  A    between atoms: C9_13  and  C10_14 
REMARK    9  A    between atoms: C10_14  and  C11_15 
REMARK   10  A    between atoms: C11_15  and  C12_17 
REMARK   11  A    between atoms: C12_17  and  O2_19 
REMARK   12  A    between atoms: O2_19  and  C14_20 
ROOT
HETATM    1  C9  UNL     1      -0.708   0.491  -0.324  1.00  0.00     0.008 C 
ENDROOT
BRANCH   1   2
HETATM    2  C8  UNL     1      -2.146   0.566   0.150  1.00  0.00     0.008 C 
BRANCH   2   3
HETATM    3  C7  UNL     1      -2.998   1.339  -0.820  1.00  0.00     0.076 C 
BRANCH   3   4
HETATM    4  C6  UNL     1      -4.432   1.405  -0.454  1.00  0.00     0.072 C 
HETATM    5  N2  UNL     1      -4.893   2.462   0.159  1.00  0.00    -0.389 N 
ATOM      6  H22 UNL     1      -5.880   2.507   0.411  1.00  0.00     0.157 HD
ATOM      7  H21 UNL     1      -4.258   3.230   0.379  1.00  0.00     0.157 HD
BRANCH   4   8
HETATM    8  N1  UNL     1      -5.325   0.325  -0.764  1.00  0.00    -0.368 N 
BRANCH   8   9
HETATM    9  C3  UNL     1      -6.710   0.453  -0.403  1.00  0.00     0.150 C 
BRANCH   9  10
HETATM   10  C2  UNL     1      -7.188  -0.460   0.629  1.00  0.00    -0.017 C 
HETATM   11  C1  UNL     1      -8.168  -1.342   0.469  1.00  0.00     0.008 C 
ENDBRANCH   9  10
ENDBRANCH   8   9
BRANCH   8  12
HETATM   12  C4  UNL     1      -4.866  -0.844  -1.453  1.00  0.00     0.120 C 
HETATM   13  C5  UNL     1      -4.894  -2.124  -0.696  1.00  0.00     0.026 C 
ENDBRANCH   8  12
ENDBRANCH   4   8
ENDBRANCH   3   4
ENDBRANCH   2   3
ENDBRANCH   1   2
BRANCH   1  14
HETATM   14  C10 UNL     1       0.113  -0.273   0.669  1.00  0.00     0.081 C 
BRANCH  14  15
HETATM   15  C11 UNL     1       1.512  -0.448   0.272  1.00  0.00     0.155 C 
HETATM   16  O1  UNL     1       1.821  -1.578  -0.126  1.00  0.00    -0.295 OA
BRANCH  15  17
HETATM   17  C12 UNL     1       2.577   0.544   0.291  1.00  0.00     0.187 C 
HETATM   18  C13 UNL     1       2.323   1.750  -0.594  1.00  0.00     0.048 C 
BRANCH  17  19
HETATM   19  O2  UNL     1       3.813   0.045  -0.072  1.00  0.00    -0.373 OA
BRANCH  19  20
HETATM   20  C14 UNL     1       4.815   0.141   0.864  1.00  0.00     0.122 C 
HETATM   21  C15 UNL     1       5.377  -1.207   1.261  1.00  0.00     0.032 C 
HETATM   22  C16 UNL     1       6.855  -1.039   1.529  1.00  0.00     0.002 C 
HETATM   23  C17 UNL     1       7.592  -0.859   0.213  1.00  0.00     0.000 C 
HETATM   24  C18 UNL     1       6.752  -0.018  -0.691  1.00  0.00     0.002 C 
HETATM   25  C19 UNL     1       5.942   0.917   0.224  1.00  0.00     0.032 C 
ENDBRANCH  19  20
ENDBRANCH  17  19
ENDBRANCH  15  17
ENDBRANCH  14  15
ENDBRANCH   1  14
TORSDOF 12
