REMARK  8 active torsions:
REMARK  status: ('A' for Active; 'I' for Inactive)
REMARK    1  A    between atoms: O1_2  and  C2_3 
REMARK    2  A    between atoms: C2_3  and  C3_4 
REMARK    3  A    between atoms: C3_4  and  C4_5 
REMARK    4  A    between atoms: C3_4  and  C15_21 
REMARK    5  A    between atoms: C4_5  and  O2_6 
REMARK    6  A    between atoms: C4_5  and  C5_8 
REMARK    7  A    between atoms: C5_8  and  C6_9 
REMARK    8  A    between atoms: C31_38  and  O4_39 
ROOT
HETATM    1  C15 UNL     1       0.228  -0.264   0.024  1.00  0.00     0.030 C 
HETATM    2  C16 UNL     1       0.545  -1.117  -1.216  1.00  0.00     0.010 C 
HETATM    3  C17 UNL     1       1.640  -0.402  -1.946  1.00  0.00     0.006 C 
HETATM    4  C18 UNL     1       2.357   0.376  -0.882  1.00  0.00     0.002 C 
HETATM    5  C19 UNL     1       3.703  -0.178  -0.677  1.00  0.00    -0.001 C 
HETATM    6  C20 UNL     1       3.889  -1.657  -0.711  1.00  0.00     0.033 C 
HETATM    7  C21 UNL     1       5.311  -2.048  -0.409  1.00  0.00    -0.022 C 
HETATM    8  C22 UNL     1       6.171  -1.300   0.181  1.00  0.00    -0.064 C 
HETATM    9  C23 UNL     1       7.584  -1.739   0.456  1.00  0.00     0.118 C 
HETATM   10  C24 UNL     1       8.440  -0.655  -0.175  1.00  0.00     0.152 C 
HETATM   11  O3  UNL     1       9.675  -0.869  -0.303  1.00  0.00    -0.293 OA
HETATM   12  C25 UNL     1       7.882   0.610  -0.631  1.00  0.00     0.047 C 
HETATM   13  C26 UNL     1       6.671   0.957  -0.269  1.00  0.00    -0.009 C 
HETATM   14  C27 UNL     1       5.838   0.053   0.627  1.00  0.00     0.001 C 
HETATM   15  C28 UNL     1       6.343   0.368   2.025  1.00  0.00     0.025 C 
HETATM   16  C29 UNL     1       4.420   0.472   0.505  1.00  0.00     0.009 C 
HETATM   17  C30 UNL     1       3.554   0.215   1.694  1.00  0.00     0.039 C 
HETATM   18  C31 UNL     1       2.149  -0.149   1.483  1.00  0.00     0.127 C 
HETATM   19  C32 UNL     1       1.424   0.492   0.305  1.00  0.00    -0.006 C 
HETATM   20  C33 UNL     1       1.300   1.919   0.779  1.00  0.00     0.019 C 
ENDROOT
BRANCH   1  21
HETATM   21  C3  UNL     1      -1.156   0.216  -0.138  1.00  0.00    -0.019 C 
BRANCH  21  22
HETATM   22  C2  UNL     1      -1.553   1.050  -1.284  1.00  0.00     0.204 C 
BRANCH  22  23
HETATM   23  O1  UNL     1      -1.538   2.414  -1.144  1.00  0.00    -0.392 OA
HETATM   24  C1  UNL     1      -1.928   3.114  -2.253  1.00  0.00     0.201 C 
ENDBRANCH  22  23
ENDBRANCH  21  22
BRANCH  21  25
HETATM   25  C4  UNL     1      -1.981   0.367   1.115  1.00  0.00     0.067 C 
BRANCH  25  26
HETATM   26  O2  UNL     1      -2.026   1.644   1.635  1.00  0.00    -0.361 OA
ATOM     27  H2  UNL     1      -2.546   1.739   2.424  1.00  0.00     0.217 HD
ENDBRANCH  25  26
BRANCH  25  28
HETATM   28  C5  UNL     1      -3.190  -0.463   1.258  1.00  0.00     0.015 C 
BRANCH  28  29
HETATM   29  C6  UNL     1      -4.312  -0.396   0.328  1.00  0.00     0.021 C 
HETATM   30  C7  UNL     1      -5.369  -1.436   0.810  1.00  0.00    -0.005 C 
HETATM   31  C8  UNL     1      -4.821  -2.825   0.758  1.00  0.00     0.011 C 
HETATM   32  C9  UNL     1      -6.577  -1.367  -0.083  1.00  0.00     0.017 C 
HETATM   33  C10 UNL     1      -6.200  -1.172  -1.523  1.00  0.00     0.237 C 
HETATM   34  C12 UNL     1      -7.280  -0.028   0.191  1.00  0.00     0.040 C 
HETATM   35  N1  UNL     1      -6.033   0.248  -1.734  1.00  0.00    -0.070 N 
HETATM   36  C11 UNL     1      -6.300   0.910  -0.474  1.00  0.00     0.190 C 
ATOM     37  H12 UNL     1      -5.121   0.488  -2.124  1.00  0.00     0.277 HD
ATOM     38  H11 UNL     1      -6.604   0.606  -2.500  1.00  0.00     0.277 HD
HETATM   39  C13 UNL     1      -5.035   0.932   0.364  1.00  0.00     0.020 C 
HETATM   40  C14 UNL     1      -5.399   1.411   1.726  1.00  0.00     0.012 C 
ENDBRANCH  28  29
ENDBRANCH  25  28
ENDBRANCH  21  25
ENDBRANCH   1  21
BRANCH  18  41
HETATM   41  O4  UNL     1       1.460   0.340   2.636  1.00  0.00    -0.395 OA
ATOM     42  H4  UNL     1       0.550   0.104   2.499  1.00  0.00     0.210 HD
ENDBRANCH  18  41
TORSDOF 8
