REMARK  7 active torsions:
REMARK  status: ('A' for Active; 'I' for Inactive)
REMARK    1  A    between atoms: C2_2  and  C3_3 
REMARK    2  A    between atoms: C3_3  and  C4_4 
REMARK    3  A    between atoms: C3_3  and  C6_6 
REMARK    4  A    between atoms: C6_6  and  C7_7 
REMARK    5  A    between atoms: C7_7  and  N1_8 
REMARK    6  A    between atoms: N1_8  and  C8_10 
REMARK    7  A    between atoms: C8_10  and  C9_11 
ROOT
HETATM    1  C7  UNL     1       0.210  -0.250  -0.496  1.00  0.00     0.114 C 
ENDROOT
BRANCH   1   2
HETATM    2  C6  UNL     1      -0.580  -0.556   0.725  1.00  0.00     0.024 C 
BRANCH   2   3
HETATM    3  C3  UNL     1      -2.016  -0.121   0.622  1.00  0.00    -0.014 C 
BRANCH   3   4
HETATM    4  C2  UNL     1      -2.158   1.363   0.386  1.00  0.00     0.000 C 
HETATM    5  C1  UNL     1      -3.540   1.879   0.674  1.00  0.00     0.005 C 
ENDBRANCH   3   4
BRANCH   3   6
HETATM    6  C4  UNL     1      -2.902  -0.985  -0.188  1.00  0.00     0.000 C 
HETATM    7  C5  UNL     1      -2.806  -0.920  -1.653  1.00  0.00     0.005 C 
ENDBRANCH   3   6
ENDBRANCH   2   3
ENDBRANCH   1   2
BRANCH   1   8
HETATM    8  N1  UNL     1       1.584  -0.684  -0.340  1.00  0.00    -0.421 N 
ATOM      9  H1  UNL     1       1.979  -1.456  -0.877  1.00  0.00     0.153 HD
BRANCH   8  10
HETATM   10  C8  UNL     1       2.340   0.048   0.618  1.00  0.00     0.118 C 
BRANCH  10  11
HETATM   11  C9  UNL     1       3.747  -0.563   0.607  1.00  0.00     0.003 A 
HETATM   12  C10 UNL     1       4.519  -0.531  -0.665  1.00  0.00     0.007 A 
HETATM   13  C11 UNL     1       4.893   0.345   0.531  1.00  0.00     0.007 A 
ENDBRANCH  10  11
ENDBRANCH   8  10
ENDBRANCH   1   8
TORSDOF 7
