REMARK  14 active torsions:
REMARK  status: ('A' for Active; 'I' for Inactive)
REMARK    1  A    between atoms: C2_2  and  N1_3 
REMARK    2  A    between atoms: N1_3  and  C4_5 
REMARK    3  A    between atoms: C4_5  and  O1_6 
REMARK    4  A    between atoms: C4_5  and  C5_8 
REMARK    5  A    between atoms: C9_14  and  C10_15 
REMARK    6  A    between atoms: C12_17  and  C13_18 
REMARK    7  A    between atoms: C13_18  and  C14_19 
REMARK    8  A    between atoms: C14_19  and  O2_22 
REMARK    9  A    between atoms: C19_28  and  O3_29 
REMARK   10  A    between atoms: O3_29  and  C20_30 
REMARK   11  A    between atoms: C20_30  and  C21_31 
REMARK       I    between atoms: C21_31  and  N4_33 
REMARK   12  A    between atoms: N4_33  and  C22_35 
REMARK   13  A    between atoms: C22_35  and  C23_36 
REMARK   14  A    between atoms: C23_36  and  N5_37 
ROOT
HETATM    1  C10 UNL     1      -0.034   1.182  -0.252  1.00  0.00     0.060 A 
HETATM    2  C11 UNL     1       0.048   2.574  -0.224  1.00  0.00     0.028 A 
HETATM    3  C12 UNL     1      -1.082   3.386  -0.366  1.00  0.00    -0.032 A 
HETATM    4  C17 UNL     1      -2.263   2.735  -0.531  1.00  0.00     0.013 A 
HETATM    5  C18 UNL     1      -3.562   3.440  -0.646  1.00  0.00     0.068 C 
HETATM    6  N3  UNL     1      -2.318   1.366  -0.555  1.00  0.00    -0.340 N 
ATOM      7  H3  UNL     1      -3.227   0.922  -0.682  1.00  0.00     0.168 HD
HETATM    8  C19 UNL     1      -1.243   0.580  -0.421  1.00  0.00     0.157 A 
ENDROOT
BRANCH   1   9
HETATM    9  C9  UNL     1       1.189   0.384  -0.087  1.00  0.00     0.121 A 
HETATM   10  N2  UNL     1       1.381  -0.932  -0.081  1.00  0.00    -0.340 N 
HETATM   11  C8  UNL     1       2.697  -1.238   0.114  1.00  0.00     0.060 A 
ATOM     12  H2  UNL     1       0.641  -1.623  -0.206  1.00  0.00     0.167 HD
HETATM   13  C7  UNL     1       3.406  -2.397   0.204  1.00  0.00     0.033 A 
HETATM   14  C26 UNL     1       3.352  -0.043   0.233  1.00  0.00     0.061 A 
HETATM   15  C6  UNL     1       4.797  -2.420   0.417  1.00  0.00     0.018 A 
HETATM   16  C5  UNL     1       5.461  -1.232   0.538  1.00  0.00     0.017 A 
HETATM   17  C27 UNL     1       4.709  -0.042   0.442  1.00  0.00     0.047 A 
HETATM   18  N6  UNL     1       2.433   0.930   0.110  1.00  0.00    -0.340 N 
ATOM     19  H6  UNL     1       2.631   1.929   0.156  1.00  0.00     0.167 HD
BRANCH  16  20
HETATM   20  C4  UNL     1       6.888  -1.151   0.768  1.00  0.00     0.148 C 
BRANCH  20  21
HETATM   21  N1  UNL     1       7.857  -2.118   0.930  1.00  0.00    -0.366 N 
HETATM   22  C3  UNL     1       7.761  -3.554   0.928  1.00  0.00     0.151 C 
BRANCH  21  23
HETATM   23  C2  UNL     1       9.248  -1.621   1.148  1.00  0.00     0.120 C 
HETATM   24  C1  UNL     1       9.941  -1.462  -0.167  1.00  0.00     0.026 C 
ENDBRANCH  21  23
ENDBRANCH  20  21
BRANCH  20  25
HETATM   25  O1  UNL     1       7.331   0.074   0.831  1.00  0.00    -0.346 OA
ATOM     26  H1  UNL     1       6.663   0.740   0.719  1.00  0.00     0.219 HD
ENDBRANCH  20  25
ENDBRANCH  16  20
ENDBRANCH   1   9
BRANCH   8  27
HETATM   27  O3  UNL     1      -1.417  -0.778  -0.464  1.00  0.00    -0.326 OA
BRANCH  27  28
HETATM   28  C20 UNL     1      -2.578  -1.507  -0.622  1.00  0.00     0.280 C 
BRANCH  28  29
HETATM   29  C21 UNL     1      -3.600  -1.340   0.422  1.00  0.00     0.242 C 
HETATM   30  O4  UNL     1      -3.402  -0.584   1.398  1.00  0.00    -0.271 OA
HETATM   31  N4  UNL     1      -4.834  -2.032   0.346  1.00  0.00    -0.355 N 
ATOM     32  H4  UNL     1      -5.013  -2.651  -0.445  1.00  0.00     0.162 HD
BRANCH  31  33
HETATM   33  C22 UNL     1      -5.845  -1.877   1.369  1.00  0.00     0.166 C 
BRANCH  33  34
HETATM   34  C23 UNL     1      -7.082  -2.663   1.177  1.00  0.00     0.076 C 
BRANCH  34  35
HETATM   35  N5  UNL     1      -7.040  -4.047   1.126  1.00  0.00    -0.400 N 
HETATM   36  C24 UNL     1      -6.462  -4.755   0.076  1.00  0.00     0.148 C 
HETATM   37  C25 UNL     1      -8.210  -4.638   1.726  1.00  0.00     0.148 C 
ENDBRANCH  34  35
ENDBRANCH  33  34
ENDBRANCH  31  33
ENDBRANCH  28  29
ENDBRANCH  27  28
ENDBRANCH   8  27
BRANCH   3  38
HETATM   38  C13 UNL     1      -0.897   4.820  -0.370  1.00  0.00     0.077 C 
BRANCH  38  39
HETATM   39  C14 UNL     1      -0.738   5.518  -1.663  1.00  0.00     0.054 C 
HETATM   40  C15 UNL     1      -1.835   5.430  -2.659  1.00  0.00     0.045 C 
HETATM   41  C16 UNL     1      -0.592   7.018  -1.326  1.00  0.00     0.045 C 
BRANCH  39  42
HETATM   42  O2  UNL     1       0.514   5.208  -2.271  1.00  0.00    -0.390 OA
ATOM     43  H2  UNL     1       0.616   5.657  -3.102  1.00  0.00     0.210 HD
ENDBRANCH  39  42
ENDBRANCH  38  39
ENDBRANCH   3  38
TORSDOF 14
