REMARK  15 active torsions:
REMARK  status: ('A' for Active; 'I' for Inactive)
REMARK    1  A    between atoms: C2_2  and  C3_3 
REMARK    2  A    between atoms: C2_2  and  C7_11 
REMARK    3  A    between atoms: C3_3  and  C4_4 
REMARK    4  A    between atoms: C4_4  and  C5_5 
REMARK    5  A    between atoms: C5_5  and  C6_6 
REMARK    6  A    between atoms: C6_6  and  N1_7 
REMARK       I    between atoms: C7_11  and  N2_13 
REMARK    7  A    between atoms: C9_15  and  S1_16 
REMARK    8  A    between atoms: S1_16  and  C10_17 
REMARK    9  A    between atoms: C12_21  and  N4_22 
REMARK       I    between atoms: N4_22  and  C13_24 
REMARK   10  A    between atoms: C13_24  and  C14_26 
REMARK   11  A    between atoms: C14_26  and  C15_27 
REMARK   12  A    between atoms: C15_27  and  C16_28 
REMARK   13  A    between atoms: C16_28  and  N5_29 
REMARK   14  A    between atoms: C19_35  and  N8_36 
REMARK   15  A    between atoms: C21_41  and  C22_42 
ROOT
HETATM    1  C10 UNL     1       0.701  -1.233  -0.133  1.00  0.00     0.095 C 
HETATM    2  C11 UNL     1       1.355  -0.930   1.181  1.00  0.00     0.133 C 
HETATM    3  N3  UNL     1       2.625  -0.298   1.105  1.00  0.00    -0.400 N 
ATOM      4  H3  UNL     1       2.916   0.389   1.801  1.00  0.00     0.155 HD
HETATM    5  C12 UNL     1       3.467  -0.653   0.036  1.00  0.00     0.181 C 
HETATM    6  C18 UNL     1       3.024  -1.992  -0.534  1.00  0.00     0.080 C 
HETATM    7  C19 UNL     1       1.671  -1.687  -1.194  1.00  0.00     0.202 C 
ENDROOT
BRANCH   1   8
HETATM    8  S1  UNL     1      -0.333   0.162  -0.668  1.00  0.00    -0.154 SA
BRANCH   8   9
HETATM    9  C9  UNL     1      -1.701   0.304   0.483  1.00  0.00     0.068 C 
HETATM   10  C8  UNL     1      -2.649  -0.847   0.440  1.00  0.00     0.141 C 
HETATM   11  N2  UNL     1      -3.791  -0.404  -0.340  1.00  0.00    -0.338 N 
HETATM   12  C7  UNL     1      -4.947  -1.175  -0.579  1.00  0.00     0.224 C 
HETATM   13  C21 UNL     1      -3.535   0.918  -0.836  1.00  0.00     0.177 C 
HETATM   14  O1  UNL     1      -4.991  -2.353  -0.100  1.00  0.00    -0.273 OA
HETATM   15  C20 UNL     1      -2.604   1.483   0.233  1.00  0.00     0.051 C 
BRANCH  12  16
HETATM   16  C2  UNL     1      -6.134  -0.734  -1.344  1.00  0.00     0.074 C 
HETATM   17  C1  UNL     1      -6.465  -1.904  -2.290  1.00  0.00     0.020 C 
BRANCH  16  18
HETATM   18  C3  UNL     1      -7.362  -0.534  -0.476  1.00  0.00     0.013 C 
BRANCH  18  19
HETATM   19  C4  UNL     1      -7.124   0.582   0.476  1.00  0.00     0.002 C 
BRANCH  19  20
HETATM   20  C5  UNL     1      -8.303   0.849   1.385  1.00  0.00     0.027 C 
BRANCH  20  21
HETATM   21  C6  UNL     1      -9.544   1.217   0.597  1.00  0.00     0.229 C 
BRANCH  21  22
HETATM   22  N1  UNL     1     -10.615   1.453   1.539  1.00  0.00    -0.079 N 
ATOM     23  H13 UNL     1     -10.767   0.666   2.170  1.00  0.00     0.274 HD
ATOM     24  H12 UNL     1     -10.374   2.149   2.245  1.00  0.00     0.274 HD
ATOM     25  H11 UNL     1     -11.450   1.701   1.009  1.00  0.00     0.274 HD
ENDBRANCH  21  22
ENDBRANCH  20  21
ENDBRANCH  19  20
ENDBRANCH  18  19
ENDBRANCH  16  18
ENDBRANCH  12  16
BRANCH  13  26
HETATM   26  C22 UNL     1      -2.909   0.932  -2.168  1.00  0.00     0.254 C 
HETATM   27  N9  UNL     1      -2.608   2.176  -2.773  1.00  0.00    -0.060 NA
HETATM   28  O3  UNL     1      -2.637  -0.117  -2.778  1.00  0.00    -0.275 OA
ENDBRANCH  13  26
ENDBRANCH   8   9
ENDBRANCH   1   8
BRANCH   7  29
HETATM   29  N8  UNL     1       1.246  -2.926  -1.816  1.00  0.00    -0.074 N 
ATOM     30  H83 UNL     1       1.087  -3.655  -1.121  1.00  0.00     0.274 HD
ATOM     31  H82 UNL     1       0.299  -2.850  -2.187  1.00  0.00     0.274 HD
ATOM     32  H81 UNL     1       1.902  -3.233  -2.534  1.00  0.00     0.274 HD
ENDBRANCH   7  29
BRANCH   5  33
HETATM   33  N4  UNL     1       4.849  -0.821   0.513  1.00  0.00    -0.340 N 
HETATM   34  C13 UNL     1       5.899  -0.125  -0.134  1.00  0.00     0.219 C 
HETATM   35  O2  UNL     1       5.698   0.642  -1.114  1.00  0.00    -0.274 OA
ATOM     36  H4  UNL     1       5.049  -1.434   1.303  1.00  0.00     0.164 HD
BRANCH  34  37
HETATM   37  C14 UNL     1       7.282  -0.305   0.355  1.00  0.00     0.104 C 
BRANCH  37  38
HETATM   38  C15 UNL     1       8.277   0.498  -0.453  1.00  0.00     0.029 C 
BRANCH  38  39
HETATM   39  C16 UNL     1       9.664   0.240   0.133  1.00  0.00     0.122 C 
BRANCH  39  40
HETATM   40  N5  UNL     1       9.728   0.644   1.515  1.00  0.00    -0.367 N 
HETATM   41  C17 UNL     1      10.835   0.972   2.093  1.00  0.00     0.196 C 
HETATM   42  N6  UNL     1      10.824   1.359   3.456  1.00  0.00    -0.067 NA
HETATM   43  N7  UNL     1      12.018   0.929   1.322  1.00  0.00    -0.067 NA
ATOM     44  H5  UNL     1       8.865   0.672   2.058  1.00  0.00     0.161 HD
ENDBRANCH  39  40
ENDBRANCH  38  39
ENDBRANCH  37  38
ENDBRANCH  34  37
ENDBRANCH   5  33
TORSDOF 15
