REMARK  1 active torsions:
REMARK  status: ('A' for Active; 'I' for Inactive)
REMARK    1  A    between atoms: C1_2  and  C2_4 
ROOT
HETATM    1  C2  UNL     1       0.907   0.464  -0.419  1.00  0.00     0.157 C 
HETATM    2  C3  UNL     1       0.460  -0.924  -0.849  1.00  0.00     0.100 C 
HETATM    3  S1  UNL     1      -1.295  -0.919  -1.201  1.00  0.00    -0.167 SA
HETATM    4  C4  UNL     1      -2.167  -0.451   0.342  1.00  0.00     0.084 C 
HETATM    5  C5  UNL     1      -1.829   1.036   0.533  1.00  0.00     0.085 C 
HETATM    6  S2  UNL     1      -0.060   1.061   1.001  1.00  0.00    -0.152 SA
ENDROOT
BRANCH   1   7
HETATM    7  C1  UNL     1       2.320   0.469  -0.018  1.00  0.00     0.188 C 
HETATM    8  O1  UNL     1       3.133   1.189  -0.620  1.00  0.00    -0.647 OA
HETATM    9  O2  UNL     1       2.738  -0.322   1.020  1.00  0.00    -0.647 OA
ENDBRANCH   1   7
TORSDOF 1
