REMARK  6 active torsions:
REMARK  status: ('A' for Active; 'I' for Inactive)
REMARK    1  A    between atoms: C2_2  and  C3_3 
REMARK    2  A    between atoms: C7_10  and  C8_11 
REMARK    3  A    between atoms: C8_11  and  C9_12 
REMARK    4  A    between atoms: C9_12  and  C10_13 
REMARK    5  A    between atoms: C10_13  and  N2_14 
REMARK    6  A    between atoms: C16_29  and  C17_30 
ROOT
HETATM    1  C3  UNL     1      -2.301   2.987   0.786  1.00  0.00     0.026 C 
HETATM    2  C4  UNL     1      -1.487   2.670  -0.450  1.00  0.00     0.019 C 
HETATM    3  C5  UNL     1      -0.294   1.850  -0.070  1.00  0.00     0.103 C 
HETATM    4  C6  UNL     1       0.735   1.868  -1.132  1.00  0.00     0.218 C 
HETATM    5  O1  UNL     1       0.506   2.524  -2.175  1.00  0.00    -0.274 OA
HETATM    6  N1  UNL     1       1.957   1.172  -1.000  1.00  0.00    -0.348 N 
ATOM      7  H1  UNL     1       2.802   1.570  -1.411  1.00  0.00     0.163 HD
HETATM    8  C7  UNL     1       2.042  -0.093  -0.296  1.00  0.00     0.176 C 
HETATM    9  C12 UNL     1       2.036  -1.244  -1.233  1.00  0.00     0.240 C 
HETATM   10  O2  UNL     1       2.719  -1.167  -2.288  1.00  0.00    -0.271 OA
HETATM   11  N5  UNL     1       1.301  -2.432  -1.003  1.00  0.00    -0.359 N 
ATOM     12  H5  UNL     1       1.508  -3.264  -1.556  1.00  0.00     0.162 HD
HETATM   13  C13 UNL     1       0.261  -2.487   0.003  1.00  0.00     0.124 C 
HETATM   14  C14 UNL     1      -0.700  -3.619  -0.245  1.00  0.00     0.047 C 
HETATM   15  C15 UNL     1      -2.065  -3.192   0.305  1.00  0.00     0.235 C 
HETATM   16  N6  UNL     1      -2.477  -2.055  -0.510  1.00  0.00    -0.062 N 
ATOM     17  H61 UNL     1      -3.007  -2.350  -1.330  1.00  0.00     0.278 HD
ATOM     18  H62 UNL     1      -1.684  -1.625  -0.986  1.00  0.00     0.278 HD
HETATM   19  C16 UNL     1      -3.213  -1.091   0.287  1.00  0.00     0.276 C 
HETATM   20  C19 UNL     1      -3.621   0.027  -0.571  1.00  0.00     0.250 C 
HETATM   21  O3  UNL     1      -3.729  -0.169  -1.809  1.00  0.00    -0.271 OA
HETATM   22  N7  UNL     1      -3.910   1.342  -0.095  1.00  0.00    -0.354 N 
HETATM   23  C20 UNL     1      -4.855   2.185  -0.817  1.00  0.00     0.152 C 
HETATM   24  C21 UNL     1      -3.302   1.894   1.091  1.00  0.00     0.133 C 
ENDROOT
BRANCH   8  25
HETATM   25  C8  UNL     1       3.217  -0.136   0.649  1.00  0.00     0.036 C 
BRANCH  25  26
HETATM   26  C9  UNL     1       4.535   0.052  -0.059  1.00  0.00     0.022 C 
BRANCH  26  27
HETATM   27  C10 UNL     1       5.616  -0.017   1.027  1.00  0.00     0.122 C 
BRANCH  27  28
HETATM   28  N2  UNL     1       6.928   0.149   0.478  1.00  0.00    -0.367 N 
HETATM   29  C11 UNL     1       7.621  -0.745  -0.090  1.00  0.00     0.196 C 
HETATM   30  N3  UNL     1       7.128  -2.065  -0.240  1.00  0.00    -0.067 NA
HETATM   31  N4  UNL     1       8.911  -0.421  -0.585  1.00  0.00    -0.067 NA
ATOM     32  H2  UNL     1       7.344   1.077   0.552  1.00  0.00     0.161 HD
ENDBRANCH  27  28
ENDBRANCH  26  27
ENDBRANCH  25  26
ENDBRANCH   8  25
BRANCH   1  33
HETATM   33  C2  UNL     1      -2.938   4.315   0.694  1.00  0.00    -0.031 C 
HETATM   34  C1  UNL     1      -2.577   5.284   1.505  1.00  0.00     0.007 C 
ENDBRANCH   1  33
BRANCH  19  35
HETATM   35  C17 UNL     1      -4.406  -1.751   0.965  1.00  0.00     0.038 C 
HETATM   36  C18 UNL     1      -5.372  -2.345  -0.008  1.00  0.00     0.007 C 
ENDBRANCH  19  35
TORSDOF 6
