REMARK  12 active torsions:
REMARK  status: ('A' for Active; 'I' for Inactive)
REMARK    1  A    between atoms: C9_9  and  O1_11 
REMARK    2  A    between atoms: C11_13  and  C12_14 
REMARK    3  A    between atoms: C14_16  and  O2_17 
REMARK    4  A    between atoms: C16_20  and  C17_21 
REMARK    5  A    between atoms: C17_21  and  C19_23 
REMARK    6  A    between atoms: C19_23  and  C20_24 
REMARK    7  A    between atoms: C20_24  and  C21_25 
REMARK    8  A    between atoms: C26_33  and  O4_34 
REMARK    9  A    between atoms: O4_34  and  C27_35 
REMARK   10  A    between atoms: C27_35  and  C28_37 
REMARK   11  A    between atoms: C28_37  and  C29_38 
REMARK   12  A    between atoms: C29_38  and  C30_39 
ROOT
HETATM    1  C1  UNL     1      -2.676  -2.766   4.427  1.00  0.00     0.014 C 
HETATM    2  C2  UNL     1      -2.388  -2.028   3.380  1.00  0.00    -0.089 C 
HETATM    3  C3  UNL     1      -3.522  -1.405   2.623  1.00  0.00     0.033 C 
HETATM    4  C4  UNL     1      -3.360   0.107   2.504  1.00  0.00     0.005 C 
HETATM    5  C5  UNL     1      -4.307   0.590   1.430  1.00  0.00     0.005 C 
HETATM    6  C6  UNL     1      -3.654   1.645   0.529  1.00  0.00    -0.016 C 
HETATM    7  C7  UNL     1      -4.283   2.987   0.931  1.00  0.00     0.010 C 
HETATM    8  C8  UNL     1      -3.973   1.285  -0.877  1.00  0.00     0.042 C 
HETATM    9  C9  UNL     1      -3.089   1.853  -1.929  1.00  0.00     0.060 C 
HETATM   10  C10 UNL     1      -3.154   3.371  -1.941  1.00  0.00     0.046 C 
HETATM   11  C11 UNL     1      -1.656   1.456  -1.854  1.00  0.00     0.048 C 
HETATM   12  C14 UNL     1      -1.520   0.002  -1.552  1.00  0.00     0.125 C 
HETATM   13  C15 UNL     1      -0.121  -0.536  -1.629  1.00  0.00     0.041 C 
HETATM   14  C16 UNL     1       0.827   0.018  -0.631  1.00  0.00     0.018 C 
HETATM   15  C25 UNL     1       0.754  -0.444   0.761  1.00  0.00     0.041 C 
HETATM   16  C26 UNL     1       0.603  -1.919   1.009  1.00  0.00     0.133 C 
HETATM   17  C31 UNL     1      -0.777  -2.270   1.527  1.00  0.00     0.037 C 
HETATM   18  C32 UNL     1      -0.987  -1.784   2.915  1.00  0.00     0.036 C 
ENDROOT
BRANCH  14  19
HETATM   19  C17 UNL     1       2.213  -0.022  -1.150  1.00  0.00    -0.085 C 
HETATM   20  C18 UNL     1       2.572  -0.748  -2.188  1.00  0.00     0.014 C 
BRANCH  19  21
HETATM   21  C19 UNL     1       3.253   0.794  -0.476  1.00  0.00     0.040 C 
BRANCH  21  22
HETATM   22  C20 UNL     1       2.916   2.281  -0.495  1.00  0.00     0.071 C 
BRANCH  22  23
HETATM   23  C21 UNL     1       4.001   3.053   0.183  1.00  0.00     0.078 A 
HETATM   24  C22 UNL     1       4.047   3.360   1.522  1.00  0.00     0.061 A 
HETATM   25  C23 UNL     1       5.210   4.083   1.752  1.00  0.00     0.031 A 
HETATM   26  C24 UNL     1       5.651   4.613   3.052  1.00  0.00     0.070 C 
HETATM   27  N1  UNL     1       5.799   4.168   0.528  1.00  0.00    -0.266 N 
HETATM   28  O3  UNL     1       5.063   3.557  -0.354  1.00  0.00    -0.242 OA
ATOM     29  H1  UNL     1       6.682   4.639   0.332  1.00  0.00     0.194 HD
ENDBRANCH  22  23
ENDBRANCH  21  22
ENDBRANCH  19  21
ENDBRANCH  14  19
BRANCH  12  30
HETATM   30  O2  UNL     1      -2.298  -0.801  -2.423  1.00  0.00    -0.395 OA
ATOM     31  H2  UNL     1      -2.211  -1.727  -2.231  1.00  0.00     0.210 HD
ENDBRANCH  12  30
BRANCH  16  32
HETATM   32  O4  UNL     1       1.097  -2.777   0.070  1.00  0.00    -0.316 OA
BRANCH  32  33
HETATM   33  C27 UNL     1       2.105  -3.677   0.282  1.00  0.00     0.259 C 
HETATM   34  O5  UNL     1       2.572  -3.670   1.440  1.00  0.00    -0.265 OA
BRANCH  33  35
HETATM   35  C28 UNL     1       2.668  -4.618  -0.696  1.00  0.00     0.121 C 
BRANCH  35  36
HETATM   36  C29 UNL     1       3.758  -5.477  -0.142  1.00  0.00     0.123 C 
BRANCH  36  37
HETATM   37  C30 UNL     1       4.230  -6.379  -1.252  1.00  0.00     0.172 C 
HETATM   38  O6  UNL     1       3.718  -6.326  -2.409  1.00  0.00    -0.648 OA
HETATM   39  O7  UNL     1       5.240  -7.307  -1.066  1.00  0.00    -0.648 OA
ENDBRANCH  36  37
ENDBRANCH  35  36
ENDBRANCH  33  35
ENDBRANCH  32  33
ENDBRANCH  16  32
BRANCH  11  40
HETATM   40  C12 UNL     1      -0.897   1.956  -3.027  1.00  0.00     0.006 C 
HETATM   41  C13 UNL     1      -1.336   1.497  -4.364  1.00  0.00     0.006 C 
ENDBRANCH  11  40
BRANCH   9  42
HETATM   42  O1  UNL     1      -3.637   1.450  -3.170  1.00  0.00    -0.390 OA
ATOM     43  H1  UNL     1      -3.072   1.813  -3.842  1.00  0.00     0.210 HD
ENDBRANCH   9  42
TORSDOF 12
