REMARK  13 active torsions:
REMARK  status: ('A' for Active; 'I' for Inactive)
REMARK    1  A    between atoms: O1_2  and  C2_3 
REMARK    2  A    between atoms: C2_3  and  C4_5 
REMARK    3  A    between atoms: C4_5  and  C5_6 
REMARK    4  A    between atoms: C5_6  and  O3_8 
REMARK    5  A    between atoms: O3_8  and  C6_9 
REMARK    6  A    between atoms: C8_11  and  C9_12 
REMARK    7  A    between atoms: C9_12  and  C11_14 
REMARK    8  A    between atoms: C11_14  and  C12_15 
REMARK    9  A    between atoms: C12_15  and  C13_16 
REMARK   10  A    between atoms: C13_16  and  C14_17 
REMARK   11  A    between atoms: C17_20  and  O4_21 
REMARK   12  A    between atoms: C18_23  and  O5_24 
REMARK   13  A    between atoms: C27_34  and  O6_35 
ROOT
HETATM    1  C6  UNL     1      -0.700   1.576   1.148  1.00  0.00     0.143 C 
HETATM    2  C7  UNL     1       0.607   1.089   1.670  1.00  0.00     0.041 C 
HETATM    3  C8  UNL     1       1.403   0.703   0.409  1.00  0.00     0.029 C 
HETATM    4  C17 UNL     1       0.440   0.336  -0.615  1.00  0.00     0.098 C 
HETATM    5  C18 UNL     1       0.486  -0.977  -1.287  1.00  0.00     0.154 C 
HETATM    6  C19 UNL     1      -0.903  -1.590  -1.557  1.00  0.00     0.040 C 
HETATM    7  C20 UNL     1      -1.532  -1.710  -0.203  1.00  0.00     0.002 C 
HETATM    8  C21 UNL     1      -1.864  -0.344   0.274  1.00  0.00     0.004 C 
HETATM    9  C22 UNL     1      -3.277   0.092  -0.126  1.00  0.00     0.007 C 
HETATM   10  C23 UNL     1      -4.330  -0.924   0.147  1.00  0.00     0.010 C 
HETATM   11  C24 UNL     1      -3.850  -2.246   0.644  1.00  0.00     0.030 C 
HETATM   12  C25 UNL     1      -4.854  -3.275   0.238  1.00  0.00    -0.019 A 
HETATM   13  C26 UNL     1      -5.998  -3.965   0.575  1.00  0.00     0.074 A 
HETATM   14  C27 UNL     1      -6.293  -4.815  -0.461  1.00  0.00     0.183 A 
HETATM   15  O7  UNL     1      -5.371  -4.642  -1.370  1.00  0.00    -0.292 OA
HETATM   16  C28 UNL     1      -4.496  -3.743  -1.006  1.00  0.00     0.063 A 
HETATM   17  C29 UNL     1      -3.244  -3.043  -1.464  1.00  0.00     0.075 C 
HETATM   18  C30 UNL     1      -2.645  -2.680  -0.126  1.00  0.00    -0.026 C 
HETATM   19  C31 UNL     1      -2.190  -4.001   0.516  1.00  0.00     0.016 C 
HETATM   20  C32 UNL     1      -0.938   0.757  -0.103  1.00  0.00     0.021 C 
HETATM   21  C33 UNL     1      -1.611   1.747  -1.064  1.00  0.00     0.021 C 
ENDROOT
BRANCH   1  22
HETATM   22  O3  UNL     1      -0.729   2.982   0.923  1.00  0.00    -0.315 OA
BRANCH  22  23
HETATM   23  C5  UNL     1      -1.549   3.825   1.656  1.00  0.00     0.261 C 
HETATM   24  O2  UNL     1      -2.255   3.191   2.533  1.00  0.00    -0.265 OA
BRANCH  23  25
HETATM   25  C4  UNL     1      -1.663   5.281   1.519  1.00  0.00     0.142 C 
BRANCH  25  26
HETATM   26  C2  UNL     1      -1.569   5.837   0.142  1.00  0.00     0.126 C 
HETATM   27  C3  UNL     1      -0.265   5.541  -0.559  1.00  0.00     0.040 C 
BRANCH  26  28
HETATM   28  O1  UNL     1      -1.715   7.242   0.278  1.00  0.00    -0.391 OA
HETATM   29  C1  UNL     1      -2.885   7.688  -0.335  1.00  0.00     0.202 C 
ENDBRANCH  26  28
ENDBRANCH  25  26
ENDBRANCH  23  25
ENDBRANCH  22  23
ENDBRANCH   1  22
BRANCH   3  30
HETATM   30  C9  UNL     1       2.523  -0.120   0.871  1.00  0.00    -0.012 C 
HETATM   31  C10 UNL     1       2.217  -1.389   1.600  1.00  0.00     0.010 C 
BRANCH  30  32
HETATM   32  C11 UNL     1       3.675  -0.258  -0.099  1.00  0.00     0.005 C 
BRANCH  32  33
HETATM   33  C12 UNL     1       4.778  -1.100   0.455  1.00  0.00     0.001 C 
BRANCH  33  34
HETATM   34  C13 UNL     1       5.895  -1.218  -0.564  1.00  0.00     0.004 C 
BRANCH  34  35
HETATM   35  C14 UNL     1       7.041  -2.053  -0.052  1.00  0.00    -0.023 C 
HETATM   36  C15 UNL     1       8.086  -2.108  -1.157  1.00  0.00     0.009 C 
HETATM   37  C16 UNL     1       7.731  -1.397   1.128  1.00  0.00     0.009 C 
ENDBRANCH  34  35
ENDBRANCH  33  34
ENDBRANCH  32  33
ENDBRANCH  30  32
ENDBRANCH   3  30
BRANCH   4  38
HETATM   38  O4  UNL     1       0.661   1.246  -1.708  1.00  0.00    -0.386 OA
ATOM     39  H4  UNL     1       0.031   1.006  -2.378  1.00  0.00     0.210 HD
ENDBRANCH   4  38
BRANCH   5  40
HETATM   40  O5  UNL     1       1.018  -0.946  -2.605  1.00  0.00    -0.392 OA
ATOM     41  H5  UNL     1       1.048  -1.791  -3.038  1.00  0.00     0.210 HD
ENDBRANCH   5  40
BRANCH  14  42
HETATM   42  O6  UNL     1      -7.386  -5.672  -0.474  1.00  0.00    -0.341 OA
ATOM     43  H6  UNL     1      -7.590  -6.260  -1.191  1.00  0.00     0.220 HD
ENDBRANCH  14  42
TORSDOF 13
