REMARK  2 active torsions:
REMARK  status: ('A' for Active; 'I' for Inactive)
REMARK    1  A    between atoms: N1_1  and  C1_5 
REMARK    2  A    between atoms: C7_11  and  O1_12 
ROOT
HETATM    1  C1  UNL     1       0.876   0.449   0.166  1.00  0.00     0.149 C 
HETATM    2  C2  UNL     1       1.006  -0.845   0.952  1.00  0.00     0.042 C 
HETATM    3  C3  UNL     1       0.029  -1.790   0.272  1.00  0.00     0.007 C 
HETATM    4  C4  UNL     1      -0.508  -1.082  -0.930  1.00  0.00    -0.012 C 
HETATM    5  C5  UNL     1      -1.733  -0.231  -0.607  1.00  0.00     0.007 C 
HETATM    6  C6  UNL     1      -1.560   0.429   0.732  1.00  0.00     0.034 C 
HETATM    7  C7  UNL     1      -0.291   1.233   0.705  1.00  0.00     0.153 C 
HETATM    8  C8  UNL     1       0.615  -0.080  -1.224  1.00  0.00     0.046 C 
ENDROOT
BRANCH   1   9
HETATM    9  N1  UNL     1       2.063   1.246   0.195  1.00  0.00    -0.068 N 
ATOM     10  H13 UNL     1       2.352   1.432   1.155  1.00  0.00     0.275 HD
ATOM     11  H12 UNL     1       2.870   0.708  -0.122  1.00  0.00     0.275 HD
ATOM     12  H11 UNL     1       1.976   2.115  -0.333  1.00  0.00     0.275 HD
ENDBRANCH   1   9
BRANCH   7  13
HETATM   13  O1  UNL     1      -0.420   2.447   0.057  1.00  0.00    -0.393 OA
ATOM     14  H1  UNL     1      -1.156   2.942   0.397  1.00  0.00     0.210 HD
ENDBRANCH   7  13
TORSDOF 2
