REMARK  3 active torsions:
REMARK  status: ('A' for Active; 'I' for Inactive)
REMARK    1  A    between atoms: C6_10  and  C8_12 
REMARK    2  A    between atoms: C8_12  and  N3_13 
REMARK    3  A    between atoms: N3_13  and  C9_16 
ROOT
HETATM    1  C1  UNL     1      -5.232   3.483  -0.444  1.00  0.00     0.070 C 
HETATM    2  C2  UNL     1      -4.145   2.453  -0.248  1.00  0.00     0.022 A 
HETATM    3  C3  UNL     1      -4.430   1.113  -0.236  1.00  0.00     0.036 A 
HETATM    4  C4  UNL     1      -3.378   0.194  -0.050  1.00  0.00    -0.019 A 
HETATM    5  C5  UNL     1      -2.106   0.662   0.114  1.00  0.00     0.069 A 
HETATM    6  N1  UNL     1      -1.873   1.972   0.095  1.00  0.00    -0.301 N 
ATOM      7  H1  UNL     1      -0.921   2.318   0.216  1.00  0.00     0.186 HD
HETATM    8  N2  UNL     1      -2.866   2.830  -0.080  1.00  0.00    -0.305 N 
ATOM      9  H2  UNL     1      -2.650   3.827  -0.088  1.00  0.00     0.186 HD
HETATM   10  C6  UNL     1      -0.989  -0.289   0.305  1.00  0.00     0.125 C 
HETATM   11  C7  UNL     1      -0.876  -0.544   1.795  1.00  0.00     0.055 C 
HETATM   12  O2  UNL     1      -1.265  -1.510  -0.297  1.00  0.00    -0.371 OA
HETATM   13  C16 UNL     1      -2.450  -2.054   0.126  1.00  0.00     0.183 C 
HETATM   14  C17 UNL     1      -3.671  -1.234  -0.033  1.00  0.00     0.003 C 
HETATM   15  C18 UNL     1      -4.739  -1.598   0.987  1.00  0.00     0.022 C 
HETATM   16  C19 UNL     1      -4.278  -1.608  -1.396  1.00  0.00     0.022 C 
ENDROOT
BRANCH  10  17
HETATM   17  C8  UNL     1       0.278   0.333  -0.196  1.00  0.00     0.276 C 
BRANCH  17  18
HETATM   18  N3  UNL     1       1.390  -0.543   0.069  1.00  0.00    -0.068 N 
ATOM     19  H32 UNL     1       1.441  -0.794   1.056  1.00  0.00     0.277 HD
ATOM     20  H31 UNL     1       1.235  -1.472  -0.322  1.00  0.00     0.277 HD
BRANCH  18  21
HETATM   21  C9  UNL     1       2.649   0.036  -0.404  1.00  0.00     0.191 C 
HETATM   22  C10 UNL     1       2.889   1.311   0.366  1.00  0.00     0.059 C 
HETATM   23  C11 UNL     1       4.310   1.742   0.345  1.00  0.00     0.170 C 
HETATM   24  O1  UNL     1       5.098   1.076  -0.576  1.00  0.00    -0.381 OA
HETATM   25  C12 UNL     1       5.137  -0.297  -0.373  1.00  0.00     0.055 C 
HETATM   26  C13 UNL     1       5.782  -0.893  -1.607  1.00  0.00     0.045 C 
HETATM   27  C14 UNL     1       6.069  -0.647   0.790  1.00  0.00     0.045 C 
HETATM   28  C15 UNL     1       3.792  -0.920  -0.188  1.00  0.00     0.070 C 
ENDBRANCH  18  21
ENDBRANCH  17  18
ENDBRANCH  10  17
TORSDOF 3
