REMARK  14 active torsions:
REMARK  status: ('A' for Active; 'I' for Inactive)
REMARK    1  A    between atoms: C2_2  and  N1_3 
REMARK    2  A    between atoms: N1_3  and  C3_4 
REMARK    3  A    between atoms: N1_3  and  C5_6 
REMARK    4  A    between atoms: C5_6  and  C6_7 
REMARK       I    between atoms: C6_7  and  N2_9 
REMARK    5  A    between atoms: C7_11  and  N3_12 
REMARK    6  A    between atoms: C7_11  and  C12_19 
REMARK       I    between atoms: N3_12  and  C8_14 
REMARK    7  A    between atoms: C8_14  and  C9_16 
REMARK    8  A    between atoms: C13_20  and  C14_21 
REMARK       I    between atoms: C14_21  and  N4_23 
REMARK    9  A    between atoms: N4_23  and  C15_25 
REMARK   10  A    between atoms: C19_29  and  C20_30 
REMARK   11  A    between atoms: C20_30  and  C21_31 
REMARK   12  A    between atoms: C20_30  and  N5_35 
REMARK   13  A    between atoms: C21_31  and  C22_32 
REMARK   14  A    between atoms: N5_35  and  C25_37 
ROOT
HETATM    1  C12 UNL     1      -0.178   1.030   0.646  1.00  0.00     0.078 A 
HETATM    2  C13 UNL     1      -1.032   1.223  -0.643  1.00  0.00     0.100 A 
HETATM    3  C19 UNL     1      -1.348   0.207   0.359  1.00  0.00     0.057 A 
ENDROOT
BRANCH   1   4
HETATM    4  C7  UNL     1       1.213   0.708   0.350  1.00  0.00     0.092 C 
HETATM    5  N2  UNL     1       1.624   0.558  -0.895  1.00  0.00    -0.311 N 
HETATM    6  C6  UNL     1       2.948   0.262  -1.231  1.00  0.00     0.262 C 
ATOM      7  H2  UNL     1       0.943   0.663  -1.647  1.00  0.00     0.170 HD
HETATM    8  O1  UNL     1       3.787   1.164  -1.271  1.00  0.00    -0.267 OA
BRANCH   6   9
HETATM    9  C5  UNL     1       3.331  -1.133  -1.536  1.00  0.00     0.164 C 
BRANCH   9  10
HETATM   10  N1  UNL     1       4.697  -1.209  -1.859  1.00  0.00    -0.366 N 
BRANCH  10  11
HETATM   11  C2  UNL     1       5.155  -0.658  -3.063  1.00  0.00     0.059 C 
HETATM   12  C1  UNL     1       5.102  -1.624  -4.234  1.00  0.00     0.055 C 
ENDBRANCH  10  11
BRANCH  10  13
HETATM   13  C3  UNL     1       5.425  -2.234  -1.234  1.00  0.00     0.123 C 
HETATM   14  C4  UNL     1       6.773  -1.757  -0.689  1.00  0.00     0.027 C 
ENDBRANCH  10  13
ENDBRANCH   9  10
ENDBRANCH   6   9
BRANCH   4  15
HETATM   15  N3  UNL     1       2.203   0.552   1.343  1.00  0.00    -0.316 N 
HETATM   16  C8  UNL     1       2.020   0.651   2.745  1.00  0.00     0.226 C 
HETATM   17  O2  UNL     1       0.885   0.894   3.208  1.00  0.00    -0.273 OA
ATOM     18  H3  UNL     1       3.148   0.347   1.018  1.00  0.00     0.170 HD
BRANCH  16  19
HETATM   19  C9  UNL     1       3.146   0.474   3.702  1.00  0.00     0.070 C 
HETATM   20  C10 UNL     1       3.687  -0.927   3.504  1.00  0.00     0.019 C 
HETATM   21  C11 UNL     1       2.598   0.557   5.106  1.00  0.00     0.019 C 
ENDBRANCH  16  19
ENDBRANCH   4  15
ENDBRANCH   1   4
BRANCH   2  22
HETATM   22  C14 UNL     1      -1.653   2.536  -0.718  1.00  0.00     0.224 C 
HETATM   23  O3  UNL     1      -1.637   3.190  -1.782  1.00  0.00    -0.273 OA
HETATM   24  N4  UNL     1      -2.285   3.088   0.421  1.00  0.00    -0.353 N 
ATOM     25  H4  UNL     1      -2.291   2.543   1.283  1.00  0.00     0.163 HD
BRANCH  24  26
HETATM   26  C15 UNL     1      -2.923   4.386   0.424  1.00  0.00     0.022 C 
HETATM   27  C16 UNL     1      -1.911   5.449   0.087  1.00  0.00     0.037 C 
HETATM   28  C17 UNL     1      -3.485   4.718   1.788  1.00  0.00     0.037 C 
HETATM   29  C18 UNL     1      -4.104   4.447  -0.532  1.00  0.00     0.037 C 
ENDBRANCH  24  26
ENDBRANCH   2  22
BRANCH   3  30
HETATM   30  C20 UNL     1      -1.214  -1.232   0.028  1.00  0.00    -0.007 C 
BRANCH  30  31
HETATM   31  C21 UNL     1      -0.594  -2.096   1.071  1.00  0.00     0.056 C 
BRANCH  31  32
HETATM   32  C22 UNL     1      -1.225  -2.152   2.400  1.00  0.00    -0.018 C 
HETATM   33  C23 UNL     1      -2.622  -2.630   2.501  1.00  0.00     0.010 C 
HETATM   34  C24 UNL     1      -0.372  -3.129   3.234  1.00  0.00     0.010 C 
ENDBRANCH  31  32
ENDBRANCH  30  31
BRANCH  30  35
HETATM   35  N5  UNL     1      -2.326  -1.880  -0.576  1.00  0.00    -0.360 N 
ATOM     36  H5  UNL     1      -2.685  -2.707  -0.099  1.00  0.00     0.165 HD
BRANCH  35  37
HETATM   37  C25 UNL     1      -2.980  -1.505  -1.753  1.00  0.00     0.080 A 
HETATM   38  C26 UNL     1      -2.685  -1.863  -3.050  1.00  0.00     0.051 A 
HETATM   39  C27 UNL     1      -1.596  -2.726  -3.564  1.00  0.00     0.072 C 
HETATM   40  N6  UNL     1      -3.596  -1.272  -3.858  1.00  0.00    -0.301 N 
HETATM   41  N7  UNL     1      -4.449  -0.560  -3.137  1.00  0.00    -0.299 N 
ATOM     42  H6  UNL     1      -3.622  -1.362  -4.874  1.00  0.00     0.187 HD
HETATM   43  C28 UNL     1      -5.563   0.212  -3.646  1.00  0.00     0.177 C 
HETATM   44  C29 UNL     1      -4.083  -0.694  -1.828  1.00  0.00     0.052 A 
HETATM   45  C30 UNL     1      -4.854  -0.012  -0.745  1.00  0.00     0.072 C 
ENDBRANCH  35  37
ENDBRANCH  30  35
ENDBRANCH   3  30
TORSDOF 14
