REMARK  13 active torsions:
REMARK  status: ('A' for Active; 'I' for Inactive)
REMARK    1  A    between atoms: C2_3  and  N2_4 
REMARK       I    between atoms: N2_4  and  C3_6 
REMARK    2  A    between atoms: C3_6  and  C4_8 
REMARK    3  A    between atoms: C4_8  and  N3_9 
REMARK    4  A    between atoms: N4_12  and  C7_13 
REMARK    5  A    between atoms: C7_13  and  C8_14 
REMARK    6  A    between atoms: C8_14  and  C9_15 
REMARK    7  A    between atoms: C9_15  and  C10_16 
REMARK    8  A    between atoms: C10_16  and  C11_17 
REMARK    9  A    between atoms: C11_17  and  C12_18 
REMARK       I    between atoms: C12_18  and  N5_20 
REMARK   10  A    between atoms: N5_20  and  C13_22 
REMARK   11  A    between atoms: C20_30  and  O4_31 
REMARK   12  A    between atoms: O4_31  and  C21_32 
REMARK   13  A    between atoms: C21_32  and  C22_33 
ROOT
HETATM    1  N1  UNL     1      10.017   0.623   3.244  1.00  0.00    -0.195 NA
HETATM    2  C1  UNL     1       9.790  -0.272   2.566  1.00  0.00     0.091 C 
HETATM    3  C2  UNL     1       9.498  -1.436   1.705  1.00  0.00     0.122 A 
HETATM    4  C30 UNL     1      10.496  -2.548   1.804  1.00  0.00     0.050 A 
HETATM    5  C31 UNL     1      10.352  -1.738   0.531  1.00  0.00     0.050 A 
ENDROOT
BRANCH   3   6
HETATM    6  N2  UNL     1       8.088  -1.767   1.675  1.00  0.00    -0.338 N 
HETATM    7  C3  UNL     1       7.173  -0.792   1.214  1.00  0.00     0.247 C 
HETATM    8  O1  UNL     1       7.577   0.348   0.835  1.00  0.00    -0.272 OA
ATOM      9  H2  UNL     1       7.762  -2.684   1.980  1.00  0.00     0.164 HD
BRANCH   7  10
HETATM   10  C4  UNL     1       5.725  -1.128   1.182  1.00  0.00     0.375 C 
BRANCH  10  11
HETATM   11  N3  UNL     1       4.910  -0.060   0.698  1.00  0.00     0.106 N 
HETATM   12  C5  UNL     1       5.079   0.250  -0.681  1.00  0.00     0.318 C 
HETATM   13  C6  UNL     1       3.837   0.739  -1.362  1.00  0.00     0.093 C 
HETATM   14  N4  UNL     1       2.764  -0.111  -1.113  1.00  0.00    -0.370 N 
HETATM   15  C28 UNL     1       2.629  -0.762   0.114  1.00  0.00     0.093 C 
HETATM   16  C29 UNL     1       3.556  -0.201   1.127  1.00  0.00     0.318 C 
BRANCH  14  17
HETATM   17  C7  UNL     1       1.532   0.201  -1.805  1.00  0.00     0.127 C 
BRANCH  17  18
HETATM   18  C8  UNL     1       1.603   0.004  -3.262  1.00  0.00     0.020 C 
BRANCH  18  19
HETATM   19  C9  UNL     1       0.337   0.265  -3.979  1.00  0.00     0.002 C 
BRANCH  19  20
HETATM   20  C10 UNL     1      -0.272   1.594  -3.989  1.00  0.00     0.009 C 
BRANCH  20  21
HETATM   21  C11 UNL     1      -0.732   2.285  -2.789  1.00  0.00     0.103 C 
BRANCH  21  22
HETATM   22  C12 UNL     1      -1.799   1.527  -2.054  1.00  0.00     0.222 C 
HETATM   23  O2  UNL     1      -2.277   0.559  -2.641  1.00  0.00    -0.273 OA
HETATM   24  N5  UNL     1      -2.158   1.978  -0.774  1.00  0.00    -0.325 N 
ATOM     25  H5  UNL     1      -1.660   2.796  -0.424  1.00  0.00     0.169 HD
BRANCH  24  26
HETATM   26  C13 UNL     1      -3.137   1.420   0.085  1.00  0.00     0.069 A 
HETATM   27  C14 UNL     1      -3.962   0.381  -0.256  1.00  0.00     0.047 A 
HETATM   28  C15 UNL     1      -4.929  -0.143   0.605  1.00  0.00     0.009 A 
HETATM   29  C16 UNL     1      -5.862  -1.147   0.527  1.00  0.00    -0.015 A 
HETATM   30  C18 UNL     1      -5.026   0.438   1.846  1.00  0.00     0.089 A 
HETATM   31  C17 UNL     1      -6.507  -1.152   1.732  1.00  0.00     0.061 A 
HETATM   32  C27 UNL     1      -6.053  -1.987  -0.659  1.00  0.00     0.042 C 
HETATM   33  O3  UNL     1      -5.994  -0.214   2.478  1.00  0.00    -0.314 OA
HETATM   34  C23 UNL     1      -7.617  -2.012   2.251  1.00  0.00     0.066 C 
HETATM   35  C24 UNL     1      -8.707  -2.053   1.176  1.00  0.00     0.006 C 
HETATM   36  C25 UNL     1      -8.224  -2.980   0.092  1.00  0.00     0.001 C 
HETATM   37  C26 UNL     1      -7.517  -2.212  -0.976  1.00  0.00     0.005 C 
HETATM   38  C19 UNL     1      -4.211   1.482   2.219  1.00  0.00     0.077 A 
HETATM   39  C20 UNL     1      -3.279   1.976   1.365  1.00  0.00     0.099 A 
BRANCH  39  40
HETATM   40  O4  UNL     1      -2.433   3.043   1.723  1.00  0.00    -0.338 OA
BRANCH  40  41
HETATM   41  C21 UNL     1      -2.435   3.724   2.927  1.00  0.00     0.288 C 
BRANCH  41  42
HETATM   42  C22 UNL     1      -3.654   4.460   3.261  1.00  0.00     0.198 C 
HETATM   43  O5  UNL     1      -3.714   5.038   4.390  1.00  0.00    -0.646 OA
HETATM   44  O6  UNL     1      -4.744   4.564   2.416  1.00  0.00    -0.646 OA
ENDBRANCH  41  42
ENDBRANCH  40  41
ENDBRANCH  39  40
ENDBRANCH  24  26
ENDBRANCH  21  22
ENDBRANCH  20  21
ENDBRANCH  19  20
ENDBRANCH  18  19
ENDBRANCH  17  18
ENDBRANCH  14  17
ENDBRANCH  10  11
ENDBRANCH   7  10
ENDBRANCH   3   6
TORSDOF 13
