REMARK  2 active torsions:
REMARK  status: ('A' for Active; 'I' for Inactive)
REMARK    1  A    between atoms: N1_1  and  C1_4 
REMARK    2  A    between atoms: C3_9  and  N3_10 
ROOT
HETATM    1  C1  UNL     1       4.367   0.482   0.274  1.00  0.00     0.183 A 
HETATM    2  S1  UNL     1       4.216   0.087  -1.379  1.00  0.00     0.026 SA
HETATM    3  N2  UNL     1       2.583  -0.328  -1.387  1.00  0.00    -0.305 N 
ATOM      4  H2  UNL     1       2.010  -0.642  -2.170  1.00  0.00     0.176 HD
HETATM    5  C2  UNL     1       2.228  -0.144  -0.121  1.00  0.00     0.185 A 
HETATM    6  C3  UNL     1       1.051  -0.279   0.632  1.00  0.00     0.192 A 
HETATM    7  N7  UNL     1       1.306   0.062   1.912  1.00  0.00    -0.266 N 
ATOM      8  H7  UNL     1       0.646   0.063   2.690  1.00  0.00     0.190 HD
HETATM    9  N8  UNL     1       2.562   0.388   1.952  1.00  0.00    -0.231 N 
ATOM     10  H8  UNL     1       3.053   0.694   2.792  1.00  0.00     0.209 HD
HETATM   11  N9  UNL     1       3.133   0.268   0.730  1.00  0.00    -0.197 N 
ENDROOT
BRANCH   6  12
HETATM   12  N3  UNL     1      -0.236  -0.698   0.199  1.00  0.00    -0.214 N 
HETATM   13  N4  UNL     1      -0.538  -1.937  -0.156  1.00  0.00    -0.241 N 
HETATM   14  C4  UNL     1      -1.837  -1.989  -0.510  1.00  0.00     0.349 A 
ATOM     15  H4  UNL     1       0.109  -2.726  -0.161  1.00  0.00     0.192 HD
HETATM   16  O1  UNL     1      -2.499  -2.966  -0.901  1.00  0.00    -0.244 OA
HETATM   17  N5  UNL     1      -2.376  -0.743  -0.375  1.00  0.00    -0.221 N 
HETATM   18  C5  UNL     1      -3.619  -0.276  -0.599  1.00  0.00     0.191 A 
HETATM   19  C8  UNL     1      -1.370   0.024   0.061  1.00  0.00     0.147 A 
HETATM   20  S2  UNL     1      -4.827  -1.240  -1.131  1.00  0.00    -0.040 SA
HETATM   21  N6  UNL     1      -3.883   1.013  -0.382  1.00  0.00    -0.299 N 
HETATM   22  C6  UNL     1      -2.902   1.821   0.056  1.00  0.00     0.251 A 
ATOM     23  H6  UNL     1      -4.820   1.382  -0.547  1.00  0.00     0.171 HD
HETATM   24  O2  UNL     1      -3.117   3.052   0.273  1.00  0.00    -0.268 OA
HETATM   25  C7  UNL     1      -1.618   1.358   0.292  1.00  0.00     0.125 A 
ENDBRANCH   6  12
BRANCH   1  26
HETATM   26  N1  UNL     1       5.444   0.891   0.906  1.00  0.00    -0.377 N 
ATOM     27  H12 UNL     1       6.388   1.055   0.557  1.00  0.00     0.158 HD
ATOM     28  H11 UNL     1       5.534   1.127   1.894  1.00  0.00     0.158 HD
ENDBRANCH   1  26
TORSDOF 2
