REMARK  8 active torsions:
REMARK  status: ('A' for Active; 'I' for Inactive)
REMARK    1  A    between atoms: C2_2  and  O1_3 
REMARK    2  A    between atoms: O1_3  and  C3_4 
REMARK    3  A    between atoms: C6_7  and  N1_8 
REMARK    4  A    between atoms: N1_8  and  C7_10 
REMARK    5  A    between atoms: C7_10  and  C9_12 
REMARK    6  A    between atoms: C12_18  and  N3_19 
REMARK    7  A    between atoms: C18_32  and  C19_33 
REMARK    8  A    between atoms: C20_37  and  N8_38 
ROOT
HETATM    1  N1  UNL     1      -1.025  -0.874  -0.217  1.00  0.00    -0.367 N 
ATOM      2  H1  UNL     1      -0.867  -1.754   0.273  1.00  0.00     0.161 HD
ENDROOT
BRANCH   1   3
HETATM    3  C6  UNL     1      -2.272  -0.238  -0.119  1.00  0.00     0.102 A 
HETATM    4  C5  UNL     1      -2.556   0.957  -0.713  1.00  0.00     0.051 A 
HETATM    5  C4  UNL     1      -3.796   1.552  -0.605  1.00  0.00     0.043 A 
HETATM    6  C3  UNL     1      -4.780   0.904   0.135  1.00  0.00     0.099 A 
HETATM    7  C18 UNL     1      -4.492  -0.300   0.733  1.00  0.00     0.112 A 
HETATM    8  N6  UNL     1      -3.270  -0.826   0.591  1.00  0.00    -0.337 N 
ATOM      9  H6  UNL     1      -3.076  -1.720   1.042  1.00  0.00     0.167 HD
BRANCH   6  10
HETATM   10  O1  UNL     1      -6.035   1.453   0.277  1.00  0.00    -0.349 OA
BRANCH  10  11
HETATM   11  C2  UNL     1      -6.466   2.647  -0.275  1.00  0.00     0.171 C 
HETATM   12  C1  UNL     1      -6.442   2.676  -1.788  1.00  0.00     0.034 C 
ENDBRANCH  10  11
ENDBRANCH   6  10
BRANCH   7  13
HETATM   13  C19 UNL     1      -5.545  -0.998   1.529  1.00  0.00     0.143 A 
HETATM   14  N7  UNL     1      -6.755  -0.443   1.649  1.00  0.00    -0.308 N 
HETATM   15  S1  UNL     1      -7.604  -1.529   2.597  1.00  0.00     0.024 SA
ATOM     16  H7  UNL     1      -7.084   0.438   1.254  1.00  0.00     0.176 HD
HETATM   17  C20 UNL     1      -6.369  -2.676   2.814  1.00  0.00     0.160 A 
HETATM   18  N9  UNL     1      -5.352  -2.154   2.135  1.00  0.00    -0.320 N 
ATOM     19  H9  UNL     1      -4.452  -2.632   2.084  1.00  0.00     0.169 HD
BRANCH  17  20
HETATM   20  N8  UNL     1      -6.381  -3.811   3.483  1.00  0.00    -0.379 N 
ATOM     21  H82 UNL     1      -7.161  -4.211   4.004  1.00  0.00     0.158 HD
ATOM     22  H81 UNL     1      -5.640  -4.499   3.613  1.00  0.00     0.158 HD
ENDBRANCH  17  20
ENDBRANCH   7  13
ENDBRANCH   1   3
BRANCH   1  23
HETATM   23  C7  UNL     1       0.028  -0.300  -0.998  1.00  0.00     0.130 C 
HETATM   24  C8  UNL     1      -0.258  -0.254  -2.481  1.00  0.00     0.039 C 
BRANCH  23  25
HETATM   25  C9  UNL     1       1.335  -0.994  -0.746  1.00  0.00     0.054 A 
HETATM   26  C10 UNL     1       1.384  -2.372  -0.706  1.00  0.00     0.102 A 
HETATM   27  C11 UNL     1       2.586  -3.024  -0.473  1.00  0.00     0.261 A 
HETATM   28  O2  UNL     1       2.575  -4.282  -0.447  1.00  0.00    -0.268 OA
HETATM   29  N2  UNL     1       3.678  -2.278  -0.292  1.00  0.00    -0.156 N 
HETATM   30  C12 UNL     1       3.656  -0.925  -0.327  1.00  0.00     0.683 A 
ATOM     31  H2  UNL     1       4.567  -2.748  -0.120  1.00  0.00     0.187 HD
HETATM   32  N5  UNL     1       2.478  -0.321  -0.554  1.00  0.00    -0.193 N 
ATOM     33  H5  UNL     1       2.452   0.698  -0.582  1.00  0.00     0.184 HD
BRANCH  30  34
HETATM   34  N3  UNL     1       4.868  -0.207  -0.124  1.00  0.00    -0.216 N 
HETATM   35  C13 UNL     1       4.681   1.243  -0.192  1.00  0.00     0.143 C 
HETATM   36  C14 UNL     1       6.029   1.882  -0.157  1.00  0.00     0.048 C 
HETATM   37  C15 UNL     1       6.729   1.744   1.154  1.00  0.00     0.234 C 
HETATM   38  N4  UNL     1       6.319   0.632   1.944  1.00  0.00    -0.074 N 
HETATM   39  C16 UNL     1       6.726  -0.645   1.416  1.00  0.00     0.252 C 
ATOM     40  H42 UNL     1       6.639   0.740   2.907  1.00  0.00     0.277 HD
ATOM     41  H41 UNL     1       5.310   0.652   2.094  1.00  0.00     0.277 HD
HETATM   42  C17 UNL     1       6.047  -0.976   0.109  1.00  0.00     0.168 C 
ENDBRANCH  30  34
ENDBRANCH  23  25
ENDBRANCH   1  23
TORSDOF 8
