REMARK  9 active torsions:
REMARK  status: ('A' for Active; 'I' for Inactive)
REMARK    1  A    between atoms: C2_2  and  N1_3 
REMARK    2  A    between atoms: C2_2  and  N6_23 
REMARK       I    between atoms: N1_3  and  C3_5 
REMARK    3  A    between atoms: C3_5  and  C4_7 
REMARK    4  A    between atoms: C4_7  and  O2_8 
REMARK    5  A    between atoms: C4_7  and  N2_10 
REMARK    6  A    between atoms: N2_10  and  N3_11 
REMARK       I    between atoms: N3_11  and  C5_13 
REMARK    7  A    between atoms: C5_13  and  C6_15 
REMARK    8  A    between atoms: N6_23  and  C8_26 
REMARK    9  A    between atoms: C8_26  and  O5_27 
ROOT
HETATM    1  C4  UNL     1       0.350  -0.261   1.240  1.00  0.00     0.324 C 
ENDROOT
BRANCH   1   2
HETATM    2  C3  UNL     1      -1.101   0.044   1.290  1.00  0.00     0.265 C 
HETATM    3  N1  UNL     1      -1.921  -0.368   0.216  1.00  0.00    -0.330 N 
ATOM      4  H1  UNL     1      -1.523  -0.866  -0.580  1.00  0.00     0.164 HD
HETATM    5  O1  UNL     1      -1.614   0.655   2.257  1.00  0.00    -0.269 OA
BRANCH   3   6
HETATM    6  C2  UNL     1      -3.341  -0.070   0.266  1.00  0.00     0.286 C 
HETATM    7  C1  UNL     1      -4.162  -1.333   0.326  1.00  0.00     0.063 C 
BRANCH   6   8
HETATM    8  N6  UNL     1      -3.673   0.795  -0.816  1.00  0.00    -0.018 N 
ATOM      9  H62 UNL     1      -4.636   1.123  -0.738  1.00  0.00     0.283 HD
ATOM     10  H61 UNL     1      -3.186   1.687  -0.732  1.00  0.00     0.283 HD
BRANCH   8  11
HETATM   11  C8  UNL     1      -3.438   0.206  -2.089  1.00  0.00     0.396 C 
HETATM   12  S2  UNL     1      -3.918   1.317  -3.420  1.00  0.00    -0.033 SA
BRANCH  11  13
HETATM   13  O5  UNL     1      -4.170  -0.960  -2.290  1.00  0.00    -0.361 OA
ATOM     14  H5  UNL     1      -4.013  -1.353  -3.140  1.00  0.00     0.213 HD
ENDBRANCH  11  13
ENDBRANCH   8  11
ENDBRANCH   6   8
ENDBRANCH   3   6
ENDBRANCH   1   2
BRANCH   1  15
HETATM   15  O2  UNL     1       1.002   0.211   2.379  1.00  0.00    -0.370 OA
ATOM     16  H2  UNL     1       1.931   0.016   2.347  1.00  0.00     0.212 HD
ENDBRANCH   1  15
BRANCH   1  17
HETATM   17  N2  UNL     1       0.888   0.373   0.041  1.00  0.00    -0.096 NA
BRANCH  17  18
HETATM   18  N3  UNL     1       2.272   0.064   0.034  1.00  0.00    -0.266 N 
HETATM   19  C5  UNL     1       3.252   1.064   0.077  1.00  0.00     0.288 C 
HETATM   20  O3  UNL     1       2.847   2.266   0.121  1.00  0.00    -0.264 OA
ATOM     21  H3  UNL     1       2.562  -0.913  -0.003  1.00  0.00     0.185 HD
BRANCH  19  22
HETATM   22  C6  UNL     1       4.688   0.871   0.077  1.00  0.00     0.165 A 
HETATM   23  N4  UNL     1       5.625   1.881   0.129  1.00  0.00    -0.233 N 
HETATM   24  O4  UNL     1       6.785   1.371   0.114  1.00  0.00    -0.155 OA
ATOM     25  H4  UNL     1       5.418   2.879   0.173  1.00  0.00     0.197 HD
HETATM   26  N5  UNL     1       6.783   0.089   0.056  1.00  0.00    -0.228 N 
HETATM   27  C7  UNL     1       5.460  -0.262   0.031  1.00  0.00     0.157 A 
ATOM     28  H5  UNL     1       7.591  -0.533   0.033  1.00  0.00     0.198 HD
HETATM   29  S1  UNL     1       4.900  -1.800  -0.042  1.00  0.00    -0.056 SA
ENDBRANCH  19  22
ENDBRANCH  17  18
ENDBRANCH   1  17
TORSDOF 9
