REMARK  4 active torsions:
REMARK  status: ('A' for Active; 'I' for Inactive)
REMARK    1  A    between atoms: C3_3  and  C4_4 
REMARK    2  A    between atoms: C7_7  and  C8_8 
REMARK    3  A    between atoms: C14_17  and  N2_18 
REMARK       I    between atoms: N2_18  and  C15_20 
REMARK    4  A    between atoms: C15_20  and  C16_22 
ROOT
HETATM    1  C1  UNL     1      -1.177   2.712   1.405  1.00  0.00     0.056 C 
HETATM    2  C2  UNL     1       0.159   2.091   1.583  1.00  0.00     0.037 A 
HETATM    3  C3  UNL     1       0.356   0.810   1.113  1.00  0.00     0.094 A 
HETATM    4  N1  UNL     1       1.561   0.254   1.275  1.00  0.00    -0.188 N 
ATOM      5  H1  UNL     1       1.702  -0.694   0.926  1.00  0.00     0.184 HD
HETATM    6  C14 UNL     1       2.601   0.869   1.871  1.00  0.00     0.688 A 
HETATM    7  N4  UNL     1       2.409   2.118   2.330  1.00  0.00    -0.155 N 
ATOM      8  H4  UNL     1       3.179   2.606   2.786  1.00  0.00     0.187 HD
HETATM    9  C21 UNL     1       1.225   2.735   2.200  1.00  0.00     0.267 A 
HETATM   10  O3  UNL     1       1.030   3.902   2.623  1.00  0.00    -0.267 OA
ENDROOT
BRANCH   3  11
HETATM   11  C4  UNL     1      -0.741   0.110   0.462  1.00  0.00     0.104 A 
HETATM   12  C5  UNL     1      -0.644  -1.177  -0.044  1.00  0.00     0.042 A 
HETATM   13  C6  UNL     1      -1.872  -1.497  -0.579  1.00  0.00     0.041 A 
HETATM   14  C7  UNL     1      -2.673  -0.392  -0.380  1.00  0.00     0.086 A 
HETATM   15  O1  UNL     1      -1.949   0.491   0.225  1.00  0.00    -0.308 OA
BRANCH  14  16
HETATM   16  C8  UNL     1      -4.078  -0.311  -0.805  1.00  0.00    -0.002 A 
HETATM   17  C9  UNL     1      -4.826   0.822  -0.577  1.00  0.00     0.014 A 
HETATM   18  C10 UNL     1      -6.145   0.926  -0.965  1.00  0.00     0.001 A 
HETATM   19  C11 UNL     1      -6.742  -0.138  -1.604  1.00  0.00     0.000 A 
HETATM   20  C12 UNL     1      -6.012  -1.283  -1.844  1.00  0.00     0.001 A 
HETATM   21  C13 UNL     1      -4.690  -1.367  -1.446  1.00  0.00     0.014 A 
ENDBRANCH  14  16
ENDBRANCH   3  11
BRANCH   6  22
HETATM   22  N2  UNL     1       3.758   0.276   2.002  1.00  0.00    -0.155 N 
HETATM   23  C15 UNL     1       3.875  -1.038   1.492  1.00  0.00     0.270 C 
HETATM   24  O2  UNL     1       3.411  -2.041   2.088  1.00  0.00    -0.267 OA
ATOM     25  H2  UNL     1       4.545   0.742   2.454  1.00  0.00     0.187 HD
BRANCH  23  26
HETATM   26  C16 UNL     1       4.558  -1.247   0.224  1.00  0.00     0.035 A 
HETATM   27  C17 UNL     1       4.691  -2.516  -0.305  1.00  0.00     0.034 A 
HETATM   28  C18 UNL     1       5.341  -2.667  -1.500  1.00  0.00     0.088 A 
HETATM   29  N3  UNL     1       5.850  -1.616  -2.166  1.00  0.00    -0.375 N 
HETATM   30  C19 UNL     1       5.723  -0.375  -1.654  1.00  0.00     0.088 A 
ATOM     31  H3  UNL     1       6.330  -1.757  -3.055  1.00  0.00     0.164 HD
HETATM   32  C20 UNL     1       5.081  -0.184  -0.463  1.00  0.00     0.034 A 
ENDBRANCH  23  26
ENDBRANCH   6  22
TORSDOF 4
