REMARK  4 active torsions:
REMARK  status: ('A' for Active; 'I' for Inactive)
REMARK    1  A    between atoms: N1_3  and  C3_4 
REMARK    2  A    between atoms: N2_18  and  C16_19 
REMARK    3  A    between atoms: C16_19  and  C18_21 
REMARK       I    between atoms: C18_21  and  N3_23 
REMARK    4  A    between atoms: N3_23  and  C19_25 
ROOT
HETATM    1  C1  UNL     1       0.306  -1.497   0.539  1.00  0.00     0.064 C 
HETATM    2  C2  UNL     1       0.694  -0.263   0.317  1.00  0.00     0.108 A 
HETATM    3  N1  UNL     1       2.086  -0.089   0.012  1.00  0.00    -0.297 N 
HETATM    4  C9  UNL     1       2.581   1.211  -0.249  1.00  0.00     0.057 A 
HETATM    5  C10 UNL     1       3.916   1.401  -0.541  1.00  0.00     0.031 A 
HETATM    6  C11 UNL     1       4.454   2.649  -0.802  1.00  0.00     0.002 A 
HETATM    7  C12 UNL     1       3.592   3.721  -0.759  1.00  0.00     0.001 A 
HETATM    8  C13 UNL     1       2.255   3.574  -0.471  1.00  0.00     0.019 A 
HETATM    9  C14 UNL     1       1.762   2.316  -0.218  1.00  0.00     0.059 A 
HETATM   10  C15 UNL     1       0.331   2.114   0.098  1.00  0.00     0.262 A 
HETATM   11  O1  UNL     1      -0.367   3.149   0.115  1.00  0.00    -0.267 OA
HETATM   12  N2  UNL     1      -0.210   0.825   0.367  1.00  0.00    -0.286 N 
ENDROOT
BRANCH  12  13
HETATM   13  C16 UNL     1      -1.615   0.729   0.655  1.00  0.00     0.183 C 
HETATM   14  C17 UNL     1      -1.939   1.556   1.898  1.00  0.00     0.043 C 
BRANCH  13  15
HETATM   15  C18 UNL     1      -2.456   1.152  -0.497  1.00  0.00     0.245 C 
HETATM   16  O2  UNL     1      -1.903   1.455  -1.572  1.00  0.00    -0.271 OA
HETATM   17  N3  UNL     1      -3.854   1.203  -0.354  1.00  0.00    -0.325 N 
ATOM     18  H3  UNL     1      -4.276   2.091  -0.084  1.00  0.00     0.169 HD
BRANCH  17  19
HETATM   19  C19 UNL     1      -4.634   0.195  -0.544  1.00  0.00     0.037 A 
HETATM   20  C20 UNL     1      -4.162  -1.040  -0.910  1.00  0.00     0.046 A 
HETATM   21  C21 UNL     1      -5.057  -2.080  -1.098  1.00  0.00     0.090 A 
HETATM   22  N4  UNL     1      -6.383  -1.948  -0.941  1.00  0.00    -0.375 N 
HETATM   23  C22 UNL     1      -6.856  -0.734  -0.581  1.00  0.00     0.090 A 
ATOM     24  H4  UNL     1      -7.013  -2.737  -1.088  1.00  0.00     0.164 HD
HETATM   25  C23 UNL     1      -5.994   0.341  -0.380  1.00  0.00     0.046 A 
ENDBRANCH  17  19
ENDBRANCH  13  15
ENDBRANCH  12  13
BRANCH   3  26
HETATM   26  C3  UNL     1       2.990  -1.186  -0.027  1.00  0.00     0.041 A 
HETATM   27  C4  UNL     1       3.435  -1.779  -1.185  1.00  0.00     0.030 A 
HETATM   28  C5  UNL     1       4.320  -2.836  -1.197  1.00  0.00     0.002 A 
HETATM   29  C6  UNL     1       4.799  -3.347  -0.004  1.00  0.00     0.000 A 
HETATM   30  C7  UNL     1       4.371  -2.773   1.188  1.00  0.00     0.002 A 
HETATM   31  C8  UNL     1       3.490  -1.721   1.164  1.00  0.00     0.030 A 
ENDBRANCH   3  26
TORSDOF 4
