REMARK  4 active torsions:
REMARK  status: ('A' for Active; 'I' for Inactive)
REMARK    1  A    between atoms: C2_2  and  N1_3 
REMARK    2  A    between atoms: C4_7  and  N3_8 
REMARK    3  A    between atoms: N3_8  and  C5_10 
REMARK    4  A    between atoms: C5_10  and  N4_11 
ROOT
HETATM    1  N1  UNL     1      -2.277  -0.203   0.201  1.00  0.00    -0.368 N 
HETATM    2  C3  UNL     1      -1.736   1.125   0.382  1.00  0.00     0.247 C 
HETATM    3  N2  UNL     1      -0.398   1.046  -0.091  1.00  0.00    -0.362 N 
ATOM      4  H2  UNL     1       0.179   1.853  -0.326  1.00  0.00     0.162 HD
HETATM    5  C4  UNL     1      -0.003  -0.202  -0.185  1.00  0.00     0.093 C 
HETATM    6  C7  UNL     1      -1.110  -1.071   0.251  1.00  0.00     0.199 C 
ENDROOT
BRANCH   5   7
HETATM    7  N3  UNL     1       1.288  -0.498  -0.630  1.00  0.00    -0.356 N 
ATOM      8  H3  UNL     1       1.426  -0.653  -1.629  1.00  0.00     0.162 HD
BRANCH   7   9
HETATM    9  C5  UNL     1       2.444  -0.598   0.239  1.00  0.00     0.355 C 
BRANCH   9  10
HETATM   10  N4  UNL     1       3.617  -0.529  -0.629  1.00  0.00    -0.063 N 
HETATM   11  C6  UNL     1       4.228   0.787  -0.417  1.00  0.00     0.269 C 
ATOM     12  H42 UNL     1       4.268  -1.301  -0.486  1.00  0.00     0.278 HD
ATOM     13  H41 UNL     1       3.403  -0.719  -1.608  1.00  0.00     0.278 HD
ENDBRANCH   9  10
ENDBRANCH   7   9
ENDBRANCH   5   7
BRANCH   1  14
HETATM   14  C2  UNL     1      -3.647  -0.511   0.038  1.00  0.00     0.077 C 
HETATM   15  C1  UNL     1      -4.608   0.352   0.267  1.00  0.00     0.029 C 
ENDBRANCH   1  14
TORSDOF 4
