REMARK  6 active torsions:
REMARK  status: ('A' for Active; 'I' for Inactive)
REMARK    1  A    between atoms: N1_2  and  C2_3 
REMARK    2  A    between atoms: N1_2  and  S1_7 
REMARK    3  A    between atoms: C2_3  and  C3_4 
REMARK    4  A    between atoms: S1_7  and  N2_10 
REMARK    5  A    between atoms: N2_10  and  C6_12 
REMARK    6  A    between atoms: C14_20  and  C15_21 
ROOT
HETATM    1  C6  UNL     1      -0.452  -0.711   0.247  1.00  0.00     0.102 C 
HETATM    2  C7  UNL     1      -0.554   0.202  -0.929  1.00  0.00     0.010 C 
HETATM    3  C8  UNL     1      -1.075  -0.453  -2.176  1.00  0.00     0.007 C 
HETATM    4  C9  UNL     1      -2.121  -1.484  -1.944  1.00  0.00     0.005 C 
HETATM    5  C10 UNL     1      -3.154  -1.107  -0.925  1.00  0.00    -0.013 C 
HETATM    6  C11 UNL     1      -2.762  -1.690   0.404  1.00  0.00     0.011 C 
HETATM    7  C12 UNL     1      -1.722  -0.815   1.053  1.00  0.00     0.011 C 
HETATM    8  C13 UNL     1      -2.367   0.518   1.315  1.00  0.00     0.025 C 
HETATM    9  C14 UNL     1      -2.622   1.182   0.006  1.00  0.00     0.040 C 
HETATM   10  C16 UNL     1      -3.461   0.342  -0.912  1.00  0.00     0.023 C 
HETATM   11  C17 UNL     1      -1.285   1.492  -0.626  1.00  0.00     0.025 C 
ENDROOT
BRANCH   1  12
HETATM   12  N2  UNL     1       0.567  -0.189   1.139  1.00  0.00    -0.297 N 
ATOM     13  H2  UNL     1       0.553   0.729   1.584  1.00  0.00     0.174 HD
BRANCH  12  14
HETATM   14  S1  UNL     1       1.821  -1.391   1.326  1.00  0.00     0.320 S 
HETATM   15  O1  UNL     1       2.333  -1.282   2.736  1.00  0.00    -0.182 OA
HETATM   16  O2  UNL     1       1.188  -2.778   1.175  1.00  0.00    -0.182 OA
BRANCH  14  17
HETATM   17  N1  UNL     1       2.982  -1.128   0.128  1.00  0.00    -0.278 N 
HETATM   18  C1  UNL     1       2.852  -1.820  -1.088  1.00  0.00     0.170 C 
BRANCH  17  19
HETATM   19  C2  UNL     1       4.270  -0.851   0.628  1.00  0.00     0.081 C 
BRANCH  19  20
HETATM   20  C3  UNL     1       4.685   0.594   0.634  1.00  0.00     0.025 A 
HETATM   21  C4  UNL     1       3.925   1.620   1.396  1.00  0.00     0.010 A 
HETATM   22  C5  UNL     1       5.216   1.122   1.986  1.00  0.00     0.010 A 
ENDBRANCH  19  20
ENDBRANCH  17  19
ENDBRANCH  14  17
ENDBRANCH  12  14
ENDBRANCH   1  12
BRANCH   9  23
HETATM   23  C15 UNL     1      -3.345   2.452   0.233  1.00  0.00     0.239 C 
HETATM   24  N3  UNL     1      -3.722   3.298  -0.841  1.00  0.00    -0.061 NA
HETATM   25  O3  UNL     1      -3.634   2.793   1.399  1.00  0.00    -0.276 OA
ENDBRANCH   9  23
TORSDOF 6
