REMARK  4 active torsions:
REMARK  status: ('A' for Active; 'I' for Inactive)
REMARK    1  A    between atoms: C2_2  and  C3_3 
REMARK    2  A    between atoms: C4_4  and  C5_5 
REMARK    3  A    between atoms: C5_5  and  C7_8 
REMARK    4  A    between atoms: C7_8  and  N1_9 
REMARK       I    between atoms: N1_9  and  C8_11 
REMARK       I    between atoms: N3_13  and  C9_15 
REMARK       I    between atoms: N5_17  and  C10_19 
REMARK       I    between atoms: C10_19  and  N6_21 
REMARK       I    between atoms: N7_23  and  C11_25 
ROOT
HETATM    1  N1  UNL     1      -1.090  -1.769   0.522  1.00  0.00    -0.362 N 
ATOM      2  H1  UNL     1      -1.237  -2.445   1.271  1.00  0.00     0.162 HD
HETATM    3  C8  UNL     1       0.219  -1.658  -0.110  1.00  0.00     0.190 C 
HETATM    4  N2  UNL     1       0.635  -2.746  -0.902  1.00  0.00    -0.063 NA
HETATM    5  N3  UNL     1       0.830  -0.575   0.129  1.00  0.00    -0.305 N 
ATOM      6  H3  UNL     1       0.309   0.061   0.733  1.00  0.00     0.171 HD
HETATM    7  C9  UNL     1       2.054  -0.081  -0.260  1.00  0.00     0.198 C 
HETATM    8  N4  UNL     1       2.954  -0.835  -1.054  1.00  0.00    -0.063 NA
HETATM    9  N5  UNL     1       2.340   1.120   0.131  1.00  0.00    -0.281 N 
ATOM     10  H5  UNL     1       1.633   1.596   0.692  1.00  0.00     0.173 HD
HETATM   11  C10 UNL     1       3.514   1.837  -0.133  1.00  0.00     0.341 C 
HETATM   12  O1  UNL     1       3.363   3.030  -0.582  1.00  0.00    -0.245 OA
HETATM   13  N6  UNL     1       4.827   1.392   0.041  1.00  0.00    -0.249 N 
ATOM     14  H6  UNL     1       5.521   1.839  -0.559  1.00  0.00     0.192 HD
HETATM   15  N7  UNL     1       5.274   0.531   0.820  1.00  0.00    -0.266 N 
ATOM     16  H7  UNL     1       4.639   0.041   1.450  1.00  0.00     0.190 HD
HETATM   17  C11 UNL     1       6.690   0.217   0.841  1.00  0.00     0.232 C 
HETATM   18  C12 UNL     1       7.582   0.844  -0.174  1.00  0.00     0.119 C 
HETATM   19  O2  UNL     1       7.156  -0.568   1.694  1.00  0.00    -0.272 OA
ENDROOT
BRANCH   1  20
HETATM   20  C7  UNL     1      -2.162  -0.937   0.096  1.00  0.00     0.156 C 
BRANCH  20  21
HETATM   21  C5  UNL     1      -3.276  -1.074   1.146  1.00  0.00     0.093 C 
HETATM   22  C6  UNL     1      -2.734  -0.486   2.469  1.00  0.00     0.043 C 
HETATM   23 BR1  UNL     1      -3.857  -2.878   1.334  1.00  0.00    -0.070 Br
BRANCH  21  24
HETATM   24  C4  UNL     1      -4.367  -0.214   0.696  1.00  0.00    -0.084 C 
HETATM   25  C3  UNL     1      -5.258   0.522   0.318  1.00  0.00    -0.105 C 
BRANCH  25  26
HETATM   26  C2  UNL     1      -6.321   1.439  -0.143  1.00  0.00     0.089 C 
HETATM   27  C1  UNL     1      -5.753   2.354  -1.223  1.00  0.00     0.018 C 
ENDBRANCH  25  26
ENDBRANCH  21  24
ENDBRANCH  20  21
ENDBRANCH   1  20
TORSDOF 4
