REMARK  7 active torsions:
REMARK  status: ('A' for Active; 'I' for Inactive)
REMARK    1  A    between atoms: N1_2  and  C2_5 
REMARK    2  A    between atoms: C2_5  and  C3_6 
REMARK    3  A    between atoms: C3_6  and  C4_7 
REMARK    4  A    between atoms: N2_8  and  C5_10 
REMARK    5  A    between atoms: C6_13  and  C7_14 
REMARK    6  A    between atoms: C7_14  and  O1_16 
REMARK    7  A    between atoms: C7_14  and  C9_18 
ROOT
HETATM    1  C5  UNL     1       0.036  -0.023  -0.126  1.00  0.00     0.115 A 
HETATM    2  N3  UNL     1      -0.404  -1.327  -0.288  1.00  0.00    -0.329 N 
ATOM      3  H3  UNL     1       0.293  -2.041  -0.499  1.00  0.00     0.168 HD
HETATM    4  C6  UNL     1      -1.668  -1.710  -0.188  1.00  0.00     0.120 A 
HETATM    5  N4  UNL     1      -2.611  -0.781   0.088  1.00  0.00    -0.345 N 
ATOM      6  H4  UNL     1      -3.593  -1.047   0.166  1.00  0.00     0.167 HD
HETATM    7  C10 UNL     1      -2.240   0.486   0.257  1.00  0.00     0.049 A 
HETATM    8  C11 UNL     1      -0.932   0.908   0.166  1.00  0.00     0.016 A 
HETATM    9  C12 UNL     1      -0.559   2.321   0.500  1.00  0.00     0.048 C 
HETATM   10  C13 UNL     1       0.164   2.302   1.846  1.00  0.00     0.017 C 
HETATM   11  C14 UNL     1      -1.764   3.232   0.630  1.00  0.00     0.281 C 
HETATM   12  N5  UNL     1      -2.946   2.757   0.036  1.00  0.00     0.090 N 
HETATM   13  C15 UNL     1      -2.936   2.883  -1.405  1.00  0.00     0.310 C 
HETATM   14  C16 UNL     1      -3.331   1.448   0.502  1.00  0.00     0.329 C 
ENDROOT
BRANCH   1  15
HETATM   15  N2  UNL     1       1.247   0.178  -0.327  1.00  0.00    -0.355 N 
HETATM   16  C4  UNL     1       2.285   1.046  -0.372  1.00  0.00     0.064 C 
ATOM     17  H2  UNL     1       1.639  -0.732  -0.570  1.00  0.00     0.166 HD
BRANCH  16  18
HETATM   18  C3  UNL     1       3.385   0.828   0.625  1.00  0.00     0.072 C 
BRANCH  18  19
HETATM   19  C2  UNL     1       4.281  -0.332   0.458  1.00  0.00     0.237 C 
BRANCH  19  20
HETATM   20  N1  UNL     1       5.053  -0.234  -0.784  1.00  0.00    -0.079 N 
HETATM   21  C1  UNL     1       6.151  -1.167  -0.723  1.00  0.00     0.267 C 
ATOM     22  H12 UNL     1       5.361   0.719  -0.977  1.00  0.00     0.276 HD
ATOM     23  H11 UNL     1       4.475  -0.366  -1.614  1.00  0.00     0.276 HD
ENDBRANCH  19  20
ENDBRANCH  18  19
ENDBRANCH  16  18
ENDBRANCH   1  15
BRANCH   4  24
HETATM   24  C7  UNL     1      -2.146  -3.141  -0.343  1.00  0.00     0.138 C 
HETATM   25  C8  UNL     1      -2.812  -3.272  -1.681  1.00  0.00     0.057 C 
BRANCH  24  26
HETATM   26  O1  UNL     1      -1.066  -3.977  -0.211  1.00  0.00    -0.380 OA
ATOM     27  H1  UNL     1      -1.365  -4.873  -0.308  1.00  0.00     0.211 HD
ENDBRANCH  24  26
BRANCH  24  28
HETATM   28  C9  UNL     1      -3.139  -3.471   0.765  1.00  0.00     0.267 C 
HETATM   29  F1  UNL     1      -2.635  -3.363   2.024  1.00  0.00    -0.252 F 
ENDBRANCH  24  28
ENDBRANCH   4  24
TORSDOF 7
