REMARK  1 active torsions:
REMARK  status: ('A' for Active; 'I' for Inactive)
REMARK    1  A    between atoms: C2_2  and  C3_3 
ROOT
HETATM    1  C3  UNL     1       2.825  -0.350   0.043  1.00  0.00    -0.003 C 
HETATM    2  C4  UNL     1       2.180  -1.400  -0.805  1.00  0.00     0.088 C 
HETATM    3  C5  UNL     1       0.752  -1.078  -1.000  1.00  0.00     0.161 C 
HETATM    4  O1  UNL     1       0.009  -1.780  -1.728  1.00  0.00    -0.292 OA
HETATM    5  C6  UNL     1       0.179   0.081  -0.338  1.00  0.00     0.030 A 
HETATM    6  C7  UNL     1      -1.185   0.146   0.020  1.00  0.00    -0.021 A 
HETATM    7  C8  UNL     1      -1.689   1.267   0.618  1.00  0.00     0.019 A 
HETATM    8  N1  UNL     1      -0.864   2.331   0.870  1.00  0.00    -0.326 N 
ATOM      9  H1  UNL     1      -1.238   3.169   1.316  1.00  0.00     0.169 HD
HETATM   10  C9  UNL     1       0.429   2.277   0.534  1.00  0.00     0.253 A 
HETATM   11  O2  UNL     1       1.182   3.272   0.775  1.00  0.00    -0.268 OA
HETATM   12  C10 UNL     1       0.977   1.182  -0.063  1.00  0.00     0.025 A 
HETATM   13  C11 UNL     1       2.423   1.043  -0.445  1.00  0.00     0.050 C 
HETATM   14  C12 UNL     1      -3.104   1.376   1.003  1.00  0.00     0.058 C 
HETATM   15  C13 UNL     1      -3.947   0.309   0.448  1.00  0.00     0.010 C 
HETATM   16  C14 UNL     1      -3.292  -1.048   0.481  1.00  0.00    -0.014 C 
HETATM   17  C15 UNL     1      -4.286  -2.033  -0.099  1.00  0.00     0.010 C 
HETATM   18  C16 UNL     1      -1.993  -1.059  -0.283  1.00  0.00     0.045 C 
ENDROOT
BRANCH   1  19
HETATM   19  C2  UNL     1       4.330  -0.507   0.008  1.00  0.00     0.001 C 
HETATM   20  C1  UNL     1       5.030   0.524   0.843  1.00  0.00     0.005 C 
ENDBRANCH   1  19
TORSDOF 1
