REMARK  7 active torsions:
REMARK  status: ('A' for Active; 'I' for Inactive)
REMARK    1  A    between atoms: N1_2  and  C2_4 
REMARK    2  A    between atoms: C2_4  and  C3_5 
REMARK    3  A    between atoms: C3_5  and  C4_6 
REMARK    4  A    between atoms: C4_6  and  N2_7 
REMARK    5  A    between atoms: N2_7  and  C5_10 
REMARK    6  A    between atoms: C5_10  and  N3_11 
REMARK    7  A    between atoms: N3_11  and  C6_13 
ROOT
HETATM    1  C5  UNL     1       0.542  -0.614  -0.320  1.00  0.00     0.355 C 
ENDROOT
BRANCH   1   2
HETATM    2  N2  UNL     1       1.923  -0.098  -0.027  1.00  0.00    -0.056 N 
ATOM      3  H22 UNL     1       1.924   0.745   0.547  1.00  0.00     0.279 HD
ATOM      4  H21 UNL     1       2.385   0.302  -0.844  1.00  0.00     0.279 HD
BRANCH   2   5
HETATM    5  C4  UNL     1       2.643  -1.169   0.553  1.00  0.00     0.263 C 
BRANCH   5   6
HETATM    6  C3  UNL     1       3.974  -1.427  -0.007  1.00  0.00     0.017 C 
BRANCH   6   7
HETATM    7  C2  UNL     1       5.106  -0.527   0.124  1.00  0.00     0.080 C 
BRANCH   7   8
HETATM    8  N1  UNL     1       5.135   0.767  -0.330  1.00  0.00    -0.403 N 
HETATM    9  C1  UNL     1       4.488   1.848   0.275  1.00  0.00     0.145 C 
ATOM     10  H1  UNL     1       5.672   0.955  -1.177  1.00  0.00     0.158 HD
ENDBRANCH   7   8
ENDBRANCH   6   7
ENDBRANCH   5   6
ENDBRANCH   2   5
ENDBRANCH   1   2
BRANCH   1  11
HETATM   11  N3  UNL     1      -0.435   0.363   0.080  1.00  0.00    -0.369 N 
ATOM     12  H3  UNL     1      -0.150   1.252   0.490  1.00  0.00     0.161 HD
BRANCH  11  13
HETATM   13  C6  UNL     1      -1.816   0.053  -0.113  1.00  0.00     0.030 C 
HETATM   14  C7  UNL     1      -2.282  -1.177  -0.211  1.00  0.00     0.027 C 
HETATM   15  C8  UNL     1      -3.748  -1.078  -0.403  1.00  0.00     0.266 C 
HETATM   16  N4  UNL     1      -4.103   0.280  -0.170  1.00  0.00    -0.066 N 
HETATM   17  C9  UNL     1      -5.017   0.718  -1.212  1.00  0.00     0.272 C 
HETATM   18  C10 UNL     1      -4.768   0.486   1.106  1.00  0.00     0.272 C 
HETATM   19  C11 UNL     1      -2.903   1.057  -0.229  1.00  0.00     0.293 C 
ENDBRANCH  11  13
ENDBRANCH   1  11
TORSDOF 7
