REMARK  7 active torsions:
REMARK  status: ('A' for Active; 'I' for Inactive)
REMARK    1  A    between atoms: N1_2  and  N2_4 
REMARK    2  A    between atoms: C2_6  and  C3_7 
REMARK    3  A    between atoms: C3_7  and  C4_8 
REMARK    4  A    between atoms: C4_8  and  N3_9 
REMARK    5  A    between atoms: N3_9  and  C5_10 
REMARK    6  A    between atoms: N3_9  and  C6_14 
REMARK    7  A    between atoms: C6_14  and  N5_15 
ROOT
HETATM    1  N3  UNL     1      -1.017  -0.491  -0.296  1.00  0.00    -0.360 N 
ENDROOT
BRANCH   1   2
HETATM    2  C4  UNL     1       0.345  -0.567  -0.773  1.00  0.00     0.130 C 
BRANCH   2   3
HETATM    3  C3  UNL     1       1.313  -0.298   0.358  1.00  0.00     0.066 C 
BRANCH   3   4
HETATM    4  C2  UNL     1       2.706  -0.371  -0.150  1.00  0.00     0.081 C 
HETATM    5  N2  UNL     1       3.471   0.664  -0.159  1.00  0.00    -0.320 N 
ATOM      6  H2  UNL     1       3.082   1.537   0.197  1.00  0.00     0.185 HD
BRANCH   5   7
HETATM    7  N1  UNL     1       4.778   0.688  -0.613  1.00  0.00    -0.341 N 
HETATM    8  C1  UNL     1       5.797  -0.232  -0.173  1.00  0.00     0.167 C 
ATOM      9  H1  UNL     1       5.035   1.398  -1.299  1.00  0.00     0.179 HD
ENDBRANCH   5   7
ENDBRANCH   3   4
ENDBRANCH   2   3
ENDBRANCH   1   2
BRANCH   1  10
HETATM   10  C5  UNL     1      -1.762  -1.705  -0.254  1.00  0.00     0.172 C 
HETATM   11  N4  UNL     1      -2.161  -2.297  -1.343  1.00  0.00    -0.395 N 
ATOM     12  H42 UNL     1      -1.927  -1.869  -2.239  1.00  0.00     0.156 HD
ATOM     13  H41 UNL     1      -2.694  -3.166  -1.313  1.00  0.00     0.156 HD
ENDBRANCH   1  10
BRANCH   1  14
HETATM   14  C6  UNL     1      -1.516   0.798   0.103  1.00  0.00     0.255 C 
BRANCH  14  15
HETATM   15  N5  UNL     1      -2.914   0.773   0.503  1.00  0.00    -0.335 N 
HETATM   16  C7  UNL     1      -3.961   0.967  -0.320  1.00  0.00     0.110 A 
HETATM   17  C8  UNL     1      -5.140   0.871   0.407  1.00  0.00     0.106 A 
HETATM   18  N6  UNL     1      -4.778   0.617   1.679  1.00  0.00    -0.361 N 
HETATM   19  C9  UNL     1      -3.423   0.562   1.714  1.00  0.00     0.183 A 
ATOM     20  H6  UNL     1      -5.408   0.489   2.471  1.00  0.00     0.166 HD
ENDBRANCH  14  15
ENDBRANCH   1  14
TORSDOF 7
