REMARK  7 active torsions:
REMARK  status: ('A' for Active; 'I' for Inactive)
REMARK    1  A    between atoms: C2_2  and  N1_3 
REMARK    2  A    between atoms: C3_6  and  C4_7 
REMARK    3  A    between atoms: C4_7  and  N3_8 
REMARK    4  A    between atoms: N3_8  and  C5_10 
REMARK    5  A    between atoms: C5_10  and  C6_11 
REMARK    6  A    between atoms: C11_19  and  N5_20 
REMARK    7  A    between atoms: C16_25  and  C17_26 
ROOT
HETATM    1  N1  UNL     1      -2.046   2.294  -0.534  1.00  0.00    -0.293 N 
HETATM    2  N2  UNL     1      -0.760   2.024  -0.498  1.00  0.00    -0.295 N 
ATOM      3  H2  UNL     1      -0.038   2.719  -0.690  1.00  0.00     0.187 HD
HETATM    4  C3  UNL     1      -0.494   0.787  -0.195  1.00  0.00     0.092 A 
HETATM    5  C11 UNL     1      -1.722   0.197  -0.021  1.00  0.00     0.085 A 
HETATM    6  C16 UNL     1      -2.691   1.223  -0.250  1.00  0.00     0.061 A 
ENDROOT
BRANCH   4   7
HETATM    7  C4  UNL     1       0.825   0.199   0.202  1.00  0.00     0.120 C 
BRANCH   7   8
HETATM    8  N3  UNL     1       1.263  -0.935  -0.492  1.00  0.00    -0.376 N 
ATOM      9  H3  UNL     1       0.720  -1.325  -1.262  1.00  0.00     0.164 HD
BRANCH   8  10
HETATM   10  C5  UNL     1       2.477  -1.516  -0.089  1.00  0.00     0.065 C 
BRANCH  10  11
HETATM   11  C6  UNL     1       3.765  -0.850  -0.474  1.00  0.00     0.027 C 
HETATM   12  C7  UNL     1       4.018   0.538  -0.005  1.00  0.00     0.037 C 
HETATM   13  C8  UNL     1       5.544   0.798   0.215  1.00  0.00     0.233 C 
HETATM   14  N4  UNL     1       6.170   0.046  -0.864  1.00  0.00    -0.075 N 
HETATM   15  C9  UNL     1       6.200  -1.344  -0.478  1.00  0.00     0.233 C 
ATOM     16  H42 UNL     1       5.716   0.196  -1.765  1.00  0.00     0.277 HD
ATOM     17  H41 UNL     1       7.091   0.406  -1.114  1.00  0.00     0.277 HD
HETATM   18  C10 UNL     1       4.880  -1.705   0.162  1.00  0.00     0.037 C 
ENDBRANCH  10  11
ENDBRANCH   8  10
ENDBRANCH   7   8
ENDBRANCH   4   7
BRANCH   5  19
HETATM   19  N5  UNL     1      -1.899  -1.169   0.275  1.00  0.00    -0.377 N 
HETATM   20  C12 UNL     1      -1.977  -1.907   1.480  1.00  0.00     0.123 C 
HETATM   21  C13 UNL     1      -2.572  -3.269   1.106  1.00  0.00     0.021 C 
HETATM   22  C14 UNL     1      -3.068  -3.103  -0.309  1.00  0.00     0.021 C 
HETATM   23  C15 UNL     1      -2.073  -2.116  -0.848  1.00  0.00     0.123 C 
ENDBRANCH   5  19
BRANCH   1  24
HETATM   24  C2  UNL     1      -2.484   3.655  -0.867  1.00  0.00     0.144 C 
HETATM   25  C1  UNL     1      -2.556   4.440   0.398  1.00  0.00     0.028 C 
ENDBRANCH   1  24
BRANCH   6  26
HETATM   26  C17 UNL     1      -4.105   0.843  -0.297  1.00  0.00     0.040 A 
HETATM   27  C18 UNL     1      -4.966   1.088   0.987  1.00  0.00     0.011 A 
HETATM   28  C19 UNL     1      -5.225   1.850  -0.260  1.00  0.00     0.011 A 
ENDBRANCH   6  26
TORSDOF 7
