REMARK  5 active torsions:
REMARK  status: ('A' for Active; 'I' for Inactive)
REMARK    1  A    between atoms: N1_1  and  C1_5 
REMARK    2  A    between atoms: C1_5  and  C2_6 
REMARK    3  A    between atoms: C2_6  and  N2_7 
REMARK    4  A    between atoms: C2_6  and  C3_11 
REMARK    5  A    between atoms: C3_11  and  N3_12 
ROOT
HETATM    1  C2  UNL     1       2.085  -0.268   0.313  1.00  0.00     0.236 C 
ENDROOT
BRANCH   1   2
HETATM    2  C1  UNL     1       2.328   1.021  -0.368  1.00  0.00     0.264 C 
BRANCH   2   3
HETATM    3  N1  UNL     1       3.765   1.156  -0.683  1.00  0.00    -0.077 N 
ATOM      4  H13 UNL     1       4.352   1.042   0.144  1.00  0.00     0.274 HD
ATOM      5  H12 UNL     1       4.116   0.365  -1.223  1.00  0.00     0.274 HD
ATOM      6  H11 UNL     1       3.933   2.046  -1.153  1.00  0.00     0.274 HD
ENDBRANCH   2   3
ENDBRANCH   1   2
BRANCH   1   7
HETATM    7  N2  UNL     1       2.511  -1.347  -0.581  1.00  0.00    -0.072 N 
ATOM      8  H23 UNL     1       2.066  -1.297  -1.497  1.00  0.00     0.274 HD
ATOM      9  H22 UNL     1       3.477  -1.242  -0.891  1.00  0.00     0.274 HD
ATOM     10  H21 UNL     1       2.343  -2.237  -0.111  1.00  0.00     0.274 HD
ENDBRANCH   1   7
BRANCH   1  11
HETATM   11  C3  UNL     1       0.717  -0.497   0.834  1.00  0.00     0.306 C 
BRANCH  11  12
HETATM   12  N3  UNL     1      -0.378  -0.490  -0.081  1.00  0.00     0.090 N 
HETATM   13  C4  UNL     1      -1.478  -1.167   0.630  1.00  0.00     0.272 C 
HETATM   14  C5  UNL     1      -2.724  -1.214  -0.207  1.00  0.00     0.030 C 
HETATM   15  C6  UNL     1      -3.261   0.203  -0.223  1.00  0.00     0.003 C 
HETATM   16  C7  UNL     1      -2.200   1.225  -0.146  1.00  0.00     0.030 C 
HETATM   17  C8  UNL     1      -0.811   0.805  -0.535  1.00  0.00     0.272 C 
ENDBRANCH  11  12
ENDBRANCH   1  11
TORSDOF 5
