REMARK  2 active torsions:
REMARK  status: ('A' for Active; 'I' for Inactive)
REMARK    1  A    between atoms: C2_2  and  O1_3 
REMARK    2  A    between atoms: O1_3  and  C3_4 
ROOT
HETATM    1  C3  UNL     1      -0.427  -0.393  -0.025  1.00  0.00     0.230 C 
HETATM    2  C4  UNL     1       0.024  -1.828  -0.172  1.00  0.00     0.078 C 
HETATM    3  C5  UNL     1       1.444  -2.014   0.252  1.00  0.00     0.237 C 
HETATM    4  N1  UNL     1       2.389  -1.214  -0.453  1.00  0.00    -0.062 N 
ATOM      5  H11 UNL     1       2.120  -1.120  -1.432  1.00  0.00     0.278 HD
ATOM      6  H12 UNL     1       3.271  -1.714  -0.565  1.00  0.00     0.278 HD
HETATM    7  C6  UNL     1       2.613   0.088   0.142  1.00  0.00     0.341 C 
HETATM    8  N2  UNL     1       1.447   0.912   0.101  1.00  0.00    -0.211 NA
HETATM    9  C7  UNL     1       1.694   2.310  -0.012  1.00  0.00     0.134 C 
HETATM   10  N3  UNL     1       0.505   0.415  -0.790  1.00  0.00    -0.132 NA
ENDROOT
BRANCH   1  11
HETATM   11  O1  UNL     1      -1.705  -0.221  -0.498  1.00  0.00    -0.369 OA
BRANCH  11  12
HETATM   12  C2  UNL     1      -2.572   0.277   0.487  1.00  0.00     0.165 C 
HETATM   13  C1  UNL     1      -3.942   0.429  -0.128  1.00  0.00     0.033 C 
ENDBRANCH  11  12
ENDBRANCH   1  11
TORSDOF 2
