REMARK  11 active torsions:
REMARK  status: ('A' for Active; 'I' for Inactive)
REMARK    1  A    between atoms: C3_3  and  O1_4 
REMARK    2  A    between atoms: C3_3  and  C4_6 
REMARK    3  A    between atoms: C3_3  and  C9_13 
REMARK    4  A    between atoms: C9_13  and  O4_14 
REMARK    5  A    between atoms: C9_13  and  C10_16 
REMARK    6  A    between atoms: C10_16  and  O5_17 
REMARK    7  A    between atoms: C10_16  and  C11_19 
REMARK    8  A    between atoms: C12_23  and  C13_24 
REMARK    9  A    between atoms: C13_24  and  O7_25 
REMARK   10  A    between atoms: C13_24  and  O8_27 
REMARK   11  A    between atoms: C13_24  and  O9_29 
ROOT
HETATM    1  C1  UNL     1      -1.285  -0.656  -3.160  1.00  0.00     0.015 C 
HETATM    2  C2  UNL     1      -1.139  -0.559  -1.972  1.00  0.00    -0.073 C 
HETATM    3  C3  UNL     1      -0.939  -0.459  -0.460  1.00  0.00     0.176 C 
ENDROOT
BRANCH   3   4
HETATM    4  O1  UNL     1      -1.656  -1.531   0.095  1.00  0.00    -0.372 OA
ATOM      5  H1  UNL     1      -1.532  -1.469   1.035  1.00  0.00     0.212 HD
ENDBRANCH   3   4
BRANCH   3   6
HETATM    6  C4  UNL     1      -1.690   0.789  -0.099  1.00  0.00     0.198 C 
HETATM    7  C5  UNL     1      -2.342   0.749   1.265  1.00  0.00     0.207 C 
HETATM    8  O2  UNL     1      -3.347  -0.232   1.060  1.00  0.00    -0.353 OA
HETATM    9  C6  UNL     1      -3.873   0.183  -0.133  1.00  0.00     0.157 C 
HETATM   10  C7  UNL     1      -4.590  -0.987  -0.804  1.00  0.00     0.078 C 
HETATM   11  C8  UNL     1      -4.966   1.205   0.216  1.00  0.00     0.078 C 
HETATM   12  O3  UNL     1      -2.883   0.724  -0.887  1.00  0.00    -0.344 OA
ENDBRANCH   3   6
BRANCH   3  13
HETATM   13  C9  UNL     1       0.518  -0.505  -0.238  1.00  0.00     0.201 C 
BRANCH  13  14
HETATM   14  O4  UNL     1       0.997  -1.773  -0.721  1.00  0.00    -0.389 OA
ATOM     15  H4  UNL     1       1.936  -1.803  -0.578  1.00  0.00     0.210 HD
ENDBRANCH  13  14
BRANCH  13  16
HETATM   16  C10 UNL     1       1.099  -0.203   1.074  1.00  0.00     0.208 C 
BRANCH  16  17
HETATM   17  O5  UNL     1       0.790   1.071   1.532  1.00  0.00    -0.388 OA
ATOM     18  H5  UNL     1       1.166   1.267   2.382  1.00  0.00     0.210 HD
ENDBRANCH  16  17
BRANCH  16  19
HETATM   19  C11 UNL     1       2.608  -0.308   1.116  1.00  0.00     0.328 C 
HETATM   20  O6  UNL     1       3.079  -1.561   0.675  1.00  0.00    -0.242 OA
HETATM   21  N1  UNL     1       4.361  -1.300   0.192  1.00  0.00    -0.238 N 
HETATM   22  C12 UNL     1       4.472  -0.038  -0.074  1.00  0.00     0.235 C 
ATOM     23  H1  UNL     1       5.097  -1.995   0.068  1.00  0.00     0.196 HD
HETATM   24  O10 UNL     1       3.245   0.578   0.231  1.00  0.00    -0.295 OA
BRANCH  22  25
HETATM   25  C13 UNL     1       5.676   0.680  -0.614  1.00  0.00     0.348 C 
BRANCH  25  26
HETATM   26  O7  UNL     1       6.693  -0.228  -0.795  1.00  0.00    -0.337 OA
ATOM     27  H7  UNL     1       7.454   0.226  -1.136  1.00  0.00     0.216 HD
ENDBRANCH  25  26
BRANCH  25  28
HETATM   28  O8  UNL     1       5.393   1.284  -1.831  1.00  0.00    -0.337 OA
ATOM     29  H8  UNL     1       6.154   1.738  -2.172  1.00  0.00     0.216 HD
ENDBRANCH  25  28
BRANCH  25  30
HETATM   30  O9  UNL     1       6.070   1.693   0.271  1.00  0.00    -0.337 OA
ATOM     31  H9  UNL     1       6.831   2.147  -0.070  1.00  0.00     0.216 HD
ENDBRANCH  25  30
ENDBRANCH  22  25
ENDBRANCH  16  19
ENDBRANCH  13  16
ENDBRANCH   3  13
TORSDOF 11
