REMARK  12 active torsions:
REMARK  status: ('A' for Active; 'I' for Inactive)
REMARK    1  A    between atoms: N1_1  and  C1_4 
REMARK    2  A    between atoms: C4_12  and  C5_13 
REMARK    3  A    between atoms: C5_13  and  C6_14 
REMARK    4  A    between atoms: C6_14  and  C7_15 
REMARK    5  A    between atoms: C10_18  and  O2_19 
REMARK    6  A    between atoms: O2_19  and  C11_20 
REMARK    7  A    between atoms: C11_20  and  C12_21 
REMARK    8  A    between atoms: C12_21  and  O3_22 
REMARK    9  A    between atoms: O3_22  and  C13_23 
REMARK   10  A    between atoms: C13_23  and  C14_24 
REMARK   11  A    between atoms: C14_24  and  C15_25 
REMARK   12  A    between atoms: C15_25  and  C16_26 
ROOT
HETATM    1  C5  UNL     1       3.135   0.147  -0.386  1.00  0.00     0.081 C 
ENDROOT
BRANCH   1   2
HETATM    2  C4  UNL     1       4.503  -0.436  -0.198  1.00  0.00     0.083 A 
HETATM    3  N3  UNL     1       4.834  -1.729  -0.071  1.00  0.00    -0.338 N 
HETATM    4  C3  UNL     1       6.159  -1.801   0.076  1.00  0.00     0.148 A 
ATOM      5  H3  UNL     1       4.188  -2.518  -0.084  1.00  0.00     0.167 HD
HETATM    6  C2  UNL     1       7.020  -2.852   0.243  1.00  0.00     0.290 A 
HETATM    7  C20 UNL     1       6.664  -0.526   0.039  1.00  0.00     0.155 A 
HETATM    8  N2  UNL     1       8.336  -2.611   0.366  1.00  0.00    -0.154 N 
HETATM    9  O1  UNL     1       6.616  -4.041   0.284  1.00  0.00    -0.265 OA
HETATM   10  C1  UNL     1       8.841  -1.366   0.332  1.00  0.00     0.680 A 
ATOM     11  H2  UNL     1       8.972  -3.398   0.489  1.00  0.00     0.187 HD
HETATM   12  N6  UNL     1       8.012  -0.324   0.169  1.00  0.00    -0.174 N 
ATOM     13  H6  UNL     1       8.388   0.624   0.142  1.00  0.00     0.186 HD
HETATM   14  N5  UNL     1       5.624   0.297  -0.131  1.00  0.00    -0.330 N 
ATOM     15  H5  UNL     1       5.675   1.313  -0.199  1.00  0.00     0.168 HD
BRANCH  10  16
HETATM   16  N1  UNL     1      10.126  -1.164   0.455  1.00  0.00    -0.234 N 
ATOM     17  H12 UNL     1      10.756  -1.956   0.579  1.00  0.00     0.174 HD
ATOM     18  H11 UNL     1      10.509  -0.219   0.429  1.00  0.00     0.174 HD
ENDBRANCH  10  16
ENDBRANCH   1   2
BRANCH   1  19
HETATM   19  C6  UNL     1       2.518   0.446   0.975  1.00  0.00     0.046 C 
BRANCH  19  20
HETATM   20  C7  UNL     1       1.188   1.013   0.749  1.00  0.00    -0.058 A 
HETATM   21  C8  UNL     1       0.113   0.150   0.676  1.00  0.00     0.010 A 
HETATM   22  C9  UNL     1      -1.172   0.652   0.461  1.00  0.00     0.037 A 
HETATM   23  C10 UNL     1      -1.336   2.016   0.326  1.00  0.00     0.068 A 
HETATM   24  C18 UNL     1      -0.251   2.863   0.401  1.00  0.00     0.037 A 
HETATM   25  C19 UNL     1       1.038   2.388   0.615  1.00  0.00     0.010 A 
BRANCH  23  26
HETATM   26  O2  UNL     1      -2.611   2.568   0.108  1.00  0.00    -0.349 OA
BRANCH  26  27
HETATM   27  C11 UNL     1      -3.749   1.661   0.030  1.00  0.00     0.201 C 
BRANCH  27  28
HETATM   28  C12 UNL     1      -4.917   2.569  -0.203  1.00  0.00     0.194 C 
BRANCH  28  29
HETATM   29  O3  UNL     1      -6.142   2.128  -0.313  1.00  0.00    -0.389 OA
BRANCH  29  30
HETATM   30  C13 UNL     1      -6.723   1.304  -1.145  1.00  0.00     0.167 C 
BRANCH  30  31
HETATM   31  C14 UNL     1      -6.239  -0.121  -1.074  1.00  0.00     0.029 C 
BRANCH  31  32
HETATM   32  C15 UNL     1      -6.456  -0.689   0.309  1.00  0.00     0.032 C 
BRANCH  32  33
HETATM   33  C16 UNL     1      -5.937  -2.121   0.296  1.00  0.00     0.119 A 
HETATM   34  C17 UNL     1      -6.643  -2.978  -0.701  1.00  0.00     0.081 A 
HETATM   35  N4  UNL     1      -5.357  -2.670  -0.845  1.00  0.00    -0.391 N 
ATOM     36  H4  UNL     1      -4.514  -2.769  -1.410  1.00  0.00     0.159 HD
ENDBRANCH  32  33
ENDBRANCH  31  32
ENDBRANCH  30  31
ENDBRANCH  29  30
ENDBRANCH  28  29
ENDBRANCH  27  28
ENDBRANCH  26  27
ENDBRANCH  23  26
ENDBRANCH  19  20
ENDBRANCH   1  19
TORSDOF 12
