REMARK  13 active torsions:
REMARK  status: ('A' for Active; 'I' for Inactive)
REMARK    1  A    between atoms: N1_1  and  S1_4 
REMARK    2  A    between atoms: S1_4  and  C1_7 
REMARK    3  A    between atoms: C4_10  and  C5_11 
REMARK    4  A    between atoms: C5_11  and  C6_12 
REMARK    5  A    between atoms: C6_12  and  N2_13 
REMARK    6  A    between atoms: N2_13  and  C7_16 
REMARK    7  A    between atoms: C7_16  and  C8_17 
REMARK    8  A    between atoms: C8_17  and  C9_18 
REMARK    9  A    between atoms: C9_18  and  O3_19 
REMARK   10  A    between atoms: C9_18  and  N3_21 
REMARK   11  A    between atoms: N3_21  and  C10_24 
REMARK   12  A    between atoms: C10_24  and  C11_25 
REMARK   13  A    between atoms: C12_26  and  C13_27 
ROOT
HETATM    1  N2  UNL     1       1.869  -0.589   0.438  1.00  0.00    -0.075 N 
ATOM      2  H21 UNL     1       1.468  -1.352   0.984  1.00  0.00     0.277 HD
ATOM      3  H22 UNL     1       2.720  -1.041   0.102  1.00  0.00     0.277 HD
ENDROOT
BRANCH   1   4
HETATM    4  C6  UNL     1       2.195   0.516   1.291  1.00  0.00     0.237 C 
BRANCH   4   5
HETATM    5  C5  UNL     1       3.065   1.565   0.687  1.00  0.00     0.066 C 
BRANCH   5   6
HETATM    6  C4  UNL     1       4.397   1.085   0.240  1.00  0.00    -0.057 A 
HETATM    7  C3  UNL     1       4.640   0.607  -1.032  1.00  0.00     0.009 A 
HETATM    8  C2  UNL     1       5.888   0.172  -1.421  1.00  0.00     0.026 A 
HETATM    9  C1  UNL     1       6.961   0.192  -0.556  1.00  0.00     0.079 A 
HETATM   10  C20 UNL     1       6.740   0.665   0.719  1.00  0.00     0.026 A 
HETATM   11  C19 UNL     1       5.491   1.099   1.104  1.00  0.00     0.009 A 
BRANCH   9  12
HETATM   12  S1  UNL     1       8.555  -0.361  -1.055  1.00  0.00     0.256 S 
HETATM   13  O1  UNL     1       9.319  -0.955   0.087  1.00  0.00    -0.201 OA
HETATM   14  O2  UNL     1       8.423  -1.389  -2.128  1.00  0.00    -0.201 OA
BRANCH  12  15
HETATM   15  N1  UNL     1       9.469   0.960  -1.725  1.00  0.00    -0.324 N 
ATOM     16  H12 UNL     1      10.379   1.268  -1.383  1.00  0.00     0.169 HD
ATOM     17  H11 UNL     1       8.948   1.365  -2.503  1.00  0.00     0.169 HD
ENDBRANCH  12  15
ENDBRANCH   9  12
ENDBRANCH   5   6
ENDBRANCH   4   5
ENDBRANCH   1   4
BRANCH   1  18
HETATM   18  C7  UNL     1       1.019  -0.263  -0.654  1.00  0.00     0.236 C 
BRANCH  18  19
HETATM   19  C8  UNL     1      -0.387   0.103  -0.232  1.00  0.00     0.088 C 
BRANCH  19  20
HETATM   20  C9  UNL     1      -1.089  -1.026   0.487  1.00  0.00     0.320 C 
BRANCH  20  21
HETATM   21  O3  UNL     1      -0.331  -1.346   1.622  1.00  0.00    -0.370 OA
ATOM     22  H3  UNL     1      -0.772  -2.056   2.074  1.00  0.00     0.212 HD
ENDBRANCH  20  21
BRANCH  20  23
HETATM   23  N3  UNL     1      -2.443  -0.692   0.848  1.00  0.00    -0.046 N 
ATOM     24  H32 UNL     1      -2.862  -1.408   1.441  1.00  0.00     0.280 HD
ATOM     25  H31 UNL     1      -2.476   0.090   1.502  1.00  0.00     0.280 HD
BRANCH  23  26
HETATM   26  C10 UNL     1      -3.232  -0.442  -0.310  1.00  0.00     0.263 C 
BRANCH  26  27
HETATM   27  C11 UNL     1      -4.645  -0.131   0.161  1.00  0.00     0.001 C 
HETATM   28  C12 UNL     1      -5.633  -0.868  -0.223  1.00  0.00     0.009 C 
BRANCH  28  29
HETATM   29  C13 UNL     1      -6.996  -0.621   0.192  1.00  0.00    -0.036 A 
HETATM   30  C14 UNL     1      -8.039  -1.450  -0.260  1.00  0.00     0.011 A 
HETATM   31  C15 UNL     1      -9.337  -1.237   0.121  1.00  0.00     0.001 A 
HETATM   32  C16 UNL     1      -9.671  -0.207   0.956  1.00  0.00     0.000 A 
HETATM   33  C17 UNL     1      -8.665   0.625   1.417  1.00  0.00     0.001 A 
HETATM   34  C18 UNL     1      -7.356   0.403   1.027  1.00  0.00     0.011 A 
ENDBRANCH  28  29
ENDBRANCH  26  27
ENDBRANCH  23  26
ENDBRANCH  20  23
ENDBRANCH  19  20
ENDBRANCH  18  19
ENDBRANCH   1  18
TORSDOF 13
