REMARK  5 active torsions:
REMARK  status: ('A' for Active; 'I' for Inactive)
REMARK    1  A    between atoms: C4_4  and  N1_5 
REMARK       I    between atoms: N1_5  and  C5_7 
REMARK    2  A    between atoms: C5_7  and  C6_9 
REMARK    3  A    between atoms: C9_13  and  O3_14 
REMARK    4  A    between atoms: N3_22  and  C14_23 
REMARK    5  A    between atoms: C14_23  and  C15_24 
ROOT
HETATM    1  C1  UNL     1      -0.792   2.114  -0.307  1.00  0.00     0.043 C 
HETATM    2  C2  UNL     1      -1.010   0.767  -0.895  1.00  0.00     0.221 C 
HETATM    3  C3  UNL     1       0.208   0.078  -1.406  1.00  0.00     0.060 C 
HETATM    4  C4  UNL     1       0.765  -0.993  -0.502  1.00  0.00     0.088 C 
HETATM    5  C12 UNL     1       0.235  -1.065   0.858  1.00  0.00     0.055 C 
HETATM    6  C13 UNL     1      -1.112  -0.440   1.097  1.00  0.00     0.275 C 
HETATM    7  N3  UNL     1      -1.858  -0.133  -0.112  1.00  0.00     0.093 N 
ENDROOT
BRANCH   4   8
HETATM    8  N1  UNL     1       2.202  -0.836  -0.573  1.00  0.00    -0.355 N 
HETATM    9  C5  UNL     1       3.013   0.058   0.134  1.00  0.00     0.240 C 
HETATM   10  O1  UNL     1       2.509   0.852   0.979  1.00  0.00    -0.271 OA
ATOM     11  H1  UNL     1       2.685  -1.457  -1.222  1.00  0.00     0.162 HD
BRANCH   9  12
HETATM   12  C6  UNL     1       4.485   0.167  -0.034  1.00  0.00     0.176 C 
HETATM   13  C7  UNL     1       5.102  -0.993  -0.766  1.00  0.00     0.115 C 
HETATM   14  C8  UNL     1       6.520  -0.750  -1.118  1.00  0.00     0.157 C 
HETATM   15  O2  UNL     1       6.936  -1.540  -1.973  1.00  0.00    -0.295 OA
HETATM   16  C9  UNL     1       7.467   0.268  -0.609  1.00  0.00     0.189 C 
HETATM   17  C10 UNL     1       7.603   0.126   0.905  1.00  0.00     0.058 C 
HETATM   18  C11 UNL     1       6.291  -0.346   1.503  1.00  0.00     0.117 C 
HETATM   19  N2  UNL     1       5.173   0.456   1.163  1.00  0.00    -0.409 N 
ATOM     20  H2  UNL     1       4.874   1.221   1.767  1.00  0.00     0.154 HD
BRANCH  16  21
HETATM   21  O3  UNL     1       8.707   0.127  -1.234  1.00  0.00    -0.388 OA
ATOM     22  H3  UNL     1       9.315   0.780  -0.907  1.00  0.00     0.210 HD
ENDBRANCH  16  21
ENDBRANCH   9  12
ENDBRANCH   4   8
BRANCH   7  23
HETATM   23  C14 UNL     1      -2.996   0.665   0.332  1.00  0.00     0.277 C 
BRANCH  23  24
HETATM   24  C15 UNL     1      -4.126  -0.219   0.871  1.00  0.00     0.014 C 
HETATM   25  C16 UNL     1      -5.219   0.707   1.326  1.00  0.00     0.006 C 
HETATM   26  C17 UNL     1      -5.924   1.463   0.262  1.00  0.00     0.000 C 
HETATM   27  C18 UNL     1      -6.920   0.649  -0.515  1.00  0.00     0.000 C 
HETATM   28  C19 UNL     1      -7.085  -0.740  -0.008  1.00  0.00     0.000 C 
HETATM   29  C20 UNL     1      -5.930  -1.655  -0.189  1.00  0.00     0.000 C 
HETATM   30  C21 UNL     1      -4.591  -1.030  -0.339  1.00  0.00     0.006 C 
ENDBRANCH  23  24
ENDBRANCH   7  23
TORSDOF 5
