REMARK  6 active torsions:
REMARK  status: ('A' for Active; 'I' for Inactive)
REMARK    1  A    between atoms: O1_2  and  C2_3 
REMARK    2  A    between atoms: C2_3  and  C4_5 
REMARK    3  A    between atoms: C2_3  and  C5_8 
REMARK    4  A    between atoms: C4_5  and  O2_6 
REMARK    5  A    between atoms: C14_18  and  C15_19 
REMARK    6  A    between atoms: C15_19  and  O4_20 
ROOT
HETATM    1  C5  UNL     1      -1.469  -0.335   0.187  1.00  0.00     0.028 C 
HETATM    2  C6  UNL     1      -2.306   0.805   0.749  1.00  0.00     0.008 C 
HETATM    3  C7  UNL     1      -1.587   1.649   1.743  1.00  0.00     0.006 C 
HETATM    4  C8  UNL     1      -0.480   2.345   1.021  1.00  0.00    -0.003 C 
HETATM    5  C9  UNL     1      -0.959   3.746   0.711  1.00  0.00     0.011 C 
HETATM    6  C10 UNL     1       0.019   1.700  -0.196  1.00  0.00     0.025 C 
HETATM    7  C11 UNL     1      -0.430   2.510  -1.426  1.00  0.00     0.024 C 
HETATM    8  C12 UNL     1       1.523   1.957  -0.178  1.00  0.00     0.139 C 
HETATM    9  O3  UNL     1       2.082   2.674   0.593  1.00  0.00    -0.297 OA
HETATM   10  C13 UNL     1       2.299   1.249  -1.206  1.00  0.00     0.119 C 
HETATM   11  C14 UNL     1       2.216  -0.205  -0.826  1.00  0.00     0.093 C 
HETATM   12  O5  UNL     1       3.285  -0.514  -0.037  1.00  0.00    -0.367 OA
HETATM   13  C16 UNL     1       2.895  -0.886   1.217  1.00  0.00     0.055 C 
HETATM   14  C17 UNL     1       3.703  -0.233   2.325  1.00  0.00     0.045 C 
HETATM   15  C18 UNL     1       3.099  -2.381   1.353  1.00  0.00     0.045 C 
HETATM   16  C19 UNL     1       1.422  -0.564   1.353  1.00  0.00     0.045 C 
HETATM   17  C20 UNL     1       0.997  -0.561  -0.054  1.00  0.00     0.031 C 
HETATM   18  C21 UNL     1      -0.246   0.229  -0.396  1.00  0.00     0.015 C 
ENDROOT
BRANCH   1  19
HETATM   19  C2  UNL     1      -2.460  -1.074  -0.604  1.00  0.00     0.082 C 
HETATM   20  C3  UNL     1      -3.221  -0.179  -1.606  1.00  0.00     0.049 C 
BRANCH  19  21
HETATM   21  O1  UNL     1      -3.458  -1.470   0.272  1.00  0.00    -0.383 OA
HETATM   22  C1  UNL     1      -3.132  -2.297   1.299  1.00  0.00     0.202 C 
ENDBRANCH  19  21
BRANCH  19  23
HETATM   23  C4  UNL     1      -2.086  -2.300  -1.357  1.00  0.00     0.202 C 
BRANCH  23  24
HETATM   24  O2  UNL     1      -1.137  -2.021  -2.341  1.00  0.00    -0.398 OA
ATOM     25  H2  UNL     1      -0.898  -2.804  -2.822  1.00  0.00     0.209 HD
ENDBRANCH  23  24
ENDBRANCH  19  23
ENDBRANCH   1  19
BRANCH  11  26
HETATM   26  C15 UNL     1       2.340  -1.006  -2.105  1.00  0.00     0.203 C 
BRANCH  26  27
HETATM   27  O4  UNL     1       2.348  -2.366  -1.869  1.00  0.00    -0.398 OA
ATOM     28  H4  UNL     1       2.426  -2.869  -2.671  1.00  0.00     0.209 HD
ENDBRANCH  26  27
ENDBRANCH  11  26
TORSDOF 6
