REMARK  4 active torsions:
REMARK  status: ('A' for Active; 'I' for Inactive)
REMARK    1  A    between atoms: C2_2  and  C4_4 
REMARK    2  A    between atoms: C4_4  and  N1_6 
REMARK    3  A    between atoms: C4_4  and  C6_10 
REMARK    4  A    between atoms: C7_11  and  C8_12 
ROOT
HETATM    1  C6  UNL     1      -0.589  -0.571   0.262  1.00  0.00    -0.060 C 
HETATM    2  C7  UNL     1       0.603  -0.461   0.137  1.00  0.00    -0.038 C 
ENDROOT
BRANCH   1   3
HETATM    3  C4  UNL     1      -2.036  -0.699   0.437  1.00  0.00     0.185 C 
HETATM    4  C5  UNL     1      -2.362  -0.993   1.892  1.00  0.00     0.061 C 
BRANCH   3   5
HETATM    5  C2  UNL     1      -2.667   0.630   0.011  1.00  0.00     0.025 C 
HETATM    6  C1  UNL     1      -4.152   0.602   0.155  1.00  0.00     0.013 C 
HETATM    7  C3  UNL     1      -2.228   0.919  -1.402  1.00  0.00     0.013 C 
ENDBRANCH   3   5
BRANCH   3   8
HETATM    8  N1  UNL     1      -2.495  -1.753  -0.422  1.00  0.00    -0.059 N 
ATOM      9  H13 UNL     1      -3.513  -1.805  -0.455  1.00  0.00     0.276 HD
ATOM     10  H12 UNL     1      -2.326  -1.546  -1.406  1.00  0.00     0.276 HD
ATOM     11  H11 UNL     1      -2.075  -2.638  -0.138  1.00  0.00     0.276 HD
ENDBRANCH   3   8
ENDBRANCH   1   3
BRANCH   2  12
HETATM   12  C8  UNL     1       2.044  -0.354  -0.014  1.00  0.00     0.131 A 
HETATM   13  N2  UNL     1       2.762   0.751  -0.082  1.00  0.00    -0.337 N 
HETATM   14  C9  UNL     1       4.069   0.662  -0.220  1.00  0.00     0.096 A 
ATOM     15  H2  UNL     1       2.310   1.664  -0.028  1.00  0.00     0.168 HD
HETATM   16  C10 UNL     1       4.621  -0.557  -0.286  1.00  0.00     0.078 A 
HETATM   17  S3  UNL     1       5.339   1.959  -0.346  1.00  0.00    -0.100 SA
HETATM   18  S1  UNL     1       3.248  -1.562  -0.148  1.00  0.00    -0.053 SA
HETATM   19  S2  UNL     1       6.373  -0.620  -0.470  1.00  0.00    -0.109 SA
HETATM   20  C11 UNL     1       6.913   1.106  -0.361  1.00  0.00     0.160 C 
ENDBRANCH   2  12
TORSDOF 4
