REMARK  3 active torsions:
REMARK  status: ('A' for Active; 'I' for Inactive)
REMARK    1  A    between atoms: C4_4  and  C5_5 
REMARK    2  A    between atoms: C5_5  and  N1_6 
REMARK    3  A    between atoms: N1_6  and  C6_8 
ROOT
HETATM    1  N1  UNL     1       1.226   0.010  -0.314  1.00  0.00    -0.221 N 
ATOM      2  H1  UNL     1       1.324   0.960   0.044  1.00  0.00     0.178 HD
ENDROOT
BRANCH   1   3
HETATM    3  C5  UNL     1       0.018  -0.382  -1.014  1.00  0.00     0.176 C 
BRANCH   3   4
HETATM    4  C4  UNL     1      -1.154   0.411  -0.517  1.00  0.00    -0.040 A 
HETATM    5  C3  UNL     1      -2.408   0.201  -1.047  1.00  0.00     0.009 A 
HETATM    6  C2  UNL     1      -3.487   0.921  -0.601  1.00  0.00     0.001 A 
HETATM    7  C1  UNL     1      -3.349   1.864   0.380  1.00  0.00     0.000 A 
HETATM    8  C9  UNL     1      -2.107   2.099   0.931  1.00  0.00     0.001 A 
HETATM    9  C8  UNL     1      -1.035   1.366   0.469  1.00  0.00     0.009 A 
ENDBRANCH   3   4
ENDBRANCH   1   3
BRANCH   1  10
HETATM   10  C6  UNL     1       2.176  -0.846  -0.145  1.00  0.00     0.693 A 
HETATM   11  N2  UNL     1       3.345  -0.594   0.491  1.00  0.00    -0.185 N 
HETATM   12  C7  UNL     1       4.120  -1.679   0.502  1.00  0.00     0.215 A 
ATOM     13  H2  UNL     1       3.598   0.303   0.905  1.00  0.00     0.185 HD
HETATM   14  N3  UNL     1       3.432  -2.641  -0.139  1.00  0.00    -0.281 N 
HETATM   15  N4  UNL     1       2.264  -2.131  -0.525  1.00  0.00    -0.131 N 
ATOM     16  H3  UNL     1       3.750  -3.596  -0.301  1.00  0.00     0.188 HD
ATOM     17  H4  UNL     1       1.542  -2.641  -1.034  1.00  0.00     0.205 HD
ENDBRANCH   1  10
TORSDOF 3
