REMARK  6 active torsions:
REMARK  status: ('A' for Active; 'I' for Inactive)
REMARK    1  A    between atoms: C3_3  and  C5_5 
REMARK       I    between atoms: C5_5  and  N1_7 
REMARK    2  A    between atoms: N1_7  and  N2_9 
REMARK    3  A    between atoms: N2_9  and  C6_11 
REMARK    4  A    between atoms: C6_11  and  O2_12 
REMARK    5  A    between atoms: C6_11  and  C7_14 
REMARK    6  A    between atoms: C10_19  and  O3_20 
ROOT
HETATM    1  C6  UNL     1      -1.330   1.074   0.921  1.00  0.00     0.175 C 
ENDROOT
BRANCH   1   2
HETATM    2  N2  UNL     1      -0.296   0.399   0.305  1.00  0.00    -0.276 N 
ATOM      3  H2  UNL     1      -0.510  -0.400  -0.292  1.00  0.00     0.189 HD
BRANCH   2   4
HETATM    4  N1  UNL     1       1.031   0.780   0.477  1.00  0.00    -0.264 N 
HETATM    5  C5  UNL     1       2.135  -0.017  -0.006  1.00  0.00     0.265 C 
HETATM    6  O1  UNL     1       1.933  -1.090  -0.588  1.00  0.00    -0.266 OA
ATOM      7  H1  UNL     1       1.232   1.654   0.962  1.00  0.00     0.190 HD
BRANCH   5   8
HETATM    8  C3  UNL     1       3.480   0.461   0.201  1.00  0.00     0.003 C 
HETATM    9  C2  UNL     1       4.532  -0.175  -0.209  1.00  0.00    -0.019 C 
HETATM   10  C1  UNL     1       4.600  -1.441  -0.925  1.00  0.00     0.036 C 
HETATM   11  C4  UNL     1       3.629   1.781   0.936  1.00  0.00     0.054 C 
ENDBRANCH   5   8
ENDBRANCH   2   4
ENDBRANCH   1   2
BRANCH   1  12
HETATM   12  O2  UNL     1      -0.977   2.081   1.671  1.00  0.00    -0.344 OA
ATOM     13  H2  UNL     1      -1.689   2.546   2.095  1.00  0.00     0.219 HD
ENDBRANCH   1  12
BRANCH   1  14
HETATM   14  C7  UNL     1      -2.761   0.853   0.879  1.00  0.00     0.091 A 
HETATM   15  S1  UNL     1      -4.006   1.714   1.701  1.00  0.00    -0.075 SA
HETATM   16  C8  UNL     1      -5.375   0.872   1.100  1.00  0.00     0.055 A 
HETATM   17 BR1  UNL     1      -7.221   1.187   1.504  1.00  0.00    -0.043 Br
HETATM   18  C9  UNL     1      -4.808  -0.057   0.277  1.00  0.00     0.065 A 
HETATM   19  C10 UNL     1      -3.481  -0.075   0.157  1.00  0.00     0.091 A 
BRANCH  19  20
HETATM   20  O3  UNL     1      -2.786  -0.995  -0.672  1.00  0.00    -0.354 OA
HETATM   21  C11 UNL     1      -3.393  -1.977  -1.444  1.00  0.00     0.210 C 
ENDBRANCH  19  20
ENDBRANCH   1  14
TORSDOF 6
