REMARK  5 active torsions:
REMARK  status: ('A' for Active; 'I' for Inactive)
REMARK    1  A    between atoms: N2_8  and  C5_9 
REMARK    2  A    between atoms: C5_9  and  C6_10 
REMARK    3  A    between atoms: C6_10  and  N3_11 
REMARK    4  A    between atoms: C10_16  and  C11_17 
REMARK    5  A    between atoms: C11_17  and  O1_18 
ROOT
HETATM    1  C6  UNL     1      -0.445   1.202   0.711  1.00  0.00     0.079 C 
ENDROOT
BRANCH   1   2
HETATM    2  C5  UNL     1       0.887   1.790   0.343  1.00  0.00     0.168 C 
BRANCH   2   3
HETATM    3  N2  UNL     1       1.956   0.820   0.379  1.00  0.00    -0.366 N 
HETATM    4  C1  UNL     1       2.631   0.367  -0.798  1.00  0.00     0.073 C 
HETATM    5  N1  UNL     1       2.693   1.018  -1.928  1.00  0.00    -0.389 N 
HETATM    6  C2  UNL     1       3.218  -0.953  -0.468  1.00  0.00     0.077 C 
ATOM      7  H12 UNL     1       3.174   0.695  -2.767  1.00  0.00     0.157 HD
ATOM      8  H11 UNL     1       2.289   1.927  -2.155  1.00  0.00     0.157 HD
HETATM    9  C3  UNL     1       3.528  -0.807   0.996  1.00  0.00     0.027 C 
HETATM   10  C4  UNL     1       2.516   0.161   1.537  1.00  0.00     0.125 C 
ENDBRANCH   2   3
ENDBRANCH   1   2
BRANCH   1  11
HETATM   11  N3  UNL     1      -0.883   0.152  -0.117  1.00  0.00    -0.371 N 
HETATM   12  C7  UNL     1      -1.233   0.418  -1.443  1.00  0.00     0.156 C 
HETATM   13 BR1  UNL     1      -1.986   2.210  -1.661  1.00  0.00    -0.069 Br
HETATM   14  C8  UNL     1      -2.357  -0.538  -1.767  1.00  0.00     0.039 C 
HETATM   15  C9  UNL     1      -2.236  -1.610  -0.710  1.00  0.00     0.030 C 
HETATM   16  C10 UNL     1      -1.749  -0.814   0.464  1.00  0.00     0.108 C 
BRANCH  16  17
HETATM   17  C11 UNL     1      -2.934  -0.024   1.039  1.00  0.00     0.189 C 
BRANCH  17  18
HETATM   18  O1  UNL     1      -3.848  -0.863   1.632  1.00  0.00    -0.399 OA
ATOM     19  H1  UNL     1      -4.581  -0.374   1.988  1.00  0.00     0.209 HD
ENDBRANCH  17  18
ENDBRANCH  16  17
ENDBRANCH   1  11
TORSDOF 5
