REMARK  12 active torsions:
REMARK  status: ('A' for Active; 'I' for Inactive)
REMARK    1  A    between atoms: C5_5  and  N1_6 
REMARK    2  A    between atoms: N1_6  and  C6_7 
REMARK    3  A    between atoms: N1_6  and  C8_11 
REMARK    4  A    between atoms: N1_6  and  C15_21 
REMARK    5  A    between atoms: C6_7  and  C7_8 
REMARK    6  A    between atoms: C7_8  and  O1_9 
REMARK    7  A    between atoms: C9_12  and  C10_13 
REMARK    8  A    between atoms: C15_21  and  C16_22 
REMARK    9  A    between atoms: C15_21  and  C17_25 
REMARK   10  A    between atoms: C16_22  and  O2_23 
REMARK   11  A    between atoms: C17_25  and  C18_26 
REMARK   12  A    between atoms: C18_26  and  O3_27 
ROOT
HETATM    1  N1  UNL     1       0.586   0.053  -0.108  1.00  0.00    -0.019 N 
ENDROOT
BRANCH   1   2
HETATM    2  C5  UNL     1      -0.653  -0.340   0.603  1.00  0.00     0.212 C 
HETATM    3  C4  UNL     1      -1.994  -0.335   0.214  1.00  0.00    -0.050 C 
HETATM    4  C3  UNL     1      -2.561  -1.087  -0.974  1.00  0.00     0.045 C 
HETATM    5  C19 UNL     1      -2.984   0.755   0.392  1.00  0.00     0.024 C 
HETATM    6  C2  UNL     1      -4.059  -0.746  -0.856  1.00  0.00    -0.039 C 
HETATM    7  C1  UNL     1      -4.868  -1.250  -1.963  1.00  0.00     0.015 C 
HETATM    8  C20 UNL     1      -3.827   0.781  -0.907  1.00  0.00     0.019 C 
HETATM    9  C24 UNL     1      -4.603  -0.909   0.515  1.00  0.00     0.018 C 
HETATM   10  C21 UNL     1      -4.175   0.340   1.297  1.00  0.00    -0.040 C 
HETATM   11  C22 UNL     1      -3.695  -0.051   2.659  1.00  0.00     0.015 C 
HETATM   12  C23 UNL     1      -5.219   1.389   1.349  1.00  0.00     0.015 C 
ENDBRANCH   1   2
BRANCH   1  13
HETATM   13  C6  UNL     1       0.885  -0.914  -1.083  1.00  0.00     0.275 C 
BRANCH  13  14
HETATM   14  C7  UNL     1       0.785  -2.370  -0.795  1.00  0.00     0.193 C 
BRANCH  14  15
HETATM   15  O1  UNL     1       1.144  -3.129  -1.951  1.00  0.00    -0.399 OA
ATOM     16  H1  UNL     1       1.080  -4.059  -1.767  1.00  0.00     0.209 HD
ENDBRANCH  14  15
ENDBRANCH  13  14
ENDBRANCH   1  13
BRANCH   1  17
HETATM   17  C8  UNL     1       1.472   0.444   0.909  1.00  0.00     0.205 C 
HETATM   18  C9  UNL     1       2.563  -0.059   1.658  1.00  0.00     0.003 C 
BRANCH  18  19
HETATM   19  C10 UNL     1       3.915  -0.282   1.111  1.00  0.00     0.013 C 
HETATM   20  C11 UNL     1       4.245  -1.189   0.030  1.00  0.00     0.036 C 
HETATM   21  C12 UNL     1       5.788  -1.314  -0.026  1.00  0.00     0.233 C 
HETATM   22  N2  UNL     1       6.138  -2.287   0.986  1.00  0.00    -0.075 N 
HETATM   23  C13 UNL     1       5.296  -2.028   2.156  1.00  0.00     0.233 C 
ATOM     24  H22 UNL     1       6.071  -3.249   0.653  1.00  0.00     0.277 HD
ATOM     25  H21 UNL     1       7.134  -2.291   1.206  1.00  0.00     0.277 HD
HETATM   26  C14 UNL     1       4.920  -0.580   2.250  1.00  0.00     0.036 C 
ENDBRANCH  18  19
ENDBRANCH   1  17
BRANCH   1  27
HETATM   27  C15 UNL     1       0.274   1.261  -0.912  1.00  0.00     0.226 C 
BRANCH  27  28
HETATM   28  C16 UNL     1       1.135   1.400  -2.132  1.00  0.00     0.198 C 
BRANCH  28  29
HETATM   29  O2  UNL     1       2.472   1.538  -1.963  1.00  0.00    -0.399 OA
ATOM     30  H2  UNL     1       3.017   1.626  -2.736  1.00  0.00     0.209 HD
ENDBRANCH  28  29
ENDBRANCH  27  28
BRANCH  27  31
HETATM   31  C17 UNL     1       0.190   2.543  -0.241  1.00  0.00     0.062 C 
BRANCH  31  32
HETATM   32  C18 UNL     1      -0.174   3.742  -1.120  1.00  0.00     0.166 C 
BRANCH  32  33
HETATM   33  O3  UNL     1      -0.207   4.817  -0.182  1.00  0.00    -0.401 OA
ATOM     34  H3  UNL     1      -0.433   5.561  -0.728  1.00  0.00     0.209 HD
ENDBRANCH  32  33
ENDBRANCH  31  32
ENDBRANCH  27  31
ENDBRANCH   1  27
TORSDOF 12
