REMARK  18 active torsions:
REMARK  status: ('A' for Active; 'I' for Inactive)
REMARK    1  A    between atoms: C2_2  and  O1_3 
REMARK    2  A    between atoms: O1_3  and  C3_4 
REMARK    3  A    between atoms: C3_4  and  C4_6 
REMARK    4  A    between atoms: C4_6  and  N1_7 
REMARK    5  A    between atoms: N1_7  and  N2_8 
REMARK    6  A    between atoms: N1_7  and  N6_27 
REMARK    7  A    between atoms: N2_8  and  C5_10 
REMARK    8  A    between atoms: C6_13  and  N4_14 
REMARK    9  A    between atoms: C8_21  and  C9_22 
REMARK   10  A    between atoms: C9_22  and  O4_23 
REMARK   11  A    between atoms: C9_22  and  O5_25 
REMARK   12  A    between atoms: C10_28  and  O6_29 
REMARK   13  A    between atoms: O6_29  and  C11_30 
REMARK   14  A    between atoms: C15_37  and  O10_38 
REMARK   15  A    between atoms: C17_42  and  O12_43 
REMARK   16  A    between atoms: C18_45  and  C19_46 
REMARK   17  A    between atoms: C19_46  and  O13_47 
REMARK   18  A    between atoms: C19_46  and  O14_49 
ROOT
HETATM    1  N1  UNL     1       0.211   0.066  -0.361  1.00  0.00    -0.214 N 
ENDROOT
BRANCH   1   2
HETATM    2  C4  UNL     1       0.020   0.624   0.933  1.00  0.00     0.281 C 
BRANCH   2   3
HETATM    3  C3  UNL     1      -1.108   1.493   1.209  1.00  0.00     0.280 C 
HETATM    4  O2  UNL     1      -2.319   1.227   1.056  1.00  0.00    -0.263 OA
BRANCH   3   5
HETATM    5  O1  UNL     1      -0.898   2.816   1.706  1.00  0.00    -0.320 OA
BRANCH   5   6
HETATM    6  C2  UNL     1      -1.925   3.699   1.985  1.00  0.00     0.174 C 
HETATM    7  C1  UNL     1      -2.876   3.322   3.066  1.00  0.00     0.034 C 
ENDBRANCH   5   6
ENDBRANCH   3   5
ENDBRANCH   2   3
ENDBRANCH   1   2
BRANCH   1   8
HETATM    8  N2  UNL     1      -0.532  -0.889  -0.996  1.00  0.00    -0.267 N 
ATOM      9  H2  UNL     1      -0.003  -1.433  -1.677  1.00  0.00     0.190 HD
BRANCH   8  10
HETATM   10  C5  UNL     1      -1.879  -1.268  -0.895  1.00  0.00     0.153 A 
HETATM   11  N3  UNL     1      -2.806  -0.724  -1.683  1.00  0.00    -0.175 N 
HETATM   12  C6  UNL     1      -4.114  -1.093  -1.636  1.00  0.00     0.680 A 
ATOM     13  H3  UNL     1      -2.523  -0.003  -2.347  1.00  0.00     0.186 HD
HETATM   14  N5  UNL     1      -4.510  -2.046  -0.764  1.00  0.00    -0.156 N 
HETATM   15  C7  UNL     1      -3.620  -2.621   0.046  1.00  0.00     0.274 A 
ATOM     16  H5  UNL     1      -5.490  -2.326  -0.725  1.00  0.00     0.187 HD
HETATM   17  O3  UNL     1      -3.979  -3.499   0.850  1.00  0.00    -0.267 OA
HETATM   18  C8  UNL     1      -2.300  -2.236  -0.015  1.00  0.00     0.110 A 
BRANCH  12  19
HETATM   19  N4  UNL     1      -4.897  -0.549  -2.391  1.00  0.00    -0.234 N 
ATOM     20  H42 UNL     1      -4.598   0.170  -3.049  1.00  0.00     0.174 HD
ATOM     21  H41 UNL     1      -5.878  -0.826  -2.356  1.00  0.00     0.174 HD
ENDBRANCH  12  19
BRANCH  18  22
HETATM   22  C9  UNL     1      -1.341  -2.906   0.881  1.00  0.00     0.297 C 
BRANCH  22  23
HETATM   23  O4  UNL     1      -1.615  -4.282   0.821  1.00  0.00    -0.367 OA
ATOM     24  H4  UNL     1      -0.997  -4.714   1.399  1.00  0.00     0.213 HD
ENDBRANCH  22  23
BRANCH  22  25
HETATM   25  O5  UNL     1      -1.673  -2.529   2.197  1.00  0.00    -0.367 OA
ATOM     26  H5  UNL     1      -1.055  -2.961   2.775  1.00  0.00     0.213 HD
ENDBRANCH  22  25
ENDBRANCH  18  22
ENDBRANCH   8  10
ENDBRANCH   1   8
BRANCH   1  27
HETATM   27  N6  UNL     1       1.367   0.594  -1.041  1.00  0.00    -0.211 N 
HETATM   28  C10 UNL     1       2.603   0.086  -0.664  1.00  0.00     0.207 A 
HETATM   29  C15 UNL     1       3.738   0.593  -1.263  1.00  0.00     0.172 A 
HETATM   30  C16 UNL     1       3.546   1.599  -2.222  1.00  0.00     0.244 A 
HETATM   31  O11 UNL     1       4.586   2.078  -2.785  1.00  0.00    -0.282 OA
HETATM   32  C17 UNL     1       2.318   2.077  -2.572  1.00  0.00     0.149 A 
HETATM   33  C18 UNL     1       1.195   1.533  -1.938  1.00  0.00     0.130 A 
BRANCH  28  34
HETATM   34  O6  UNL     1       2.625  -0.860   0.246  1.00  0.00    -0.284 OA
BRANCH  34  35
HETATM   35  C11 UNL     1       3.163  -1.714   1.056  1.00  0.00     0.268 C 
HETATM   36  C12 UNL     1       4.075  -1.336   2.196  1.00  0.00     0.141 C 
HETATM   37  C13 UNL     1       3.570  -2.653   2.661  1.00  0.00     0.279 C 
HETATM   38  O7  UNL     1       4.098  -3.613   1.732  1.00  0.00    -0.285 OA
HETATM   39  O9  UNL     1       2.357  -2.347   2.053  1.00  0.00    -0.315 OA
HETATM   40  C14 UNL     1       3.824  -2.969   0.528  1.00  0.00     0.325 C 
HETATM   41  O8  UNL     1       4.046  -3.305  -0.658  1.00  0.00    -0.259 OA
ENDBRANCH  34  35
ENDBRANCH  28  34
BRANCH  29  42
HETATM   42  O10 UNL     1       5.027   0.190  -0.994  1.00  0.00    -0.354 OA
ATOM     43  H10 UNL     1       5.808   0.539  -1.406  1.00  0.00     0.218 HD
ENDBRANCH  29  42
BRANCH  32  44
HETATM   44  O12 UNL     1       2.139   3.072  -3.524  1.00  0.00    -0.355 OA
ATOM     45  H12 UNL     1       1.283   3.405  -3.768  1.00  0.00     0.218 HD
ENDBRANCH  32  44
BRANCH  33  46
HETATM   46  C19 UNL     1      -0.112   2.063  -2.363  1.00  0.00     0.310 C 
BRANCH  46  47
HETATM   47  O13 UNL     1      -0.040   3.475  -2.418  1.00  0.00    -0.366 OA
ATOM     48  H13 UNL     1      -0.883   3.817  -2.692  1.00  0.00     0.213 HD
ENDBRANCH  46  47
BRANCH  46  49
HETATM   49  O14 UNL     1      -0.335   1.644  -3.709  1.00  0.00    -0.366 OA
ATOM     50  H14 UNL     1      -1.178   1.986  -3.983  1.00  0.00     0.213 HD
ENDBRANCH  46  49
ENDBRANCH  33  46
ENDBRANCH   1  27
TORSDOF 18
