REMARK  14 active torsions:
REMARK  status: ('A' for Active; 'I' for Inactive)
REMARK    1  A    between atoms: C2_3  and  C3_4 
REMARK    2  A    between atoms: C2_3  and  C11_32 
REMARK    3  A    between atoms: C3_4  and  O1_5 
REMARK    4  A    between atoms: O1_5  and  C4_6 
REMARK    5  A    between atoms: C6_10  and  N4_11 
REMARK    6  A    between atoms: C7_18  and  C8_19 
REMARK    7  A    between atoms: C8_19  and  C9_24 
REMARK    8  A    between atoms: N8_20  and  O2_22 
REMARK    9  A    between atoms: C9_24  and  O3_25 
REMARK   10  A    between atoms: C9_24  and  C10_27 
REMARK   11  A    between atoms: C10_27  and  O4_28 
REMARK   12  A    between atoms: C10_27  and  O5_30 
REMARK       I    between atoms: C11_32  and  N9_34 
REMARK       I    between atoms: N9_34  and  C12_36 
REMARK   13  A    between atoms: C12_36  and  C13_38 
REMARK   14  A    between atoms: C17_50  and  N14_51 
ROOT
HETATM    1  N1  UNL     1      -0.588  -1.022  -4.241  1.00  0.00    -0.196 NA
HETATM    2  C1  UNL     1       0.175  -0.825  -3.397  1.00  0.00     0.075 C 
HETATM    3  C2  UNL     1       1.192  -0.563  -2.318  1.00  0.00     0.208 C 
ENDROOT
BRANCH   3   4
HETATM    4  C3  UNL     1       0.299  -0.325  -1.087  1.00  0.00     0.197 C 
BRANCH   4   5
HETATM    5  O1  UNL     1      -0.474  -1.421  -0.791  1.00  0.00    -0.379 OA
BRANCH   5   6
HETATM    6  C4  UNL     1      -1.234  -1.170   0.324  1.00  0.00     0.179 C 
HETATM    7  C5  UNL     1      -0.859  -2.206   1.382  1.00  0.00     0.166 C 
HETATM    8  N2  UNL     1      -2.147  -2.584   1.931  1.00  0.00    -0.144 NA
HETATM    9  N3  UNL     1      -2.880  -2.779   0.739  1.00  0.00    -0.118 NA
HETATM   10  C6  UNL     1      -2.715  -1.434   0.149  1.00  0.00     0.250 C 
BRANCH  10  11
HETATM   11  N4  UNL     1      -3.473  -0.541   0.990  1.00  0.00    -0.234 N 
HETATM   12  N5  UNL     1      -2.908   0.288   1.883  1.00  0.00    -0.223 N 
HETATM   13  N6  UNL     1      -3.842   0.966   2.514  1.00  0.00    -0.226 N 
ATOM     14  H5  UNL     1      -1.905   0.378   2.047  1.00  0.00     0.210 HD
HETATM   15  N7  UNL     1      -4.995   0.573   2.027  1.00  0.00    -0.267 N 
ATOM     16  H6  UNL     1      -3.697   1.664   3.243  1.00  0.00     0.210 HD
HETATM   17  C7  UNL     1      -4.790  -0.354   1.088  1.00  0.00     0.168 A 
ATOM     18  H7  UNL     1      -5.907   0.922   2.320  1.00  0.00     0.190 HD
BRANCH  17  19
HETATM   19  C8  UNL     1      -5.846  -1.012   0.322  1.00  0.00     0.112 C 
HETATM   20  N8  UNL     1      -5.468  -1.842  -0.593  1.00  0.00    -0.267 N 
ATOM     21  H8  UNL     1      -4.472  -2.000  -0.744  1.00  0.00     0.194 HD
BRANCH  20  22
HETATM   22  O2  UNL     1      -6.369  -2.506  -1.355  1.00  0.00    -0.290 OA
ATOM     23  H2  UNL     1      -6.091  -3.116  -2.028  1.00  0.00     0.244 HD
ENDBRANCH  20  22
BRANCH  19  24
HETATM   24  C9  UNL     1      -7.282  -0.793   0.494  1.00  0.00     0.228 C 
BRANCH  24  25
HETATM   25  O3  UNL     1      -7.775  -1.164   1.748  1.00  0.00    -0.384 OA
ATOM     26  H3  UNL     1      -8.708  -1.022   1.860  1.00  0.00     0.210 HD
ENDBRANCH  24  25
BRANCH  24  27
HETATM   27  C10 UNL     1      -7.777   0.584   0.203  1.00  0.00     0.288 C 
BRANCH  27  28
HETATM   28  O4  UNL     1      -7.303   1.069  -1.033  1.00  0.00    -0.368 OA
ATOM     29  H4  UNL     1      -7.618   1.946  -1.218  1.00  0.00     0.212 HD
ENDBRANCH  27  28
BRANCH  27  30
HETATM   30  O5  UNL     1      -7.664   1.481   1.230  1.00  0.00    -0.368 OA
ATOM     31  H5  UNL     1      -7.979   2.358   1.045  1.00  0.00     0.212 HD
ENDBRANCH  27  30
ENDBRANCH  24  27
ENDBRANCH  19  24
ENDBRANCH  17  19
ENDBRANCH  10  11
ENDBRANCH   5   6
ENDBRANCH   4   5
ENDBRANCH   3   4
BRANCH   3  32
HETATM   32  C11 UNL     1       1.974   0.621  -2.650  1.00  0.00     0.244 C 
HETATM   33  O6  UNL     1       1.485   1.387  -3.570  1.00  0.00    -0.272 OA
HETATM   34  N9  UNL     1       3.171   1.018  -2.094  1.00  0.00    -0.290 N 
HETATM   35  C12 UNL     1       3.920   0.303  -1.110  1.00  0.00     0.283 C 
ATOM     36  H9  UNL     1       3.558   1.905  -2.415  1.00  0.00     0.172 HD
HETATM   37  O7  UNL     1       3.472  -0.795  -0.709  1.00  0.00    -0.265 OA
BRANCH  35  38
HETATM   38  C13 UNL     1       5.170   0.831  -0.584  1.00  0.00     0.159 A 
HETATM   39  N10 UNL     1       5.636   1.941  -0.978  1.00  0.00    -0.289 N 
HETATM   40  N11 UNL     1       6.811   2.552  -0.557  1.00  0.00    -0.294 N 
ATOM     41  H10 UNL     1       5.090   2.440  -1.680  1.00  0.00     0.188 HD
HETATM   42  C14 UNL     1       7.715   2.028   0.409  1.00  0.00     0.126 A 
ATOM     43  H11 UNL     1       7.045   3.452  -0.976  1.00  0.00     0.187 HD
HETATM   44  C15 UNL     1       7.502   0.829   1.035  1.00  0.00     0.109 A 
HETATM   45  C17 UNL     1       8.863   2.725   0.761  1.00  0.00     0.131 A 
HETATM   46  N12 UNL     1       8.378   0.384   1.936  1.00  0.00    -0.345 N 
HETATM   47  S1  UNL     1       6.054  -0.114   0.634  1.00  0.00    -0.045 SA
HETATM   48  C16 UNL     1       9.490   1.074   2.267  1.00  0.00     0.183 A 
ATOM     49  H12 UNL     1       8.201  -0.511   2.392  1.00  0.00     0.167 HD
HETATM   50  N13 UNL     1       9.734   2.236   1.687  1.00  0.00    -0.337 N 
ATOM     51  H13 UNL     1      10.571   2.765   1.932  1.00  0.00     0.168 HD
BRANCH  45  52
HETATM   52  N14 UNL     1       9.141   3.851   0.221  1.00  0.00    -0.383 N 
ATOM     53 2H14 UNL     1       8.489   4.217  -0.472  1.00  0.00     0.157 HD
ATOM     54 1H14 UNL     1       9.984   4.363   0.480  1.00  0.00     0.157 HD
ENDBRANCH  45  52
ENDBRANCH  35  38
ENDBRANCH   3  32
TORSDOF 14
