REMARK  17 active torsions:
REMARK  status: ('A' for Active; 'I' for Inactive)
REMARK    1  A    between atoms: O1_2  and  C2_3 
REMARK    2  A    between atoms: C2_3  and  O2_4 
REMARK    3  A    between atoms: C2_3  and  C3_6 
REMARK    4  A    between atoms: C6_14  and  C7_15 
REMARK       I    between atoms: C7_15  and  N3_17 
REMARK    5  A    between atoms: C8_22  and  C9_23 
REMARK    6  A    between atoms: C9_23  and  O5_24 
REMARK    7  A    between atoms: C9_23  and  C10_26 
REMARK    8  A    between atoms: C10_26  and  C11_27 
REMARK    9  A    between atoms: C10_26  and  C15_38 
REMARK   10  A    between atoms: C14_32  and  N7_33 
REMARK   11  A    between atoms: C15_38  and  N9_39 
REMARK   12  A    between atoms: C15_38  and  O6_43 
REMARK   13  A    between atoms: C15_38  and  C18_47 
REMARK   14  A    between atoms: O6_43  and  C16_44 
REMARK   15  A    between atoms: C18_47  and  O8_48 
REMARK   16  A    between atoms: C18_47  and  O9_50 
REMARK   17  A    between atoms: C19_52  and  O10_53 
ROOT
HETATM    1  C9  UNL     1      -1.739   0.659   0.617  1.00  0.00     0.188 C 
ENDROOT
BRANCH   1   2
HETATM    2  C8  UNL     1      -0.765  -0.083   1.487  1.00  0.00     0.109 A 
HETATM    3  N5  UNL     1      -0.938  -0.652   2.664  1.00  0.00    -0.283 N 
HETATM    4  N4  UNL     1       0.221  -1.143   3.042  1.00  0.00    -0.231 N 
ATOM      5  H5  UNL     1      -1.813  -0.702   3.186  1.00  0.00     0.188 HD
HETATM    6  N3  UNL     1       1.167  -0.904   2.117  1.00  0.00    -0.178 N 
ATOM      7  H4  UNL     1       0.381  -1.639   3.919  1.00  0.00     0.209 HD
HETATM    8  C7  UNL     1       2.530  -1.252   2.204  1.00  0.00     0.316 C 
HETATM    9  C19 UNL     1       0.566  -0.245   1.145  1.00  0.00     0.193 A 
HETATM   10  O4  UNL     1       3.023  -1.753   3.245  1.00  0.00    -0.262 OA
BRANCH   8  11
HETATM   11  C6  UNL     1       3.436  -1.044   1.072  1.00  0.00     0.206 A 
HETATM   12  N2  UNL     1       3.374  -1.671  -0.121  1.00  0.00    -0.168 N 
HETATM   13  C5  UNL     1       4.357  -1.215  -0.909  1.00  0.00     0.704 A 
ATOM     14  H2  UNL     1       2.688  -2.379  -0.382  1.00  0.00     0.186 HD
HETATM   15  N1  UNL     1       4.951  -1.382  -2.212  1.00  0.00    -0.156 N 
HETATM   16  N11 UNL     1       5.036  -0.300  -0.211  1.00  0.00    -0.103 N 
HETATM   17  C4  UNL     1       6.056  -0.495  -2.264  1.00  0.00     0.266 A 
ATOM     18  H1  UNL     1       4.638  -2.013  -2.950  1.00  0.00     0.187 HD
HETATM   19  C3  UNL     1       6.091   0.257  -1.003  1.00  0.00     0.273 A 
HETATM   20  O3  UNL     1       6.865  -0.380  -3.236  1.00  0.00    -0.270 OA
HETATM   21  N10 UNL     1       4.469  -0.200   1.002  1.00  0.00    -0.263 N 
ATOM     22  H10 UNL     1       4.778   0.421   1.750  1.00  0.00     0.189 HD
BRANCH  19  23
HETATM   23  C2  UNL     1       7.462   0.139  -0.364  1.00  0.00     0.290 C 
BRANCH  23  24
HETATM   24  O1  UNL     1       7.469   0.867   0.836  1.00  0.00    -0.364 OA
HETATM   25  C1  UNL     1       8.325   1.945   0.695  1.00  0.00     0.204 C 
ENDBRANCH  23  24
BRANCH  23  26
HETATM   26  O2  UNL     1       7.865  -1.159  -0.180  1.00  0.00    -0.369 OA
ATOM     27  H2  UNL     1       7.860  -1.652  -0.992  1.00  0.00     0.212 HD
ENDBRANCH  23  26
ENDBRANCH  19  23
ENDBRANCH   8  11
BRANCH   9  28
HETATM   28  O10 UNL     1       1.139   0.227  -0.042  1.00  0.00    -0.343 OA
ATOM     29  H10 UNL     1       0.706   0.702  -0.742  1.00  0.00     0.219 HD
ENDBRANCH   9  28
ENDBRANCH   1   2
BRANCH   1  30
HETATM   30  O5  UNL     1      -1.345   1.985   0.669  1.00  0.00    -0.388 OA
ATOM     31  H5  UNL     1      -1.961   2.454   0.119  1.00  0.00     0.210 HD
ENDBRANCH   1  30
BRANCH   1  32
HETATM   32  C10 UNL     1      -3.148   0.380   0.982  1.00  0.00     0.140 C 
BRANCH  32  33
HETATM   33  C11 UNL     1      -3.424  -1.034   0.823  1.00  0.00     0.040 A 
HETATM   34  C12 UNL     1      -3.234  -1.569  -0.452  1.00  0.00     0.044 A 
HETATM   35  C13 UNL     1      -3.480  -2.908  -0.677  1.00  0.00     0.108 A 
HETATM   36  N6  UNL     1      -3.903  -3.716   0.318  1.00  0.00    -0.202 N 
HETATM   37  C14 UNL     1      -4.085  -3.200   1.542  1.00  0.00     0.675 A 
ATOM     38  H6  UNL     1      -4.082  -4.705   0.141  1.00  0.00     0.183 HD
HETATM   39  N8  UNL     1      -3.844  -1.911   1.744  1.00  0.00    -0.195 N 
ATOM     40  H8  UNL     1      -3.992  -1.555   2.688  1.00  0.00     0.184 HD
BRANCH  37  41
HETATM   41  N7  UNL     1      -4.495  -3.967   2.525  1.00  0.00    -0.234 N 
ATOM     42  H72 UNL     1      -4.680  -4.958   2.370  1.00  0.00     0.174 HD
ATOM     43  H71 UNL     1      -4.633  -3.574   3.456  1.00  0.00     0.174 HD
ENDBRANCH  37  41
ENDBRANCH  32  33
BRANCH  32  44
HETATM   44  C15 UNL     1      -4.089   1.341   0.244  1.00  0.00     0.292 C 
BRANCH  44  45
HETATM   45  N9  UNL     1      -3.691   2.650   0.705  1.00  0.00    -0.041 N 
ATOM     46  H93 UNL     1      -3.697   2.756   1.719  1.00  0.00     0.278 HD
ATOM     47  H92 UNL     1      -2.700   2.855   0.577  1.00  0.00     0.278 HD
ATOM     48  H91 UNL     1      -4.317   3.289   0.214  1.00  0.00     0.278 HD
ENDBRANCH  44  45
BRANCH  44  49
HETATM   49  O6  UNL     1      -3.909   1.205  -1.121  1.00  0.00    -0.276 OA
BRANCH  49  50
HETATM   50  C16 UNL     1      -4.463   1.853  -2.181  1.00  0.00     0.257 C 
HETATM   51  C17 UNL     1      -4.111   1.519  -3.606  1.00  0.00     0.126 C 
HETATM   52  O7  UNL     1      -5.289   2.752  -1.965  1.00  0.00    -0.266 OA
ENDBRANCH  49  50
ENDBRANCH  44  49
BRANCH  44  53
HETATM   53  C18 UNL     1      -5.499   1.114   0.747  1.00  0.00     0.319 C 
BRANCH  53  54
HETATM   54  O8  UNL     1      -6.028  -0.110   0.334  1.00  0.00    -0.367 OA
ATOM     55  H8  UNL     1      -6.913  -0.252   0.650  1.00  0.00     0.212 HD
ENDBRANCH  53  54
BRANCH  53  56
HETATM   56  O9  UNL     1      -6.414   2.089   0.432  1.00  0.00    -0.367 OA
ATOM     57  H9  UNL     1      -7.299   1.947   0.748  1.00  0.00     0.212 HD
ENDBRANCH  53  56
ENDBRANCH  44  53
ENDBRANCH  32  44
ENDBRANCH   1  32
TORSDOF 17
