REMARK  16 active torsions:
REMARK  status: ('A' for Active; 'I' for Inactive)
REMARK    1  A    between atoms: C2_2  and  C3_3 
REMARK    2  A    between atoms: C3_3  and  C4_4 
REMARK    3  A    between atoms: C4_4  and  N1_5 
REMARK    4  A    between atoms: N1_5  and  C5_7 
REMARK    5  A    between atoms: C8_12  and  N3_13 
REMARK    6  A    between atoms: N3_13  and  C9_15 
REMARK    7  A    between atoms: C9_15  and  C10_16 
REMARK    8  A    between atoms: C10_16  and  C11_17 
REMARK    9  A    between atoms: C11_17  and  N4_18 
REMARK   10  A    between atoms: N5_21  and  C14_22 
REMARK   11  A    between atoms: C17_25  and  N6_26 
REMARK   12  A    between atoms: C18_29  and  N7_30 
REMARK   13  A    between atoms: N7_30  and  C20_32 
REMARK   14  A    between atoms: C20_32  and  C21_33 
REMARK   15  A    between atoms: C21_33  and  C22_34 
REMARK   16  A    between atoms: C22_34  and  N8_35 
ROOT
HETATM    1  N4  UNL     1       2.122  -2.215  -0.618  1.00  0.00     0.091 N 
HETATM    2  C12 UNL     1       1.047  -3.114  -0.379  1.00  0.00     0.292 C 
HETATM    3  C13 UNL     1      -0.242  -2.377  -0.203  1.00  0.00     0.153 C 
HETATM    4  N5  UNL     1      -0.343  -1.281  -1.133  1.00  0.00    -0.377 N 
HETATM    5  C30 UNL     1       0.583  -1.260  -2.261  1.00  0.00     0.153 C 
HETATM    6  C31 UNL     1       2.002  -1.374  -1.770  1.00  0.00     0.292 C 
ENDROOT
BRANCH   4   7
HETATM    7  C14 UNL     1      -1.284  -0.225  -1.038  1.00  0.00     0.038 A 
HETATM    8  C15 UNL     1      -0.781   1.015  -0.716  1.00  0.00     0.032 A 
HETATM    9  C16 UNL     1      -1.656   2.050  -0.608  1.00  0.00     0.041 A 
HETATM   10  C17 UNL     1      -3.059   1.889  -0.817  1.00  0.00     0.130 A 
HETATM   11  C18 UNL     1      -3.559   0.672  -1.131  1.00  0.00     0.071 A 
HETATM   12  C28 UNL     1      -2.628  -0.396  -1.240  1.00  0.00    -0.006 A 
HETATM   13  C29 UNL     1      -3.197  -1.722  -1.596  1.00  0.00     0.053 C 
BRANCH  10  14
HETATM   14  N6  UNL     1      -3.819   3.068  -0.746  1.00  0.00    -0.113 N 
HETATM   15  O1  UNL     1      -4.944   3.161  -0.346  1.00  0.00    -0.532 OA
HETATM   16  O2  UNL     1      -3.206   4.252  -1.173  1.00  0.00    -0.532 OA
ENDBRANCH  10  14
BRANCH  11  17
HETATM   17  N7  UNL     1      -4.927   0.372  -1.302  1.00  0.00    -0.383 N 
HETATM   18  C19 UNL     1      -5.517   0.694  -2.619  1.00  0.00     0.150 C 
BRANCH  17  19
HETATM   19  C20 UNL     1      -5.770  -0.356  -0.417  1.00  0.00     0.124 C 
BRANCH  19  20
HETATM   20  C21 UNL     1      -6.970   0.365   0.032  1.00  0.00     0.040 C 
BRANCH  20  21
HETATM   21  C22 UNL     1      -7.849  -0.486   0.953  1.00  0.00     0.127 C 
BRANCH  21  22
HETATM   22  N8  UNL     1      -9.017   0.292   1.355  1.00  0.00    -0.352 N 
HETATM   23  C23 UNL     1      -9.028   1.124   2.540  1.00  0.00     0.125 C 
HETATM   24  C24 UNL     1     -10.485   1.550   2.751  1.00  0.00     0.020 C 
HETATM   25  C25 UNL     1     -10.872   2.369   1.532  1.00  0.00     0.011 C 
HETATM   26  C26 UNL     1     -11.142   1.380   0.405  1.00  0.00     0.103 C 
HETATM   27  C27 UNL     1     -10.197   0.239   0.561  1.00  0.00     0.219 C 
HETATM   28  O3  UNL     1     -10.478  -0.842  -0.061  1.00  0.00    -0.273 OA
ENDBRANCH  21  22
ENDBRANCH  20  21
ENDBRANCH  19  20
ENDBRANCH  17  19
ENDBRANCH  11  17
ENDBRANCH   4   7
BRANCH   1  29
HETATM   29  C11 UNL     1       3.436  -2.758  -0.552  1.00  0.00     0.274 C 
BRANCH  29  30
HETATM   30  C10 UNL     1       3.914  -3.180   0.792  1.00  0.00     0.050 C 
BRANCH  30  31
HETATM   31  C9  UNL     1       3.931  -2.015   1.768  1.00  0.00     0.123 C 
BRANCH  31  32
HETATM   32  N3  UNL     1       4.758  -0.947   1.337  1.00  0.00    -0.376 N 
ATOM     33  H3  UNL     1       4.285  -0.169   0.878  1.00  0.00     0.161 HD
BRANCH  32  34
HETATM   34  C8  UNL     1       6.025  -0.844   1.455  1.00  0.00     0.118 A 
HETATM   35  C7  UNL     1       6.744  -1.843   2.060  1.00  0.00     0.066 A 
HETATM   36  C6  UNL     1       8.123  -1.759   2.179  1.00  0.00     0.110 A 
HETATM   37  N2  UNL     1       8.707  -0.644   1.666  1.00  0.00    -0.202 N 
HETATM   38  C5  UNL     1       7.992   0.322   1.079  1.00  0.00     0.679 A 
ATOM     39  H2  UNL     1       9.720  -0.541   1.731  1.00  0.00     0.183 HD
HETATM   40  N9  UNL     1       6.665   0.252   0.960  1.00  0.00    -0.177 N 
ATOM     41  H9  UNL     1       6.142   1.002   0.509  1.00  0.00     0.185 HD
BRANCH  38  42
HETATM   42  N1  UNL     1       8.575   1.386   0.576  1.00  0.00    -0.226 N 
ATOM     43  H1  UNL     1       8.024   2.119   0.129  1.00  0.00     0.177 HD
BRANCH  42  44
HETATM   44  C4  UNL     1      10.016   1.499   0.668  1.00  0.00     0.138 C 
BRANCH  44  45
HETATM   45  C3  UNL     1      10.438   2.876   0.151  1.00  0.00     0.020 C 
BRANCH  45  46
HETATM   46  C2  UNL     1      11.930   3.015   0.236  1.00  0.00    -0.003 C 
HETATM   47  C1  UNL     1      12.605   1.946  -0.604  1.00  0.00     0.005 C 
ENDBRANCH  45  46
ENDBRANCH  44  45
ENDBRANCH  42  44
ENDBRANCH  38  42
ENDBRANCH  32  34
ENDBRANCH  31  32
ENDBRANCH  30  31
ENDBRANCH  29  30
ENDBRANCH   1  29
TORSDOF 16
