REMARK  8 active torsions:
REMARK  status: ('A' for Active; 'I' for Inactive)
REMARK    1  A    between atoms: C3_3  and  C5_5 
REMARK       I    between atoms: C5_5  and  N1_7 
REMARK    2  A    between atoms: C11_16  and  C12_17 
REMARK       I    between atoms: C12_17  and  N3_19 
REMARK    3  A    between atoms: N3_19  and  C13_21 
REMARK    4  A    between atoms: C13_21  and  O5_26 
REMARK    5  A    between atoms: N4_22  and  O4_24 
REMARK    6  A    between atoms: O5_26  and  C14_27 
REMARK    7  A    between atoms: C14_27  and  C15_28 
REMARK    8  A    between atoms: C15_28  and  C16_29 
ROOT
HETATM    1  C5  UNL     1       5.759  -1.148   0.917  1.00  0.00     0.251 C 
HETATM    2  O1  UNL     1       5.917  -2.394   0.724  1.00  0.00    -0.268 OA
HETATM    3  N1  UNL     1       4.556  -0.729   1.499  1.00  0.00    -0.320 N 
ATOM      4  H1  UNL     1       4.479  -0.797   2.514  1.00  0.00     0.169 HD
HETATM    5  C6  UNL     1       3.549  -0.270   0.867  1.00  0.00     0.108 C 
HETATM    6  C7  UNL     1       3.322  -0.042  -0.576  1.00  0.00     0.274 C 
HETATM    7  O2  UNL     1       3.941   0.163  -1.627  1.00  0.00    -0.266 OA
HETATM    8  N2  UNL     1       1.934  -0.160  -0.278  1.00  0.00    -0.301 N 
HETATM    9  C8  UNL     1       0.580  -0.450  -0.650  1.00  0.00     0.029 C 
HETATM   10  C9  UNL     1       0.278  -0.953  -1.822  1.00  0.00    -0.005 C 
HETATM   11  C10 UNL     1       1.306  -1.256  -2.837  1.00  0.00     0.038 C 
HETATM   12  C11 UNL     1      -0.423  -0.142   0.396  1.00  0.00     0.150 C 
HETATM   13  C18 UNL     1       0.041  -0.838   1.622  1.00  0.00    -0.008 C 
HETATM   14  C19 UNL     1       1.309  -0.646   1.958  1.00  0.00     0.002 C 
HETATM   15  C20 UNL     1       2.199   0.239   1.116  1.00  0.00     0.171 C 
ENDROOT
BRANCH  12  16
HETATM   16  C12 UNL     1      -1.810  -0.423   0.052  1.00  0.00     0.238 C 
HETATM   17  O3  UNL     1      -2.383  -1.357   0.716  1.00  0.00    -0.272 OA
HETATM   18  N3  UNL     1      -2.556   0.250  -0.947  1.00  0.00    -0.290 N 
ATOM     19  H3  UNL     1      -2.112   0.996  -1.483  1.00  0.00     0.172 HD
BRANCH  18  20
HETATM   20  C13 UNL     1      -3.900  -0.088  -1.217  1.00  0.00     0.246 C 
HETATM   21  N4  UNL     1      -4.582   0.524  -2.126  1.00  0.00    -0.232 N 
ATOM     22  H4  UNL     1      -5.552   0.266  -2.306  1.00  0.00     0.198 HD
BRANCH  21  23
HETATM   23  O4  UNL     1      -3.976   1.539  -2.855  1.00  0.00    -0.287 OA
ATOM     24  H4  UNL     1      -4.478   1.989  -3.524  1.00  0.00     0.244 HD
ENDBRANCH  21  23
BRANCH  20  25
HETATM   25  O5  UNL     1      -4.578  -1.093  -0.529  1.00  0.00    -0.321 OA
BRANCH  25  26
HETATM   26  C14 UNL     1      -5.980  -1.067  -0.342  1.00  0.00     0.179 C 
BRANCH  26  27
HETATM   27  C15 UNL     1      -6.395   0.187   0.434  1.00  0.00     0.026 C 
BRANCH  27  28
HETATM   28  C16 UNL     1      -7.896   0.204   0.627  1.00  0.00    -0.002 C 
HETATM   29  C17 UNL     1      -8.288   1.448   1.394  1.00  0.00     0.005 C 
ENDBRANCH  27  28
ENDBRANCH  26  27
ENDBRANCH  25  26
ENDBRANCH  20  25
ENDBRANCH  18  20
ENDBRANCH  12  16
BRANCH   1  30
HETATM   30  C3  UNL     1       6.833  -0.252   0.522  1.00  0.00     0.002 C 
HETATM   31  C2  UNL     1       6.683   1.041   0.715  1.00  0.00    -0.019 C 
HETATM   32  C1  UNL     1       7.756   1.975   0.324  1.00  0.00     0.036 C 
HETATM   33  C4  UNL     1       8.085  -0.755  -0.090  1.00  0.00     0.054 C 
ENDBRANCH   1  30
TORSDOF 8
