REMARK  11 active torsions:
REMARK  status: ('A' for Active; 'I' for Inactive)
REMARK    1  A    between atoms: N1_1  and  C1_4 
REMARK    2  A    between atoms: C1_4  and  N2_5 
REMARK    3  A    between atoms: C1_4  and  C3_13 
REMARK    4  A    between atoms: N2_5  and  N3_7 
REMARK    5  A    between atoms: N3_7  and  C2_8 
REMARK    6  A    between atoms: C2_8  and  O1_9 
REMARK    7  A    between atoms: O1_9  and  N4_10 
REMARK       I    between atoms: N7_20  and  C5_22 
REMARK       I    between atoms: C5_22  and  N8_24 
REMARK    8  A    between atoms: N8_24  and  C6_26 
REMARK    9  A    between atoms: C7_27  and  N9_28 
REMARK   10  A    between atoms: N9_28  and  C8_30 
REMARK   11  A    between atoms: C8_30  and  C9_31 
ROOT
HETATM    1  C3  UNL     1       3.389   0.078  -0.043  1.00  0.00     0.148 A 
HETATM    2  N5  UNL     1       4.332   0.670  -0.797  1.00  0.00    -0.234 N 
ATOM      3  H5  UNL     1       5.336   0.655  -0.619  1.00  0.00     0.197 HD
HETATM    4  O4  UNL     1       3.742   1.266  -1.793  1.00  0.00    -0.155 OA
HETATM    5  N6  UNL     1       2.438   1.081  -1.713  1.00  0.00    -0.223 N 
ATOM      6  H6  UNL     1       1.747   1.444  -2.370  1.00  0.00     0.198 HD
HETATM    7  C4  UNL     1       2.165   0.332  -0.618  1.00  0.00     0.164 A 
HETATM    8  N7  UNL     1       1.046  -0.083  -0.159  1.00  0.00    -0.291 N 
ATOM      9  H7  UNL     1       1.015  -0.645   0.692  1.00  0.00     0.172 HD
HETATM   10  C5  UNL     1      -0.154   0.247  -0.846  1.00  0.00     0.326 C 
HETATM   11  O5  UNL     1      -0.581  -0.514  -1.780  1.00  0.00    -0.247 OA
HETATM   12  N8  UNL     1      -0.915   1.396  -0.543  1.00  0.00    -0.303 N 
ATOM     13  H8  UNL     1      -0.592   2.016   0.199  1.00  0.00     0.171 HD
ENDROOT
BRANCH   1  14
HETATM   14  C1  UNL     1       3.603  -0.704   1.177  1.00  0.00     0.157 C 
BRANCH  14  15
HETATM   15  N1  UNL     1       2.624  -1.218   1.806  1.00  0.00    -0.382 N 
ATOM     16  H12 UNL     1       2.773  -1.763   2.656  1.00  0.00     0.157 HD
ATOM     17  H11 UNL     1       1.673  -1.087   1.462  1.00  0.00     0.157 HD
ENDBRANCH  14  15
BRANCH  14  18
HETATM   18  N2  UNL     1       4.957  -0.890   1.666  1.00  0.00    -0.216 N 
ATOM     19  H2  UNL     1       5.189  -0.588   2.612  1.00  0.00     0.203 HD
BRANCH  18  20
HETATM   20  N3  UNL     1       5.876  -1.428   0.934  1.00  0.00    -0.310 NA
BRANCH  20  21
HETATM   21  C2  UNL     1       6.726  -1.891   0.269  1.00  0.00     0.382 C 
BRANCH  21  22
HETATM   22  O1  UNL     1       7.872  -1.172  -0.123  1.00  0.00    -0.157 OA
BRANCH  22  23
HETATM   23  N4  UNL     1       8.226  -0.021   0.538  1.00  0.00     0.012 N 
HETATM   24  O2  UNL     1       8.477  -0.081   1.761  1.00  0.00    -0.511 OA
HETATM   25  O3  UNL     1       8.312   1.190  -0.101  1.00  0.00    -0.511 OA
ENDBRANCH  22  23
ENDBRANCH  21  22
ENDBRANCH  20  21
ENDBRANCH  18  20
ENDBRANCH  14  18
ENDBRANCH   1  14
BRANCH  12  26
HETATM   26  C6  UNL     1      -2.110   1.721  -1.230  1.00  0.00     0.121 A 
HETATM   27  C7  UNL     1      -3.436   1.383  -0.976  1.00  0.00     0.114 A 
HETATM   28  C12 UNL     1      -3.811   2.098  -2.083  1.00  0.00     0.252 A 
HETATM   29  O6  UNL     1      -4.881   2.363  -2.661  1.00  0.00    -0.281 OA
HETATM   30  C13 UNL     1      -2.499   2.436  -2.339  1.00  0.00     0.253 A 
HETATM   31  O7  UNL     1      -1.858   3.102  -3.192  1.00  0.00    -0.281 OA
BRANCH  27  32
HETATM   32  N9  UNL     1      -4.177   0.638  -0.027  1.00  0.00    -0.384 N 
ATOM     33  H9  UNL     1      -4.525   1.112   0.807  1.00  0.00     0.159 HD
BRANCH  32  34
HETATM   34  C8  UNL     1      -4.455  -0.752  -0.195  1.00  0.00     0.124 C 
BRANCH  34  35
HETATM   35  C9  UNL     1      -5.234  -1.400   0.891  1.00  0.00     0.003 A 
HETATM   36  C10 UNL     1      -6.627  -0.857   1.191  1.00  0.00     0.007 A 
HETATM   37  C11 UNL     1      -5.523  -0.812   2.200  1.00  0.00     0.007 A 
ENDBRANCH  34  35
ENDBRANCH  32  34
ENDBRANCH  27  32
ENDBRANCH  12  26
TORSDOF 11
