REMARK  5 active torsions:
REMARK  status: ('A' for Active; 'I' for Inactive)
REMARK    1  A    between atoms: C2_2  and  C3_3 
REMARK    2  A    between atoms: C3_3  and  C4_4 
REMARK    3  A    between atoms: C4_4  and  C5_5 
REMARK    4  A    between atoms: C5_5  and  C6_6 
REMARK    5  A    between atoms: C6_6  and  N1_7 
REMARK       I    between atoms: N4_18  and  C15_19 
REMARK       I    between atoms: C15_19  and  N5_20 
REMARK       I    between atoms: C16_22  and  N7_24 
ROOT
HETATM    1  N1  UNL     1      -0.033   1.089  -0.065  1.00  0.00     0.033 N 
HETATM    2  C7  UNL     1      -0.005   2.137  -1.108  1.00  0.00     0.293 C 
HETATM    3  C8  UNL     1      -0.382   3.480  -0.650  1.00  0.00     0.267 C 
HETATM    4  N2  UNL     1      -1.124   3.499   0.592  1.00  0.00    -0.065 N 
HETATM    5  C9  UNL     1      -1.275   4.886   0.991  1.00  0.00     0.272 C 
HETATM    6  C10 UNL     1      -0.415   2.813   1.633  1.00  0.00     0.267 C 
HETATM    7  C11 UNL     1       0.512   1.743   1.112  1.00  0.00     0.293 C 
HETATM    8  C12 UNL     1      -2.435   2.995   0.312  1.00  0.00     0.279 C 
HETATM    9  C13 UNL     1      -2.570   1.554   0.042  1.00  0.00     0.266 C 
HETATM   10  C14 UNL     1      -3.041   1.238  -1.313  1.00  0.00     0.089 C 
HETATM   11  N3  UNL     1      -3.435   0.992  -2.383  1.00  0.00    -0.195 NA
HETATM   12  N4  UNL     1      -1.358   0.768   0.255  1.00  0.00    -0.018 N 
HETATM   13  C15 UNL     1      -1.676  -0.463   0.882  1.00  0.00     0.717 C 
HETATM   14  N5  UNL     1      -2.894  -1.120   0.615  1.00  0.00    -0.161 N 
ATOM     15  H5  UNL     1      -3.703  -0.755   1.117  1.00  0.00     0.187 HD
HETATM   16  C16 UNL     1      -3.132  -2.094  -0.154  1.00  0.00     0.202 C 
HETATM   17  N6  UNL     1      -4.469  -2.610  -0.274  1.00  0.00    -0.063 NA
HETATM   18  N7  UNL     1      -2.145  -2.729  -0.928  1.00  0.00    -0.368 N 
ATOM     19  H7  UNL     1      -1.547  -2.165  -1.532  1.00  0.00     0.161 HD
HETATM   20  C17 UNL     1      -1.957  -4.158  -0.889  1.00  0.00     0.148 C 
HETATM   21  N8  UNL     1      -0.868  -0.995   1.717  1.00  0.00    -0.124 N 
ATOM     22  H8  UNL     1       0.006  -0.509   1.916  1.00  0.00     0.197 HD
HETATM   23  C18 UNL     1      -1.114  -2.205   2.373  1.00  0.00     0.196 C 
HETATM   24  N9  UNL     1      -1.309  -3.203   2.928  1.00  0.00    -0.171 NA
ENDROOT
BRANCH   1  25
HETATM   25  C6  UNL     1       0.767   0.042  -0.571  1.00  0.00     0.266 C 
BRANCH  25  26
HETATM   26  C5  UNL     1       2.127  -0.093   0.058  1.00  0.00     0.030 C 
BRANCH  26  27
HETATM   27  C4  UNL     1       2.917  -1.236  -0.539  1.00  0.00     0.002 C 
BRANCH  27  28
HETATM   28  C3  UNL     1       4.272  -1.322   0.130  1.00  0.00    -0.000 C 
BRANCH  28  29
HETATM   29  C2  UNL     1       5.105  -2.440  -0.421  1.00  0.00    -0.005 C 
HETATM   30  C1  UNL     1       4.464  -3.790  -0.248  1.00  0.00     0.005 C 
ENDBRANCH  28  29
ENDBRANCH  27  28
ENDBRANCH  26  27
ENDBRANCH  25  26
ENDBRANCH   1  25
TORSDOF 5
