REMARK  7 active torsions:
REMARK  status: ('A' for Active; 'I' for Inactive)
REMARK       I    between atoms: N1_2  and  C2_4 
REMARK       I    between atoms: C2_4  and  N2_6 
REMARK    1  A    between atoms: N2_6  and  C3_7 
REMARK    2  A    between atoms: C8_12  and  C9_13 
REMARK    3  A    between atoms: C9_13  and  C10_14 
REMARK    4  A    between atoms: C10_14  and  C11_15 
REMARK    5  A    between atoms: C11_15  and  C12_17 
REMARK    6  A    between atoms: C12_17  and  N3_18 
REMARK    7  A    between atoms: C12_17  and  O2_22 
ROOT
HETATM    1  C1  UNL     1      -4.510   1.486  -2.417  1.00  0.00     0.151 C 
HETATM    2  N1  UNL     1      -3.337   1.485  -1.588  1.00  0.00    -0.341 N 
ATOM      3  H1  UNL     1      -2.578   2.137  -1.789  1.00  0.00     0.163 HD
HETATM    4  C2  UNL     1      -3.222   0.610  -0.518  1.00  0.00     0.415 C 
HETATM    5  O1  UNL     1      -4.196  -0.195  -0.296  1.00  0.00    -0.239 OA
HETATM    6  N2  UNL     1      -2.137   0.478   0.399  1.00  0.00     0.019 N 
HETATM    7  C6  UNL     1      -1.138   1.462   0.202  1.00  0.00     0.251 C 
HETATM    8  C7  UNL     1      -0.110   1.098  -0.843  1.00  0.00     0.040 C 
HETATM    9  C8  UNL     1       0.648  -0.145  -0.517  1.00  0.00    -0.007 C 
HETATM   10  C13 UNL     1       0.770  -1.096  -1.688  1.00  0.00     0.039 C 
HETATM   11  C14 UNL     1       0.999  -2.419  -0.967  1.00  0.00     0.238 C 
HETATM   12  N4  UNL     1       0.258  -2.347   0.268  1.00  0.00    -0.068 N 
HETATM   13  C15 UNL     1      -0.860  -3.267   0.152  1.00  0.00     0.272 C 
HETATM   14  C16 UNL     1       1.050  -2.841   1.407  1.00  0.00     0.272 C 
HETATM   15  C17 UNL     1      -0.148  -0.982   0.461  1.00  0.00     0.224 C 
HETATM   16  C18 UNL     1      -1.590  -0.865   0.146  1.00  0.00     0.284 C 
ENDROOT
BRANCH   9  17
HETATM   17  C9  UNL     1       2.009   0.088   0.043  1.00  0.00     0.013 C 
BRANCH  17  18
HETATM   18  C10 UNL     1       2.944   0.842  -0.846  1.00  0.00     0.021 C 
BRANCH  18  19
HETATM   19  C11 UNL     1       4.306   1.020  -0.168  1.00  0.00     0.114 C 
HETATM   20 BR1  UNL     1       4.170   1.987   1.478  1.00  0.00    -0.087 Br
BRANCH  19  21
HETATM   21  C12 UNL     1       5.297   1.670  -1.075  1.00  0.00     0.330 C 
BRANCH  21  22
HETATM   22  N3  UNL     1       6.546   1.795  -0.347  1.00  0.00    -0.052 N 
ATOM     23  H33 UNL     1       6.440   2.286   0.541  1.00  0.00     0.277 HD
ATOM     24  H32 UNL     1       6.876   0.906   0.029  1.00  0.00     0.277 HD
ATOM     25  H31 UNL     1       7.223   2.239  -0.967  1.00  0.00     0.277 HD
ENDBRANCH  21  22
BRANCH  21  26
HETATM   26  O2  UNL     1       5.497   0.987  -2.260  1.00  0.00    -0.369 OA
ATOM     27  H2  UNL     1       6.128   1.401  -2.837  1.00  0.00     0.212 HD
ENDBRANCH  21  26
ENDBRANCH  19  21
ENDBRANCH  18  19
ENDBRANCH  17  18
ENDBRANCH   9  17
BRANCH   6  28
HETATM   28  C3  UNL     1      -2.771   0.501   1.688  1.00  0.00     0.194 C 
HETATM   29  C4  UNL     1      -3.512   1.807   1.887  1.00  0.00     0.041 C 
HETATM   30  C5  UNL     1      -1.920   0.257   2.863  1.00  0.00     0.041 C 
ENDBRANCH   6  28
TORSDOF 7
