REMARK  9 active torsions:
REMARK  status: ('A' for Active; 'I' for Inactive)
REMARK    1  A    between atoms: O1_2  and  C2_3 
REMARK    2  A    between atoms: C4_5  and  C5_6 
REMARK    3  A    between atoms: N1_7  and  N2_9 
REMARK    4  A    between atoms: N2_9  and  C6_11 
REMARK    5  A    between atoms: C7_16  and  C8_17 
REMARK    6  A    between atoms: C13_24  and  O2_25 
REMARK    7  A    between atoms: O2_25  and  C14_26 
REMARK    8  A    between atoms: C14_26  and  C15_27 
REMARK    9  A    between atoms: C22_38  and  O4_39 
ROOT
HETATM    1  C6  UNL     1       1.422  -0.936   1.365  1.00  0.00     0.180 A 
HETATM    2  N3  UNL     1       0.428  -1.680   1.867  1.00  0.00    -0.278 N 
ATOM      3  H3  UNL     1       0.423  -1.950   2.851  1.00  0.00     0.189 HD
HETATM    4  N4  UNL     1      -0.505  -2.040   1.092  1.00  0.00    -0.291 N 
ATOM      5  H4  UNL     1      -1.267  -2.607   1.465  1.00  0.00     0.187 HD
HETATM    6  C7  UNL     1      -0.523  -1.707  -0.175  1.00  0.00     0.105 A 
HETATM    7  S1  UNL     1       0.943  -0.786  -0.269  1.00  0.00    -0.031 SA
ENDROOT
BRANCH   6   8
HETATM    8  C8  UNL     1      -1.437  -2.046  -1.268  1.00  0.00     0.036 A 
HETATM    9  C9  UNL     1      -0.993  -1.741  -2.561  1.00  0.00     0.020 A 
HETATM   10  C10 UNL     1      -1.727  -2.087  -3.686  1.00  0.00     0.046 A 
HETATM   11  C11 UNL     1      -2.924  -2.747  -3.534  1.00  0.00     0.157 A 
HETATM   12  F1  UNL     1      -3.688  -3.114  -4.613  1.00  0.00    -0.203 F 
HETATM   13  C12 UNL     1      -3.379  -3.053  -2.285  1.00  0.00     0.189 A 
HETATM   14  F2  UNL     1      -4.553  -3.701  -2.136  1.00  0.00    -0.200 F 
HETATM   15  C13 UNL     1      -2.614  -2.687  -1.154  1.00  0.00     0.123 A 
BRANCH  15  16
HETATM   16  O2  UNL     1      -3.144  -3.006   0.085  1.00  0.00    -0.344 OA
BRANCH  16  17
HETATM   17  C14 UNL     1      -4.183  -2.336   0.698  1.00  0.00     0.213 C 
BRANCH  17  18
HETATM   18  C15 UNL     1      -4.153  -0.913   1.018  1.00  0.00     0.217 C 
HETATM   19  O3  UNL     1      -3.249  -0.449   1.942  1.00  0.00    -0.378 OA
HETATM   20  C16 UNL     1      -3.239   0.942   1.869  1.00  0.00     0.168 C 
HETATM   21  C17 UNL     1      -4.423   1.464   2.650  1.00  0.00     0.032 C 
HETATM   22  C18 UNL     1      -5.454   0.388   2.736  1.00  0.00     0.084 C 
HETATM   23  C19 UNL     1      -5.544  -0.492   1.513  1.00  0.00     0.271 C 
HETATM   24  F3  UNL     1      -6.279   0.112   0.514  1.00  0.00    -0.203 F 
HETATM   25  F4  UNL     1      -6.281  -1.621   1.894  1.00  0.00    -0.203 F 
ENDBRANCH  17  18
ENDBRANCH  16  17
ENDBRANCH  15  16
ENDBRANCH   6   8
BRANCH   1  26
HETATM   26  N2  UNL     1       2.473  -0.468   2.002  1.00  0.00    -0.279 N 
ATOM     27  H2  UNL     1       2.645  -0.633   2.994  1.00  0.00     0.189 HD
BRANCH  26  28
HETATM   28  N1  UNL     1       3.343   0.286   1.179  1.00  0.00    -0.309 N 
HETATM   29  C5  UNL     1       3.879  -0.246   0.140  1.00  0.00     0.118 C 
ATOM     30  H1  UNL     1       3.546   1.258   1.412  1.00  0.00     0.186 HD
BRANCH  29  31
HETATM   31  C4  UNL     1       4.769   0.556  -0.687  1.00  0.00    -0.017 A 
HETATM   32  C3  UNL     1       5.032   1.883  -0.359  1.00  0.00     0.052 A 
HETATM   33  C2  UNL     1       5.866   2.679  -1.113  1.00  0.00     0.102 A 
HETATM   34  C22 UNL     1       6.473   2.164  -2.235  1.00  0.00     0.099 A 
HETATM   35  C21 UNL     1       6.217   0.846  -2.569  1.00  0.00     0.040 A 
HETATM   36  C20 UNL     1       5.384   0.054  -1.815  1.00  0.00     0.016 A 
BRANCH  33  37
HETATM   37  O1  UNL     1       6.103   3.998  -0.752  1.00  0.00    -0.353 OA
HETATM   38  C1  UNL     1       5.505   4.570   0.390  1.00  0.00     0.210 C 
ENDBRANCH  33  37
BRANCH  34  39
HETATM   39  O4  UNL     1       7.332   2.944  -3.031  1.00  0.00    -0.358 OA
ATOM     40  H4  UNL     1       7.751   2.588  -3.806  1.00  0.00     0.217 HD
ENDBRANCH  34  39
ENDBRANCH  29  31
ENDBRANCH  26  28
ENDBRANCH   1  26
TORSDOF 9
