REMARK  9 active torsions:
REMARK  status: ('A' for Active; 'I' for Inactive)
REMARK    1  A    between atoms: C2_2  and  N1_4 
REMARK    2  A    between atoms: N1_4  and  C4_6 
REMARK    3  A    between atoms: N2_11  and  C8_12 
REMARK    4  A    between atoms: C12_17  and  N3_18 
REMARK    5  A    between atoms: N3_18  and  O1_20 
REMARK    6  A    between atoms: N4_25  and  C15_26 
REMARK    7  A    between atoms: C15_26  and  O3_27 
REMARK    8  A    between atoms: C15_26  and  C16_29 
REMARK    9  A    between atoms: C16_29  and  C17_30 
ROOT
HETATM    1  C8  UNL     1       1.424  -1.042  -0.002  1.00  0.00     0.110 A 
HETATM    2  C9  UNL     1       1.575  -2.323  -0.457  1.00  0.00     0.147 A 
HETATM    3  F1  UNL     1       0.433  -3.028  -0.711  1.00  0.00    -0.204 F 
HETATM    4  C10 UNL     1       2.820  -2.863  -0.646  1.00  0.00     0.061 A 
HETATM    5  C11 UNL     1       3.966  -2.135  -0.386  1.00  0.00     0.026 A 
HETATM    6  C12 UNL     1       5.188  -2.723  -0.589  1.00  0.00     0.072 A 
HETATM    7  C13 UNL     1       6.297  -1.997  -0.326  1.00  0.00     0.107 A 
HETATM    8  C14 UNL     1       6.155  -0.717   0.126  1.00  0.00     0.256 A 
HETATM    9  O2  UNL     1       7.222  -0.039   0.376  1.00  0.00    -0.268 OA
HETATM   10  N4  UNL     1       4.954  -0.074   0.348  1.00  0.00    -0.258 N 
HETATM   11  C18 UNL     1       3.850  -0.819   0.082  1.00  0.00     0.098 A 
HETATM   12  C19 UNL     1       2.594  -0.307   0.262  1.00  0.00     0.174 A 
HETATM   13  F2  UNL     1       2.428   0.947   0.737  1.00  0.00    -0.201 F 
ENDROOT
BRANCH   1  14
HETATM   14  N2  UNL     1       0.164  -0.446   0.183  1.00  0.00    -0.376 N 
HETATM   15  C7  UNL     1      -0.486   0.307  -0.909  1.00  0.00     0.125 C 
HETATM   16  C6  UNL     1      -1.951  -0.149  -0.963  1.00  0.00     0.043 C 
HETATM   17  C5  UNL     1      -2.680   0.354   0.271  1.00  0.00     0.046 C 
HETATM   18  S1  UNL     1      -3.707   1.808  -0.038  1.00  0.00    -0.128 SA
HETATM   19  C21 UNL     1      -1.703   0.556   1.371  1.00  0.00     0.043 C 
HETATM   20  C22 UNL     1      -3.941  -0.428   0.591  1.00  0.00     0.221 C 
HETATM   21  C4  UNL     1      -4.652   0.767   1.121  1.00  0.00     0.176 C 
HETATM   22  C20 UNL     1      -0.614  -0.510   1.401  1.00  0.00     0.125 C 
HETATM   23  F3  UNL     1      -3.760  -1.365   1.605  1.00  0.00    -0.245 F 
BRANCH  21  24
HETATM   24  N1  UNL     1      -6.037   0.910   1.080  1.00  0.00    -0.403 N 
ATOM     25  H1  UNL     1      -6.529   0.958   1.972  1.00  0.00     0.154 HD
BRANCH  24  26
HETATM   26  C2  UNL     1      -6.800   0.992  -0.072  1.00  0.00     0.069 C 
HETATM   27  C1  UNL     1      -6.794  -0.266  -0.899  1.00  0.00     0.031 C 
HETATM   28  C3  UNL     1      -8.277   1.191   0.345  1.00  0.00     0.031 C 
ENDBRANCH  24  26
ENDBRANCH  21  24
ENDBRANCH   1  14
BRANCH  10  29
HETATM   29  C15 UNL     1       4.881   1.261   0.781  1.00  0.00     0.126 C 
BRANCH  29  30
HETATM   30  O3  UNL     1       4.490   1.560   2.095  1.00  0.00    -0.349 OA
ATOM     31  H3  UNL     1       4.441   2.462   2.388  1.00  0.00     0.219 HD
ENDBRANCH  29  30
BRANCH  29  32
HETATM   32  C16 UNL     1       4.902   2.386  -0.196  1.00  0.00     0.099 C 
BRANCH  32  33
HETATM   33  C17 UNL     1       6.161   2.476  -1.062  1.00  0.00     0.122 C 
HETATM   34 CL1  UNL     1       6.005   3.894  -2.168  1.00  0.00    -0.130 Cl
ENDBRANCH  32  33
ENDBRANCH  29  32
ENDBRANCH  10  29
BRANCH   6  35
HETATM   35  N3  UNL     1       5.228  -4.051  -1.063  1.00  0.00    -0.268 N 
ATOM     36  H3  UNL     1       5.482  -4.203  -2.039  1.00  0.00     0.194 HD
BRANCH  35  37
HETATM   37  O1  UNL     1       4.973  -5.045  -0.366  1.00  0.00    -0.289 OA
ATOM     38  H1  UNL     1       5.000  -5.939  -0.685  1.00  0.00     0.244 HD
ENDBRANCH  35  37
ENDBRANCH   6  35
TORSDOF 9
