REMARK  6 active torsions:
REMARK  status: ('A' for Active; 'I' for Inactive)
REMARK    1  A    between atoms: N1_1  and  C1_5 
REMARK    2  A    between atoms: C1_5  and  O1_6 
REMARK    3  A    between atoms: C1_5  and  C2_8 
REMARK    4  A    between atoms: C2_8  and  O2_9 
REMARK    5  A    between atoms: C2_8  and  N2_11 
REMARK       I    between atoms: N2_11  and  C3_13 
REMARK    6  A    between atoms: C3_13  and  C4_15 
ROOT
HETATM    1  N2  UNL     1       0.044   0.728   0.458  1.00  0.00    -0.302 N 
ATOM      2  H2  UNL     1       0.726   1.486   0.450  1.00  0.00     0.171 HD
HETATM    3  C3  UNL     1       0.562  -0.542   0.207  1.00  0.00     0.276 C 
HETATM    4  O3  UNL     1      -0.142  -1.562   0.185  1.00  0.00    -0.266 OA
ENDROOT
BRANCH   1   5
HETATM    5  C2  UNL     1      -1.262   1.110   0.717  1.00  0.00     0.176 C 
BRANCH   5   6
HETATM    6  C1  UNL     1      -2.528   0.438   0.831  1.00  0.00     0.392 C 
BRANCH   6   7
HETATM    7  N1  UNL     1      -3.445   1.079  -0.156  1.00  0.00    -0.045 N 
ATOM      8  H13 UNL     1      -3.271   0.778  -1.115  1.00  0.00     0.277 HD
ATOM      9  H12 UNL     1      -4.405   0.743  -0.084  1.00  0.00     0.277 HD
ATOM     10  H11 UNL     1      -3.366   2.089  -0.035  1.00  0.00     0.277 HD
ENDBRANCH   6   7
BRANCH   6  11
HETATM   11  O1  UNL     1      -2.633  -0.901   0.670  1.00  0.00    -0.364 OA
ATOM     12  H1  UNL     1      -2.049  -1.309   1.298  1.00  0.00     0.212 HD
ENDBRANCH   6  11
ENDBRANCH   5   6
BRANCH   5  13
HETATM   13  O2  UNL     1      -1.372   2.418   0.908  1.00  0.00    -0.346 OA
ATOM     14  H2  UNL     1      -0.536   2.862   0.833  1.00  0.00     0.219 HD
ENDBRANCH   5  13
ENDBRANCH   1   5
BRANCH   3  15
HETATM   15  C4  UNL     1       2.019  -0.751  -0.053  1.00  0.00     0.131 A 
HETATM   16  C5  UNL     1       2.655  -1.937  -0.312  1.00  0.00     0.141 A 
HETATM   17  N3  UNL     1       3.952  -1.636  -0.479  1.00  0.00    -0.293 N 
HETATM   18  N4  UNL     1       4.137  -0.332  -0.336  1.00  0.00    -0.022 NA
ATOM     19  H3  UNL     1       4.687  -2.312  -0.686  1.00  0.00     0.183 HD
HETATM   20  N5  UNL     1       2.952   0.227  -0.073  1.00  0.00    -0.278 N 
ATOM     21  H5  UNL     1       2.781   1.220   0.085  1.00  0.00     0.184 HD
ENDBRANCH   3  15
TORSDOF 6
