REMARK  9 active torsions:
REMARK  status: ('A' for Active; 'I' for Inactive)
REMARK    1  A    between atoms: C2_2  and  N1_3 
REMARK    2  A    between atoms: N1_3  and  C3_5 
REMARK    3  A    between atoms: C5_7  and  N2_8 
REMARK    4  A    between atoms: N2_8  and  C6_11 
REMARK    5  A    between atoms: C8_13  and  N3_14 
REMARK    6  A    between atoms: C9_18  and  N4_19 
REMARK    7  A    between atoms: N4_19  and  C10_21 
REMARK    8  A    between atoms: C10_21  and  C11_22 
REMARK    9  A    between atoms: C11_22  and  N5_23 
ROOT
HETATM    1  C6  UNL     1      -0.273  -0.715  -0.818  1.00  0.00     0.213 C 
HETATM    2  C7  UNL     1      -0.131  -1.582   0.410  1.00  0.00     0.070 C 
HETATM    3  C8  UNL     1      -1.251  -2.437  -0.128  1.00  0.00     0.210 C 
HETATM    4  C9  UNL     1      -1.645  -1.235  -0.991  1.00  0.00     0.141 C 
ENDROOT
BRANCH   1   5
HETATM    5  N2  UNL     1       0.010   0.667  -0.658  1.00  0.00    -0.062 N 
ATOM      6  H22 UNL     1      -0.570   1.082   0.071  1.00  0.00     0.278 HD
ATOM      7  H21 UNL     1      -0.323   1.209  -1.456  1.00  0.00     0.278 HD
BRANCH   5   8
HETATM    8  C5  UNL     1       1.405   0.902  -0.413  1.00  0.00     0.211 A 
HETATM    9  C3  UNL     1       2.110   0.452   0.779  1.00  0.00     0.113 A 
HETATM   10  C4  UNL     1       1.845   1.896   0.603  1.00  0.00     0.062 A 
BRANCH   9  11
HETATM   11  N1  UNL     1       3.341  -0.204   0.776  1.00  0.00    -0.396 N 
ATOM     12  H1  UNL     1       3.607  -0.691   1.632  1.00  0.00     0.159 HD
BRANCH  11  13
HETATM   13  C2  UNL     1       4.233  -0.256  -0.275  1.00  0.00     0.051 C 
HETATM   14  C1  UNL     1       4.970   1.017  -0.563  1.00  0.00     0.054 C 
ENDBRANCH  11  13
ENDBRANCH   9  11
ENDBRANCH   5   8
ENDBRANCH   1   5
BRANCH   4  15
HETATM   15  N4  UNL     1      -2.730  -0.543  -0.468  1.00  0.00    -0.392 N 
ATOM     16  H4  UNL     1      -3.266  -0.932   0.307  1.00  0.00     0.159 HD
BRANCH  15  17
HETATM   17  C10 UNL     1      -3.075   0.689  -1.017  1.00  0.00     0.083 C 
BRANCH  17  18
HETATM   18  C11 UNL     1      -4.268   1.343  -0.322  1.00  0.00     0.273 C 
BRANCH  18  19
HETATM   19  N5  UNL     1      -4.044   1.595   1.061  1.00  0.00    -0.075 N 
ATOM     20  H53 UNL     1      -3.766   0.741   1.545  1.00  0.00     0.274 HD
ATOM     21  H52 UNL     1      -3.198   2.148   1.196  1.00  0.00     0.274 HD
ATOM     22  H51 UNL     1      -4.841   2.032   1.525  1.00  0.00     0.274 HD
ENDBRANCH  18  19
ENDBRANCH  17  18
ENDBRANCH  15  17
ENDBRANCH   4  15
BRANCH   3  23
HETATM   23  N3  UNL     1      -2.265  -2.765   0.870  1.00  0.00    -0.073 N 
ATOM     24  H33 UNL     1      -1.839  -3.201   1.688  1.00  0.00     0.274 HD
ATOM     25  H32 UNL     1      -2.633  -1.918   1.302  1.00  0.00     0.274 HD
ATOM     26  H31 UNL     1      -3.022  -3.343   0.506  1.00  0.00     0.274 HD
ENDBRANCH   3  23
TORSDOF 9
