REMARK  4 active torsions:
REMARK  status: ('A' for Active; 'I' for Inactive)
REMARK    1  A    between atoms: C2_2  and  C4_4 
REMARK    2  A    between atoms: C4_4  and  C5_5 
REMARK    3  A    between atoms: C5_5  and  N1_6 
REMARK    4  A    between atoms: N1_6  and  C6_8 
ROOT
HETATM    1  C6  UNL     1      -0.896  -0.075  -0.718  1.00  0.00     0.086 C 
HETATM    2  C7  UNL     1      -1.225  -1.474  -1.183  1.00  0.00     0.105 C 
HETATM    3  S1  UNL     1      -3.020  -1.691  -1.428  1.00  0.00    -0.115 SA
HETATM    4  C8  UNL     1      -3.793  -0.816  -0.053  1.00  0.00     0.044 C 
HETATM    5  N2  UNL     1      -4.795  -1.301   0.524  1.00  0.00    -0.397 N 
ATOM      6  H21 UNL     1      -5.232  -0.806   1.302  1.00  0.00     0.156 HD
ATOM      7  H22 UNL     1      -5.235  -2.187   0.277  1.00  0.00     0.156 HD
HETATM    8  C9  UNL     1      -3.145   0.489   0.311  1.00  0.00     0.040 C 
HETATM    9  C10 UNL     1      -4.238   1.560   0.168  1.00  0.00     0.017 C 
HETATM   10  C11 UNL     1      -2.073   0.845  -0.649  1.00  0.00     0.036 C 
ENDROOT
BRANCH   1  11
HETATM   11  N1  UNL     1      -0.116  -0.099   0.466  1.00  0.00    -0.416 N 
ATOM     12  H1  UNL     1      -0.458   0.294   1.343  1.00  0.00     0.153 HD
BRANCH  11  13
HETATM   13  C5  UNL     1       1.181  -0.707   0.363  1.00  0.00     0.114 C 
BRANCH  13  14
HETATM   14  C4  UNL     1       2.084   0.136  -0.463  1.00  0.00     0.023 C 
BRANCH  14  15
HETATM   15  C2  UNL     1       3.493  -0.407  -0.603  1.00  0.00    -0.021 C 
HETATM   16  C1  UNL     1       4.225   0.609  -1.488  1.00  0.00     0.009 C 
HETATM   17  C3  UNL     1       4.213  -0.482   0.725  1.00  0.00     0.009 C 
ENDBRANCH  14  15
ENDBRANCH  13  14
ENDBRANCH  11  13
ENDBRANCH   1  11
TORSDOF 4
