REMARK  3 active torsions:
REMARK  status: ('A' for Active; 'I' for Inactive)
REMARK    1  A    between atoms: N1_2  and  C2_4 
REMARK    2  A    between atoms: C2_4  and  C3_5 
REMARK    3  A    between atoms: C3_5  and  C6_8 
ROOT
HETATM    1  C6  UNL     1      -0.641   0.652  -0.351  1.00  0.00     0.257 C 
HETATM    2  O1  UNL     1       0.167   0.933   0.739  1.00  0.00    -0.224 OA
HETATM    3  O2  UNL     1       1.205   0.203   0.900  1.00  0.00    -0.200 OA
HETATM    4  C7  UNL     1       2.035   0.004  -0.163  1.00  0.00     0.202 C 
HETATM    5  C8  UNL     1       3.092   1.077  -0.237  1.00  0.00     0.071 C 
HETATM    6  C9  UNL     1       4.398   0.485   0.179  1.00  0.00     0.006 C 
HETATM    7  C10 UNL     1       4.018  -0.765   0.950  1.00  0.00     0.006 C 
HETATM    8  C11 UNL     1       2.861  -1.252   0.136  1.00  0.00     0.071 C 
HETATM    9  O3  UNL     1       1.387  -0.242  -1.354  1.00  0.00    -0.297 OA
HETATM   10  C12 UNL     1       0.208   0.471  -1.541  1.00  0.00     0.318 C 
HETATM   11  F1  UNL     1      -0.408  -0.030  -2.656  1.00  0.00    -0.190 F 
HETATM   12 CL1  UNL     1       0.734   2.126  -2.049  1.00  0.00    -0.050 Cl
ENDROOT
BRANCH   1  13
HETATM   13  C3  UNL     1      -1.632  -0.400  -0.003  1.00  0.00     0.020 C 
HETATM   14  C4  UNL     1      -0.945  -1.648   0.581  1.00  0.00     0.023 C 
HETATM   15  C5  UNL     1      -2.494  -0.912  -1.088  1.00  0.00     0.023 C 
BRANCH  13  16
HETATM   16  C2  UNL     1      -2.473   0.121   1.130  1.00  0.00     0.066 C 
BRANCH  16  17
HETATM   17  N1  UNL     1      -3.250   1.268   0.909  1.00  0.00    -0.406 N 
HETATM   18  C1  UNL     1      -4.394   1.216   0.084  1.00  0.00     0.145 C 
ATOM     19  H1  UNL     1      -2.985   2.149   1.349  1.00  0.00     0.158 HD
ENDBRANCH  16  17
ENDBRANCH  13  16
ENDBRANCH   1  13
TORSDOF 3
