REMARK  6 active torsions:
REMARK  status: ('A' for Active; 'I' for Inactive)
REMARK    1  A    between atoms: C3_5  and  N2_6 
REMARK       I    between atoms: N2_6  and  C4_8 
REMARK    2  A    between atoms: C4_8  and  O2_10 
REMARK    3  A    between atoms: O2_10  and  C5_11 
REMARK    4  A    between atoms: C9_16  and  S2_17 
REMARK    5  A    between atoms: S2_17  and  C10_18 
REMARK    6  A    between atoms: C10_18  and  C11_19 
ROOT
HETATM    1  C1  UNL     1       3.134  -2.757  -0.876  1.00  0.00     0.070 C 
HETATM    2  C2  UNL     1       1.793  -2.031  -0.812  1.00  0.00     0.031 A 
HETATM    3  N1  UNL     1       0.648  -2.642  -0.695  1.00  0.00    -0.339 N 
ATOM      4  H1  UNL     1       0.604  -3.660  -0.641  1.00  0.00     0.168 HD
HETATM    5  C3  UNL     1      -0.465  -1.908  -0.648  1.00  0.00     0.154 A 
HETATM    6  S1  UNL     1       0.117  -0.312  -0.771  1.00  0.00    -0.045 SA
HETATM    7  C9  UNL     1       1.784  -0.663  -0.879  1.00  0.00     0.067 A 
ENDROOT
BRANCH   5   8
HETATM    8  N2  UNL     1      -1.704  -2.345  -0.533  1.00  0.00    -0.282 N 
HETATM    9  C4  UNL     1      -2.797  -1.464  -0.494  1.00  0.00     0.367 C 
HETATM   10  O1  UNL     1      -3.654  -1.557  -1.412  1.00  0.00    -0.238 OA
ATOM     11  H2  UNL     1      -1.873  -3.349  -0.471  1.00  0.00     0.173 HD
BRANCH   9  12
HETATM   12  O2  UNL     1      -3.031  -0.504   0.449  1.00  0.00    -0.294 OA
BRANCH  12  13
HETATM   13  C5  UNL     1      -4.115   0.373   0.492  1.00  0.00     0.061 C 
HETATM   14  C6  UNL     1      -3.993   1.272   1.696  1.00  0.00     0.046 C 
HETATM   15  C7  UNL     1      -5.457  -0.256   0.464  1.00  0.00     0.046 C 
HETATM   16  C8  UNL     1      -4.000   1.283  -0.737  1.00  0.00     0.046 C 
ENDBRANCH  12  13
ENDBRANCH   9  12
ENDBRANCH   5   8
BRANCH   7  17
HETATM   17  S2  UNL     1       3.186   0.470  -1.041  1.00  0.00    -0.116 SA
BRANCH  17  18
HETATM   18  C10 UNL     1       3.795   0.930   0.602  1.00  0.00     0.140 C 
BRANCH  18  19
HETATM   19  C11 UNL     1       4.962   1.874   0.404  1.00  0.00     0.184 C 
HETATM   20  C12 UNL     1       5.510   2.291   1.751  1.00  0.00     0.071 C 
HETATM   21  F1  UNL     1       4.502   2.972  -0.278  1.00  0.00    -0.225 F 
HETATM   22 CL1  UNL     1       6.269   1.038  -0.462  1.00  0.00    -0.082 Cl
ENDBRANCH  18  19
ENDBRANCH  17  18
ENDBRANCH   7  17
TORSDOF 6
