REMARK  2 active torsions:
REMARK  status: ('A' for Active; 'I' for Inactive)
REMARK    1  A    between atoms: N1_2  and  C1_4 
REMARK    2  A    between atoms: C2_5  and  C3_6 
ROOT
HETATM    1  C3  UNL     1      -0.996  -0.900   0.870  1.00  0.00     0.036 C 
HETATM    2  C4  UNL     1       0.149  -0.512   0.402  1.00  0.00     0.044 C 
HETATM    3  S1  UNL     1       1.636  -1.501   0.695  1.00  0.00    -0.085 SA
HETATM    4  C5  UNL     1       3.023  -0.488   0.209  1.00  0.00     0.032 A 
HETATM    5  C6  UNL     1       4.312  -0.942   0.518  1.00  0.00     0.021 A 
HETATM    6  C7  UNL     1       5.398  -0.233   0.101  1.00  0.00     0.002 A 
HETATM    7  C8  UNL     1       5.233   0.922  -0.618  1.00  0.00     0.002 A 
HETATM    8  C9  UNL     1       3.970   1.349  -0.907  1.00  0.00     0.031 A 
HETATM    9  C10 UNL     1       2.818   0.651  -0.498  1.00  0.00     0.050 A 
HETATM   10  N2  UNL     1       1.560   1.219  -0.797  1.00  0.00    -0.345 N 
ATOM     11  H2  UNL     1       1.542   2.077  -1.348  1.00  0.00     0.167 HD
HETATM   12  C11 UNL     1       0.322   0.673  -0.381  1.00  0.00     0.118 C 
HETATM   13  S2  UNL     1      -1.007   1.485  -0.932  1.00  0.00    -0.059 SA
ENDROOT
BRANCH   1  14
HETATM   14  C2  UNL     1      -2.313  -0.350   0.813  1.00  0.00     0.002 A 
HETATM   15  C1  UNL     1      -3.221  -0.975  -0.066  1.00  0.00     0.154 A 
HETATM   16  C15 UNL     1      -4.504  -0.469  -0.074  1.00  0.00     0.188 A 
HETATM   17  C14 UNL     1      -4.899   0.587   0.726  1.00  0.00     0.157 A 
HETATM   18  F2  UNL     1      -5.411  -1.054  -0.922  1.00  0.00    -0.200 F 
HETATM   19  C13 UNL     1      -4.020   1.209   1.594  1.00  0.00     0.046 A 
HETATM   20  F1  UNL     1      -6.177   1.050   0.682  1.00  0.00    -0.203 F 
HETATM   21  C12 UNL     1      -2.738   0.708   1.604  1.00  0.00     0.017 A 
BRANCH  15  22
HETATM   22  N1  UNL     1      -2.834  -2.062  -0.877  1.00  0.00    -0.112 N 
HETATM   23  O1  UNL     1      -2.650  -3.197  -0.394  1.00  0.00    -0.532 OA
HETATM   24  O2  UNL     1      -2.649  -1.910  -2.228  1.00  0.00    -0.532 OA
ENDBRANCH  15  22
ENDBRANCH   1  14
TORSDOF 2
