REMARK  3 active torsions:
REMARK  status: ('A' for Active; 'I' for Inactive)
REMARK    1  A    between atoms: C2_2  and  C3_3 
REMARK    2  A    between atoms: C4_6  and  N2_7 
REMARK    3  A    between atoms: N2_7  and  C5_9 
ROOT
HETATM    1  C3  UNL     1      -0.502   0.010   0.655  1.00  0.00     0.049 A 
HETATM    2  N1  UNL     1       0.652   0.401   0.086  1.00  0.00    -0.194 N 
ATOM      3  H1  UNL     1       0.778   1.386  -0.147  1.00  0.00     0.184 HD
HETATM    4  C4  UNL     1       1.650  -0.469  -0.187  1.00  0.00     0.687 A 
HETATM    5  N3  UNL     1       1.444  -1.761   0.136  1.00  0.00    -0.155 N 
ATOM      6  H3  UNL     1       2.182  -2.437  -0.060  1.00  0.00     0.187 HD
HETATM    7  C6  UNL     1       0.301  -2.198   0.709  1.00  0.00     0.279 A 
HETATM    8  O2  UNL     1       0.139  -3.420   1.000  1.00  0.00    -0.266 OA
HETATM    9  C7  UNL     1      -0.726  -1.316   0.992  1.00  0.00     0.102 A 
HETATM   10 BR1  UNL     1      -2.357  -1.879   1.803  1.00  0.00    -0.043 Br
ENDROOT
BRANCH   4  11
HETATM   11  N2  UNL     1       2.754  -0.131  -0.721  1.00  0.00    -0.167 N 
ATOM     12  H2  UNL     1       3.419  -0.890  -0.871  1.00  0.00     0.186 HD
BRANCH  11  13
HETATM   13  C5  UNL     1       3.183   1.128  -1.130  1.00  0.00     0.368 C 
HETATM   14  O1  UNL     1       3.421   1.468  -2.321  1.00  0.00    -0.283 OA
ENDBRANCH  11  13
ENDBRANCH   4  11
BRANCH   1  15
HETATM   15  C2  UNL     1      -1.595   0.999   0.935  1.00  0.00     0.055 C 
HETATM   16  C1  UNL     1      -2.699   0.880  -0.106  1.00  0.00     0.011 C 
ENDBRANCH   1  15
TORSDOF 3
