REMARK  12 active torsions:
REMARK  status: ('A' for Active; 'I' for Inactive)
REMARK    1  A    between atoms: C4_4  and  S1_5 
REMARK    2  A    between atoms: S1_5  and  C5_6 
REMARK    3  A    between atoms: C5_6  and  C6_7 
REMARK    4  A    between atoms: N2_11  and  C8_13 
REMARK    5  A    between atoms: C13_23  and  S2_24 
REMARK    6  A    between atoms: C15_30  and  N7_31 
REMARK    7  A    between atoms: N9_37  and  C17_38 
REMARK    8  A    between atoms: C17_38  and  C18_39 
REMARK    9  A    between atoms: C18_39  and  C19_40 
REMARK   10  A    between atoms: C19_40  and  C20_41 
REMARK   11  A    between atoms: C20_41  and  C21_42 
REMARK   12  A    between atoms: C21_42  and  O3_43 
ROOT
HETATM    1  C8  UNL     1      -4.958  -4.107  -0.250  1.00  0.00     0.129 C 
HETATM    2  C9  UNL     1      -4.540  -5.058  -1.316  1.00  0.00     0.055 C 
HETATM    3  C10 UNL     1      -6.374  -4.644   0.207  1.00  0.00     0.055 C 
HETATM    4  C11 UNL     1      -4.121  -4.341   0.988  1.00  0.00     0.090 C 
HETATM    5  N3  UNL     1      -3.472  -4.536   1.908  1.00  0.00    -0.195 NA
ENDROOT
BRANCH   1   6
HETATM    6  N2  UNL     1      -5.026  -2.769  -0.521  1.00  0.00    -0.205 N 
HETATM    7  C7  UNL     1      -4.421  -1.673  -0.469  1.00  0.00     0.681 A 
HETATM    8  N1  UNL     1      -3.171  -1.466  -0.018  1.00  0.00    -0.194 N 
HETATM    9  N4  UNL     1      -5.189  -0.531  -0.585  1.00  0.00    -0.176 N 
HETATM   10  C6  UNL     1      -2.600  -0.341   0.338  1.00  0.00     0.054 A 
ATOM     11  H1  UNL     1      -2.587  -2.299   0.057  1.00  0.00     0.184 HD
HETATM   12  C16 UNL     1      -3.364   0.831   0.250  1.00  0.00     0.076 A 
HETATM   13  C12 UNL     1      -4.702   0.645  -0.247  1.00  0.00     0.139 A 
HETATM   14  C15 UNL     1      -2.942   2.052   0.613  1.00  0.00     0.117 A 
HETATM   15  N5  UNL     1      -5.414   1.774  -0.291  1.00  0.00    -0.318 N 
HETATM   16  C13 UNL     1      -4.999   2.985   0.078  1.00  0.00     0.205 A 
ATOM     17  H5  UNL     1      -6.369   1.702  -0.641  1.00  0.00     0.169 HD
HETATM   18  N6  UNL     1      -3.707   3.208   0.559  1.00  0.00    -0.319 N 
ATOM     19  H6  UNL     1      -3.362   4.125   0.841  1.00  0.00     0.169 HD
ATOM     20  H4  UNL     1      -6.144  -0.599  -0.936  1.00  0.00     0.186 HD
ATOM     21  H2  UNL     1      -5.942  -2.590  -0.933  1.00  0.00     0.179 HD
BRANCH  10  22
HETATM   22  C5  UNL     1      -1.172  -0.175   0.811  1.00  0.00     0.139 C 
BRANCH  22  23
HETATM   23  S1  UNL     1      -0.014  -0.440  -0.525  1.00  0.00    -0.105 SA
BRANCH  23  24
HETATM   24  C4  UNL     1       1.590   0.123  -0.472  1.00  0.00     0.086 A 
HETATM   25  C3  UNL     1       2.213   0.718  -1.596  1.00  0.00     0.064 A 
HETATM   26  C2  UNL     1       3.497   0.972  -1.284  1.00  0.00     0.027 A 
HETATM   27  C1  UNL     1       4.516   1.582  -2.200  1.00  0.00     0.070 C 
HETATM   28  N9  UNL     1       3.677   0.546   0.012  1.00  0.00    -0.296 N 
HETATM   29  N8  UNL     1       2.565   0.074   0.428  1.00  0.00    -0.292 N 
ATOM     30  H8  UNL     1       2.438  -0.306   1.366  1.00  0.00     0.188 HD
BRANCH  28  31
HETATM   31  C17 UNL     1       4.976   0.690   0.565  1.00  0.00     0.148 C 
BRANCH  31  32
HETATM   32  C18 UNL     1       5.854  -0.542   0.290  1.00  0.00     0.022 C 
BRANCH  32  33
HETATM   33  C19 UNL     1       7.247  -0.130   0.641  1.00  0.00     0.004 C 
BRANCH  33  34
HETATM   34  C20 UNL     1       8.323  -1.149   0.451  1.00  0.00     0.026 C 
BRANCH  34  35
HETATM   35  C21 UNL     1       9.636  -0.383   0.748  1.00  0.00     0.164 C 
BRANCH  35  36
HETATM   36  O3  UNL     1       9.640   0.122   2.030  1.00  0.00    -0.401 OA
ATOM     37  H3  UNL     1      10.445   0.592   2.212  1.00  0.00     0.209 HD
ENDBRANCH  35  36
ENDBRANCH  34  35
ENDBRANCH  33  34
ENDBRANCH  32  33
ENDBRANCH  31  32
ENDBRANCH  28  31
ENDBRANCH  23  24
ENDBRANCH  22  23
ENDBRANCH  10  22
BRANCH  16  38
HETATM   38  S2  UNL     1      -6.088   4.321   0.098  1.00  0.00     0.203 S 
HETATM   39  C14 UNL     1      -5.429   5.825  -0.531  1.00  0.00     0.170 C 
HETATM   40  O1  UNL     1      -6.587   4.533   1.487  1.00  0.00    -0.220 OA
HETATM   41  O2  UNL     1      -7.295   3.963  -0.779  1.00  0.00    -0.220 OA
ENDBRANCH  16  38
BRANCH  14  42
HETATM   42  N7  UNL     1      -1.705   2.167   1.090  1.00  0.00    -0.385 N 
ATOM     43  H72 UNL     1      -1.384   3.095   1.366  1.00  0.00     0.157 HD
ATOM     44  H71 UNL     1      -1.143   1.317   1.130  1.00  0.00     0.157 HD
ENDBRANCH  14  42
ENDBRANCH   1   6
TORSDOF 12
