REMARK  12 active torsions:
REMARK  status: ('A' for Active; 'I' for Inactive)
REMARK    1  A    between atoms: C2_2  and  C3_3 
REMARK    2  A    between atoms: C3_3  and  C4_4 
REMARK    3  A    between atoms: C4_4  and  O1_5 
REMARK    4  A    between atoms: C4_4  and  C5_7 
REMARK    5  A    between atoms: C5_7  and  C6_8 
REMARK    6  A    between atoms: C5_7  and  S1_12 
REMARK    7  A    between atoms: S1_12  and  C10_15 
REMARK    8  A    between atoms: C11_18  and  C12_19 
REMARK    9  A    between atoms: C12_19  and  C13_21 
REMARK   10  A    between atoms: C13_21  and  S2_22 
REMARK   11  A    between atoms: S2_22  and  C14_23 
REMARK   12  A    between atoms: C17_28  and  O5_29 
ROOT
HETATM    1  C10 UNL     1      -1.347  -0.120   0.633  1.00  0.00     0.204 A 
HETATM    2  N1  UNL     1      -0.204  -0.304   1.319  1.00  0.00    -0.328 N 
ATOM      3  H1  UNL     1      -0.014   0.047   2.258  1.00  0.00     0.168 HD
HETATM    4  C11 UNL     1       0.642  -1.020   0.574  1.00  0.00     0.103 A 
HETATM    5  C21 UNL     1       0.006  -1.290  -0.615  1.00  0.00     0.038 A 
HETATM    6  C22 UNL     1       0.567  -2.070  -1.773  1.00  0.00     0.070 C 
HETATM    7  N6  UNL     1      -1.202  -0.721  -0.530  1.00  0.00    -0.335 N 
ATOM      8  H6  UNL     1      -1.911  -0.749  -1.263  1.00  0.00     0.168 HD
ENDROOT
BRANCH   4   9
HETATM    9  C12 UNL     1       2.001  -1.455   0.922  1.00  0.00     0.187 C 
HETATM   10  O4  UNL     1       2.645  -2.121   0.093  1.00  0.00    -0.290 OA
BRANCH   9  11
HETATM   11  C13 UNL     1       2.615  -1.120   2.230  1.00  0.00     0.166 C 
BRANCH  11  12
HETATM   12  S2  UNL     1       4.291  -1.712   2.370  1.00  0.00    -0.102 SA
BRANCH  12  13
HETATM   13  C14 UNL     1       5.382  -0.800   1.331  1.00  0.00     0.106 A 
HETATM   14  N2  UNL     1       6.666  -1.078   1.122  1.00  0.00    -0.334 N 
HETATM   15  C15 UNL     1       7.218  -0.183   0.308  1.00  0.00     0.126 A 
ATOM     16  H2  UNL     1       7.160  -1.871   1.531  1.00  0.00     0.168 HD
HETATM   17  C16 UNL     1       6.215   0.736  -0.028  1.00  0.00     0.088 A 
HETATM   18  N5  UNL     1       8.478  -0.106  -0.147  1.00  0.00    -0.333 N 
HETATM   19  C17 UNL     1       5.048   0.358   0.612  1.00  0.00     0.117 A 
HETATM   20  C18 UNL     1       6.589   1.765  -0.881  1.00  0.00     0.116 A 
HETATM   21  N3  UNL     1       5.768   2.634  -1.239  1.00  0.00    -0.385 N 
HETATM   22  N4  UNL     1       7.879   1.806  -1.320  1.00  0.00    -0.338 N 
ATOM     23  H32 UNL     1       4.803   2.603  -0.911  1.00  0.00     0.157 HD
ATOM     24  H31 UNL     1       6.043   3.390  -1.866  1.00  0.00     0.157 HD
HETATM   25  C19 UNL     1       8.772   0.907  -0.963  1.00  0.00     0.185 A 
ATOM     26  H4  UNL     1       8.162   2.559  -1.947  1.00  0.00     0.168 HD
HETATM   27  C20 UNL     1       9.454  -1.084   0.240  1.00  0.00     0.158 C 
BRANCH  19  28
HETATM   28  O5  UNL     1       3.842   0.962   0.568  1.00  0.00    -0.357 OA
ATOM     29  H5  UNL     1       3.616   1.746   0.081  1.00  0.00     0.217 HD
ENDBRANCH  19  28
ENDBRANCH  12  13
ENDBRANCH  11  12
ENDBRANCH   9  11
ENDBRANCH   4   9
BRANCH   1  30
HETATM   30  S1  UNL     1      -2.664   0.748   1.302  1.00  0.00     0.214 S 
HETATM   31  O2  UNL     1      -3.096   0.084   2.619  1.00  0.00    -0.219 OA
HETATM   32  O3  UNL     1      -2.187   2.126   1.803  1.00  0.00    -0.219 OA
BRANCH  30  33
HETATM   33  C5  UNL     1      -4.064   0.997   0.325  1.00  0.00     0.152 C 
BRANCH  33  34
HETATM   34  C4  UNL     1      -4.796  -0.257  -0.105  1.00  0.00     0.137 C 
BRANCH  34  35
HETATM   35  C3  UNL     1      -4.809  -1.335   0.953  1.00  0.00     0.033 C 
BRANCH  35  36
HETATM   36  C2  UNL     1      -5.521  -2.590   0.567  1.00  0.00    -0.002 C 
HETATM   37  C1  UNL     1      -6.972  -2.360   0.292  1.00  0.00     0.005 C 
ENDBRANCH  35  36
ENDBRANCH  34  35
BRANCH  34  38
HETATM   38  O1  UNL     1      -6.137   0.035  -0.385  1.00  0.00    -0.394 OA
ATOM     39  H1  UNL     1      -6.129   0.713  -1.050  1.00  0.00     0.210 HD
ENDBRANCH  34  38
ENDBRANCH  33  34
BRANCH  33  40
HETATM   40  C6  UNL     1      -4.029   2.045  -0.735  1.00  0.00    -0.032 C 
HETATM   41  C7  UNL     1      -3.271   3.260  -0.237  1.00  0.00     0.016 C 
HETATM   42  C8  UNL     1      -5.473   2.562  -0.917  1.00  0.00     0.016 C 
HETATM   43  C9  UNL     1      -3.568   1.672  -2.082  1.00  0.00     0.016 C 
ENDBRANCH  33  40
ENDBRANCH  30  33
ENDBRANCH   1  30
TORSDOF 12
