REMARK  3 active torsions:
REMARK  status: ('A' for Active; 'I' for Inactive)
REMARK    1  A    between atoms: C3_8  and  C4_9 
REMARK    2  A    between atoms: C4_9  and  N2_10 
REMARK    3  A    between atoms: N4_20  and  C11_21 
ROOT
HETATM    1  F1  UNL     1      -2.261   2.479   1.746  1.00  0.00    -0.149 F 
HETATM    2  C1  UNL     1      -2.967   1.743   0.813  1.00  0.00     0.615 C 
HETATM    3  F2  UNL     1      -4.231   1.613   1.206  1.00  0.00    -0.149 F 
HETATM    4  N1  UNL     1      -2.958   2.509  -0.434  1.00  0.00     0.021 N 
ATOM      5  H11 UNL     1      -3.185   3.497  -0.322  1.00  0.00     0.286 HD
ATOM      6  H12 UNL     1      -3.728   2.291  -1.066  1.00  0.00     0.286 HD
HETATM    7  C2  UNL     1      -1.655   2.261  -0.982  1.00  0.00     0.279 C 
HETATM    8  C3  UNL     1      -1.041   1.150  -0.106  1.00  0.00     0.287 C 
HETATM    9  N4  UNL     1      -2.220   0.606   0.455  1.00  0.00     0.204 N 
ENDROOT
BRANCH   8  10
HETATM   10  C4  UNL     1      -0.186   0.320  -0.941  1.00  0.00     0.310 C 
BRANCH  10  11
HETATM   11  N2  UNL     1       0.445  -0.763  -0.196  1.00  0.00     0.091 N 
HETATM   12  C5  UNL     1       1.181  -1.650  -1.075  1.00  0.00     0.273 C 
HETATM   13  C6  UNL     1       2.580  -1.792  -0.496  1.00  0.00     0.045 C 
HETATM   14  C7  UNL     1       2.705  -0.522   0.282  1.00  0.00     0.035 C 
HETATM   15  C8  UNL     1       3.858  -0.380   1.224  1.00  0.00     0.245 C 
HETATM   16  C9  UNL     1       3.323   0.642  -0.430  1.00  0.00     0.245 C 
HETATM   17  C10 UNL     1       1.326  -0.346   0.841  1.00  0.00     0.285 C 
HETATM   18  N3  UNL     1       4.617   0.193   0.111  1.00  0.00    -0.073 N 
ATOM     19  H32 UNL     1       5.383   0.848   0.271  1.00  0.00     0.277 HD
ATOM     20  H31 UNL     1       5.258  -0.375  -0.444  1.00  0.00     0.277 HD
ENDBRANCH  10  11
ENDBRANCH   8  10
BRANCH   9  21
HETATM   21  C11 UNL     1      -2.840  -0.444  -0.244  1.00  0.00     0.234 A 
HETATM   22  C12 UNL     1      -3.940  -1.288   0.146  1.00  0.00     0.038 A 
HETATM   23  C13 UNL     1      -2.543  -1.837   0.375  1.00  0.00     0.038 A 
ENDBRANCH   9  21
TORSDOF 3
