REMARK  3 active torsions:
REMARK  status: ('A' for Active; 'I' for Inactive)
REMARK    1  A    between atoms: N1_1  and  C1_5 
REMARK    2  A    between atoms: C1_5  and  C2_6 
REMARK    3  A    between atoms: C10_18  and  C11_19 
ROOT
HETATM    1  C2  UNL     1      -2.171  -1.076  -0.931  1.00  0.00     0.017 C 
HETATM    2  C3  UNL     1      -2.486   0.135  -1.790  1.00  0.00     0.007 C 
HETATM    3  C4  UNL     1      -1.128   0.870  -1.925  1.00  0.00     0.012 C 
HETATM    4  C5  UNL     1      -0.636   0.676  -0.569  1.00  0.00    -0.011 C 
HETATM    5  C6  UNL     1      -1.333   1.467   0.456  1.00  0.00     0.039 C 
HETATM    6  C7  UNL     1      -0.912   2.929   0.232  1.00  0.00     0.233 C 
HETATM    7  N2  UNL     1       0.424   3.031  -0.258  1.00  0.00    -0.073 N 
ATOM      8  H21 UNL     1       0.815   3.951  -0.057  1.00  0.00     0.277 HD
ATOM      9  H22 UNL     1       0.436   3.063  -1.277  1.00  0.00     0.277 HD
HETATM   10  C8  UNL     1       1.291   1.984   0.234  1.00  0.00     0.258 C 
HETATM   11  C9  UNL     1       0.834   0.633  -0.275  1.00  0.00     0.118 C 
HETATM   12  N3  UNL     1       0.875  -0.290   0.778  1.00  0.00    -0.386 N 
HETATM   13  C10 UNL     1       1.961  -0.610   1.518  1.00  0.00     0.063 C 
HETATM   14  C14 UNL     1      -0.331  -1.058   0.866  1.00  0.00     0.128 C 
HETATM   15  C15 UNL     1      -0.854  -0.846  -0.469  1.00  0.00     0.020 C 
ENDROOT
BRANCH   1  16
HETATM   16  C1  UNL     1      -3.264  -1.414   0.040  1.00  0.00     0.234 C 
BRANCH  16  17
HETATM   17  N1  UNL     1      -2.916  -2.585   0.843  1.00  0.00    -0.079 N 
ATOM     18  H13 UNL     1      -2.676  -3.384   0.256  1.00  0.00     0.274 HD
ATOM     19  H12 UNL     1      -2.020  -2.463   1.315  1.00  0.00     0.274 HD
ATOM     20  H11 UNL     1      -3.659  -2.815   1.503  1.00  0.00     0.274 HD
ENDBRANCH  16  17
ENDBRANCH   1  16
BRANCH  13  21
HETATM   21  C11 UNL     1       3.002  -1.369   0.728  1.00  0.00     0.024 A 
HETATM   22  C12 UNL     1       3.665  -0.828  -0.457  1.00  0.00     0.010 A 
HETATM   23  C13 UNL     1       4.443  -1.140   0.865  1.00  0.00     0.010 A 
ENDBRANCH  13  21
TORSDOF 3
