REMARK  6 active torsions:
REMARK  status: ('A' for Active; 'I' for Inactive)
REMARK    1  A    between atoms: C4_7  and  N1_8 
REMARK    2  A    between atoms: N1_8  and  C5_10 
REMARK    3  A    between atoms: N2_11  and  N3_13 
REMARK    4  A    between atoms: N3_13  and  C6_15 
REMARK    5  A    between atoms: C6_15  and  C7_16 
REMARK    6  A    between atoms: C7_16  and  N4_17 
ROOT
HETATM    1  C5  UNL     1       1.338   0.410  -0.186  1.00  0.00     0.197 C 
HETATM    2  N2  UNL     1       0.808   1.535  -0.478  1.00  0.00    -0.295 N 
ATOM      3  H2  UNL     1       1.135   2.059  -1.290  1.00  0.00     0.187 HD
ENDROOT
BRANCH   2   4
HETATM    4  N3  UNL     1      -0.216   2.044   0.313  1.00  0.00    -0.286 N 
ATOM      5  H3  UNL     1      -0.255   3.046   0.499  1.00  0.00     0.188 HD
BRANCH   4   6
HETATM    6  C6  UNL     1      -1.202   1.198   0.862  1.00  0.00     0.135 C 
HETATM    7  N5  UNL     1      -1.438   1.314   2.125  1.00  0.00    -0.285 N 
HETATM    8 CL1  UNL     1      -0.602   2.447   3.130  1.00  0.00     0.012 Cl
ATOM      9  H5  UNL     1      -2.146   0.714   2.548  1.00  0.00     0.181 HD
BRANCH   6  10
HETATM   10  C7  UNL     1      -1.885   0.233  -0.006  1.00  0.00     0.351 C 
BRANCH  10  11
HETATM   11  N4  UNL     1      -2.991  -0.462   0.628  1.00  0.00     0.098 N 
HETATM   12  C8  UNL     1      -3.498  -1.485  -0.273  1.00  0.00     0.276 C 
HETATM   13  C9  UNL     1      -4.968  -1.188  -0.485  1.00  0.00     0.069 C 
HETATM   14  C10 UNL     1      -4.918   0.343  -0.386  1.00  0.00     0.200 C 
HETATM   15  F4  UNL     1      -6.148   0.901  -0.237  1.00  0.00    -0.248 F 
HETATM   16  C11 UNL     1      -4.044   0.479   0.866  1.00  0.00     0.309 C 
ENDBRANCH  10  11
ENDBRANCH   6  10
ENDBRANCH   4   6
ENDBRANCH   2   4
BRANCH   1  17
HETATM   17  N1  UNL     1       2.384  -0.063  -1.034  1.00  0.00    -0.346 N 
ATOM     18  H1  UNL     1       2.168  -0.251  -2.013  1.00  0.00     0.167 HD
BRANCH  17  19
HETATM   19  C4  UNL     1       3.713  -0.285  -0.580  1.00  0.00     0.117 A 
HETATM   20  C3  UNL     1       4.653  -0.757  -1.486  1.00  0.00     0.188 A 
HETATM   21  C2  UNL     1       5.951  -0.983  -1.075  1.00  0.00     0.199 A 
HETATM   22  F3  UNL     1       4.247  -0.983  -2.766  1.00  0.00    -0.200 F 
HETATM   23  C1  UNL     1       6.376  -0.758   0.218  1.00  0.00     0.199 A 
HETATM   24  F2  UNL     1       6.845  -1.442  -1.976  1.00  0.00    -0.199 F 
HETATM   25  F1  UNL     1       7.651  -0.977   0.624  1.00  0.00    -0.199 F 
HETATM   26  C13 UNL     1       5.438  -0.289   1.113  1.00  0.00     0.199 A 
HETATM   27  C12 UNL     1       4.122  -0.056   0.712  1.00  0.00     0.188 A 
HETATM   28  F6  UNL     1       5.771  -0.036   2.418  1.00  0.00    -0.199 F 
HETATM   29  F5  UNL     1       3.216   0.405   1.600  1.00  0.00    -0.200 F 
ENDBRANCH  17  19
ENDBRANCH   1  17
TORSDOF 6
