REMARK  6 active torsions:
REMARK  status: ('A' for Active; 'I' for Inactive)
REMARK    1  A    between atoms: C2_3  and  C3_4 
REMARK    2  A    between atoms: C5_9  and  C6_10 
REMARK    3  A    between atoms: C6_10  and  C7_11 
REMARK    4  A    between atoms: C7_11  and  N3_12 
REMARK    5  A    between atoms: N3_12  and  C8_15 
REMARK    6  A    between atoms: C8_15  and  C9_16 
ROOT
HETATM    1  C3  UNL     1      -1.598  -0.370   0.608  1.00  0.00     0.294 C 
HETATM    2  N2  UNL     1      -0.841   0.870   0.930  1.00  0.00    -0.061 N 
ATOM      3  H21 UNL     1      -1.409   1.533   1.457  1.00  0.00     0.278 HD
ATOM      4  H22 UNL     1      -0.674   1.438   0.099  1.00  0.00     0.278 HD
HETATM    5  C4  UNL     1       0.372   0.557   1.608  1.00  0.00     0.238 C 
HETATM    6  C5  UNL     1       1.133  -0.497   0.835  1.00  0.00     0.020 C 
HETATM    7  C10 UNL     1       0.601  -0.683  -0.565  1.00  0.00     0.087 C 
HETATM    8  C11 UNL     1      -0.863  -0.974  -0.478  1.00  0.00     0.160 C 
HETATM    9  O1  UNL     1      -1.340  -1.686  -1.305  1.00  0.00    -0.296 OA
ENDROOT
BRANCH   1  10
HETATM   10  C2  UNL     1      -2.998   0.017   0.465  1.00  0.00     0.346 C 
HETATM   11  N1  UNL     1      -3.394   0.942  -0.525  1.00  0.00     0.176 N 
HETATM   12  C1  UNL     1      -3.359   0.589  -1.885  1.00  0.00     0.319 C 
HETATM   13  C14 UNL     1      -4.781   1.203  -0.074  1.00  0.00     0.512 C 
HETATM   14  C13 UNL     1      -5.306  -0.170   0.361  1.00  0.00     0.404 C 
HETATM   15  F6  UNL     1      -5.533   1.737  -1.079  1.00  0.00    -0.167 F 
HETATM   16  F7  UNL     1      -4.650   2.052   1.012  1.00  0.00    -0.167 F 
HETATM   17  C12 UNL     1      -4.054  -1.039   0.556  1.00  0.00     0.349 C 
HETATM   18  F4  UNL     1      -5.951   0.014   1.564  1.00  0.00    -0.190 F 
HETATM   19  F5  UNL     1      -6.147  -0.698  -0.566  1.00  0.00    -0.190 F 
HETATM   20  F2  UNL     1      -4.148  -1.596   1.814  1.00  0.00    -0.197 F 
HETATM   21  F3  UNL     1      -4.040  -2.026  -0.353  1.00  0.00    -0.197 F 
ENDBRANCH   1  10
BRANCH   6  22
HETATM   22  C6  UNL     1       2.590  -0.131   0.762  1.00  0.00     0.034 C 
BRANCH  22  23
HETATM   23  C7  UNL     1       3.391  -1.136   0.018  1.00  0.00     0.232 C 
BRANCH  23  24
HETATM   24  N3  UNL     1       4.806  -0.780  -0.007  1.00  0.00    -0.073 N 
ATOM     25  H32 UNL     1       5.191  -0.661   0.930  1.00  0.00     0.277 HD
ATOM     26  H31 UNL     1       5.395  -1.556  -0.308  1.00  0.00     0.277 HD
BRANCH  24  27
HETATM   27  C8  UNL     1       4.986   0.383  -0.818  1.00  0.00     0.263 C 
BRANCH  27  28
HETATM   28  C9  UNL     1       6.481   0.696  -0.802  1.00  0.00     0.249 C 
HETATM   29  F1  UNL     1       6.700   1.808  -1.572  1.00  0.00    -0.254 F 
ENDBRANCH  27  28
ENDBRANCH  24  27
ENDBRANCH  23  24
ENDBRANCH  22  23
ENDBRANCH   6  22
TORSDOF 6
