REMARK  4 active torsions:
REMARK  status: ('A' for Active; 'I' for Inactive)
REMARK    1  A    between atoms: C2_2  and  C5_5 
REMARK    2  A    between atoms: C5_5  and  C6_6 
REMARK    3  A    between atoms: C6_6  and  C7_7 
REMARK    4  A    between atoms: C9_9  and  O1_10 
ROOT
HETATM    1  C7  UNL     1       0.245  -0.080   0.346  1.00  0.00    -0.012 C 
HETATM    2  C8  UNL     1       0.721  -1.429  -0.128  1.00  0.00     0.036 C 
HETATM    3  C9  UNL     1       2.187  -1.649  -0.003  1.00  0.00     0.119 C 
HETATM    4  C10 UNL     1       2.984  -0.545  -0.652  1.00  0.00     0.040 C 
HETATM    5  C11 UNL     1       2.560   0.822  -0.190  1.00  0.00    -0.045 C 
HETATM    6  C12 UNL     1       2.475   1.785  -1.364  1.00  0.00     0.015 C 
HETATM    7  C13 UNL     1       3.741   1.347   0.650  1.00  0.00     0.015 C 
HETATM    8  C14 UNL     1       1.384   0.842   0.704  1.00  0.00     0.013 C 
ENDROOT
BRANCH   1   9
HETATM    9  C6  UNL     1      -0.631   0.617  -0.634  1.00  0.00     0.005 C 
BRANCH   9  10
HETATM   10  C5  UNL     1      -1.894  -0.002  -1.050  1.00  0.00     0.008 C 
BRANCH  10  11
HETATM   11  C2  UNL     1      -2.979  -0.234  -0.068  1.00  0.00    -0.051 C 
HETATM   12  C1  UNL     1      -4.136  -0.867  -0.905  1.00  0.00     0.014 C 
HETATM   13  C3  UNL     1      -2.751  -1.179   1.050  1.00  0.00     0.014 C 
HETATM   14  C4  UNL     1      -3.551   1.093   0.398  1.00  0.00     0.014 C 
ENDBRANCH  10  11
ENDBRANCH   9  10
ENDBRANCH   1   9
BRANCH   3  15
HETATM   15  O1  UNL     1       2.586  -1.827   1.316  1.00  0.00    -0.396 OA
ATOM     16  H1  UNL     1       3.522  -1.967   1.396  1.00  0.00     0.210 HD
ENDBRANCH   3  15
TORSDOF 4
