REMARK  10 active torsions:
REMARK  status: ('A' for Active; 'I' for Inactive)
REMARK    1  A    between atoms: O1_2  and  C2_3 
REMARK    2  A    between atoms: C2_3  and  C3_4 
REMARK    3  A    between atoms: C3_4  and  C4_5 
REMARK    4  A    between atoms: C3_4  and  C7_9 
REMARK    5  A    between atoms: C4_5  and  O2_7 
REMARK    6  A    between atoms: C9_11  and  C10_12 
REMARK    7  A    between atoms: C10_12  and  C11_14 
REMARK    8  A    between atoms: C11_14  and  O4_15 
REMARK    9  A    between atoms: C14_19  and  O5_20 
REMARK   10  A    between atoms: C19_27  and  O7_29 
ROOT
HETATM    1  C7  UNL     1       0.213   0.364  -0.540  1.00  0.00     0.008 C 
HETATM    2  C8  UNL     1       0.207   1.432  -1.654  1.00  0.00     0.020 C 
HETATM    3  C9  UNL     1      -0.767   0.891   0.491  1.00  0.00     0.104 C 
HETATM    4  C12 UNL     1      -1.999   0.069   0.460  1.00  0.00     0.085 C 
HETATM    5  C13 UNL     1      -2.127  -0.931   1.570  1.00  0.00     0.077 C 
HETATM    6  C14 UNL     1      -3.593  -0.768   2.033  1.00  0.00     0.186 C 
HETATM    7  C15 UNL     1      -4.082  -0.379   0.674  1.00  0.00     0.218 A 
HETATM    8  O6  UNL     1      -5.047  -0.820  -0.073  1.00  0.00    -0.340 OA
HETATM    9  C16 UNL     1      -3.944  -1.578  -0.227  1.00  0.00     0.191 A 
HETATM   10  C17 UNL     1      -2.918  -1.481  -1.275  1.00  0.00     0.048 C 
HETATM   11  C18 UNL     1      -1.903  -0.501  -0.914  1.00  0.00     0.059 C 
HETATM   12  C19 UNL     1      -0.439  -0.848  -1.099  1.00  0.00     0.069 C 
HETATM   13  C20 UNL     1      -0.372  -1.141  -2.551  1.00  0.00     0.047 C 
HETATM   14  O8  UNL     1      -3.228   0.674   0.439  1.00  0.00    -0.338 OA
ENDROOT
BRANCH   1  15
HETATM   15  C3  UNL     1       1.633   0.295  -0.110  1.00  0.00     0.050 C 
BRANCH  15  16
HETATM   16  C2  UNL     1       2.526  -0.084  -1.272  1.00  0.00     0.175 C 
BRANCH  16  17
HETATM   17  O1  UNL     1       3.858   0.290  -1.149  1.00  0.00    -0.395 OA
HETATM   18  C1  UNL     1       4.645  -0.060  -2.204  1.00  0.00     0.201 C 
ENDBRANCH  16  17
ENDBRANCH  15  16
BRANCH  15  19
HETATM   19  C4  UNL     1       2.139  -0.350   1.073  1.00  0.00     0.123 C 
HETATM   20  C5  UNL     1       3.582   0.162   1.351  1.00  0.00     0.040 C 
BRANCH  19  21
HETATM   21  O2  UNL     1       1.579  -0.316   2.290  1.00  0.00    -0.391 OA
HETATM   22  C6  UNL     1       1.506  -1.533   2.892  1.00  0.00     0.202 C 
ENDBRANCH  19  21
ENDBRANCH  15  19
ENDBRANCH   1  15
BRANCH   3  23
HETATM   23  C10 UNL     1      -1.111   2.325   0.403  1.00  0.00     0.158 C 
HETATM   24  O3  UNL     1      -2.253   2.707   0.080  1.00  0.00    -0.295 OA
BRANCH  23  25
HETATM   25  C11 UNL     1      -0.192   3.464   0.674  1.00  0.00     0.242 C 
BRANCH  25  26
HETATM   26  O4  UNL     1      -0.847   4.706   0.521  1.00  0.00    -0.394 OA
ATOM     27  H4  UNL     1      -0.260   5.433   0.694  1.00  0.00     0.209 HD
ENDBRANCH  25  26
ENDBRANCH  23  25
ENDBRANCH   3  23
BRANCH  12  28
HETATM   28  O7  UNL     1      -0.102  -1.989  -0.340  1.00  0.00    -0.389 OA
ATOM     29  H7  UNL     1      -0.519  -2.764  -0.698  1.00  0.00     0.210 HD
ENDBRANCH  12  28
BRANCH   6  30
HETATM   30  O5  UNL     1      -3.723   0.268   2.932  1.00  0.00    -0.390 OA
ATOM     31  H5  UNL     1      -4.624   0.368   3.217  1.00  0.00     0.210 HD
ENDBRANCH   6  30
TORSDOF 10
