REMARK  11 active torsions:
REMARK  status: ('A' for Active; 'I' for Inactive)
REMARK    1  A    between atoms: C3_3  and  N1_4 
REMARK    2  A    between atoms: N1_4  and  C4_6 
REMARK    3  A    between atoms: C4_6  and  C5_7 
REMARK    4  A    between atoms: C13_19  and  C14_20 
REMARK    5  A    between atoms: C14_20  and  C15_21 
REMARK    6  A    between atoms: C15_21  and  C16_22 
REMARK    7  A    between atoms: C16_22  and  C17_23 
REMARK    8  A    between atoms: C17_23  and  C18_24 
REMARK       I    between atoms: C18_24  and  N3_26 
REMARK    9  A    between atoms: N3_26  and  C19_28 
REMARK   10  A    between atoms: C19_28  and  C20_29 
REMARK   11  A    between atoms: C20_29  and  N4_30 
ROOT
HETATM    1  C1  UNL     1      -5.352   1.038   1.660  1.00  0.00     0.015 C 
HETATM    2  C2  UNL     1      -4.351   1.209   0.528  1.00  0.00     0.039 C 
HETATM    3  C3  UNL     1      -5.042   1.173  -0.756  1.00  0.00     0.227 C 
HETATM    4  O1  UNL     1      -4.449   0.606  -1.863  1.00  0.00    -0.335 OA
HETATM    5  C9  UNL     1      -3.158   1.049  -2.192  1.00  0.00     0.286 C 
HETATM    6  O2  UNL     1      -3.308   2.420  -1.820  1.00  0.00    -0.306 OA
HETATM    7  C10 UNL     1      -2.128   2.122  -1.088  1.00  0.00     0.134 C 
HETATM    8  N2  UNL     1      -1.788   2.918  -0.017  1.00  0.00    -0.349 N 
ATOM      9  H2  UNL     1      -1.566   3.901  -0.173  1.00  0.00     0.167 HD
HETATM   10  C11 UNL     1      -1.743   2.397   1.285  1.00  0.00     0.093 C 
HETATM   11  C12 UNL     1      -1.860   0.920   1.211  1.00  0.00    -0.056 C 
HETATM   12  C13 UNL     1      -0.657   0.263   0.489  1.00  0.00     0.017 C 
HETATM   13  C25 UNL     1      -0.795   0.334  -1.049  1.00  0.00     0.032 C 
HETATM   14  C26 UNL     1      -2.215   0.709  -1.209  1.00  0.00     0.076 C 
HETATM   15  C27 UNL     1      -2.843  -0.355  -0.421  1.00  0.00     0.032 C 
HETATM   16  C28 UNL     1      -3.190   0.358   0.858  1.00  0.00     0.025 C 
ENDROOT
BRANCH  12  17
HETATM   17  C14 UNL     1       0.563   0.986   0.893  1.00  0.00     0.009 C 
BRANCH  17  18
HETATM   18  C15 UNL     1       1.800   0.366   0.263  1.00  0.00     0.001 C 
BRANCH  18  19
HETATM   19  C16 UNL     1       1.983  -1.063   0.668  1.00  0.00     0.009 C 
BRANCH  19  20
HETATM   20  C17 UNL     1       3.259  -1.614   0.085  1.00  0.00     0.103 C 
BRANCH  20  21
HETATM   21  C18 UNL     1       4.481  -0.967   0.556  1.00  0.00     0.217 C 
HETATM   22  O3  UNL     1       4.501  -0.101   1.459  1.00  0.00    -0.274 OA
HETATM   23  N3  UNL     1       5.746  -1.323  -0.033  1.00  0.00    -0.359 N 
ATOM     24  H3  UNL     1       5.800  -2.022  -0.774  1.00  0.00     0.162 HD
BRANCH  23  25
HETATM   25  C19 UNL     1       6.924  -0.671   0.448  1.00  0.00     0.142 C 
BRANCH  25  26
HETATM   26  C20 UNL     1       8.129  -1.207  -0.301  1.00  0.00     0.146 C 
BRANCH  26  27
HETATM   27  N4  UNL     1       9.343  -0.620   0.117  1.00  0.00    -0.368 N 
HETATM   28  C21 UNL     1       9.593   0.726  -0.168  1.00  0.00     0.089 C 
HETATM   29  C22 UNL     1      10.555   0.968  -1.317  1.00  0.00     0.212 C 
HETATM   30  O4  UNL     1      11.736   0.321  -0.972  1.00  0.00    -0.381 OA
HETATM   31  C23 UNL     1      11.563  -1.045  -0.860  1.00  0.00     0.212 C 
HETATM   32  C24 UNL     1      10.449  -1.476   0.029  1.00  0.00     0.089 C 
ENDBRANCH  26  27
ENDBRANCH  25  26
ENDBRANCH  23  25
ENDBRANCH  20  21
ENDBRANCH  19  20
ENDBRANCH  18  19
ENDBRANCH  17  18
ENDBRANCH  12  17
BRANCH   3  33
HETATM   33  N1  UNL     1      -6.383   0.664  -0.789  1.00  0.00    -0.376 N 
ATOM     34  H1  UNL     1      -7.151   1.299  -1.007  1.00  0.00     0.161 HD
BRANCH  33  35
HETATM   35  C4  UNL     1      -6.660  -0.675  -0.531  1.00  0.00     0.066 C 
BRANCH  35  36
HETATM   36  C5  UNL     1      -8.135  -1.037  -0.592  1.00  0.00    -0.020 C 
HETATM   37  C6  UNL     1      -8.958  -0.268   0.416  1.00  0.00     0.020 C 
HETATM   38  C7  UNL     1      -8.208  -2.502  -0.214  1.00  0.00     0.020 C 
HETATM   39  C8  UNL     1      -8.706  -0.910  -1.985  1.00  0.00     0.020 C 
ENDBRANCH  35  36
ENDBRANCH  33  35
ENDBRANCH   3  33
TORSDOF 11
