REMARK  8 active torsions:
REMARK  status: ('A' for Active; 'I' for Inactive)
REMARK    1  A    between atoms: C2_5  and  O2_6 
REMARK    2  A    between atoms: C3_8  and  C4_9 
REMARK    3  A    between atoms: C4_9  and  C5_10 
REMARK    4  A    between atoms: C7_15  and  N4_16 
REMARK    5  A    between atoms: N4_16  and  C8_18 
REMARK    6  A    between atoms: C11_23  and  N6_24 
REMARK    7  A    between atoms: N6_24  and  C12_26 
REMARK    8  A    between atoms: C12_26  and  C13_27 
ROOT
HETATM    1  C5  UNL     1       2.158  -0.400   0.117  1.00  0.00     0.030 A 
HETATM    2  C6  UNL     1       2.235  -1.766   0.281  1.00  0.00     0.123 A 
HETATM    3  N2  UNL     1       0.968  -2.243   0.391  1.00  0.00    -0.288 N 
ATOM      4  H2  UNL     1       0.721  -3.224   0.521  1.00  0.00     0.187 HD
HETATM    5  N3  UNL     1       0.099  -1.245   0.304  1.00  0.00    -0.068 N 
HETATM    6  C7  UNL     1      -1.244  -1.217   0.355  1.00  0.00     0.716 A 
HETATM    7  N5  UNL     1      -1.859  -0.027   0.234  1.00  0.00    -0.021 N 
ATOM      8  H5  UNL     1      -2.878   0.011   0.271  1.00  0.00     0.203 HD
HETATM    9  C11 UNL     1      -1.168   1.115   0.066  1.00  0.00     0.694 A 
HETATM   10  N7  UNL     1       0.176   1.088   0.015  1.00  0.00    -0.173 N 
ATOM     11  H7  UNL     1       0.707   1.950  -0.112  1.00  0.00     0.186 HD
HETATM   12  C14 UNL     1       0.813  -0.101   0.135  1.00  0.00     0.172 A 
ENDROOT
BRANCH   1  13
HETATM   13  C4  UNL     1       3.157   0.442  -0.027  1.00  0.00     0.051 C 
BRANCH  13  14
HETATM   14  C3  UNL     1       4.544   0.004  -0.030  1.00  0.00     0.088 A 
HETATM   15  C2  UNL     1       5.489   0.318  -0.986  1.00  0.00     0.171 A 
HETATM   16  N1  UNL     1       6.669  -0.261  -0.666  1.00  0.00    -0.287 N 
HETATM   17  C1  UNL     1       6.451  -0.930   0.486  1.00  0.00     0.326 A 
ATOM     18  H1  UNL     1       7.544  -0.204  -1.188  1.00  0.00     0.172 HD
HETATM   19  O1  UNL     1       7.337  -1.604   1.098  1.00  0.00    -0.247 OA
HETATM   20  N8  UNL     1       5.170  -0.773   0.873  1.00  0.00    -0.305 N 
ATOM     21  H8  UNL     1       4.746  -1.175   1.709  1.00  0.00     0.171 HD
BRANCH  15  22
HETATM   22  O2  UNL     1       5.322   1.099  -2.122  1.00  0.00    -0.344 OA
ATOM     23  H2  UNL     1       4.493   1.506  -2.347  1.00  0.00     0.219 HD
ENDBRANCH  15  22
ENDBRANCH  13  14
ENDBRANCH   1  13
BRANCH   6  24
HETATM   24  N4  UNL     1      -1.944  -2.298   0.516  1.00  0.00    -0.219 N 
ATOM     25  H4  UNL     1      -1.450  -3.186   0.605  1.00  0.00     0.178 HD
BRANCH  24  26
HETATM   26  C8  UNL     1      -3.374  -2.308   0.575  1.00  0.00     0.099 A 
HETATM   27  C9  UNL     1      -4.078  -3.526   0.098  1.00  0.00     0.028 A 
HETATM   28  C10 UNL     1      -4.175  -2.239  -0.699  1.00  0.00     0.028 A 
ENDBRANCH  24  26
ENDBRANCH   6  24
BRANCH   9  29
HETATM   29  N6  UNL     1      -1.753   2.261  -0.051  1.00  0.00    -0.225 N 
ATOM     30  H6  UNL     1      -1.170   3.089  -0.177  1.00  0.00     0.177 HD
BRANCH  29  31
HETATM   31  C12 UNL     1      -3.181   2.435  -0.014  1.00  0.00     0.149 C 
BRANCH  31  32
HETATM   32  C13 UNL     1      -3.465   3.853  -0.526  1.00  0.00     0.106 C 
HETATM   33  S1  UNL     1      -5.223   4.214  -0.536  1.00  0.00    -0.096 SA
ENDBRANCH  31  32
ENDBRANCH  29  31
ENDBRANCH   9  29
TORSDOF 8
