REMARK  8 active torsions:
REMARK  status: ('A' for Active; 'I' for Inactive)
REMARK    1  A    between atoms: C2_2  and  O2_4 
REMARK    2  A    between atoms: O2_4  and  C3_5 
REMARK    3  A    between atoms: C3_5  and  C4_6 
REMARK    4  A    between atoms: C4_6  and  C20_29 
REMARK       I    between atoms: N1_7  and  C5_9 
REMARK    5  A    between atoms: C5_9  and  C6_11 
REMARK    6  A    between atoms: C11_17  and  C12_18 
REMARK    7  A    between atoms: C12_18  and  N2_19 
REMARK       I    between atoms: N2_19  and  C13_20 
REMARK    8  A    between atoms: C13_20  and  C14_22 
ROOT
HETATM    1  C6  UNL     1      -0.245  -0.330   0.856  1.00  0.00     0.119 C 
HETATM    2  C7  UNL     1      -0.185  -1.534   1.797  1.00  0.00     0.136 C 
HETATM    3  C8  UNL     1       0.626  -2.644   1.183  1.00  0.00     0.035 C 
HETATM    4  C9  UNL     1       2.032  -2.050   1.256  1.00  0.00     0.035 C 
HETATM    5  C10 UNL     1       1.792  -0.728   1.896  1.00  0.00     0.133 C 
HETATM    6  O4  UNL     1       0.706  -1.050   2.756  1.00  0.00    -0.379 OA
HETATM    7  C11 UNL     1       1.065   0.271   0.995  1.00  0.00     0.082 C 
ENDROOT
BRANCH   1   8
HETATM    8  C5  UNL     1      -0.825  -0.664  -0.431  1.00  0.00     0.229 C 
HETATM    9  N1  UNL     1      -2.134  -0.994  -0.540  1.00  0.00    -0.327 N 
HETATM   10  C4  UNL     1      -3.200  -0.440  -0.879  1.00  0.00     0.048 C 
ATOM     11  H1  UNL     1      -2.293  -1.965  -0.270  1.00  0.00     0.168 HD
HETATM   12  O3  UNL     1      -0.125  -0.658  -1.467  1.00  0.00    -0.273 OA
BRANCH  10  13
HETATM   13  C3  UNL     1      -4.475  -1.320  -0.817  1.00  0.00     0.236 C 
BRANCH  13  14
HETATM   14  O2  UNL     1      -5.335  -0.845   0.185  1.00  0.00    -0.316 OA
BRANCH  14  15
HETATM   15  C2  UNL     1      -6.532  -1.497   0.406  1.00  0.00     0.255 C 
HETATM   16  C1  UNL     1      -7.470  -1.044   1.442  1.00  0.00     0.126 C 
HETATM   17  O1  UNL     1      -6.803  -2.495  -0.305  1.00  0.00    -0.266 OA
ENDBRANCH  14  15
ENDBRANCH  13  14
ENDBRANCH  10  13
BRANCH  10  18
HETATM   18  C20 UNL     1      -3.468   0.925  -1.304  1.00  0.00     0.004 A 
HETATM   19  C21 UNL     1      -4.740   1.264  -1.709  1.00  0.00     0.016 A 
HETATM   20  C22 UNL     1      -4.978   2.577  -2.095  1.00  0.00     0.018 A 
HETATM   21  C23 UNL     1      -3.989   3.526  -2.082  1.00  0.00     0.087 A 
HETATM   22  N3  UNL     1      -2.776   3.171  -1.688  1.00  0.00    -0.374 N 
HETATM   23  C24 UNL     1      -2.490   1.891  -1.298  1.00  0.00     0.101 A 
ATOM     24  H3  UNL     1      -2.034   3.871  -1.675  1.00  0.00     0.164 HD
ENDBRANCH  10  18
ENDBRANCH   1   8
BRANCH   7  25
HETATM   25  C12 UNL     1       1.897   0.646  -0.172  1.00  0.00     0.167 C 
BRANCH  25  26
HETATM   26  N2  UNL     1       3.088   1.209   0.153  1.00  0.00    -0.383 NA
HETATM   27  C13 UNL     1       4.287   1.779   0.482  1.00  0.00     0.325 C 
HETATM   28  O5  UNL     1       4.553   2.833   1.121  1.00  0.00    -0.251 OA
BRANCH  27  29
HETATM   29  C14 UNL     1       5.531   1.069   0.029  1.00  0.00     0.046 A 
HETATM   30  C15 UNL     1       6.722   1.732   0.019  1.00  0.00     0.021 A 
HETATM   31  C16 UNL     1       7.906   1.132  -0.386  1.00  0.00     0.043 A 
HETATM   32  C17 UNL     1       7.831  -0.183  -0.785  1.00  0.00     0.116 A 
HETATM   33  F1  UNL     1       8.963  -0.815  -1.191  1.00  0.00    -0.206 F 
HETATM   34  C18 UNL     1       6.650  -0.870  -0.785  1.00  0.00     0.043 A 
HETATM   35  C19 UNL     1       5.491  -0.241  -0.375  1.00  0.00     0.021 A 
ENDBRANCH  27  29
ENDBRANCH  25  26
ENDBRANCH   7  25
TORSDOF 8
