REMARK  7 active torsions:
REMARK  status: ('A' for Active; 'I' for Inactive)
REMARK    1  A    between atoms: C2_3  and  C3_4 
REMARK    2  A    between atoms: C3_4  and  N2_5 
REMARK    3  A    between atoms: N2_5  and  C5_8 
REMARK    4  A    between atoms: C5_8  and  C6_9 
REMARK    5  A    between atoms: C6_9  and  C7_10 
REMARK    6  A    between atoms: C12_15  and  C13_16 
REMARK    7  A    between atoms: C13_16  and  C14_17 
ROOT
HETATM    1  N1  UNL     1       1.988   2.883  -0.438  1.00  0.00    -0.197 NA
HETATM    2  C1  UNL     1       2.942   2.240  -0.369  1.00  0.00     0.064 C 
HETATM    3  C2  UNL     1       4.157   1.453  -0.260  1.00  0.00     0.169 C 
ENDROOT
BRANCH   3   4
HETATM    4  C3  UNL     1       4.169   0.387   0.736  1.00  0.00     0.089 C 
BRANCH   4   5
HETATM    5  N2  UNL     1       3.387  -0.763   0.575  1.00  0.00    -0.299 N 
HETATM    6  C4  UNL     1       4.230  -1.976   0.393  1.00  0.00     0.183 C 
HETATM    7  N3  UNL     1       4.866  -2.927   0.242  1.00  0.00    -0.172 NA
BRANCH   5   8
HETATM    8  C5  UNL     1       1.983  -1.015   0.534  1.00  0.00     0.140 C 
BRANCH   8   9
HETATM    9  C6  UNL     1       1.276  -0.840  -0.742  1.00  0.00     0.026 C 
BRANCH   9  10
HETATM   10  C7  UNL     1      -0.214  -1.127  -0.658  1.00  0.00    -0.009 C 
HETATM   11  C8  UNL     1      -0.571  -2.491  -0.202  1.00  0.00     0.005 C 
HETATM   12  C9  UNL     1      -2.040  -2.705  -0.559  1.00  0.00     0.000 C 
HETATM   13  C10 UNL     1      -2.915  -1.702   0.144  1.00  0.00     0.000 C 
HETATM   14  C11 UNL     1      -2.132  -0.648   0.865  1.00  0.00     0.005 C 
HETATM   15  C12 UNL     1      -0.998  -0.088   0.061  1.00  0.00    -0.004 C 
BRANCH  15  16
HETATM   16  C13 UNL     1      -1.393   0.980  -0.923  1.00  0.00     0.071 C 
BRANCH  16  17
HETATM   17  C14 UNL     1      -2.184   2.058  -0.286  1.00  0.00     0.071 A 
HETATM   18  N4  UNL     1      -3.508   2.142  -0.205  1.00  0.00    -0.295 N 
HETATM   19  N5  UNL     1      -4.054   3.125   0.373  1.00  0.00    -0.260 N 
ATOM     20  H4  UNL     1      -4.088   1.408  -0.612  1.00  0.00     0.187 HD
HETATM   21  C15 UNL     1      -3.284   4.081   0.900  1.00  0.00     0.304 A 
ATOM     22  H5  UNL     1      -5.070   3.187   0.436  1.00  0.00     0.191 HD
HETATM   23  O1  UNL     1      -3.662   5.139   1.515  1.00  0.00    -0.258 OA
HETATM   24  S1  UNL     1      -1.720   3.500   0.528  1.00  0.00    -0.013 SA
ENDBRANCH  16  17
ENDBRANCH  15  16
ENDBRANCH   9  10
ENDBRANCH   8   9
ENDBRANCH   5   8
ENDBRANCH   4   5
ENDBRANCH   3   4
TORSDOF 7
