REMARK  6 active torsions:
REMARK  status: ('A' for Active; 'I' for Inactive)
REMARK    1  A    between atoms: C2_2  and  C3_3 
REMARK    2  A    between atoms: N1_6  and  C6_7 
REMARK    3  A    between atoms: C6_7  and  C7_8 
REMARK    4  A    between atoms: C7_8  and  C8_9 
REMARK    5  A    between atoms: C7_8  and  O2_11 
REMARK    6  A    between atoms: O2_11  and  N2_12 
ROOT
HETATM    1  C7  UNL     1       0.822  -0.610  -0.345  1.00  0.00     0.251 C 
ENDROOT
BRANCH   1   2
HETATM    2  C6  UNL     1       1.705   0.268   0.455  1.00  0.00     0.107 C 
BRANCH   2   3
HETATM    3  N1  UNL     1       3.025   0.442   0.034  1.00  0.00    -0.333 N 
HETATM    4  C5  UNL     1       4.163  -0.432   0.023  1.00  0.00     0.161 C 
HETATM    5  C3  UNL     1       5.345   0.506   0.346  1.00  0.00     0.045 C 
HETATM    6  C4  UNL     1       5.434   0.803   1.813  1.00  0.00     0.040 C 
HETATM    7  N4  UNL     1       4.969   1.684  -0.372  1.00  0.00    -0.356 N 
HETATM    8  C17 UNL     1       3.562   1.693  -0.530  1.00  0.00     0.174 C 
ATOM      9  H4  UNL     1       5.609   2.400  -0.714  1.00  0.00     0.162 HD
HETATM   10  S1  UNL     1       2.646   2.865  -1.213  1.00  0.00    -0.041 SA
BRANCH   5  11
HETATM   11  C2  UNL     1       6.619  -0.040  -0.236  1.00  0.00     0.028 C 
HETATM   12  C1  UNL     1       6.417  -0.300  -1.709  1.00  0.00     0.007 C 
ENDBRANCH   5  11
ENDBRANCH   2   3
ENDBRANCH   1   2
BRANCH   1  13
HETATM   13  C8  UNL     1       1.221  -2.020  -0.314  1.00  0.00     0.271 C 
HETATM   14  O1  UNL     1       2.178  -2.501  -0.875  1.00  0.00    -0.304 OA
ENDBRANCH   1  13
BRANCH   1  15
HETATM   15  O2  UNL     1      -0.518  -0.538   0.278  1.00  0.00    -0.263 OA
BRANCH  15  16
HETATM   16  N2  UNL     1      -1.569  -0.100  -0.445  1.00  0.00    -0.272 N 
HETATM   17  C9  UNL     1      -2.777  -0.515  -0.408  1.00  0.00     0.036 C 
HETATM   18  C10 UNL     1      -3.195  -1.607   0.501  1.00  0.00     0.058 C 
HETATM   19  C16 UNL     1      -3.811   0.087  -1.282  1.00  0.00     0.291 C 
HETATM   20  C11 UNL     1      -4.356  -1.117   1.322  1.00  0.00     0.034 C 
HETATM   21  C12 UNL     1      -4.950   0.163   0.834  1.00  0.00     0.238 C 
HETATM   22  N3  UNL     1      -5.058   0.248  -0.599  1.00  0.00    -0.062 N 
HETATM   23  C13 UNL     1      -5.642   1.552  -0.949  1.00  0.00     0.239 C 
HETATM   24  C15 UNL     1      -6.192  -0.378  -1.206  1.00  0.00     0.239 C 
HETATM   25  C14 UNL     1      -6.985   0.912  -1.162  1.00  0.00     0.056 C 
ATOM     26  H2  UNL     1      -1.376   0.656  -1.102  1.00  0.00     0.193 HD
ENDBRANCH  15  16
ENDBRANCH   1  15
TORSDOF 6
