REMARK  14 active torsions:
REMARK  status: ('A' for Active; 'I' for Inactive)
REMARK    1  A    between atoms: C2_2  and  C3_3 
REMARK    2  A    between atoms: C3_3  and  N1_4 
REMARK       I    between atoms: N1_4  and  C4_6 
REMARK    3  A    between atoms: C4_6  and  C5_8 
REMARK    4  A    between atoms: C6_9  and  O2_10 
REMARK    5  A    between atoms: O2_10  and  C7_11 
REMARK    6  A    between atoms: C7_11  and  C8_13 
REMARK    7  A    between atoms: C8_13  and  N2_14 
REMARK    8  A    between atoms: C8_13  and  C25_40 
REMARK       I    between atoms: N2_14  and  C9_16 
REMARK    9  A    between atoms: C9_16  and  C10_18 
REMARK   10  A    between atoms: C10_18  and  N3_19 
REMARK   11  A    between atoms: C10_18  and  C21_36 
REMARK       I    between atoms: N3_19  and  C11_21 
REMARK       I    between atoms: C11_21  and  N4_23 
REMARK       I    between atoms: N5_26  and  C14_27 
REMARK   12  A    between atoms: C14_27  and  O7_29 
REMARK   13  A    between atoms: O7_29  and  C15_30 
REMARK   14  A    between atoms: N6_46  and  S1_47 
ROOT
HETATM    1  N2  UNL     1       1.283   1.197   0.786  1.00  0.00    -0.345 N 
ATOM      2  H2  UNL     1       1.547   2.182   0.783  1.00  0.00     0.163 HD
HETATM    3  C9  UNL     1      -0.045   0.874   0.492  1.00  0.00     0.242 C 
HETATM    4  O4  UNL     1      -0.335  -0.371   0.507  1.00  0.00    -0.271 OA
ENDROOT
BRANCH   1   5
HETATM    5  C8  UNL     1       2.313   0.215   1.097  1.00  0.00     0.191 C 
BRANCH   5   6
HETATM    6  C7  UNL     1       3.338   0.165   0.031  1.00  0.00     0.284 C 
HETATM    7  O3  UNL     1       3.254   0.883  -1.001  1.00  0.00    -0.263 OA
BRANCH   6   8
HETATM    8  O2  UNL     1       4.417  -0.674   0.138  1.00  0.00    -0.286 OA
BRANCH   8   9
HETATM    9  C6  UNL     1       5.422  -0.758  -0.872  1.00  0.00     0.298 C 
HETATM   10  C5  UNL     1       6.797  -0.450  -0.247  1.00  0.00     0.223 C 
HETATM   11  N6  UNL     1       6.878  -1.524   0.670  1.00  0.00    -0.170 NA
HETATM   12  C29 UNL     1       6.353  -2.631  -0.102  1.00  0.00     0.280 C 
HETATM   13  O8  UNL     1       5.600  -2.104  -1.150  1.00  0.00    -0.344 OA
BRANCH  10  14
HETATM   14  C4  UNL     1       7.824  -0.438  -1.283  1.00  0.00     0.241 C 
HETATM   15  N1  UNL     1       7.573  -0.548  -2.679  1.00  0.00    -0.356 N 
ATOM     16  H1  UNL     1       6.607  -0.648  -2.991  1.00  0.00     0.162 HD
HETATM   17  O1  UNL     1       9.034  -0.324  -0.963  1.00  0.00    -0.272 OA
BRANCH  15  18
HETATM   18  C3  UNL     1       8.614  -0.525  -3.672  1.00  0.00     0.149 C 
BRANCH  18  19
HETATM   19  C2  UNL     1       9.614  -1.592  -3.549  1.00  0.00    -0.018 C 
HETATM   20  C1  UNL     1       9.822  -2.470  -4.520  1.00  0.00     0.008 C 
ENDBRANCH  18  19
ENDBRANCH  15  18
ENDBRANCH  10  14
BRANCH  11  21
HETATM   21  S1  UNL     1       8.271  -1.820   1.541  1.00  0.00     0.210 S 
HETATM   22  C30 UNL     1       8.647  -0.406   2.562  1.00  0.00     0.180 C 
HETATM   23  O9  UNL     1       9.442  -2.361   0.825  1.00  0.00    -0.211 OA
HETATM   24  O10 UNL     1       7.899  -2.918   2.576  1.00  0.00    -0.211 OA
ENDBRANCH  11  21
ENDBRANCH   8   9
ENDBRANCH   6   8
ENDBRANCH   5   6
BRANCH   5  25
HETATM   25  C25 UNL     1       2.934   0.539   2.425  1.00  0.00    -0.022 C 
HETATM   26  C26 UNL     1       3.955  -0.502   2.825  1.00  0.00     0.017 C 
HETATM   27  C27 UNL     1       3.574   1.926   2.412  1.00  0.00     0.017 C 
HETATM   28  C28 UNL     1       1.893   0.563   3.523  1.00  0.00     0.017 C 
ENDBRANCH   5  25
ENDBRANCH   1   5
BRANCH   3  29
HETATM   29  C10 UNL     1      -1.107   1.823   0.175  1.00  0.00     0.185 C 
BRANCH  29  30
HETATM   30  N3  UNL     1      -2.368   1.115  -0.085  1.00  0.00    -0.329 N 
HETATM   31  C11 UNL     1      -3.519   1.308   0.706  1.00  0.00     0.319 C 
HETATM   32  O5  UNL     1      -3.388   2.135   1.666  1.00  0.00    -0.247 OA
HETATM   33  N4  UNL     1      -4.770   0.683   0.532  1.00  0.00    -0.331 N 
HETATM   34  C12 UNL     1      -4.939  -0.247  -0.562  1.00  0.00     0.147 C 
HETATM   35  C20 UNL     1      -5.831   0.999   1.455  1.00  0.00     0.147 C 
HETATM   36  C13 UNL     1      -6.326  -0.133  -1.165  1.00  0.00     0.148 C 
HETATM   37  N5  UNL     1      -7.346  -0.062  -0.149  1.00  0.00    -0.325 N 
HETATM   38  C14 UNL     1      -8.465  -0.934  -0.250  1.00  0.00     0.363 C 
HETATM   39  C19 UNL     1      -7.208   0.885   0.923  1.00  0.00     0.148 C 
HETATM   40  O6  UNL     1      -8.585  -1.748  -1.211  1.00  0.00    -0.238 OA
ATOM     41  H3  UNL     1      -2.412   0.460  -0.866  1.00  0.00     0.165 HD
BRANCH  38  42
HETATM   42  O7  UNL     1      -9.486  -0.943   0.698  1.00  0.00    -0.294 OA
BRANCH  42  43
HETATM   43  C15 UNL     1     -10.599  -1.804   0.602  1.00  0.00     0.061 C 
HETATM   44  C16 UNL     1     -10.226  -3.265   0.591  1.00  0.00     0.046 C 
HETATM   45  C17 UNL     1     -11.482  -1.500  -0.569  1.00  0.00     0.046 C 
HETATM   46  C18 UNL     1     -11.432  -1.586   1.868  1.00  0.00     0.046 C 
ENDBRANCH  42  43
ENDBRANCH  38  42
ENDBRANCH  29  30
BRANCH  29  47
HETATM   47  C21 UNL     1      -0.875   2.680  -1.037  1.00  0.00    -0.022 C 
HETATM   48  C22 UNL     1      -0.700   1.875  -2.292  1.00  0.00     0.017 C 
HETATM   49  C23 UNL     1       0.254   3.657  -0.913  1.00  0.00     0.017 C 
HETATM   50  C24 UNL     1      -2.148   3.519  -1.254  1.00  0.00     0.017 C 
ENDBRANCH  29  47
ENDBRANCH   3  29
TORSDOF 14
