REMARK  17 active torsions:
REMARK  status: ('A' for Active; 'I' for Inactive)
REMARK    1  A    between atoms: C2_2  and  C3_3 
REMARK    2  A    between atoms: C6_6  and  C7_7 
REMARK    3  A    between atoms: C7_7  and  C8_8 
REMARK    4  A    between atoms: C8_8  and  N1_9 
REMARK    5  A    between atoms: N1_9  and  C9_11 
REMARK    6  A    between atoms: C10_14  and  N3_15 
REMARK    7  A    between atoms: N3_15  and  C11_17 
REMARK    8  A    between atoms: C11_17  and  C12_18 
REMARK    9  A    between atoms: C12_18  and  C13_19 
REMARK   10  A    between atoms: C13_19  and  C14_20 
REMARK   11  A    between atoms: C14_20  and  N4_21 
REMARK   12  A    between atoms: N4_21  and  C15_23 
REMARK   13  A    between atoms: C21_34  and  N7_35 
REMARK   14  A    between atoms: N7_35  and  C22_37 
REMARK   15  A    between atoms: C22_37  and  C23_38 
REMARK   16  A    between atoms: C23_38  and  C24_39 
REMARK   17  A    between atoms: C24_39  and  N8_40 
REMARK       I    between atoms: N8_40  and  C25_42 
ROOT
HETATM    1  C9  UNL     1      -2.224  -0.581  -0.611  1.00  0.00     0.710 A 
HETATM    2  N2  UNL     1      -0.966  -0.948  -0.393  1.00  0.00    -0.021 N 
ATOM      3  H2  UNL     1      -0.751  -1.945  -0.428  1.00  0.00     0.203 HD
HETATM    4  C10 UNL     1       0.069  -0.081  -0.123  1.00  0.00     0.707 A 
HETATM    5  N6  UNL     1      -0.267   1.214  -0.087  1.00  0.00    -0.022 N 
ATOM      6  H6  UNL     1       0.463   1.898   0.112  1.00  0.00     0.203 HD
HETATM    7  C21 UNL     1      -1.505   1.656  -0.297  1.00  0.00     0.707 A 
HETATM    8  N9  UNL     1      -2.480   0.750  -0.559  1.00  0.00    -0.021 N 
ATOM      9  H9  UNL     1      -3.432   1.079  -0.721  1.00  0.00     0.203 HD
ENDROOT
BRANCH   4  10
HETATM   10  N3  UNL     1       1.205  -0.503   0.038  1.00  0.00    -0.225 N 
ATOM     11  H3  UNL     1       1.145  -1.515  -0.074  1.00  0.00     0.177 HD
BRANCH  10  12
HETATM   12  C11 UNL     1       2.496  -0.239   0.295  1.00  0.00     0.138 C 
BRANCH  12  13
HETATM   13  C12 UNL     1       3.034  -1.119   1.432  1.00  0.00     0.025 C 
BRANCH  13  14
HETATM   14  C13 UNL     1       4.503  -0.907   1.691  1.00  0.00     0.046 C 
BRANCH  14  15
HETATM   15  C14 UNL     1       4.875  -1.826   2.838  1.00  0.00     0.062 C 
BRANCH  15  16
HETATM   16  N4  UNL     1       6.181  -1.866   3.245  1.00  0.00    -0.356 N 
ATOM     17  H4  UNL     1       6.660  -2.573   2.687  1.00  0.00     0.166 HD
BRANCH  16  18
HETATM   18  C15 UNL     1       7.002  -1.380   4.023  1.00  0.00     0.104 A 
HETATM   19  C16 UNL     1       6.777  -0.389   4.959  1.00  0.00     0.050 A 
HETATM   20  C17 UNL     1       7.767   0.056   5.765  1.00  0.00     0.029 A 
HETATM   21  C18 UNL     1       9.043  -0.466   5.682  1.00  0.00     0.056 A 
HETATM   22 CL1  UNL     1      10.369   0.050   6.694  1.00  0.00    -0.082 Cl
HETATM   23  C19 UNL     1       9.262  -1.454   4.746  1.00  0.00     0.028 A 
HETATM   24  C20 UNL     1      10.638  -2.062   4.611  1.00  0.00     0.070 C 
HETATM   25  N5  UNL     1       8.273  -1.872   3.969  1.00  0.00    -0.345 N 
ATOM     26  H5  UNL     1       8.474  -2.606   3.290  1.00  0.00     0.167 HD
ENDBRANCH  16  18
ENDBRANCH  15  16
ENDBRANCH  14  15
ENDBRANCH  13  14
ENDBRANCH  12  13
ENDBRANCH  10  12
ENDBRANCH   4  10
BRANCH   1  27
HETATM   27  N1  UNL     1      -3.208  -1.371  -0.817  1.00  0.00    -0.204 N 
ATOM     28  H1  UNL     1      -4.110  -0.920  -0.970  1.00  0.00     0.183 HD
BRANCH  27  29
HETATM   29  C8  UNL     1      -3.217  -2.756  -0.861  1.00  0.00     0.083 C 
BRANCH  29  30
HETATM   30  C7  UNL     1      -3.825  -3.417  -2.069  1.00  0.00     0.083 C 
BRANCH  30  31
HETATM   31  C6  UNL     1      -5.226  -3.003  -2.208  1.00  0.00    -0.053 A 
HETATM   32  C5  UNL     1      -5.585  -2.018  -3.132  1.00  0.00     0.008 A 
HETATM   33  C4  UNL     1      -6.910  -1.637  -3.255  1.00  0.00     0.007 A 
HETATM   34  C3  UNL     1      -7.865  -2.217  -2.482  1.00  0.00    -0.059 A 
HETATM   35  C28 UNL     1      -7.509  -3.206  -1.550  1.00  0.00     0.007 A 
HETATM   36  C27 UNL     1      -6.195  -3.578  -1.433  1.00  0.00     0.008 A 
BRANCH  34  37
HETATM   37  C2  UNL     1      -9.301  -1.898  -2.595  1.00  0.00     0.034 C 
HETATM   38  C1  UNL     1      -9.928  -2.948  -3.489  1.00  0.00     0.010 C 
ENDBRANCH  34  37
ENDBRANCH  30  31
ENDBRANCH  29  30
ENDBRANCH  27  29
ENDBRANCH   1  27
BRANCH   7  39
HETATM   39  N7  UNL     1      -1.779   2.879  -0.212  1.00  0.00    -0.225 N 
ATOM     40  H7  UNL     1      -2.763   3.069  -0.404  1.00  0.00     0.177 HD
BRANCH  39  41
HETATM   41  C22 UNL     1      -1.063   4.042   0.082  1.00  0.00     0.139 C 
BRANCH  41  42
HETATM   42  C23 UNL     1      -1.773   5.221  -0.590  1.00  0.00     0.040 C 
BRANCH  42  43
HETATM   43  C24 UNL     1      -1.751   4.956  -2.062  1.00  0.00     0.124 C 
BRANCH  43  44
HETATM   44  N8  UNL     1      -0.388   4.885  -2.582  1.00  0.00    -0.361 N 
HETATM   45  C25 UNL     1       0.428   6.054  -2.494  1.00  0.00     0.213 C 
HETATM   46  C26 UNL     1       1.822   5.983  -3.018  1.00  0.00     0.117 C 
HETATM   47  O1  UNL     1       0.020   7.138  -1.994  1.00  0.00    -0.274 OA
ATOM     48  H8  UNL     1      -0.029   4.025  -2.996  1.00  0.00     0.162 HD
ENDBRANCH  43  44
ENDBRANCH  42  43
ENDBRANCH  41  42
ENDBRANCH  39  41
ENDBRANCH   7  39
TORSDOF 17
