REMARK  16 active torsions:
REMARK  status: ('A' for Active; 'I' for Inactive)
REMARK    1  A    between atoms: C2_2  and  C4_4 
REMARK    2  A    between atoms: C4_4  and  C5_5 
REMARK    3  A    between atoms: C5_5  and  N1_6 
REMARK    4  A    between atoms: C5_5  and  C15_20 
REMARK    5  A    between atoms: N1_6  and  C6_8 
REMARK    6  A    between atoms: C6_8  and  C7_9 
REMARK    7  A    between atoms: C7_9  and  C8_11 
REMARK    8  A    between atoms: C8_11  and  O2_12 
REMARK    9  A    between atoms: O2_12  and  C9_13 
REMARK   10  A    between atoms: N3_26  and  C18_27 
REMARK   11  A    between atoms: C18_27  and  O4_28 
REMARK   12  A    between atoms: C18_27  and  C19_30 
REMARK   13  A    between atoms: C19_30  and  C20_31 
REMARK   14  A    between atoms: C19_30  and  C27_38 
REMARK   15  A    between atoms: C20_31  and  C21_32 
REMARK   16  A    between atoms: C29_42  and  N5_43 
ROOT
HETATM    1  C15 UNL     1      -0.111  -0.360   1.447  1.00  0.00     0.211 C 
HETATM    2  N2  UNL     1       0.088  -1.481   2.337  1.00  0.00    -0.336 N 
ATOM      3  H2  UNL     1       0.856  -1.592   2.999  1.00  0.00     0.164 HD
HETATM    4  C16 UNL     1      -0.970  -2.399   2.130  1.00  0.00     0.237 C 
HETATM    5  O3  UNL     1      -0.908  -3.623   2.346  1.00  0.00    -0.272 OA
HETATM    6  C17 UNL     1      -2.093  -1.546   1.618  1.00  0.00     0.229 C 
HETATM    7  N3  UNL     1      -1.513  -0.336   1.090  1.00  0.00    -0.333 N 
ENDROOT
BRANCH   7   8
HETATM    8  C18 UNL     1      -2.168   0.687   0.396  1.00  0.00     0.126 C 
BRANCH   8   9
HETATM    9  O4  UNL     1      -1.414   1.708   0.097  1.00  0.00    -0.349 OA
ATOM     10  H4  UNL     1      -1.859   2.403  -0.374  1.00  0.00     0.219 HD
ENDBRANCH   8   9
BRANCH   8  11
HETATM   11  C19 UNL     1      -3.548   0.810  -0.058  1.00  0.00     0.116 C 
BRANCH  11  12
HETATM   12  C20 UNL     1      -3.902  -0.110  -1.192  1.00  0.00     0.057 C 
BRANCH  12  13
HETATM   13  C21 UNL     1      -5.308   0.086  -1.616  1.00  0.00    -0.057 A 
HETATM   14  C22 UNL     1      -5.617   1.148  -2.482  1.00  0.00     0.007 A 
HETATM   15  C23 UNL     1      -6.903   1.353  -2.927  1.00  0.00     0.001 A 
HETATM   16  C24 UNL     1      -7.951   0.541  -2.553  1.00  0.00     0.000 A 
HETATM   17  C25 UNL     1      -7.667  -0.506  -1.704  1.00  0.00     0.001 A 
HETATM   18  C26 UNL     1      -6.368  -0.711  -1.257  1.00  0.00     0.007 A 
ENDBRANCH  12  13
ENDBRANCH  11  12
BRANCH  11  19
HETATM   19  C27 UNL     1      -4.515   0.891   1.040  1.00  0.00     0.054 A 
HETATM   20  C28 UNL     1      -4.922   2.122   1.588  1.00  0.00     0.132 A 
HETATM   21  N4  UNL     1      -5.809   1.838   2.551  1.00  0.00    -0.200 N 
HETATM   22  C29 UNL     1      -5.986   0.514   2.645  1.00  0.00     0.675 A 
ATOM     23  H4  UNL     1      -6.282   2.532   3.130  1.00  0.00     0.183 HD
HETATM   24  N6  UNL     1      -5.194  -0.033   1.723  1.00  0.00    -0.194 N 
ATOM     25  H6  UNL     1      -5.116  -1.037   1.559  1.00  0.00     0.184 HD
BRANCH  22  26
HETATM   26  N5  UNL     1      -6.783  -0.094   3.483  1.00  0.00    -0.234 N 
ATOM     27  H52 UNL     1      -7.389   0.325   4.189  1.00  0.00     0.174 HD
ATOM     28  H51 UNL     1      -6.918  -1.103   3.555  1.00  0.00     0.174 HD
ENDBRANCH  22  26
ENDBRANCH  11  19
ENDBRANCH   8  11
ENDBRANCH   7   8
BRANCH   1  29
HETATM   29  C5  UNL     1       0.808  -0.537   0.196  1.00  0.00     0.124 C 
BRANCH  29  30
HETATM   30  C4  UNL     1       0.497  -1.757  -0.506  1.00  0.00     0.033 C 
BRANCH  30  31
HETATM   31  C2  UNL     1       1.015  -2.178  -1.824  1.00  0.00    -0.021 C 
HETATM   32  C1  UNL     1       0.268  -3.523  -2.207  1.00  0.00     0.009 C 
HETATM   33  C3  UNL     1       2.476  -2.648  -1.813  1.00  0.00     0.009 C 
ENDBRANCH  30  31
ENDBRANCH  29  30
BRANCH  29  34
HETATM   34  N1  UNL     1       2.058  -0.143   0.582  1.00  0.00    -0.387 N 
ATOM     35  H1  UNL     1       2.231  -0.222   1.584  1.00  0.00     0.159 HD
BRANCH  34  36
HETATM   36  C6  UNL     1       3.121   0.340  -0.137  1.00  0.00     0.136 C 
BRANCH  36  37
HETATM   37  C7  UNL     1       4.302   0.579   0.797  1.00  0.00     0.188 C 
HETATM   38  O1  UNL     1       4.181   0.339   1.972  1.00  0.00    -0.289 OA
BRANCH  37  39
HETATM   39  C8  UNL     1       5.575   1.098   0.268  1.00  0.00     0.260 C 
BRANCH  39  40
HETATM   40  O2  UNL     1       6.538   1.263   1.288  1.00  0.00    -0.340 OA
BRANCH  40  41
HETATM   41  C9  UNL     1       7.815   1.737   1.035  1.00  0.00     0.107 A 
HETATM   42  C10 UNL     1       8.265   2.089  -0.223  1.00  0.00     0.040 A 
HETATM   43  C11 UNL     1       9.532   2.555  -0.446  1.00  0.00     0.003 A 
HETATM   44  C12 UNL     1      10.422   2.693   0.598  1.00  0.00     0.003 A 
HETATM   45  C13 UNL     1      10.011   2.352   1.869  1.00  0.00     0.045 A 
HETATM   46  C14 UNL     1       8.735   1.886   2.072  1.00  0.00     0.149 A 
HETATM   47  F1  UNL     1       8.298   1.541   3.317  1.00  0.00    -0.203 F 
ENDBRANCH  40  41
ENDBRANCH  39  40
ENDBRANCH  37  39
ENDBRANCH  36  37
ENDBRANCH  34  36
ENDBRANCH  29  34
ENDBRANCH   1  29
TORSDOF 16
