REMARK  12 active torsions:
REMARK  status: ('A' for Active; 'I' for Inactive)
REMARK    1  A    between atoms: C2_2  and  C3_3 
REMARK       I    between atoms: N1_6  and  C6_7 
REMARK       I    between atoms: C6_7  and  N2_9 
REMARK    2  A    between atoms: N2_9  and  C7_11 
REMARK    3  A    between atoms: C7_11  and  C8_12 
REMARK    4  A    between atoms: C8_12  and  C9_13 
REMARK    5  A    between atoms: C15_22  and  N4_23 
REMARK    6  A    between atoms: C15_22  and  C23_35 
REMARK       I    between atoms: N4_23  and  C16_24 
REMARK    7  A    between atoms: C16_24  and  C17_26 
REMARK    8  A    between atoms: C17_26  and  C18_27 
REMARK    9  A    between atoms: C18_27  and  C19_28 
REMARK   10  A    between atoms: C19_28  and  O4_29 
REMARK   11  A    between atoms: C19_28  and  C20_31 
REMARK   12  A    between atoms: C20_31  and  C21_32 
ROOT
HETATM    1  C3  UNL     1      -1.727  -4.198  -0.648  1.00  0.00     0.008 C 
HETATM    2  C4  UNL     1      -1.152  -3.358   0.378  1.00  0.00    -0.004 C 
HETATM    3  C5  UNL     1       0.142  -2.669   0.193  1.00  0.00     0.175 C 
HETATM    4  N1  UNL     1       0.202  -1.752   1.336  1.00  0.00    -0.262 N 
HETATM    5  C6  UNL     1       1.170  -0.761   1.580  1.00  0.00     0.325 C 
HETATM    6  O1  UNL     1       1.149  -0.023   2.611  1.00  0.00    -0.247 OA
HETATM    7  N2  UNL     1       2.227  -0.549   0.642  1.00  0.00    -0.342 N 
ATOM      8  H2  UNL     1       2.287  -1.124  -0.198  1.00  0.00     0.164 HD
HETATM    9  C14 UNL     1      -0.944  -2.006   2.137  1.00  0.00     0.282 C 
HETATM   10  O2  UNL     1      -1.020  -1.970   3.362  1.00  0.00    -0.268 OA
HETATM   11  C15 UNL     1      -2.035  -2.337   1.080  1.00  0.00     0.257 C 
ENDROOT
BRANCH  11  12
HETATM   12  N4  UNL     1      -2.430  -1.230   0.561  1.00  0.00    -0.377 NA
HETATM   13  C16 UNL     1      -2.863   0.001  -0.016  1.00  0.00     0.312 C 
HETATM   14  O3  UNL     1      -2.081   0.877  -0.511  1.00  0.00    -0.252 OA
BRANCH  13  15
HETATM   15  C17 UNL     1      -4.262   0.360  -0.083  1.00  0.00     0.092 C 
BRANCH  15  16
HETATM   16  C18 UNL     1      -4.938   1.355  -0.512  1.00  0.00     0.039 C 
BRANCH  16  17
HETATM   17  C19 UNL     1      -4.736   2.600  -1.128  1.00  0.00     0.046 C 
BRANCH  17  18
HETATM   18  O4  UNL     1      -5.813   3.303  -1.367  1.00  0.00    -0.365 OA
ATOM     19  H4  UNL     1      -5.676   4.146  -1.784  1.00  0.00     0.217 HD
ENDBRANCH  17  18
BRANCH  17  20
HETATM   20  C20 UNL     1      -3.516   3.272  -1.561  1.00  0.00     0.091 C 
BRANCH  20  21
HETATM   21  C21 UNL     1      -3.844   4.643  -2.150  1.00  0.00    -0.013 C 
HETATM   22  C22 UNL     1      -3.633   4.947  -3.405  1.00  0.00     0.052 C 
HETATM   23 BR1  UNL     1      -2.890   3.662  -4.587  1.00  0.00    -0.064 Br
ENDBRANCH  20  21
ENDBRANCH  17  20
ENDBRANCH  16  17
ENDBRANCH  15  16
ENDBRANCH  13  15
ENDBRANCH  11  12
BRANCH  11  24
HETATM   24  C23 UNL     1      -3.034  -3.142   1.895  1.00  0.00     0.143 C 
HETATM   25  N5  UNL     1      -4.257  -3.227   1.572  1.00  0.00    -0.387 N 
ATOM     26  H52 UNL     1      -4.599  -2.726   0.752  1.00  0.00     0.157 HD
ATOM     27  H51 UNL     1      -4.927  -3.767   2.119  1.00  0.00     0.157 HD
HETATM   28  N6  UNL     1      -2.563  -3.831   3.023  1.00  0.00    -0.083 NA
ENDBRANCH  11  24
BRANCH   1  29
HETATM   29  C2  UNL     1      -1.994  -3.693  -1.977  1.00  0.00    -0.010 C 
HETATM   30  C1  UNL     1      -3.155  -3.484  -2.482  1.00  0.00     0.011 C 
ENDBRANCH   1  29
BRANCH   7  31
HETATM   31  C7  UNL     1       3.216   0.487   0.887  1.00  0.00     0.129 C 
BRANCH  31  32
HETATM   32  C8  UNL     1       4.210   0.543  -0.238  1.00  0.00     0.060 C 
BRANCH  32  33
HETATM   33  C9  UNL     1       5.165   1.636   0.068  1.00  0.00    -0.039 A 
HETATM   34  C10 UNL     1       4.995   2.983  -0.270  1.00  0.00     0.095 A 
HETATM   35  N3  UNL     1       6.071   3.664   0.158  1.00  0.00    -0.369 N 
HETATM   36  C11 UNL     1       6.946   2.810   0.764  1.00  0.00     0.005 A 
ATOM     37  H3  UNL     1       6.213   4.668   0.047  1.00  0.00     0.165 HD
HETATM   38  C12 UNL     1       8.254   3.197   1.363  1.00  0.00     0.068 C 
HETATM   39  C13 UNL     1       6.382   1.567   0.705  1.00  0.00     0.033 A 
ENDBRANCH  32  33
ENDBRANCH  31  32
ENDBRANCH   7  31
TORSDOF 12
