REMARK  3 active torsions:
REMARK  status: ('A' for Active; 'I' for Inactive)
REMARK       I    between atoms: C1_2  and  N3_4 
REMARK    1  A    between atoms: N3_4  and  N4_6 
REMARK    2  A    between atoms: N4_6  and  C2_8 
REMARK    3  A    between atoms: N8_18  and  C5_20 
ROOT
HETATM    1  C2  UNL     1       0.423   0.326  -0.210  1.00  0.00     0.170 A 
HETATM    2  N5  UNL     1       0.263   1.654   0.018  1.00  0.00    -0.289 N 
ATOM      3  H5  UNL     1      -0.644   2.106  -0.098  1.00  0.00     0.172 HD
HETATM    4  C3  UNL     1       1.348   2.351   0.403  1.00  0.00     0.340 A 
HETATM    5  O1  UNL     1       1.219   3.597   0.622  1.00  0.00    -0.245 OA
HETATM    6  N6  UNL     1       2.552   1.747   0.558  1.00  0.00    -0.250 N 
ATOM      7  H6  UNL     1       3.360   2.296   0.852  1.00  0.00     0.192 HD
HETATM    8  N7  UNL     1       2.687   0.439   0.328  1.00  0.00    -0.278 N 
ATOM      9  H7  UNL     1       3.599  -0.001   0.448  1.00  0.00     0.189 HD
HETATM   10  C4  UNL     1       1.638  -0.306  -0.059  1.00  0.00     0.168 A 
HETATM   11  N8  UNL     1       1.698  -1.564  -0.295  1.00  0.00    -0.316 N 
ATOM     12  H8  UNL     1       0.835  -2.025  -0.583  1.00  0.00     0.170 HD
ENDROOT
BRANCH   1  13
HETATM   13  N4  UNL     1      -0.592  -0.343  -0.574  1.00  0.00    -0.280 N 
ATOM     14  H4  UNL     1      -0.463  -1.341  -0.742  1.00  0.00     0.188 HD
BRANCH  13  15
HETATM   15  N3  UNL     1      -1.862   0.179  -0.760  1.00  0.00    -0.274 N 
HETATM   16  C1  UNL     1      -2.937  -0.386  -0.330  1.00  0.00     0.215 C 
HETATM   17  N1  UNL     1      -4.182   0.260  -0.590  1.00  0.00    -0.065 NA
HETATM   18  N2  UNL     1      -2.947  -1.601   0.379  1.00  0.00    -0.065 NA
ATOM     19  H3  UNL     1      -1.951   1.060  -1.266  1.00  0.00     0.189 HD
ENDBRANCH  13  15
ENDBRANCH   1  13
BRANCH  11  20
HETATM   20  C5  UNL     1       2.846  -2.364  -0.193  1.00  0.00     0.354 C 
HETATM   21  O2  UNL     1       3.825  -2.123  -0.915  1.00  0.00    -0.283 OA
ENDBRANCH  11  20
TORSDOF 3
