REMARK  1 active torsions:
REMARK  status: ('A' for Active; 'I' for Inactive)
REMARK    1  A    between atoms: C5_14  and  C6_15 
ROOT
HETATM    1  N1  UNL     1      -3.008  -1.845  -0.100  1.00  0.00    -0.234 N 
ATOM      2  H11 UNL     1      -2.620  -2.773   0.068  1.00  0.00     0.174 HD
ATOM      3  H12 UNL     1      -3.975  -1.563  -0.259  1.00  0.00     0.174 HD
HETATM    4  C1  UNL     1      -2.164  -0.843  -0.120  1.00  0.00     0.680 C 
HETATM    5  N2  UNL     1      -2.705   0.451  -0.354  1.00  0.00    -0.152 N 
ATOM      6  H2  UNL     1      -3.653   0.471  -0.730  1.00  0.00     0.188 HD
HETATM    7  C2  UNL     1      -2.104   1.722  -0.135  1.00  0.00     0.328 C 
HETATM    8  O1  UNL     1      -2.773   2.745  -0.406  1.00  0.00    -0.261 OA
HETATM    9  C3  UNL     1      -0.743   1.979   0.390  1.00  0.00     0.315 C 
HETATM   10  O2  UNL     1      -0.399   3.180   0.532  1.00  0.00    -0.262 OA
HETATM   11  N3  UNL     1       0.238   0.989   0.759  1.00  0.00    -0.304 N 
ATOM     12  H3  UNL     1       0.937   1.277   1.444  1.00  0.00     0.171 HD
HETATM   13  C4  UNL     1       0.340  -0.349   0.273  1.00  0.00     0.128 C 
HETATM   14  C5  UNL     1       1.495  -0.817  -0.057  1.00  0.00     0.120 C 
HETATM   15  N5  UNL     1      -0.804  -1.240   0.104  1.00  0.00    -0.177 N 
ATOM     16  H5  UNL     1      -0.618  -2.242   0.150  1.00  0.00     0.185 HD
ENDROOT
BRANCH  14  17
HETATM   17  C6  UNL     1       2.758  -0.149  -0.006  1.00  0.00     0.258 C 
HETATM   18  N4  UNL     1       3.982  -0.810  -0.398  1.00  0.00    -0.058 NA
HETATM   19  O3  UNL     1       2.909   1.055   0.378  1.00  0.00    -0.272 OA
ENDBRANCH  14  17
TORSDOF 1
