REMARK  6 active torsions:
REMARK  status: ('A' for Active; 'I' for Inactive)
REMARK    1  A    between atoms: N1_1  and  N2_4 
REMARK       I    between atoms: N2_4  and  C1_6 
REMARK    2  A    between atoms: C1_6  and  O2_8 
REMARK    3  A    between atoms: O2_8  and  C2_9 
REMARK    4  A    between atoms: C2_9  and  C3_10 
REMARK    5  A    between atoms: C8_15  and  N3_16 
REMARK    6  A    between atoms: N3_16  and  C9_18 
ROOT
HETATM    1  C3  UNL     1       0.070  -0.442   0.678  1.00  0.00    -0.007 A 
HETATM    2  C4  UNL     1       0.576  -1.715   0.647  1.00  0.00     0.011 A 
HETATM    3  C5  UNL     1      -0.276  -2.828   0.589  1.00  0.00     0.001 A 
HETATM    4  C6  UNL     1      -1.622  -2.699   0.563  1.00  0.00     0.002 A 
HETATM    5  C7  UNL     1      -2.147  -1.424   0.594  1.00  0.00     0.030 A 
HETATM    6  C8  UNL     1      -1.321  -0.321   0.651  1.00  0.00     0.057 A 
ENDROOT
BRANCH   6   7
HETATM    7  N3  UNL     1      -1.852   0.993   0.683  1.00  0.00    -0.189 N 
ATOM      8  H3  UNL     1      -1.547   1.653   1.399  1.00  0.00     0.184 HD
BRANCH   7   9
HETATM    9  C9  UNL     1      -2.729   1.351  -0.204  1.00  0.00     0.714 A 
HETATM   10  N4  UNL     1      -3.252   0.628  -1.217  1.00  0.00    -0.115 N 
HETATM   11  N5  UNL     1      -4.114   1.358  -1.892  1.00  0.00    -0.213 N 
ATOM     12  H4  UNL     1      -3.014  -0.341  -1.428  1.00  0.00     0.207 HD
HETATM   13  N6  UNL     1      -4.149   2.546  -1.319  1.00  0.00    -0.213 N 
ATOM     14  H5  UNL     1      -4.654   1.061  -2.705  1.00  0.00     0.210 HD
HETATM   15  N7  UNL     1      -3.314   2.571  -0.286  1.00  0.00    -0.115 N 
ATOM     16  H6  UNL     1      -4.730   3.327  -1.623  1.00  0.00     0.210 HD
ATOM     17  H7  UNL     1      -3.144   3.364   0.333  1.00  0.00     0.207 HD
ENDBRANCH   7   9
ENDBRANCH   6   7
BRANCH   1  18
HETATM   18  C2  UNL     1       0.876   0.785   0.772  1.00  0.00     0.221 C 
BRANCH  18  19
HETATM   19  O2  UNL     1       2.248   0.629   0.736  1.00  0.00    -0.298 OA
BRANCH  19  20
HETATM   20  C1  UNL     1       3.024   0.153  -0.284  1.00  0.00     0.379 C 
HETATM   21  N2  UNL     1       4.439   0.045  -0.134  1.00  0.00    -0.252 N 
ATOM     22  H2  UNL     1       4.873   0.327   0.745  1.00  0.00     0.191 HD
HETATM   23  O1  UNL     1       2.451  -0.189  -1.366  1.00  0.00    -0.237 OA
BRANCH  21  24
HETATM   24  N1  UNL     1       5.243  -0.442  -1.174  1.00  0.00    -0.341 N 
ATOM     25  H12 UNL     1       4.793  -0.720  -2.046  1.00  0.00     0.177 HD
ATOM     26  H11 UNL     1       6.254  -0.519  -1.067  1.00  0.00     0.177 HD
ENDBRANCH  21  24
ENDBRANCH  19  20
ENDBRANCH  18  19
ENDBRANCH   1  18
TORSDOF 6
