REMARK  5 active torsions:
REMARK  status: ('A' for Active; 'I' for Inactive)
REMARK    1  A    between atoms: N1_2  and  C2_5 
REMARK    2  A    between atoms: C2_5  and  C3_6 
REMARK    3  A    between atoms: C3_6  and  C4_7 
REMARK    4  A    between atoms: C7_10  and  C8_11 
REMARK    5  A    between atoms: C8_11  and  N2_12 
ROOT
HETATM    1  C4  UNL     1       1.746  -0.161  -0.036  1.00  0.00    -0.057 A 
HETATM    2  C5  UNL     1       1.129  -1.386  -0.019  1.00  0.00     0.007 A 
HETATM    3  C6  UNL     1      -0.150  -1.524   0.487  1.00  0.00     0.009 A 
HETATM    4  C7  UNL     1      -0.864  -0.454   0.993  1.00  0.00    -0.039 A 
HETATM    5  C13 UNL     1      -0.224   0.761   0.965  1.00  0.00     0.009 A 
HETATM    6  C14 UNL     1       1.064   0.920   0.460  1.00  0.00     0.007 A 
ENDROOT
BRANCH   4   7
HETATM    7  C8  UNL     1      -2.227  -0.587   1.543  1.00  0.00     0.186 C 
BRANCH   7   8
HETATM    8  N2  UNL     1      -3.290  -0.473   0.576  1.00  0.00    -0.182 N 
HETATM    9  C9  UNL     1      -3.939   0.635   0.185  1.00  0.00     0.041 A 
HETATM   10  C10 UNL     1      -3.691   2.021   0.691  1.00  0.00     0.070 C 
HETATM   11  C11 UNL     1      -4.909   0.326  -0.773  1.00  0.00     0.131 A 
HETATM   12  N3  UNL     1      -4.828  -0.999  -0.949  1.00  0.00    -0.200 N 
HETATM   13  C12 UNL     1      -3.861  -1.480  -0.145  1.00  0.00     0.678 A 
ATOM     14  H3  UNL     1      -5.403  -1.551  -1.586  1.00  0.00     0.183 HD
HETATM   15  N4  UNL     1      -3.499  -2.715  -0.032  1.00  0.00    -0.234 N 
ATOM     16  H42 UNL     1      -2.766  -3.079   0.577  1.00  0.00     0.174 HD
ATOM     17  H41 UNL     1      -3.926  -3.468  -0.571  1.00  0.00     0.174 HD
ENDBRANCH   7   8
ENDBRANCH   4   7
BRANCH   1  18
HETATM   18  C3  UNL     1       3.135  -0.028  -0.590  1.00  0.00     0.066 C 
BRANCH  18  19
HETATM   19  C2  UNL     1       4.163  -0.237   0.496  1.00  0.00     0.236 C 
BRANCH  19  20
HETATM   20  N1  UNL     1       5.483  -0.095  -0.074  1.00  0.00    -0.079 N 
HETATM   21  C1  UNL     1       5.719   1.279  -0.466  1.00  0.00     0.267 C 
ATOM     22  H12 UNL     1       5.634  -0.742  -0.848  1.00  0.00     0.276 HD
ATOM     23  H11 UNL     1       6.208  -0.440   0.556  1.00  0.00     0.276 HD
ENDBRANCH  19  20
ENDBRANCH  18  19
ENDBRANCH   1  18
TORSDOF 5
