REMARK  6 active torsions:
REMARK  status: ('A' for Active; 'I' for Inactive)
REMARK       I    between atoms: C1_2  and  N1_3 
REMARK    1  A    between atoms: C1_2  and  C12_21 
REMARK    2  A    between atoms: N1_3  and  C2_5 
REMARK    3  A    between atoms: C2_5  and  C3_6 
REMARK       I    between atoms: C3_6  and  N2_8 
REMARK    4  A    between atoms: N2_8  and  C4_10 
REMARK    5  A    between atoms: C14_23  and  N3_24 
REMARK    6  A    between atoms: N3_24  and  C15_27 
ROOT
HETATM    1  C2  UNL     1      -1.650  -1.518  -0.525  1.00  0.00     0.113 C 
HETATM    2  C8  UNL     1      -2.361  -2.052  -1.733  1.00  0.00     0.041 C 
HETATM    3  C9  UNL     1      -3.067  -3.312  -1.352  1.00  0.00     0.003 C 
HETATM    4  C10 UNL     1      -2.322  -3.723  -0.092  1.00  0.00     0.003 C 
HETATM    5  C11 UNL     1      -2.153  -2.399   0.594  1.00  0.00     0.041 C 
ENDROOT
BRANCH   1   6
HETATM    6  N1  UNL     1      -0.220  -1.621  -0.695  1.00  0.00    -0.343 N 
HETATM    7  C1  UNL     1       0.732  -1.269   0.299  1.00  0.00     0.223 C 
HETATM    8  O1  UNL     1       0.401  -0.834   1.432  1.00  0.00    -0.273 OA
ATOM      9  H1  UNL     1       0.130  -1.969  -1.588  1.00  0.00     0.163 HD
BRANCH   7  10
HETATM   10  C12 UNL     1       2.197  -1.396   0.056  1.00  0.00     0.082 C 
HETATM   11  C13 UNL     1       3.062  -0.985   1.226  1.00  0.00     0.047 C 
HETATM   12  C14 UNL     1       4.010  -0.369   0.189  1.00  0.00     0.188 C 
HETATM   13  C19 UNL     1       2.797  -0.240  -0.716  1.00  0.00     0.047 C 
BRANCH  12  14
HETATM   14  N3  UNL     1       4.604   0.864   0.591  1.00  0.00    -0.067 N 
ATOM     15  H32 UNL     1       3.912   1.550   0.892  1.00  0.00     0.278 HD
ATOM     16  H31 UNL     1       5.114   0.782   1.471  1.00  0.00     0.278 HD
BRANCH  14  17
HETATM   17  C15 UNL     1       5.436   1.354  -0.486  1.00  0.00     0.186 C 
HETATM   18  C16 UNL     1       6.610   0.500  -0.877  1.00  0.00     0.033 C 
HETATM   19  C17 UNL     1       7.553   1.457  -0.148  1.00  0.00     0.004 C 
HETATM   20  C18 UNL     1       6.389   2.410   0.010  1.00  0.00     0.033 C 
ENDBRANCH  14  17
ENDBRANCH  12  14
ENDBRANCH   7  10
ENDBRANCH   1   6
BRANCH   1  21
HETATM   21  C3  UNL     1      -2.116  -0.132  -0.284  1.00  0.00     0.246 C 
HETATM   22  O2  UNL     1      -1.225   0.779  -0.266  1.00  0.00    -0.271 OA
HETATM   23  N2  UNL     1      -3.476   0.131  -0.090  1.00  0.00    -0.353 N 
ATOM     24  H2  UNL     1      -4.119  -0.660  -0.122  1.00  0.00     0.163 HD
BRANCH  23  25
HETATM   25  C4  UNL     1      -4.038   1.437   0.152  1.00  0.00     0.099 C 
HETATM   26  C5  UNL     1      -5.071   1.775  -0.885  1.00  0.00     0.041 C 
HETATM   27  C6  UNL     1      -5.617   3.126  -0.548  1.00  0.00     0.142 C 
HETATM   28  S1  UNL     1      -5.631   3.078   1.250  1.00  0.00     0.146 S 
HETATM   29  O3  UNL     1      -7.003   2.996   1.800  1.00  0.00    -0.228 OA
HETATM   30  O4  UNL     1      -4.846   4.256   1.743  1.00  0.00    -0.228 OA
HETATM   31  C7  UNL     1      -4.707   1.554   1.506  1.00  0.00     0.165 C 
ENDBRANCH  23  25
ENDBRANCH   1  21
TORSDOF 6
