REMARK  4 active torsions:
REMARK  status: ('A' for Active; 'I' for Inactive)
REMARK    1  A    between atoms: N1_2  and  N2_3 
REMARK    2  A    between atoms: N1_2  and  N5_16 
REMARK    3  A    between atoms: N2_3  and  C2_5 
REMARK    4  A    between atoms: N6_18  and  C7_20 
ROOT
HETATM    1  C1  UNL     1      -1.181  -0.896  -1.059  1.00  0.00     0.201 C 
HETATM    2  N1  UNL     1      -0.438  -0.477   0.136  1.00  0.00    -0.225 N 
ENDROOT
BRANCH   2   3
HETATM    3  N2  UNL     1       0.501   0.420   0.105  1.00  0.00    -0.294 N 
ATOM      4  H2  UNL     1      -0.052   1.268   0.230  1.00  0.00     0.187 HD
BRANCH   3   5
HETATM    5  C2  UNL     1       1.610   0.894   0.023  1.00  0.00     0.127 C 
HETATM    6  C3  UNL     1       2.922   0.319  -0.165  1.00  0.00     0.064 A 
HETATM    7  C4  UNL     1       4.024   1.142  -0.220  1.00  0.00     0.111 A 
HETATM    8  C6  UNL     1       3.131  -1.024  -0.294  1.00  0.00     0.262 A 
HETATM    9  N3  UNL     1       5.289   0.664  -0.395  1.00  0.00    -0.318 N 
HETATM   10  C5  UNL     1       5.441  -0.672  -0.517  1.00  0.00     0.327 A 
ATOM     11  H3  UNL     1       6.091   1.293  -0.432  1.00  0.00     0.170 HD
HETATM   12  O1  UNL     1       6.588  -1.158  -0.680  1.00  0.00    -0.247 OA
HETATM   13  N4  UNL     1       4.401  -1.511  -0.470  1.00  0.00    -0.275 N 
ATOM     14  H4  UNL     1       4.552  -2.515  -0.565  1.00  0.00     0.173 HD
HETATM   15  O2  UNL     1       2.194  -1.833  -0.256  1.00  0.00    -0.267 OA
ENDBRANCH   3   5
ENDBRANCH   2   3
BRANCH   2  16
HETATM   16  N5  UNL     1      -0.829  -1.109   1.338  1.00  0.00    -0.225 N 
HETATM   17  N6  UNL     1      -1.972  -1.057   1.828  1.00  0.00    -0.265 N 
ATOM     18  H6  UNL     1      -2.112  -1.564   2.702  1.00  0.00     0.190 HD
ATOM     19  H5  UNL     1      -0.123  -1.647   1.841  1.00  0.00     0.210 HD
BRANCH  17  20
HETATM   20  C7  UNL     1      -3.091  -0.381   1.316  1.00  0.00     0.194 A 
HETATM   21  N7  UNL     1      -4.095  -1.064   0.756  1.00  0.00    -0.266 N 
HETATM   22  N8  UNL     1      -5.170  -0.488   0.258  1.00  0.00    -0.238 N 
ATOM     23  H7  UNL     1      -4.025  -2.081   0.712  1.00  0.00     0.190 HD
HETATM   24  N9  UNL     1      -5.286   0.828   0.303  1.00  0.00    -0.248 N 
ATOM     25  H8  UNL     1      -5.908  -1.054  -0.160  1.00  0.00     0.208 HD
HETATM   26  C8  UNL     1      -4.309   1.585   0.855  1.00  0.00     0.315 A 
ATOM     27  H9  UNL     1      -6.118   1.276  -0.081  1.00  0.00     0.192 HD
HETATM   28  O3  UNL     1      -4.435   2.839   0.889  1.00  0.00    -0.262 OA
HETATM   29  C9  UNL     1      -3.187   0.990   1.375  1.00  0.00     0.287 A 
HETATM   30  O4  UNL     1      -2.285   1.709   1.886  1.00  0.00    -0.278 OA
ENDBRANCH  17  20
ENDBRANCH   2  16
TORSDOF 4
