REMARK  8 active torsions:
REMARK  status: ('A' for Active; 'I' for Inactive)
REMARK    1  A    between atoms: N1_2  and  C3_4 
REMARK    2  A    between atoms: C5_10  and  N4_11 
REMARK    3  A    between atoms: N6_16  and  O1_17 
REMARK    4  A    between atoms: N7_22  and  C8_23 
REMARK    5  A    between atoms: C8_23  and  C9_24 
REMARK    6  A    between atoms: C8_23  and  C10_27 
REMARK    7  A    between atoms: C9_24  and  O3_25 
REMARK    8  A    between atoms: C10_27  and  O4_28 
ROOT
HETATM    1  C3  UNL     1       0.079   0.972  -0.068  1.00  0.00     0.686 A 
HETATM    2  N2  UNL     1       1.418   1.172  -0.002  1.00  0.00    -0.173 N 
ATOM      3  H2  UNL     1       1.784   2.123  -0.044  1.00  0.00     0.186 HD
HETATM    4  C4  UNL     1       2.272   0.145   0.117  1.00  0.00     0.173 A 
HETATM    5  N3  UNL     1       3.598   0.333   0.182  1.00  0.00    -0.172 N 
ATOM      6  H3  UNL     1       3.984   1.276   0.141  1.00  0.00     0.186 HD
HETATM    7  C5  UNL     1       4.411  -0.721   0.301  1.00  0.00     0.694 A 
HETATM    8  N5  UNL     1       3.881  -1.960   0.353  1.00  0.00    -0.105 N 
ATOM      9  H5  UNL     1       4.507  -2.760   0.443  1.00  0.00     0.208 HD
HETATM   10  N6  UNL     1       2.578  -2.172   0.291  1.00  0.00    -0.140 N 
HETATM   11  C6  UNL     1       1.760  -1.123   0.172  1.00  0.00     0.195 A 
HETATM   12  C7  UNL     1       0.385  -1.284   0.102  1.00  0.00     0.297 A 
HETATM   13  O2  UNL     1      -0.047  -2.439   0.155  1.00  0.00    -0.265 OA
HETATM   14  N7  UNL     1      -0.474  -0.243  -0.019  1.00  0.00    -0.136 N 
ENDROOT
BRANCH  14  15
HETATM   15  C8  UNL     1      -1.886  -0.413  -0.092  1.00  0.00     0.158 C 
BRANCH  15  16
HETATM   16  C9  UNL     1      -2.470  -1.099   1.133  1.00  0.00     0.192 C 
BRANCH  16  17
HETATM   17  O3  UNL     1      -2.208  -0.372   2.256  1.00  0.00    -0.399 OA
ATOM     18  H3  UNL     1      -2.573  -0.801   3.021  1.00  0.00     0.209 HD
ENDBRANCH  16  17
ENDBRANCH  15  16
BRANCH  15  19
HETATM   19  C10 UNL     1      -2.288  -1.215  -1.339  1.00  0.00     0.192 C 
BRANCH  19  20
HETATM   20  O4  UNL     1      -1.889  -0.609  -2.507  1.00  0.00    -0.399 OA
ATOM     21  H4  UNL     1      -2.138  -1.105  -3.278  1.00  0.00     0.209 HD
ENDBRANCH  19  20
ENDBRANCH  15  19
ENDBRANCH  14  15
BRANCH   1  22
HETATM   22  N1  UNL     1      -0.705   2.135  -0.183  1.00  0.00    -0.226 N 
HETATM   23  C1  UNL     1      -1.042   2.684  -1.468  1.00  0.00     0.168 C 
HETATM   24  C2  UNL     1      -1.162   2.807   1.007  1.00  0.00     0.168 C 
ENDBRANCH   1  22
BRANCH  10  25
HETATM   25  O1  UNL     1       2.058  -3.467   0.347  1.00  0.00    -0.267 OA
ATOM     26  H1  UNL     1       1.121  -3.619   0.302  1.00  0.00     0.247 HD
ENDBRANCH  10  25
BRANCH   7  27
HETATM   27  N4  UNL     1       5.706  -0.606   0.369  1.00  0.00    -0.233 N 
ATOM     28  H42 UNL     1       6.107   0.331   0.330  1.00  0.00     0.174 HD
ATOM     29  H41 UNL     1       6.327  -1.410   0.460  1.00  0.00     0.174 HD
ENDBRANCH   7  27
TORSDOF 8
