REMARK  7 active torsions:
REMARK  status: ('A' for Active; 'I' for Inactive)
REMARK    1  A    between atoms: N1_1  and  C1_4 
REMARK    2  A    between atoms: N2_7  and  S1_8 
REMARK    3  A    between atoms: S1_8  and  N3_9 
REMARK    4  A    between atoms: S1_8  and  C4_13 
REMARK    5  A    between atoms: C4_13  and  C5_14 
REMARK    6  A    between atoms: C5_14  and  C6_15 
REMARK    7  A    between atoms: C6_15  and  C7_16 
ROOT
HETATM    1  S1  UNL     1      -1.215   0.183  -0.724  1.00  0.00     0.125 S 
HETATM    2  O1  UNL     1      -0.851   1.667  -0.140  1.00  0.00    -0.227 OA
ENDROOT
BRANCH   1   3
HETATM    3  N2  UNL     1      -3.107   0.858  -0.593  1.00  0.00    -0.195 N 
HETATM    4  C3  UNL     1      -3.693   0.531   0.539  1.00  0.00     0.133 A 
HETATM    5  C2  UNL     1      -5.027   0.940   0.683  1.00  0.00     0.069 A 
HETATM    6  C1  UNL     1      -5.578   1.634  -0.367  1.00  0.00     0.115 A 
HETATM    7  N9  UNL     1      -4.902   1.925  -1.489  1.00  0.00    -0.270 N 
HETATM    8  N8  UNL     1      -3.626   1.508  -1.573  1.00  0.00    -0.227 N 
ATOM      9  H9  UNL     1      -5.340   2.444  -2.250  1.00  0.00     0.190 HD
ATOM     10  H8  UNL     1      -3.074   1.706  -2.408  1.00  0.00     0.209 HD
BRANCH   6  11
HETATM   11  N1  UNL     1      -6.808   2.013  -0.239  1.00  0.00    -0.384 N 
ATOM     12  H12 UNL     1      -7.322   1.792   0.614  1.00  0.00     0.157 HD
ATOM     13  H11 UNL     1      -7.217   2.528  -1.019  1.00  0.00     0.157 HD
ENDBRANCH   6  11
ENDBRANCH   1   3
BRANCH   1  14
HETATM   14  N3  UNL     1      -1.782  -1.156  -1.715  1.00  0.00    -0.343 N 
ATOM     15  H32 UNL     1      -2.692  -1.453  -2.068  1.00  0.00     0.167 HD
ATOM     16  H31 UNL     1      -0.823  -1.498  -1.781  1.00  0.00     0.167 HD
ENDBRANCH   1  14
BRANCH   1  17
HETATM   17  C4  UNL     1      -0.668  -0.802   0.716  1.00  0.00     0.141 C 
BRANCH  17  18
HETATM   18  C5  UNL     1      -0.036  -2.160   0.569  1.00  0.00     0.023 C 
BRANCH  18  19
HETATM   19  C6  UNL     1       1.268  -2.287  -0.088  1.00  0.00     0.079 C 
BRANCH  19  20
HETATM   20  C7  UNL     1       2.428  -1.652   0.552  1.00  0.00     0.099 A 
HETATM   21  N4  UNL     1       3.090  -2.271   1.578  1.00  0.00    -0.287 N 
HETATM   22  N5  UNL     1       4.109  -1.547   1.962  1.00  0.00    -0.279 N 
ATOM     23  H4  UNL     1       2.826  -3.168   1.985  1.00  0.00     0.188 HD
HETATM   24  C8  UNL     1       4.104  -0.450   1.174  1.00  0.00     0.193 A 
ATOM     25  H5  UNL     1       4.772  -1.766   2.705  1.00  0.00     0.189 HD
HETATM   26  N6  UNL     1       3.067  -0.520   0.307  1.00  0.00    -0.315 N 
HETATM   27  C11 UNL     1       4.994   0.688   1.154  1.00  0.00     0.287 C 
HETATM   28  C9  UNL     1       2.843   0.510  -0.684  1.00  0.00     0.152 C 
HETATM   29  C10 UNL     1       3.425   1.846  -0.332  1.00  0.00     0.143 C 
HETATM   30  N7  UNL     1       4.765   1.725   0.218  1.00  0.00    -0.353 N 
ATOM     31  H7  UNL     1       5.511   2.362  -0.060  1.00  0.00     0.162 HD
HETATM   32  O2  UNL     1       5.976   0.782   1.955  1.00  0.00    -0.264 OA
ENDBRANCH  19  20
ENDBRANCH  18  19
ENDBRANCH  17  18
ENDBRANCH   1  17
TORSDOF 7
