REMARK  6 active torsions:
REMARK  status: ('A' for Active; 'I' for Inactive)
REMARK    1  A    between atoms: N4_7  and  C2_8 
REMARK    2  A    between atoms: C2_8  and  C3_9 
REMARK    3  A    between atoms: C3_9  and  C4_10 
REMARK    4  A    between atoms: C4_10  and  N5_11 
REMARK    5  A    between atoms: N6_14  and  C7_15 
REMARK    6  A    between atoms: C8_18  and  N8_19 
ROOT
HETATM    1  N5  UNL     1      -0.146  -0.507   0.023  1.00  0.00     0.091 N 
HETATM    2  C5  UNL     1       0.426  -0.099  -1.232  1.00  0.00     0.292 C 
HETATM    3  C6  UNL     1       1.724   0.615  -0.957  1.00  0.00     0.171 C 
HETATM    4  N6  UNL     1       2.543  -0.173  -0.067  1.00  0.00    -0.214 N 
HETATM    5  C10 UNL     1       2.047  -1.273   0.704  1.00  0.00     0.171 C 
HETATM    6  C11 UNL     1       0.592  -1.554   0.607  1.00  0.00     0.292 C 
ENDROOT
BRANCH   4   7
HETATM    7  C7  UNL     1       3.911   0.181   0.076  1.00  0.00     0.699 A 
HETATM    8  N7  UNL     1       4.322   1.477   0.121  1.00  0.00    -0.022 N 
HETATM    9  C8  UNL     1       5.613   1.808   0.230  1.00  0.00     0.694 A 
ATOM     10  H7  UNL     1       3.624   2.219   0.070  1.00  0.00     0.203 HD
HETATM   11  N9  UNL     1       6.549   0.848   0.298  1.00  0.00    -0.141 N 
HETATM   12  C9  UNL     1       6.200  -0.453   0.259  1.00  0.00     0.352 A 
ATOM     13  H9  UNL     1       7.533   1.106   0.380  1.00  0.00     0.189 HD
HETATM   14  O1  UNL     1       7.092  -1.344   0.325  1.00  0.00    -0.246 OA
HETATM   15  N10 UNL     1       4.888  -0.752   0.149  1.00  0.00    -0.140 N 
ATOM     16  H10 UNL     1       4.619  -1.735   0.119  1.00  0.00     0.189 HD
BRANCH   9  17
HETATM   17  N8  UNL     1       6.028   3.046   0.297  1.00  0.00    -0.234 N 
ATOM     18  H82 UNL     1       5.317   3.775   0.245  1.00  0.00     0.174 HD
ATOM     19  H81 UNL     1       7.013   3.298   0.380  1.00  0.00     0.174 HD
ENDBRANCH   9  17
ENDBRANCH   4   7
BRANCH   1  20
HETATM   20  C4  UNL     1      -1.549  -0.723  -0.172  1.00  0.00     0.274 C 
BRANCH  20  21
HETATM   21  C3  UNL     1      -2.217  -1.335   1.016  1.00  0.00     0.052 C 
BRANCH  21  22
HETATM   22  C2  UNL     1      -3.689  -1.572   0.889  1.00  0.00     0.157 C 
BRANCH  22  23
HETATM   23  N4  UNL     1      -4.501  -0.386   0.752  1.00  0.00    -0.226 N 
HETATM   24  N3  UNL     1      -5.050   0.298   1.791  1.00  0.00    -0.222 N 
HETATM   25  N2  UNL     1      -5.747   1.314   1.320  1.00  0.00    -0.222 N 
ATOM     26  H3  UNL     1      -4.940   0.063   2.777  1.00  0.00     0.210 HD
HETATM   27  N1  UNL     1      -5.680   1.327   0.001  1.00  0.00    -0.230 N 
ATOM     28  H2  UNL     1      -6.260   1.988   1.888  1.00  0.00     0.210 HD
HETATM   29  C1  UNL     1      -6.332   2.284  -0.887  1.00  0.00     0.184 C 
HETATM   30  C12 UNL     1      -4.904   0.271  -0.338  1.00  0.00     0.359 A 
HETATM   31  O2  UNL     1      -4.624  -0.021  -1.519  1.00  0.00    -0.243 OA
ENDBRANCH  22  23
ENDBRANCH  21  22
ENDBRANCH  20  21
ENDBRANCH   1  20
TORSDOF 6
