REMARK  20 active torsions:
REMARK  status: ('A' for Active; 'I' for Inactive)
REMARK    1  A    between atoms: C2_2  and  N1_3 
REMARK    2  A    between atoms: N1_3  and  C3_5 
REMARK    3  A    between atoms: C3_5  and  C4_6 
REMARK    4  A    between atoms: N2_10  and  C8_11 
REMARK    5  A    between atoms: C8_11  and  C9_12 
REMARK    6  A    between atoms: C8_11  and  C14_21 
REMARK    7  A    between atoms: C9_12  and  C10_13 
REMARK    8  A    between atoms: C10_13  and  C11_14 
REMARK    9  A    between atoms: C11_14  and  C12_15 
REMARK   10  A    between atoms: C12_15  and  N3_16 
REMARK       I    between atoms: C14_21  and  N6_23 
REMARK   11  A    between atoms: C18_27  and  C19_28 
REMARK       I    between atoms: C19_28  and  N7_30 
REMARK   12  A    between atoms: N7_30  and  C20_31 
REMARK   13  A    between atoms: C20_31  and  C21_32 
REMARK   14  A    between atoms: C20_31  and  C25_40 
REMARK   15  A    between atoms: C21_32  and  C22_33 
REMARK   16  A    between atoms: C22_33  and  C23_34 
REMARK   17  A    between atoms: C23_34  and  C24_35 
REMARK   18  A    between atoms: C24_35  and  N8_36 
REMARK   19  A    between atoms: C25_40  and  C26_41 
REMARK   20  A    between atoms: C26_41  and  C27_42 
ROOT
HETATM    1  C14 UNL     1      -0.874  -0.126  -1.587  1.00  0.00     0.266 C 
HETATM    2  O1  UNL     1      -1.530  -0.701  -2.472  1.00  0.00    -0.266 OA
HETATM    3  N6  UNL     1       0.457   0.307  -1.963  1.00  0.00    -0.332 N 
HETATM    4  C15 UNL     1       1.029   0.166  -3.307  1.00  0.00     0.127 C 
HETATM    5  C16 UNL     1       2.044   1.268  -3.394  1.00  0.00     0.022 C 
HETATM    6  C17 UNL     1       1.982   1.995  -2.084  1.00  0.00     0.038 C 
HETATM    7  C18 UNL     1       1.480   0.916  -1.166  1.00  0.00     0.194 C 
ENDROOT
BRANCH   1   8
HETATM    8  C8  UNL     1      -1.394   0.100  -0.255  1.00  0.00     0.076 C 
BRANCH   8   9
HETATM    9  N2  UNL     1      -2.384  -0.808   0.168  1.00  0.00    -0.379 N 
HETATM   10  C7  UNL     1      -2.583  -0.971   1.566  1.00  0.00     0.123 C 
HETATM   11  C6  UNL     1      -3.823  -1.754   1.886  1.00  0.00     0.021 C 
HETATM   12  C5  UNL     1      -4.222  -2.795   0.890  1.00  0.00     0.013 C 
HETATM   13  C4  UNL     1      -3.866  -2.484  -0.533  1.00  0.00     0.041 C 
HETATM   14  C28 UNL     1      -3.585  -0.955  -0.549  1.00  0.00     0.132 C 
BRANCH  13  15
HETATM   15  C3  UNL     1      -4.907  -2.827  -1.522  1.00  0.00     0.061 C 
BRANCH  15  16
HETATM   16  N1  UNL     1      -5.315  -4.149  -1.679  1.00  0.00    -0.402 N 
ATOM     17  H1  UNL     1      -5.070  -4.640  -2.539  1.00  0.00     0.158 HD
BRANCH  16  18
HETATM   18  C2  UNL     1      -6.047  -4.828  -0.702  1.00  0.00     0.114 C 
HETATM   19  C1  UNL     1      -6.460  -6.223  -1.243  1.00  0.00     0.026 C 
ENDBRANCH  16  18
ENDBRANCH  15  16
ENDBRANCH  13  15
ENDBRANCH   8   9
BRANCH   8  20
HETATM   20  C9  UNL     1      -1.671   1.539   0.117  1.00  0.00     0.063 C 
BRANCH  20  21
HETATM   21  C10 UNL     1      -2.964   2.098  -0.421  1.00  0.00     0.008 C 
BRANCH  21  22
HETATM   22  C11 UNL     1      -3.041   3.565   0.007  1.00  0.00     0.020 C 
BRANCH  22  23
HETATM   23  C12 UNL     1      -3.012   3.664   1.495  1.00  0.00     0.122 C 
BRANCH  23  24
HETATM   24  N3  UNL     1      -3.106   5.088   1.854  1.00  0.00    -0.367 N 
HETATM   25  C13 UNL     1      -4.220   5.688   1.982  1.00  0.00     0.196 C 
HETATM   26  N4  UNL     1      -4.228   7.062   2.330  1.00  0.00    -0.067 NA
HETATM   27  N5  UNL     1      -5.440   4.969   1.775  1.00  0.00    -0.067 NA
ATOM     28  H3  UNL     1      -2.245   5.614   2.006  1.00  0.00     0.161 HD
ENDBRANCH  23  24
ENDBRANCH  22  23
ENDBRANCH  21  22
ENDBRANCH  20  21
ENDBRANCH   8  20
ENDBRANCH   1   8
BRANCH   7  29
HETATM   29  C19 UNL     1       2.561  -0.092  -0.818  1.00  0.00     0.314 C 
HETATM   30  O2  UNL     1       2.490  -1.200  -1.405  1.00  0.00    -0.255 OA
HETATM   31  N7  UNL     1       3.545   0.135   0.057  1.00  0.00    -0.378 NA
BRANCH  31  32
HETATM   32  C20 UNL     1       4.601   0.458   0.525  1.00  0.00     0.066 C 
BRANCH  32  33
HETATM   33  C21 UNL     1       4.741   0.262   2.027  1.00  0.00     0.068 C 
BRANCH  33  34
HETATM   34  C22 UNL     1       5.460  -0.993   2.322  1.00  0.00     0.008 C 
BRANCH  34  35
HETATM   35  C23 UNL     1       6.833  -1.142   1.784  1.00  0.00     0.027 C 
BRANCH  35  36
HETATM   36  C24 UNL     1       7.413  -2.494   2.217  1.00  0.00     0.229 C 
BRANCH  36  37
HETATM   37  N8  UNL     1       6.544  -3.516   1.681  1.00  0.00    -0.079 N 
ATOM     38  H83 UNL     1       5.568  -3.394   1.950  1.00  0.00     0.274 HD
ATOM     39  H82 UNL     1       6.411  -3.441   0.672  1.00  0.00     0.274 HD
ATOM     40  H81 UNL     1       6.930  -4.415   1.969  1.00  0.00     0.274 HD
ENDBRANCH  36  37
ENDBRANCH  35  36
ENDBRANCH  34  35
ENDBRANCH  33  34
ENDBRANCH  32  33
BRANCH  32  41
HETATM   41  C25 UNL     1       5.766   1.070  -0.197  1.00  0.00     0.077 C 
BRANCH  41  42
HETATM   42  C26 UNL     1       5.814   0.770  -1.655  1.00  0.00     0.106 C 
BRANCH  42  43
HETATM   43  C27 UNL     1       7.027   1.444  -2.242  1.00  0.00     0.231 C 
HETATM   44  N9  UNL     1       7.327   1.220  -3.607  1.00  0.00    -0.062 NA
HETATM   45  O3  UNL     1       7.771   2.186  -1.580  1.00  0.00    -0.277 OA
ENDBRANCH  42  43
ENDBRANCH  41  42
ENDBRANCH  32  41
ENDBRANCH  31  32
ENDBRANCH   7  29
TORSDOF 20
