REMARK  4 active torsions:
REMARK  status: ('A' for Active; 'I' for Inactive)
REMARK    1  A    between atoms: N1_1  and  C1_4 
REMARK    2  A    between atoms: C3_8  and  N3_9 
REMARK    3  A    between atoms: N3_9  and  N4_11 
REMARK    4  A    between atoms: N4_11  and  N5_12 
ROOT
HETATM    1  C1  UNL     1      -2.051  -1.591   0.327  1.00  0.00     0.692 A 
HETATM    2  N2  UNL     1      -0.710  -1.387   0.204  1.00  0.00    -0.170 N 
ATOM      3  H2  UNL     1       0.010  -2.108   0.246  1.00  0.00     0.186 HD
HETATM    4  C2  UNL     1      -0.497  -0.066   0.017  1.00  0.00     0.188 A 
HETATM    5  C3  UNL     1       0.699   0.645  -0.156  1.00  0.00     0.165 A 
HETATM    6  N6  UNL     1       0.587   1.985  -0.317  1.00  0.00    -0.347 N 
ATOM      7  H6  UNL     1       1.437   2.534  -0.445  1.00  0.00     0.167 HD
HETATM    8  C4  UNL     1      -0.596   2.621  -0.315  1.00  0.00     0.109 A 
HETATM    9  C5  UNL     1      -1.732   1.850  -0.138  1.00  0.00     0.136 A 
HETATM   10  N7  UNL     1      -1.701   0.511   0.028  1.00  0.00    -0.232 N 
HETATM   11  N8  UNL     1      -2.656  -0.410   0.215  1.00  0.00    -0.124 N 
ATOM     12  H8  UNL     1      -3.660  -0.238   0.263  1.00  0.00     0.206 HD
ENDROOT
BRANCH   5  13
HETATM   13  N3  UNL     1       1.933  -0.039  -0.166  1.00  0.00    -0.267 N 
ATOM     14  H3  UNL     1       2.309  -0.322  -1.071  1.00  0.00     0.186 HD
BRANCH  13  15
HETATM   15  N4  UNL     1       2.669  -0.354   0.957  1.00  0.00    -0.028 NA
BRANCH  15  16
HETATM   16  N5  UNL     1       4.038  -0.419   0.579  1.00  0.00    -0.329 N 
ATOM     17  H52 UNL     1       4.397  -0.258  -0.362  1.00  0.00     0.174 HD
ATOM     18  H51 UNL     1       4.582  -0.652   1.410  1.00  0.00     0.174 HD
ENDBRANCH  15  16
ENDBRANCH  13  15
ENDBRANCH   5  13
BRANCH   1  19
HETATM   19  N1  UNL     1      -2.609  -2.739   0.526  1.00  0.00    -0.233 N 
ATOM     20  H12 UNL     1      -2.146  -3.644   0.612  1.00  0.00     0.174 HD
ATOM     21  H11 UNL     1      -3.613  -2.892   0.618  1.00  0.00     0.174 HD
ENDBRANCH   1  19
TORSDOF 4
