REMARK  5 active torsions:
REMARK  status: ('A' for Active; 'I' for Inactive)
REMARK    1  A    between atoms: N2_4  and  N3_6 
REMARK    2  A    between atoms: C1_8  and  N4_9 
REMARK    3  A    between atoms: C2_11  and  C3_12 
REMARK    4  A    between atoms: C3_12  and  N5_13 
REMARK    5  A    between atoms: N5_13  and  N6_15 
REMARK       I    between atoms: C4_17  and  N8_19 
ROOT
HETATM    1  N4  UNL     1      -2.729  -0.866   0.565  1.00  0.00    -0.363 N 
ATOM      2  H4  UNL     1      -2.466  -0.079   1.158  1.00  0.00     0.165 HD
HETATM    3  C2  UNL     1      -1.834  -1.760   0.270  1.00  0.00     0.082 C 
ENDROOT
BRANCH   3   4
HETATM    4  C3  UNL     1      -0.449  -1.681   0.760  1.00  0.00     0.183 C 
BRANCH   4   5
HETATM    5  N5  UNL     1       0.309  -0.672   0.055  1.00  0.00    -0.329 N 
ATOM      6  H5  UNL     1      -0.133  -0.122  -0.681  1.00  0.00     0.180 HD
BRANCH   5   7
HETATM    7  N6  UNL     1       1.644  -0.452   0.383  1.00  0.00    -0.278 N 
HETATM    8  C4  UNL     1       2.150   0.712   0.244  1.00  0.00     0.205 C 
HETATM    9  N7  UNL     1       1.356   1.772  -0.242  1.00  0.00    -0.062 NA
HETATM   10  N8  UNL     1       3.509   0.903   0.585  1.00  0.00    -0.351 N 
HETATM   11  C5  UNL     1       4.907   0.498   0.769  1.00  0.00     0.145 A 
HETATM   12  C6  UNL     1       4.562   1.877   1.078  1.00  0.00     0.145 A 
ATOM     13  H6  UNL     1       2.217  -1.219   0.734  1.00  0.00     0.189 HD
ENDBRANCH   5   7
ENDBRANCH   4   5
ENDBRANCH   3   4
BRANCH   1  14
HETATM   14  C1  UNL     1      -4.062  -0.952   0.086  1.00  0.00     0.198 C 
HETATM   15  N3  UNL     1      -4.753   0.114  -0.174  1.00  0.00    -0.282 N 
ATOM     16  H3  UNL     1      -4.349   1.041  -0.039  1.00  0.00     0.189 HD
BRANCH  15  17
HETATM   17  N2  UNL     1      -6.046  -0.029  -0.637  1.00  0.00    -0.248 N 
HETATM   18  N1  UNL     1      -6.530   0.664  -1.600  1.00  0.00    -0.331 N 
ATOM     19  H12 UNL     1      -5.916   1.352  -2.036  1.00  0.00     0.178 HD
ATOM     20  H11 UNL     1      -7.485   0.558  -1.942  1.00  0.00     0.178 HD
ATOM     21  H2  UNL     1      -6.646  -0.722  -0.190  1.00  0.00     0.207 HD
ENDBRANCH  15  17
ENDBRANCH   1  14
TORSDOF 5
