REMARK  7 active torsions:
REMARK  status: ('A' for Active; 'I' for Inactive)
REMARK       I    between atoms: C1_2  and  N1_3 
REMARK       I    between atoms: C1_2  and  N6_33 
REMARK    1  A    between atoms: N1_3  and  C2_5 
REMARK    2  A    between atoms: C7_13  and  N3_14 
REMARK    3  A    between atoms: C10_17  and  C11_18 
REMARK    4  A    between atoms: C11_18  and  C12_19 
REMARK    5  A    between atoms: C12_19  and  N4_20 
REMARK    6  A    between atoms: N5_23  and  C15_24 
REMARK    7  A    between atoms: N6_33  and  C23_35 
ROOT
HETATM    1  C2  UNL     1      -5.721  -0.937   0.571  1.00  0.00     0.153 A 
HETATM    2  N2  UNL     1      -5.638  -0.430  -0.658  1.00  0.00    -0.335 N 
ATOM      3  H2  UNL     1      -6.479  -0.248  -1.205  1.00  0.00     0.168 HD
HETATM    4  C3  UNL     1      -4.442  -0.168  -1.151  1.00  0.00     0.053 A 
HETATM    5  C4  UNL     1      -4.167   0.367  -2.425  1.00  0.00     0.034 A 
HETATM    6  C5  UNL     1      -2.870   0.588  -2.803  1.00  0.00     0.047 A 
HETATM    7  C6  UNL     1      -1.772   0.321  -2.016  1.00  0.00     0.144 A 
HETATM    8  F1  UNL     1      -0.491   0.529  -2.360  1.00  0.00    -0.204 F 
HETATM    9  C7  UNL     1      -2.042  -0.202  -0.773  1.00  0.00     0.089 A 
HETATM   10  C22 UNL     1      -3.362  -0.437  -0.364  1.00  0.00     0.064 A 
HETATM   11  S1  UNL     1      -4.086  -1.052   1.052  1.00  0.00    -0.049 SA
ENDROOT
BRANCH   9  12
HETATM   12  N3  UNL     1      -1.044  -0.533   0.176  1.00  0.00    -0.377 N 
HETATM   13  C8  UNL     1      -0.512  -1.884   0.128  1.00  0.00     0.123 C 
HETATM   14  C9  UNL     1       0.533  -2.080   1.186  1.00  0.00     0.024 C 
HETATM   15  C10 UNL     1       1.530  -0.944   1.099  1.00  0.00    -0.010 C 
HETATM   16  C20 UNL     1       0.925   0.397   1.345  1.00  0.00     0.024 C 
HETATM   17  C21 UNL     1      -0.569   0.425   1.155  1.00  0.00     0.123 C 
BRANCH  15  18
HETATM   18  C11 UNL     1       2.278  -1.088  -0.184  1.00  0.00     0.035 C 
BRANCH  18  19
HETATM   19  C12 UNL     1       3.314  -0.026  -0.432  1.00  0.00     0.273 C 
BRANCH  19  20
HETATM   20  N4  UNL     1       4.346   0.055   0.552  1.00  0.00     0.091 N 
HETATM   21  C13 UNL     1       5.254  -1.047   0.596  1.00  0.00     0.302 C 
HETATM   22  C14 UNL     1       6.629  -0.517   0.982  1.00  0.00     0.303 C 
HETATM   23  N5  UNL     1       7.200   0.242  -0.087  1.00  0.00     0.096 N 
HETATM   24  C18 UNL     1       6.159   1.027  -0.713  1.00  0.00     0.303 C 
HETATM   25  C19 UNL     1       5.086   1.279   0.319  1.00  0.00     0.302 C 
BRANCH  23  26
HETATM   26  C15 UNL     1       8.322   1.045   0.285  1.00  0.00     0.223 A 
HETATM   27  C16 UNL     1       9.566   0.410   0.790  1.00  0.00     0.038 A 
HETATM   28  C17 UNL     1       9.557   1.139  -0.535  1.00  0.00     0.038 A 
ENDBRANCH  23  26
ENDBRANCH  19  20
ENDBRANCH  18  19
ENDBRANCH  15  18
ENDBRANCH   9  12
BRANCH   1  29
HETATM   29  N1  UNL     1      -6.806  -1.259   1.240  1.00  0.00    -0.289 N 
HETATM   30  C1  UNL     1      -8.078  -1.067   0.637  1.00  0.00     0.322 C 
HETATM   31  O1  UNL     1      -8.596  -2.022  -0.016  1.00  0.00    -0.247 OA
HETATM   32  N6  UNL     1      -8.798   0.140   0.730  1.00  0.00    -0.338 N 
ATOM     33  H6  UNL     1      -8.404   0.922   1.253  1.00  0.00     0.164 HD
ATOM     34  H1  UNL     1      -6.735  -1.643   2.182  1.00  0.00     0.172 HD
BRANCH  32  35
HETATM   35  C23 UNL     1     -10.079   0.284   0.099  1.00  0.00     0.086 A 
HETATM   36  C24 UNL     1     -10.526   1.626  -0.393  1.00  0.00     0.027 A 
HETATM   37  C25 UNL     1     -11.137   1.116   0.843  1.00  0.00     0.027 A 
ENDBRANCH  32  35
ENDBRANCH   1  29
TORSDOF 7
