REMARK  10 active torsions:
REMARK  status: ('A' for Active; 'I' for Inactive)
REMARK    1  A    between atoms: C2_2  and  C4_4 
REMARK    2  A    between atoms: C5_5  and  C6_6 
REMARK    3  A    between atoms: C8_10  and  S1_11 
REMARK    4  A    between atoms: S1_11  and  C9_12 
REMARK    5  A    between atoms: C9_12  and  C11_14 
REMARK    6  A    between atoms: N4_23  and  C16_24 
REMARK    7  A    between atoms: C17_26  and  C18_27 
REMARK    8  A    between atoms: C18_27  and  O2_28 
REMARK    9  A    between atoms: C19_30  and  O3_31 
REMARK   10  A    between atoms: C20_33  and  O4_34 
ROOT
HETATM    1  C6  UNL     1      -0.574   1.094   0.328  1.00  0.00     0.111 A 
HETATM    2  N1  UNL     1       0.778   1.323   0.492  1.00  0.00    -0.337 N 
ATOM      3  H1  UNL     1       1.252   2.191   0.240  1.00  0.00     0.167 HD
HETATM    4  C7  UNL     1       1.380   0.264   1.021  1.00  0.00     0.112 A 
HETATM    5  C8  UNL     1       2.694  -0.022   1.383  1.00  0.00     0.102 A 
HETATM    6  N2  UNL     1       2.925  -1.232   1.905  1.00  0.00    -0.345 N 
ATOM      7  H2  UNL     1       3.879  -1.466   2.179  1.00  0.00     0.167 HD
HETATM    8  C14 UNL     1       1.964  -2.156   2.087  1.00  0.00     0.183 A 
HETATM    9  N3  UNL     1       0.711  -1.827   1.720  1.00  0.00    -0.336 N 
ATOM     10  H3  UNL     1      -0.024  -2.521   1.856  1.00  0.00     0.168 HD
HETATM   11  C15 UNL     1       0.373  -0.663   1.195  1.00  0.00     0.142 A 
HETATM   12  N4  UNL     1      -0.812  -0.138   0.766  1.00  0.00    -0.287 N 
ENDROOT
BRANCH  12  13
HETATM   13  C16 UNL     1      -2.075  -0.789   0.780  1.00  0.00     0.263 C 
HETATM   14  O1  UNL     1      -2.465  -1.230  -0.488  1.00  0.00    -0.353 OA
HETATM   15  C17 UNL     1      -3.571  -2.049  -0.290  1.00  0.00     0.179 C 
HETATM   16  C19 UNL     1      -3.538  -2.548   1.136  1.00  0.00     0.182 C 
HETATM   17  C20 UNL     1      -2.091  -2.130   1.507  1.00  0.00     0.198 C 
BRANCH  15  18
HETATM   18  C18 UNL     1      -3.446  -3.254  -1.197  1.00  0.00     0.198 C 
BRANCH  18  19
HETATM   19  O2  UNL     1      -4.542  -4.100  -1.024  1.00  0.00    -0.398 OA
ATOM     20  H2  UNL     1      -4.464  -4.856  -1.593  1.00  0.00     0.209 HD
ENDBRANCH  18  19
ENDBRANCH  15  18
BRANCH  16  21
HETATM   21  O3  UNL     1      -3.670  -3.907   1.256  1.00  0.00    -0.390 OA
ATOM     22  H3  UNL     1      -3.649  -4.221   2.152  1.00  0.00     0.210 HD
ENDBRANCH  16  21
BRANCH  17  23
HETATM   23  O4  UNL     1      -2.074  -1.951   2.858  1.00  0.00    -0.388 OA
ATOM     24  H4  UNL     1      -2.084  -2.786   3.311  1.00  0.00     0.210 HD
ENDBRANCH  17  23
ENDBRANCH  12  13
BRANCH   1  25
HETATM   25  C5  UNL     1      -1.402   2.133  -0.233  1.00  0.00     0.045 C 
HETATM   26  C4  UNL     1      -2.670   2.173  -0.461  1.00  0.00    -0.019 C 
BRANCH  26  27
HETATM   27  C2  UNL     1      -3.334   3.383  -1.065  1.00  0.00    -0.000 C 
HETATM   28  C1  UNL     1      -2.365   4.508  -1.299  1.00  0.00     0.013 C 
HETATM   29  C3  UNL     1      -4.358   3.856  -0.055  1.00  0.00     0.013 C 
ENDBRANCH  26  27
ENDBRANCH   1  25
BRANCH   5  30
HETATM   30  S1  UNL     1       3.970   1.173   1.172  1.00  0.00    -0.105 SA
BRANCH  30  31
HETATM   31  C9  UNL     1       4.799   1.169  -0.398  1.00  0.00     0.053 C 
HETATM   32  C10 UNL     1       3.899   1.571  -1.553  1.00  0.00     0.022 C 
BRANCH  31  33
HETATM   33  C11 UNL     1       5.576  -0.056  -0.742  1.00  0.00    -0.009 C 
HETATM   34  C12 UNL     1       6.670  -0.369   0.242  1.00  0.00     0.011 C 
HETATM   35  C13 UNL     1       4.696  -1.248  -1.029  1.00  0.00     0.011 C 
ENDBRANCH  31  33
ENDBRANCH  30  31
ENDBRANCH   5  30
TORSDOF 10
