REMARK  13 active torsions:
REMARK  status: ('A' for Active; 'I' for Inactive)
REMARK    1  A    between atoms: C2_2  and  C4_4 
REMARK    2  A    between atoms: C4_4  and  C11_17 
REMARK    3  A    between atoms: N1_5  and  N2_7 
REMARK       I    between atoms: N2_7  and  C5_9 
REMARK    4  A    between atoms: C5_9  and  O2_11 
REMARK    5  A    between atoms: O2_11  and  C6_12 
REMARK    6  A    between atoms: C6_12  and  C7_13 
REMARK       I    between atoms: C11_17  and  N3_19 
REMARK       I    between atoms: N4_23  and  C15_24 
REMARK       I    between atoms: C15_24  and  N7_29 
REMARK    7  A    between atoms: N7_29  and  C17_31 
REMARK    8  A    between atoms: C17_31  and  C18_32 
REMARK    9  A    between atoms: C18_32  and  C19_33 
REMARK   10  A    between atoms: C19_33  and  C20_34 
REMARK   11  A    between atoms: C20_34  and  C21_35 
REMARK   12  A    between atoms: C21_35  and  C22_36 
REMARK   13  A    between atoms: C22_36  and  C23_37 
ROOT
HETATM    1  C11 UNL     1      -1.763   0.228  -0.824  1.00  0.00     0.268 C 
HETATM    2  O3  UNL     1      -1.840   1.169  -0.050  1.00  0.00    -0.266 OA
HETATM    3  N3  UNL     1      -0.706  -0.314  -1.391  1.00  0.00    -0.345 N 
HETATM    4  C12 UNL     1      -0.449  -1.769  -1.437  1.00  0.00     0.128 C 
HETATM    5  C13 UNL     1       0.585  -2.239  -0.436  1.00  0.00     0.040 C 
HETATM    6  C14 UNL     1       1.535  -1.242   0.078  1.00  0.00     0.143 C 
HETATM    7  N4  UNL     1       2.049  -0.313  -0.865  1.00  0.00    -0.215 N 
HETATM    8  C15 UNL     1       3.342  -0.596  -1.357  1.00  0.00     0.688 C 
HETATM    9  N5  UNL     1       3.555  -1.231  -2.403  1.00  0.00    -0.126 N 
ATOM     10  H5  UNL     1       4.557  -1.317  -2.570  1.00  0.00     0.197 HD
HETATM   11  C16 UNL     1       2.866  -1.835  -3.374  1.00  0.00     0.196 C 
HETATM   12  N6  UNL     1       2.253  -2.313  -4.224  1.00  0.00    -0.171 NA
HETATM   13  N7  UNL     1       4.456  -0.102  -0.559  1.00  0.00    -0.205 N 
ATOM     14  H7  UNL     1       5.271  -0.702  -0.429  1.00  0.00     0.183 HD
HETATM   15  C25 UNL     1       1.429   0.887  -1.355  1.00  0.00     0.161 C 
HETATM   16  C26 UNL     1       0.212   0.592  -2.136  1.00  0.00     0.146 C 
ENDROOT
BRANCH  13  17
HETATM   17  C17 UNL     1       4.450   1.171   0.039  1.00  0.00     0.079 C 
BRANCH  17  18
HETATM   18  C18 UNL     1       5.733   1.644   0.605  1.00  0.00     0.049 C 
BRANCH  18  19
HETATM   19  C19 UNL     1       6.847   1.855  -0.355  1.00  0.00     0.032 C 
BRANCH  19  20
HETATM   20  C20 UNL     1       7.434   0.732  -1.077  1.00  0.00    -0.030 C 
BRANCH  20  21
HETATM   21  C21 UNL     1       8.137  -0.362  -0.408  1.00  0.00    -0.023 C 
BRANCH  21  22
HETATM   22  C22 UNL     1       9.398  -0.167   0.294  1.00  0.00     0.104 C 
BRANCH  22  23
HETATM   23  C23 UNL     1       9.479   0.721   1.441  1.00  0.00     0.100 A 
HETATM   24  N8  UNL     1       9.833   2.013   1.532  1.00  0.00    -0.340 N 
HETATM   25  C24 UNL     1       9.758   2.393   2.820  1.00  0.00     0.198 A 
ATOM     26  H8  UNL     1      10.113   2.608   0.753  1.00  0.00     0.168 HD
HETATM   27  N9  UNL     1       9.357   1.338   3.539  1.00  0.00    -0.295 N 
HETATM   28  N10 UNL     1       9.191   0.339   2.716  1.00  0.00    -0.288 N 
ATOM     29  H9  UNL     1       9.208   1.318   4.548  1.00  0.00     0.187 HD
ATOM     30  H10 UNL     1       8.888  -0.596   2.989  1.00  0.00     0.188 HD
ENDBRANCH  22  23
ENDBRANCH  21  22
ENDBRANCH  20  21
ENDBRANCH  19  20
ENDBRANCH  18  19
ENDBRANCH  17  18
ENDBRANCH  13  17
BRANCH   1  31
HETATM   31  C4  UNL     1      -3.408  -0.347  -1.095  1.00  0.00     0.097 C 
HETATM   32  N1  UNL     1      -3.663   0.163  -0.038  1.00  0.00    -0.295 N 
ATOM     33  H1  UNL     1      -2.881   0.732   0.286  1.00  0.00     0.187 HD
BRANCH  31  34
HETATM   34  C2  UNL     1      -3.105  -0.943  -2.333  1.00  0.00     0.035 C 
HETATM   35  C1  UNL     1      -2.968   0.235  -3.416  1.00  0.00     0.016 C 
HETATM   36  C3  UNL     1      -4.348  -1.768  -2.876  1.00  0.00     0.016 C 
ENDBRANCH  31  34
BRANCH  32  37
HETATM   37  N2  UNL     1      -4.690   0.204   0.854  1.00  0.00    -0.245 N 
HETATM   38  C5  UNL     1      -6.052   0.110   0.470  1.00  0.00     0.379 C 
HETATM   39  O1  UNL     1      -6.481   0.008  -0.698  1.00  0.00    -0.237 OA
ATOM     40  H2  UNL     1      -4.470   0.307   1.845  1.00  0.00     0.192 HD
BRANCH  38  41
HETATM   41  O2  UNL     1      -7.033   0.120   1.465  1.00  0.00    -0.302 OA
BRANCH  41  42
HETATM   42  C6  UNL     1      -8.413   0.006   1.173  1.00  0.00     0.189 C 
BRANCH  42  43
HETATM   43  C7  UNL     1      -9.249  -0.039   2.419  1.00  0.00    -0.029 C 
HETATM   44  C8  UNL     1      -8.868  -1.217   3.301  1.00  0.00     0.016 C 
HETATM   45  C9  UNL     1     -10.718  -0.298   2.038  1.00  0.00     0.016 C 
HETATM   46  C10 UNL     1      -9.155   1.273   3.136  1.00  0.00     0.016 C 
ENDBRANCH  42  43
ENDBRANCH  41  42
ENDBRANCH  38  41
ENDBRANCH  32  37
ENDBRANCH   1  31
TORSDOF 13
