REMARK  16 active torsions:
REMARK  status: ('A' for Active; 'I' for Inactive)
REMARK    1  A    between atoms: C2_2  and  C3_3 
REMARK    2  A    between atoms: C3_3  and  C4_5 
REMARK    3  A    between atoms: C4_5  and  C5_6 
REMARK    4  A    between atoms: C5_6  and  C6_7 
REMARK    5  A    between atoms: C6_7  and  C7_8 
REMARK    6  A    between atoms: C7_8  and  C8_9 
REMARK    7  A    between atoms: C8_9  and  C9_10 
REMARK    8  A    between atoms: C12_15  and  C13_16 
REMARK    9  A    between atoms: C16_19  and  C17_20 
REMARK   10  A    between atoms: C17_20  and  C18_21 
REMARK   11  A    between atoms: C23_31  and  C24_32 
REMARK   12  A    between atoms: C24_32  and  C25_33 
REMARK   13  A    between atoms: C25_33  and  C26_34 
REMARK   14  A    between atoms: C26_34  and  C27_35 
REMARK   15  A    between atoms: C27_35  and  C28_36 
REMARK   16  A    between atoms: C28_36  and  C29_37 
ROOT
HETATM    1  C9  UNL     1       1.832   0.705   0.043  1.00  0.00     0.223 C 
HETATM    2  O2  UNL     1       2.132  -0.389   0.823  1.00  0.00    -0.306 OA
HETATM    3  C10 UNL     1       1.455  -1.397   1.386  1.00  0.00     0.260 C 
HETATM    4  O3  UNL     1       1.364  -1.415   2.671  1.00  0.00    -0.265 OA
HETATM    5  C11 UNL     1       0.772  -2.537   0.720  1.00  0.00     0.118 C 
HETATM    6  C12 UNL     1      -0.311  -2.177  -0.229  1.00  0.00     0.021 C 
HETATM    7  C16 UNL     1      -1.703  -2.219   0.235  1.00  0.00     0.095 C 
HETATM    8  N2  UNL     1      -2.456  -0.991   0.233  1.00  0.00    -0.354 N 
ATOM      9  H2  UNL     1      -3.466  -1.133   0.232  1.00  0.00     0.162 HD
HETATM   10  C22 UNL     1      -2.089   0.330   0.232  1.00  0.00     0.240 C 
HETATM   11  O4  UNL     1      -2.404   1.017   1.283  1.00  0.00    -0.271 OA
HETATM   12  C23 UNL     1      -1.382   1.177  -0.753  1.00  0.00     0.176 C 
HETATM   13  N5  UNL     1      -0.383   2.030  -0.130  1.00  0.00    -0.346 N 
ATOM     14  H5  UNL     1      -0.533   3.037  -0.198  1.00  0.00     0.163 HD
HETATM   15  C30 UNL     1       0.774   1.606   0.559  1.00  0.00     0.248 C 
HETATM   16  O5  UNL     1       0.941   2.029   1.741  1.00  0.00    -0.271 OA
ENDROOT
BRANCH  12  17
HETATM   17  C24 UNL     1      -2.494   2.102  -1.304  1.00  0.00     0.035 C 
BRANCH  17  18
HETATM   18  C25 UNL     1      -3.597   1.307  -1.958  1.00  0.00     0.002 C 
BRANCH  18  19
HETATM   19  C26 UNL     1      -4.637   2.272  -2.478  1.00  0.00     0.000 C 
BRANCH  19  20
HETATM   20  C27 UNL     1      -5.244   3.109  -1.388  1.00  0.00     0.007 C 
BRANCH  20  21
HETATM   21  C28 UNL     1      -5.932   2.304  -0.326  1.00  0.00     0.072 C 
BRANCH  21  22
HETATM   22  C29 UNL     1      -6.480   3.264   0.679  1.00  0.00     0.086 C 
HETATM   23  N3  UNL     1      -6.112   3.230   1.914  1.00  0.00    -0.391 N 
ATOM     24  H32 UNL     1      -5.430   2.518   2.177  1.00  0.00     0.157 HD
ATOM     25  H31 UNL     1      -6.486   3.885   2.600  1.00  0.00     0.157 HD
HETATM   26  N4  UNL     1      -7.436   4.262   0.310  1.00  0.00    -0.088 NA
ENDBRANCH  21  22
ENDBRANCH  20  21
ENDBRANCH  19  20
ENDBRANCH  18  19
ENDBRANCH  17  18
ENDBRANCH  12  17
BRANCH   7  27
HETATM   27  C17 UNL     1      -1.866  -2.940   1.590  1.00  0.00     0.082 C 
BRANCH  27  28
HETATM   28  C18 UNL     1      -3.280  -2.934   1.985  1.00  0.00     0.011 A 
HETATM   29  C19 UNL     1      -3.976  -2.016   2.721  1.00  0.00     0.026 A 
HETATM   30  C20 UNL     1      -5.277  -2.425   2.835  1.00  0.00     0.019 A 
HETATM   31  C21 UNL     1      -5.371  -3.620   2.149  1.00  0.00     0.088 A 
HETATM   32  N1  UNL     1      -4.171  -3.883   1.664  1.00  0.00    -0.369 N 
ATOM     33  H1  UNL     1      -3.948  -4.710   1.111  1.00  0.00     0.165 HD
ENDBRANCH  27  28
ENDBRANCH   7  27
BRANCH   1  34
HETATM   34  C8  UNL     1       3.140   1.455  -0.201  1.00  0.00     0.042 C 
BRANCH  34  35
HETATM   35  C7  UNL     1       3.814   1.916   1.061  1.00  0.00     0.003 C 
BRANCH  35  36
HETATM   36  C6  UNL     1       5.104   2.648   0.733  1.00  0.00     0.001 C 
BRANCH  36  37
HETATM   37  C5  UNL     1       6.082   1.801  -0.013  1.00  0.00     0.007 C 
BRANCH  37  38
HETATM   38  C4  UNL     1       6.510   0.557   0.747  1.00  0.00     0.078 C 
BRANCH  38  39
HETATM   39  C3  UNL     1       7.496  -0.178  -0.125  1.00  0.00     0.126 C 
HETATM   40  O1  UNL     1       7.127  -0.841  -1.066  1.00  0.00    -0.298 OA
BRANCH  39  41
HETATM   41  C2  UNL     1       8.956  -0.096   0.160  1.00  0.00     0.074 C 
HETATM   42  C1  UNL     1       9.685   0.265  -1.142  1.00  0.00     0.013 C 
ENDBRANCH  39  41
ENDBRANCH  38  39
ENDBRANCH  37  38
ENDBRANCH  36  37
ENDBRANCH  35  36
ENDBRANCH  34  35
ENDBRANCH   1  34
BRANCH   6  43
HETATM   43  C13 UNL     1      -0.160  -3.067  -1.482  1.00  0.00    -0.016 C 
HETATM   44  C14 UNL     1      -0.267  -4.516  -1.145  1.00  0.00     0.010 C 
HETATM   45  C15 UNL     1       1.139  -2.847  -2.185  1.00  0.00     0.010 C 
ENDBRANCH   6  43
TORSDOF 16
