REMARK  16 active torsions:
REMARK  status: ('A' for Active; 'I' for Inactive)
REMARK    1  A    between atoms: C2_2  and  C4_4 
REMARK    2  A    between atoms: C4_4  and  C5_5 
REMARK    3  A    between atoms: C5_5  and  N1_6 
REMARK    4  A    between atoms: C5_5  and  C10_14 
REMARK       I    between atoms: N1_6  and  C6_8 
REMARK    5  A    between atoms: C6_8  and  C7_10 
REMARK    6  A    between atoms: C7_10  and  C9_12 
REMARK    7  A    between atoms: C10_14  and  O2_15 
REMARK    8  A    between atoms: C10_14  and  C11_17 
REMARK    9  A    between atoms: C12_18  and  C13_19 
REMARK   10  A    between atoms: C17_23  and  N2_24 
REMARK   11  A    between atoms: C17_23  and  C29_40 
REMARK       I    between atoms: N2_24  and  C18_26 
REMARK   12  A    between atoms: C18_26  and  C19_28 
REMARK   13  A    between atoms: C19_28  and  C20_29 
REMARK   14  A    between atoms: C20_29  and  C21_30 
REMARK   15  A    between atoms: C21_30  and  N3_31 
REMARK   16  A    between atoms: N3_31  and  C24_34 
ROOT
HETATM    1  C13 UNL     1      -0.993   0.747   1.906  1.00  0.00     0.047 C 
HETATM    2  C14 UNL     1      -0.699   0.752   3.364  1.00  0.00     0.011 C 
HETATM    3  C15 UNL     1      -0.322   2.204   3.593  1.00  0.00     0.004 C 
HETATM    4  C16 UNL     1       0.279   2.684   2.290  1.00  0.00     0.043 C 
HETATM    5  C17 UNL     1       0.184   1.527   1.326  1.00  0.00     0.128 C 
ENDROOT
BRANCH   5   6
HETATM    6  N2  UNL     1       1.398   0.770   1.423  1.00  0.00    -0.341 N 
HETATM    7  C18 UNL     1       2.627   1.325   1.007  1.00  0.00     0.218 C 
HETATM    8  O3  UNL     1       2.769   2.482   0.532  1.00  0.00    -0.274 OA
ATOM      9  H2  UNL     1       1.373  -0.179   1.796  1.00  0.00     0.163 HD
BRANCH   7  10
HETATM   10  C19 UNL     1       3.912   0.532   1.111  1.00  0.00     0.104 C 
BRANCH  10  11
HETATM   11  C20 UNL     1       5.095   1.339   0.749  1.00  0.00     0.037 C 
BRANCH  11  12
HETATM   12  C21 UNL     1       6.431   0.759   0.834  1.00  0.00     0.238 C 
BRANCH  12  13
HETATM   13  N3  UNL     1       6.844  -0.339   0.053  1.00  0.00    -0.064 N 
HETATM   14  C22 UNL     1       8.152  -0.746   0.644  1.00  0.00     0.273 C 
HETATM   15  C23 UNL     1       6.047  -1.556   0.198  1.00  0.00     0.273 C 
BRANCH  13  16
HETATM   16  C24 UNL     1       6.974  -0.102  -1.343  1.00  0.00     0.258 C 
HETATM   17  C25 UNL     1       7.418   1.258  -1.764  1.00  0.00     0.042 C 
HETATM   18  C26 UNL     1       8.934   1.215  -1.800  1.00  0.00     0.010 C 
HETATM   19  C27 UNL     1       9.313  -0.215  -2.023  1.00  0.00     0.080 C 
HETATM   20  C28 UNL     1       8.059  -1.009  -1.880  1.00  0.00     0.158 C 
HETATM   21  O4  UNL     1       7.976  -2.188  -2.164  1.00  0.00    -0.296 OA
ENDBRANCH  13  16
ENDBRANCH  12  13
ENDBRANCH  11  12
ENDBRANCH  10  11
ENDBRANCH   7  10
ENDBRANCH   5   6
BRANCH   5  22
HETATM   22  C29 UNL     1      -0.149   1.920  -0.049  1.00  0.00     0.203 C 
HETATM   23  O5  UNL     1       0.565   1.534  -0.990  1.00  0.00    -0.646 OA
HETATM   24  O6  UNL     1      -1.240   2.711  -0.312  1.00  0.00    -0.646 OA
ENDBRANCH   5  22
BRANCH   1  25
HETATM   25  C12 UNL     1      -1.156  -0.590   1.324  1.00  0.00    -0.020 C 
HETATM   26  C11 UNL     1      -2.237  -0.993   0.727  1.00  0.00     0.003 C 
BRANCH  26  27
HETATM   27  C10 UNL     1      -3.481  -0.227   0.516  1.00  0.00     0.163 C 
BRANCH  27  28
HETATM   28  C5  UNL     1      -4.564  -1.060  -0.152  1.00  0.00     0.117 C 
BRANCH  28  29
HETATM   29  C4  UNL     1      -4.908  -2.274   0.661  1.00  0.00     0.032 C 
BRANCH  29  30
HETATM   30  C2  UNL     1      -5.956  -3.103  -0.047  1.00  0.00    -0.021 C 
HETATM   31  C1  UNL     1      -6.320  -4.329   0.782  1.00  0.00     0.009 C 
HETATM   32  C3  UNL     1      -5.494  -3.579  -1.419  1.00  0.00     0.009 C 
ENDBRANCH  29  30
ENDBRANCH  28  29
BRANCH  28  33
HETATM   33  N1  UNL     1      -5.762  -0.267  -0.326  1.00  0.00    -0.353 N 
HETATM   34  C6  UNL     1      -6.262   0.160  -1.572  1.00  0.00     0.222 C 
HETATM   35  O1  UNL     1      -5.651  -0.150  -2.617  1.00  0.00    -0.273 OA
ATOM     36  H1  UNL     1      -6.280   0.001   0.511  1.00  0.00     0.163 HD
BRANCH  34  37
HETATM   37  C7  UNL     1      -7.491   0.966  -1.666  1.00  0.00     0.084 C 
HETATM   38  C8  UNL     1      -7.300   2.284  -0.958  1.00  0.00     0.020 C 
BRANCH  37  39
HETATM   39  C9  UNL     1      -8.690   0.263  -1.069  1.00  0.00     0.099 C 
HETATM   40  S1  UNL     1     -10.122   1.372  -1.261  1.00  0.00    -0.097 SA
ENDBRANCH  37  39
ENDBRANCH  34  37
ENDBRANCH  28  33
ENDBRANCH  27  28
BRANCH  27  41
HETATM   41  O2  UNL     1      -3.967   0.183   1.750  1.00  0.00    -0.390 OA
ATOM     42  H2  UNL     1      -3.291   0.703   2.167  1.00  0.00     0.210 HD
ENDBRANCH  27  41
ENDBRANCH  26  27
ENDBRANCH   1  25
TORSDOF 16
