REMARK  5 active torsions:
REMARK  status: ('A' for Active; 'I' for Inactive)
REMARK    1  A    between atoms: O1_2  and  C2_3 
REMARK    2  A    between atoms: C2_3  and  C3_5 
REMARK    3  A    between atoms: C4_8  and  C5_9 
REMARK    4  A    between atoms: C11_24  and  O4_25 
REMARK    5  A    between atoms: N5_27  and  N6_28 
ROOT
HETATM    1  C5  UNL     1      -1.178  -1.107  -1.119  1.00  0.00     0.046 C 
HETATM    2  C6  UNL     1      -2.219  -0.364  -0.795  1.00  0.00     0.004 C 
HETATM    3  C7  UNL     1      -3.560  -0.505  -1.367  1.00  0.00     0.108 C 
HETATM    4  N2  UNL     1      -4.146  -1.555  -1.806  1.00  0.00    -0.391 N 
ATOM      5  H21 UNL     1      -5.080  -1.653  -2.204  1.00  0.00     0.157 HD
ATOM      6  H22 UNL     1      -3.753  -2.496  -1.827  1.00  0.00     0.157 HD
HETATM    7  S1  UNL     1      -4.242   1.127  -1.331  1.00  0.00     0.115 S 
HETATM    8  O3  UNL     1      -5.690   1.097  -0.507  1.00  0.00    -0.245 OA
HETATM    9  C8  UNL     1      -2.960   1.891  -0.396  1.00  0.00     0.100 C 
HETATM   10  N3  UNL     1      -2.659   3.117  -0.249  1.00  0.00    -0.393 N 
ATOM     11  H31 UNL     1      -1.916   3.559   0.293  1.00  0.00     0.156 HD
ATOM     12  H32 UNL     1      -3.137   3.908  -0.680  1.00  0.00     0.156 HD
HETATM   13  C9  UNL     1      -2.266   0.741   0.231  1.00  0.00     0.187 C 
HETATM   14  C10 UNL     1      -3.158   0.229   1.303  1.00  0.00     0.075 C 
HETATM   15  N4  UNL     1      -3.870  -0.171   2.128  1.00  0.00    -0.196 NA
ENDROOT
BRANCH   1  16
HETATM   16  C4  UNL     1       0.156  -0.982  -0.566  1.00  0.00     0.087 A 
HETATM   17  N1  UNL     1       0.900   0.085  -0.313  1.00  0.00    -0.332 N 
HETATM   18  C3  UNL     1       2.096  -0.238   0.216  1.00  0.00     0.206 A 
ATOM     19  H1  UNL     1       0.601   1.042  -0.498  1.00  0.00     0.168 HD
HETATM   20  N5  UNL     1       2.080  -1.594   0.290  1.00  0.00    -0.216 N 
HETATM   21  C11 UNL     1       0.914  -2.064  -0.180  1.00  0.00     0.190 A 
BRANCH  18  22
HETATM   22  C2  UNL     1       3.207   0.620   0.631  1.00  0.00     0.329 C 
HETATM   23  O2  UNL     1       4.242   0.089   1.098  1.00  0.00    -0.256 OA
BRANCH  22  24
HETATM   24  O1  UNL     1       3.147   2.004   0.523  1.00  0.00    -0.320 OA
HETATM   25  C1  UNL     1       4.236   2.815   0.931  1.00  0.00     0.213 C 
ENDBRANCH  22  24
ENDBRANCH  18  22
BRANCH  20  26
HETATM   26  N6  UNL     1       3.128  -2.362   0.791  1.00  0.00    -0.335 N 
ATOM     27  H62 UNL     1       4.014  -2.005   1.148  1.00  0.00     0.177 HD
ATOM     28  H61 UNL     1       3.116  -3.380   0.847  1.00  0.00     0.177 HD
ENDBRANCH  20  26
BRANCH  21  29
HETATM   29  O4  UNL     1       0.520  -3.388  -0.271  1.00  0.00    -0.343 OA
ATOM     30  H4  UNL     1       1.043  -4.135  -0.005  1.00  0.00     0.219 HD
ENDBRANCH  21  29
ENDBRANCH   1  16
TORSDOF 5
