REMARK  2 active torsions:
REMARK  status: ('A' for Active; 'I' for Inactive)
REMARK    1  A    between atoms: C2_2  and  O2_4 
REMARK    2  A    between atoms: O2_4  and  C3_5 
ROOT
HETATM    1  C3  UNL     1       2.240  -0.301   0.052  1.00  0.00     0.134 C 
HETATM    2  C4  UNL     1       2.249  -0.377  -1.458  1.00  0.00     0.055 C 
HETATM    3  C5  UNL     1       1.147   0.621   0.536  1.00  0.00     0.091 C 
HETATM    4  C6  UNL     1      -0.148  -0.155   0.709  1.00  0.00     0.103 C 
HETATM    5  C7  UNL     1      -1.248   0.767   1.153  1.00  0.00     0.056 C 
HETATM    6  C8  UNL     1      -2.415   0.350   0.308  1.00  0.00    -0.014 C 
HETATM    7  C9  UNL     1      -2.949   1.623  -0.365  1.00  0.00     0.018 C 
HETATM    8  C10 UNL     1      -3.559  -0.220   1.102  1.00  0.00     0.018 C 
HETATM    9  C11 UNL     1      -1.840  -0.583  -0.690  1.00  0.00     0.062 C 
HETATM   10  C12 UNL     1      -2.436  -1.968  -0.657  1.00  0.00     0.046 C 
HETATM   11  C13 UNL     1      -2.091  -0.043  -2.103  1.00  0.00     0.046 C 
HETATM   12  O3  UNL     1      -0.490  -0.670  -0.521  1.00  0.00    -0.363 OA
HETATM   13  C14 UNL     1       0.062  -1.206   1.736  1.00  0.00     0.050 C 
HETATM   14 CL1  UNL     1      -1.040  -1.518   3.040  1.00  0.00    -0.086 Cl
HETATM   15  C15 UNL     1       1.155  -1.940   1.642  1.00  0.00     0.076 C 
HETATM   16  C16 UNL     1       2.071  -1.677   0.553  1.00  0.00     0.185 C 
HETATM   17  O4  UNL     1       2.728  -2.602   0.024  1.00  0.00    -0.290 OA
ENDROOT
BRANCH   1  18
HETATM   18  O2  UNL     1       3.521   0.134   0.541  1.00  0.00    -0.302 OA
BRANCH  18  19
HETATM   19  C2  UNL     1       4.058   1.363   0.183  1.00  0.00     0.256 C 
HETATM   20  C1  UNL     1       5.389   1.817   0.689  1.00  0.00     0.126 C 
HETATM   21  O1  UNL     1       3.355   2.069  -0.594  1.00  0.00    -0.266 OA
ENDBRANCH  18  19
ENDBRANCH   1  18
TORSDOF 2
