REMARK  3 active torsions:
REMARK  status: ('A' for Active; 'I' for Inactive)
REMARK    1  A    between atoms: C5_5  and  N1_6 
REMARK       I    between atoms: N1_6  and  C6_8 
REMARK    2  A    between atoms: C6_8  and  C7_10 
REMARK    3  A    between atoms: C7_10  and  S1_12 
ROOT
HETATM    1  N1  UNL     1      -0.254   0.445  -0.498  1.00  0.00    -0.355 N 
ATOM      2  H1  UNL     1      -0.287   0.773  -1.463  1.00  0.00     0.162 HD
HETATM    3  C6  UNL     1       1.008   0.200   0.105  1.00  0.00     0.236 C 
HETATM    4  O1  UNL     1       1.030  -0.203   1.295  1.00  0.00    -0.272 OA
ENDROOT
BRANCH   3   5
HETATM    5  C7  UNL     1       2.227   0.425  -0.680  1.00  0.00     0.195 C 
HETATM    6  C8  UNL     1       2.273  -0.447  -1.932  1.00  0.00     0.036 C 
BRANCH   5   7
HETATM    7  S1  UNL     1       3.703   0.049   0.240  1.00  0.00     0.153 S 
HETATM    8  C9  UNL     1       3.887   1.047   1.669  1.00  0.00     0.162 C 
HETATM    9  O2  UNL     1       4.879   0.323  -0.671  1.00  0.00    -0.227 OA
HETATM   10  O3  UNL     1       3.753  -1.394   0.632  1.00  0.00    -0.227 OA
ENDBRANCH   5   7
ENDBRANCH   3   5
BRANCH   1  11
HETATM   11  C5  UNL     1      -1.508   0.241   0.226  1.00  0.00     0.092 A 
HETATM   12  C2  UNL     1      -2.525  -0.551  -0.597  1.00  0.00     0.010 A 
HETATM   13  C1  UNL     1      -3.300  -1.630   0.136  1.00  0.00     0.012 C 
HETATM   14  C3  UNL     1      -2.745   0.890  -0.222  1.00  0.00     0.010 A 
HETATM   15  C4  UNL     1      -3.832   1.123   0.800  1.00  0.00     0.012 C 
ENDBRANCH   1  11
TORSDOF 3
