REMARK  2 active torsions:
REMARK  status: ('A' for Active; 'I' for Inactive)
REMARK       I    between atoms: N1_5  and  C5_7 
REMARK    1  A    between atoms: C5_7  and  C6_9 
REMARK    2  A    between atoms: C6_9  and  N2_10 
REMARK       I    between atoms: N2_10  and  C7_12 
ROOT
HETATM    1  C1  UNL     1      -1.197   3.139  -0.662  1.00  0.00     0.036 C 
HETATM    2  C2  UNL     1      -2.115   2.002  -0.873  1.00  0.00    -0.022 C 
HETATM    3  C3  UNL     1      -1.733   0.740  -0.761  1.00  0.00    -0.034 C 
HETATM    4  C4  UNL     1      -0.376   0.291  -0.421  1.00  0.00     0.019 C 
HETATM    5  N1  UNL     1       0.741   0.905  -0.728  1.00  0.00    -0.329 N 
ATOM      6  H1  UNL     1       0.749   1.781  -1.250  1.00  0.00     0.168 HD
HETATM    7  C5  UNL     1       1.939   0.279  -0.291  1.00  0.00     0.239 C 
HETATM    8  O1  UNL     1       2.387  -0.776  -0.787  1.00  0.00    -0.271 OA
HETATM    9  C9  UNL     1      -0.560  -0.979   0.329  1.00  0.00     0.064 C 
HETATM   10  C10 UNL     1      -1.796  -1.561  -0.260  1.00  0.00     0.009 A 
HETATM   11  C11 UNL     1      -2.550  -0.489  -0.949  1.00  0.00     0.033 A 
HETATM   12  C12 UNL     1      -3.149  -1.195   0.205  1.00  0.00    -0.035 A 
HETATM   13  C13 UNL     1      -4.253  -2.180  -0.153  1.00  0.00     0.016 C 
HETATM   14  C14 UNL     1      -3.378  -0.371   1.437  1.00  0.00     0.016 C 
ENDROOT
BRANCH   7  15
HETATM   15  C6  UNL     1       2.682   0.927   0.813  1.00  0.00     0.225 C 
BRANCH  15  16
HETATM   16  N2  UNL     1       3.878   0.231   1.177  1.00  0.00    -0.353 N 
HETATM   17  C7  UNL     1       4.960   0.005   0.320  1.00  0.00     0.213 C 
HETATM   18  C8  UNL     1       6.182  -0.738   0.770  1.00  0.00     0.117 C 
HETATM   19  O2  UNL     1       4.979   0.406  -0.867  1.00  0.00    -0.274 OA
ATOM     20  H2  UNL     1       3.946  -0.126   2.130  1.00  0.00     0.162 HD
ENDBRANCH  15  16
ENDBRANCH   7  15
TORSDOF 2
