REMARK  6 active torsions:
REMARK  status: ('A' for Active; 'I' for Inactive)
REMARK    1  A    between atoms: O1_2  and  C2_3 
REMARK    2  A    between atoms: C3_6  and  S1_7 
REMARK    3  A    between atoms: S1_7  and  C4_8 
REMARK    4  A    between atoms: C5_11  and  S2_12 
REMARK    5  A    between atoms: C9_16  and  N3_17 
REMARK    6  A    between atoms: C16_30  and  N6_31 
ROOT
HETATM    1  C4  UNL     1      -1.676   0.963  -1.930  1.00  0.00     0.105 A 
HETATM    2  N2  UNL     1      -0.924   1.739  -2.766  1.00  0.00    -0.343 N 
ATOM      3  H2  UNL     1      -1.381   2.250  -3.522  1.00  0.00     0.167 HD
HETATM    4  C5  UNL     1       0.403   1.841  -2.611  1.00  0.00     0.071 A 
HETATM    5  C7  UNL     1       1.001   1.153  -1.596  1.00  0.00     0.054 A 
HETATM    6  C8  UNL     1       0.269   0.368  -0.744  1.00  0.00     0.041 A 
HETATM    7  C9  UNL     1       0.893  -0.320   0.277  1.00  0.00     0.132 A 
HETATM    8  N5  UNL     1       0.129  -1.072   1.080  1.00  0.00    -0.176 N 
ATOM      9  H5  UNL     1       0.575  -1.587   1.839  1.00  0.00     0.186 HD
HETATM   10  C16 UNL     1      -1.201  -1.174   0.924  1.00  0.00     0.678 A 
HETATM   11  N7  UNL     1      -1.819  -0.512  -0.063  1.00  0.00    -0.188 N 
ATOM     12  H7  UNL     1      -2.829  -0.595  -0.176  1.00  0.00     0.184 HD
HETATM   13  C17 UNL     1      -1.116   0.256  -0.900  1.00  0.00     0.097 A 
ENDROOT
BRANCH   1  14
HETATM   14  S1  UNL     1      -3.417   0.918  -2.241  1.00  0.00    -0.050 SA
BRANCH  14  15
HETATM   15  C3  UNL     1      -4.317  -0.114  -1.129  1.00  0.00     0.110 A 
HETATM   16  N1  UNL     1      -4.804   0.374   0.020  1.00  0.00    -0.314 N 
HETATM   17  C2  UNL     1      -5.510  -0.424   0.863  1.00  0.00     0.225 A 
ATOM     18  H1  UNL     1      -4.644   1.351   0.263  1.00  0.00     0.170 HD
HETATM   19  N10 UNL     1      -5.725  -1.716   0.547  1.00  0.00    -0.306 N 
HETATM   20  C20 UNL     1      -5.250  -2.230  -0.596  1.00  0.00     0.139 A 
ATOM     21  H10 UNL     1      -6.255  -2.310   1.185  1.00  0.00     0.171 HD
HETATM   22  C18 UNL     1      -4.538  -1.430  -1.447  1.00  0.00     0.112 A 
HETATM   23  N9  UNL     1      -5.306  -3.447  -1.159  1.00  0.00    -0.337 N 
HETATM   24  N8  UNL     1      -4.164  -2.165  -2.527  1.00  0.00    -0.347 N 
HETATM   25  C19 UNL     1      -4.640  -3.411  -2.346  1.00  0.00     0.182 A 
ATOM     26  H8  UNL     1      -3.623  -1.834  -3.326  1.00  0.00     0.167 HD
ATOM     27  H9  UNL     1      -5.771  -4.264  -0.763  1.00  0.00     0.168 HD
BRANCH  17  28
HETATM   28  O1  UNL     1      -6.015   0.086   2.055  1.00  0.00    -0.327 OA
HETATM   29  C1  UNL     1      -5.807   1.436   2.418  1.00  0.00     0.213 C 
ENDBRANCH  17  28
ENDBRANCH  14  15
ENDBRANCH   1  14
BRANCH   4  30
HETATM   30  S2  UNL     1       1.428   2.841  -3.677  1.00  0.00    -0.117 SA
HETATM   31  C6  UNL     1       1.507   4.505  -2.940  1.00  0.00     0.097 C 
ENDBRANCH   4  30
BRANCH   7  32
HETATM   32  N3  UNL     1       2.295  -0.198   0.427  1.00  0.00    -0.366 N 
HETATM   33  C10 UNL     1       3.180  -1.088  -0.267  1.00  0.00     0.129 C 
HETATM   34  C11 UNL     1       4.353  -1.549   0.577  1.00  0.00     0.081 C 
HETATM   35  C12 UNL     1       5.045  -0.297   1.048  1.00  0.00     0.152 C 
HETATM   36  C13 UNL     1       4.122   0.495   1.943  1.00  0.00     0.081 C 
HETATM   37  N4  UNL     1       6.397  -0.419   1.479  1.00  0.00    -0.304 N 
HETATM   38  O3  UNL     1       5.498   0.447  -0.066  1.00  0.00    -0.272 OA
HETATM   39  C14 UNL     1       2.822   0.827   1.282  1.00  0.00     0.129 C 
HETATM   40  C15 UNL     1       6.810   0.101   0.221  1.00  0.00     0.365 C 
ATOM     41  H4  UNL     1       6.867  -0.741   2.325  1.00  0.00     0.167 HD
HETATM   42  O2  UNL     1       7.932   0.180  -0.339  1.00  0.00    -0.238 OA
ENDBRANCH   7  32
BRANCH  10  43
HETATM   43  N6  UNL     1      -1.904  -1.925   1.739  1.00  0.00    -0.234 N 
ATOM     44  H62 UNL     1      -1.433  -2.429   2.491  1.00  0.00     0.174 HD
ATOM     45  H61 UNL     1      -2.914  -2.002   1.621  1.00  0.00     0.174 HD
ENDBRANCH  10  43
TORSDOF 6
