REMARK  4 active torsions:
REMARK  status: ('A' for Active; 'I' for Inactive)
REMARK    1  A    between atoms: C2_2  and  O1_4 
REMARK    2  A    between atoms: O1_4  and  C4_5 
REMARK    3  A    between atoms: C5_6  and  O2_7 
REMARK    4  A    between atoms: C6_10  and  O4_11 
ROOT
HETATM    1  C4  UNL     1       0.169  -0.779   0.672  1.00  0.00     0.244 C 
HETATM    2  C5  UNL     1      -0.114  -1.147   2.104  1.00  0.00     0.294 C 
HETATM    3  O3  UNL     1      -1.465  -1.100   2.309  1.00  0.00    -0.323 OA
HETATM    4  C6  UNL     1      -2.126  -1.168   1.110  1.00  0.00     0.326 C 
HETATM    5  C7  UNL     1      -1.215  -0.404   0.183  1.00  0.00     0.246 C 
HETATM    6  O5  UNL     1      -1.430  -0.693  -1.146  1.00  0.00    -0.347 OA
HETATM    7  C8  UNL     1      -2.270   0.339  -1.630  1.00  0.00     0.198 C 
HETATM    8  C9  UNL     1      -1.709   1.518  -0.865  1.00  0.00     0.198 C 
HETATM    9  O6  UNL     1      -1.449   0.949   0.373  1.00  0.00    -0.347 OA
ENDROOT
BRANCH   1  10
HETATM   10  O1  UNL     1       0.983   0.284   0.498  1.00  0.00    -0.371 OA
BRANCH  10  11
HETATM   11  C2  UNL     1       2.067   0.154  -0.305  1.00  0.00     0.114 C 
HETATM   12  C1  UNL     1       3.302   0.249   0.608  1.00  0.00     0.039 C 
HETATM   13  C3  UNL     1       2.238   1.162  -1.378  1.00  0.00     0.039 C 
ENDBRANCH  10  11
ENDBRANCH   1  10
BRANCH   2  14
HETATM   14  O2  UNL     1       0.497  -0.284   3.014  1.00  0.00    -0.368 OA
ATOM     15  H2  UNL     1       0.318  -0.516   3.918  1.00  0.00     0.212 HD
ENDBRANCH   2  14
BRANCH   4  16
HETATM   16  O4  UNL     1      -3.345  -0.488   1.177  1.00  0.00    -0.366 OA
ATOM     17  H4  UNL     1      -3.803  -0.535   0.346  1.00  0.00     0.212 HD
ENDBRANCH   4  16
TORSDOF 4
