REMARK  1 active torsions:
REMARK  status: ('A' for Active; 'I' for Inactive)
REMARK    1  A    between atoms: C3_3  and  O1_6 
ROOT
HETATM    1  C1  UNL     1       1.744   1.227   1.328  1.00  0.00     0.015 C 
HETATM    2  C2  UNL     1       1.031   0.539   0.620  1.00  0.00    -0.080 C 
HETATM    3  C3  UNL     1       0.161  -0.269  -0.241  1.00  0.00     0.115 C 
HETATM    4  C4  UNL     1      -0.642  -1.171   0.641  1.00  0.00     0.060 C 
HETATM    5  C5  UNL     1       1.002  -1.107  -1.176  1.00  0.00     0.060 C 
ENDROOT
BRANCH   3   6
HETATM    6  O1  UNL     1      -0.594   0.604  -0.999  1.00  0.00    -0.373 OA
HETATM    7  C6  UNL     1      -1.387   1.452  -0.253  1.00  0.00     0.204 C 
ENDBRANCH   3   6
TORSDOF 1
