REMARK  10 active torsions:
REMARK  status: ('A' for Active; 'I' for Inactive)
REMARK    1  A    between atoms: C2_2  and  O1_3 
REMARK    2  A    between atoms: C2_2  and  C9_14 
REMARK    3  A    between atoms: O1_3  and  C3_4 
REMARK    4  A    between atoms: C3_4  and  N1_5 
REMARK    5  A    between atoms: C4_6  and  O2_7 
REMARK    6  A    between atoms: C7_11  and  C8_12 
REMARK    7  A    between atoms: C9_14  and  O4_16 
REMARK    8  A    between atoms: O4_16  and  C10_17 
REMARK    9  A    between atoms: C10_17  and  C11_18 
REMARK   10  A    between atoms: C10_17  and  C12_21 
ROOT
HETATM    1  C9  UNL     1      -0.118  -1.084  -0.371  1.00  0.00     0.289 C 
HETATM    2  O3  UNL     1       0.318  -1.501  -1.478  1.00  0.00    -0.262 OA
ENDROOT
BRANCH   1   3
HETATM    3  C2  UNL     1      -1.547  -0.686  -0.176  1.00  0.00     0.225 C 
HETATM    4  C1  UNL     1      -2.107  -1.574   0.960  1.00  0.00     0.051 C 
BRANCH   3   5
HETATM    5  O1  UNL     1      -2.298  -0.814  -1.277  1.00  0.00    -0.331 OA
BRANCH   5   6
HETATM    6  C3  UNL     1      -2.966   0.208  -1.835  1.00  0.00     0.236 C 
BRANCH   6   7
HETATM    7  N1  UNL     1      -3.967   0.872  -1.033  1.00  0.00    -0.286 N 
HETATM    8  C4  UNL     1      -3.787   1.980  -0.322  1.00  0.00     0.147 A 
HETATM    9  C5  UNL     1      -5.005   2.253   0.320  1.00  0.00     0.058 A 
HETATM   10  C6  UNL     1      -5.878   1.260  -0.055  1.00  0.00     0.030 A 
HETATM   11  C7  UNL     1      -5.240   0.396  -0.898  1.00  0.00     0.030 A 
BRANCH   8  12
HETATM   12  O2  UNL     1      -2.664   2.806  -0.163  1.00  0.00    -0.346 OA
ATOM     13  H2  UNL     1      -2.535   3.598   0.345  1.00  0.00     0.219 HD
ENDBRANCH   8  12
BRANCH  11  14
HETATM   14  C8  UNL     1      -5.803  -0.824  -1.547  1.00  0.00     0.142 C 
HETATM   15 BR1  UNL     1      -6.587  -0.384  -3.267  1.00  0.00    -0.090 Br
ENDBRANCH  11  14
ENDBRANCH   6   7
ENDBRANCH   5   6
ENDBRANCH   3   5
ENDBRANCH   1   3
BRANCH   1  16
HETATM   16  O4  UNL     1       0.813  -1.019   0.655  1.00  0.00    -0.303 OA
BRANCH  16  17
HETATM   17  C10 UNL     1       2.172  -1.397   0.469  1.00  0.00     0.236 C 
BRANCH  17  18
HETATM   18  C11 UNL     1       2.535  -2.537   1.324  1.00  0.00     0.204 C 
HETATM   19  O5  UNL     1       1.631  -2.993   2.102  1.00  0.00    -0.646 OA
HETATM   20  O6  UNL     1       3.753  -3.149   1.358  1.00  0.00    -0.646 OA
ENDBRANCH  17  18
BRANCH  17  21
HETATM   21  C12 UNL     1       3.111  -0.256   0.688  1.00  0.00     0.027 C 
HETATM   22  C13 UNL     1       2.768   0.857  -0.299  1.00  0.00     0.008 C 
HETATM   23  C14 UNL     1       3.576   2.093  -0.019  1.00  0.00     0.002 C 
HETATM   24  C15 UNL     1       4.929   1.693   0.495  1.00  0.00     0.020 C 
HETATM   25  C16 UNL     1       5.357   0.401  -0.165  1.00  0.00     0.082 C 
HETATM   26 CL1  UNL     1       7.090   0.119   0.033  1.00  0.00    -0.125 Cl
HETATM   27  C17 UNL     1       4.527  -0.760   0.375  1.00  0.00     0.028 C 
ENDBRANCH  17  21
ENDBRANCH  16  17
ENDBRANCH   1  16
TORSDOF 10
