REMARK  10 active torsions:
REMARK  status: ('A' for Active; 'I' for Inactive)
REMARK    1  A    between atoms: C2_2  and  C3_3 
REMARK    2  A    between atoms: C3_3  and  C4_4 
REMARK    3  A    between atoms: C4_4  and  C5_5 
REMARK    4  A    between atoms: C5_5  and  C6_6 
REMARK    5  A    between atoms: C6_6  and  C7_7 
REMARK    6  A    between atoms: C7_7  and  C8_8 
REMARK    7  A    between atoms: C8_8  and  C9_9 
REMARK    8  A    between atoms: C9_9  and  C10_10 
REMARK    9  A    between atoms: C10_10  and  C11_11 
REMARK   10  A    between atoms: C11_11  and  N1_12 
ROOT
HETATM    1  C9  UNL     1      -2.306   0.828  -0.097  1.00  0.00    -0.039 C 
HETATM    2  C12 UNL     1      -2.734   2.320  -0.097  1.00  0.00     0.010 C 
HETATM    3  C13 UNL     1      -3.819   1.964  -1.055  1.00  0.00     0.002 C 
HETATM    4  C14 UNL     1      -2.992   0.771  -1.468  1.00  0.00     0.010 C 
ENDROOT
BRANCH   1   5
HETATM    5  C8  UNL     1      -0.838   0.808  -0.194  1.00  0.00     0.009 C 
BRANCH   5   6
HETATM    6  C7  UNL     1      -0.110  -0.458  -0.366  1.00  0.00     0.001 C 
BRANCH   6   7
HETATM    7  C6  UNL     1       1.389  -0.055  -0.463  1.00  0.00     0.000 C 
BRANCH   7   8
HETATM    8  C5  UNL     1       2.213  -1.306  -0.642  1.00  0.00     0.000 C 
BRANCH   8   9
HETATM    9  C4  UNL     1       3.674  -0.957  -0.746  1.00  0.00     0.004 C 
BRANCH   9  10
HETATM   10  C3  UNL     1       4.091  -0.255   0.529  1.00  0.00     0.026 C 
BRANCH  10  11
HETATM   11  C2  UNL     1       5.551   0.077   0.403  1.00  0.00    -0.037 C 
HETATM   12  C1  UNL     1       6.383  -0.423   1.279  1.00  0.00     0.007 C 
ENDBRANCH  10  11
ENDBRANCH   9  10
ENDBRANCH   8   9
ENDBRANCH   7   8
ENDBRANCH   6   7
ENDBRANCH   5   6
ENDBRANCH   1   5
BRANCH   1  13
HETATM   13  C10 UNL     1      -3.066   0.142   0.955  1.00  0.00     0.036 C 
BRANCH  13  14
HETATM   14  C11 UNL     1      -2.988  -1.317   1.118  1.00  0.00     0.230 C 
BRANCH  14  15
HETATM   15  N1  UNL     1      -3.907  -1.641   2.246  1.00  0.00    -0.079 N 
ATOM     16  H13 UNL     1      -3.706  -1.122   3.101  1.00  0.00     0.274 HD
ATOM     17  H12 UNL     1      -4.857  -1.293   2.114  1.00  0.00     0.274 HD
ATOM     18  H11 UNL     1      -3.853  -2.653   2.359  1.00  0.00     0.274 HD
ENDBRANCH  14  15
ENDBRANCH  13  14
ENDBRANCH   1  13
TORSDOF 10
