REMARK  10 active torsions:
REMARK  status: ('A' for Active; 'I' for Inactive)
REMARK    1  A    between atoms: C2_2  and  C3_3 
REMARK    2  A    between atoms: C2_2  and  C9_13 
REMARK    3  A    between atoms: C3_3  and  C4_4 
REMARK    4  A    between atoms: C4_4  and  C5_5 
REMARK    5  A    between atoms: C5_5  and  C6_6 
REMARK    6  A    between atoms: C6_6  and  C7_7 
REMARK    7  A    between atoms: C7_7  and  C8_8 
REMARK    8  A    between atoms: C8_8  and  N1_9 
REMARK    9  A    between atoms: C9_13  and  C10_14 
REMARK   10  A    between atoms: C10_14  and  C11_15 
ROOT
HETATM    1  C4  UNL     1      -1.278  -0.120  -1.681  1.00  0.00     0.000 C 
ENDROOT
BRANCH   1   2
HETATM    2  C3  UNL     1      -0.706  -1.332  -1.010  1.00  0.00     0.004 C 
BRANCH   2   3
HETATM    3  C2  UNL     1       0.538  -1.055  -0.227  1.00  0.00    -0.019 C 
HETATM    4  C1  UNL     1       0.996  -2.369   0.389  1.00  0.00     0.010 C 
BRANCH   3   5
HETATM    5  C9  UNL     1       1.665  -0.583  -1.122  1.00  0.00     0.004 C 
BRANCH   5   6
HETATM    6  C10 UNL     1       2.898  -0.397  -0.258  1.00  0.00     0.005 C 
BRANCH   6   7
HETATM    7  C11 UNL     1       4.079   0.076  -1.069  1.00  0.00    -0.014 A 
HETATM    8  C12 UNL     1       5.385   0.328  -0.449  1.00  0.00     0.005 A 
HETATM    9  C13 UNL     1       4.513   1.498  -0.794  1.00  0.00     0.005 A 
ENDBRANCH   6   7
ENDBRANCH   5   6
ENDBRANCH   3   5
ENDBRANCH   2   3
ENDBRANCH   1   2
BRANCH   1  10
HETATM   10  C5  UNL     1      -1.654   0.967  -0.721  1.00  0.00     0.000 C 
BRANCH  10  11
HETATM   11  C6  UNL     1      -2.701   0.485   0.272  1.00  0.00     0.002 C 
BRANCH  11  12
HETATM   12  C7  UNL     1      -3.082   1.578   1.241  1.00  0.00     0.027 C 
BRANCH  12  13
HETATM   13  C8  UNL     1      -4.126   0.988   2.179  1.00  0.00     0.229 C 
BRANCH  13  14
HETATM   14  N1  UNL     1      -5.246   0.582   1.323  1.00  0.00    -0.079 N 
ATOM     15  H13 UNL     1      -5.604   1.334   0.735  1.00  0.00     0.274 HD
ATOM     16  H12 UNL     1      -4.975  -0.046   0.566  1.00  0.00     0.274 HD
ATOM     17  H11 UNL     1      -5.945   0.187   1.951  1.00  0.00     0.274 HD
ENDBRANCH  13  14
ENDBRANCH  12  13
ENDBRANCH  11  12
ENDBRANCH  10  11
ENDBRANCH   1  10
TORSDOF 10
