REMARK  1 active torsions:
REMARK  status: ('A' for Active; 'I' for Inactive)
REMARK    1  A    between atoms: C2_2  and  C3_3 
ROOT
HETATM    1  C3  UNL     1       0.097  -0.079   0.478  1.00  0.00     0.047 A 
HETATM    2  C4  UNL     1      -0.581   0.093  -0.706  1.00  0.00     0.118 A 
HETATM    3  N1  UNL     1      -1.899  -0.007  -0.521  1.00  0.00    -0.360 N 
ATOM      4  H1  UNL     1      -2.626   0.080  -1.231  1.00  0.00     0.166 HD
HETATM    5  C5  UNL     1      -2.075  -0.244   0.781  1.00  0.00     0.180 A 
HETATM    6  N2  UNL     1      -0.858  -0.289   1.402  1.00  0.00    -0.351 N 
ATOM      7  H2  UNL     1      -0.701  -0.454   2.396  1.00  0.00     0.166 HD
ENDROOT
BRANCH   1   8
HETATM    8  C2  UNL     1       1.541  -0.035   0.657  1.00  0.00     0.021 C 
HETATM    9  C1  UNL     1       2.323   0.187  -0.383  1.00  0.00     0.013 C 
ENDBRANCH   1   8
TORSDOF 1
