REMARK  9 active torsions:
REMARK  status: ('A' for Active; 'I' for Inactive)
REMARK    1  A    between atoms: C3_4  and  N2_5 
REMARK    2  A    between atoms: N2_5  and  C4_7 
REMARK    3  A    between atoms: C4_7  and  C5_8 
REMARK    4  A    between atoms: C4_7  and  C17_22 
REMARK    5  A    between atoms: C5_8  and  C6_9 
REMARK    6  A    between atoms: C6_9  and  C7_10 
REMARK    7  A    between atoms: C17_22  and  O1_23 
REMARK    8  A    between atoms: C17_22  and  N3_25 
REMARK    9  A    between atoms: N3_25  and  O2_27 
ROOT
HETATM    1  C4  UNL     1       2.376  -0.965   0.076  1.00  0.00     0.158 C 
ENDROOT
BRANCH   1   2
HETATM    2  N2  UNL     1       2.717   0.134   0.937  1.00  0.00    -0.376 N 
ATOM      3  H2  UNL     1       1.995   0.515   1.548  1.00  0.00     0.160 HD
BRANCH   2   4
HETATM    4  C3  UNL     1       4.007   0.712   0.976  1.00  0.00     0.063 A 
HETATM    5  C2  UNL     1       5.126   0.498   0.217  1.00  0.00     0.140 A 
HETATM    6  N1  UNL     1       6.133   1.296   0.642  1.00  0.00    -0.306 N 
HETATM    7  C1  UNL     1       7.470   1.346   0.078  1.00  0.00     0.177 C 
HETATM    8  N4  UNL     1       5.682   2.009   1.651  1.00  0.00    -0.308 N 
HETATM    9  C18 UNL     1       4.404   1.692   1.890  1.00  0.00     0.138 A 
ATOM     10  H4  UNL     1       6.224   2.699   2.172  1.00  0.00     0.186 HD
ENDBRANCH   2   4
ENDBRANCH   1   2
BRANCH   1  11
HETATM   11  C5  UNL     1       0.861  -1.250   0.162  1.00  0.00     0.034 C 
BRANCH  11  12
HETATM   12  C6  UNL     1       0.155  -0.032  -0.281  1.00  0.00     0.013 C 
BRANCH  12  13
HETATM   13  C7  UNL     1      -1.362  -0.103  -0.261  1.00  0.00     0.058 C 
HETATM   14  C8  UNL     1      -1.850   1.249  -0.733  1.00  0.00     0.010 C 
HETATM   15  C9  UNL     1      -2.456   2.064   0.414  1.00  0.00     0.001 C 
HETATM   16  C10 UNL     1      -3.853   2.405   0.046  1.00  0.00     0.000 C 
HETATM   17  C11 UNL     1      -4.954   1.646   0.645  1.00  0.00     0.000 C 
HETATM   18  C12 UNL     1      -4.727   0.366   1.325  1.00  0.00     0.000 C 
HETATM   19  C13 UNL     1      -4.477  -0.874   0.557  1.00  0.00     0.000 C 
HETATM   20  C14 UNL     1      -4.420  -0.815  -0.908  1.00  0.00     0.006 C 
HETATM   21  C15 UNL     1      -3.219  -1.182  -1.631  1.00  0.00     0.079 C 
HETATM   22  C16 UNL     1      -1.879  -1.257  -1.009  1.00  0.00     0.247 C 
HETATM   23  F1  UNL     1      -1.715  -2.431  -0.298  1.00  0.00    -0.206 F 
HETATM   24  F2  UNL     1      -1.001  -1.430  -2.105  1.00  0.00    -0.206 F 
ENDBRANCH  12  13
ENDBRANCH  11  12
ENDBRANCH   1  11
BRANCH   1  25
HETATM   25  C17 UNL     1       3.108  -2.218   0.377  1.00  0.00     0.158 C 
BRANCH  25  26
HETATM   26  O1  UNL     1       3.109  -2.775   1.640  1.00  0.00    -0.347 OA
ATOM     27  H1  UNL     1       3.578  -3.578   1.833  1.00  0.00     0.219 HD
ENDBRANCH  25  26
BRANCH  25  28
HETATM   28  N3  UNL     1       3.758  -2.803  -0.558  1.00  0.00    -0.249 N 
ATOM     29  H3  UNL     1       3.754  -2.390  -1.491  1.00  0.00     0.196 HD
BRANCH  28  30
HETATM   30  O2  UNL     1       4.451  -3.950  -0.356  1.00  0.00    -0.288 OA
ATOM     31  H2  UNL     1       4.933  -4.384  -1.050  1.00  0.00     0.244 HD
ENDBRANCH  28  30
ENDBRANCH  25  28
ENDBRANCH   1  25
TORSDOF 9
