REMARK  2 active torsions:
REMARK  status: ('A' for Active; 'I' for Inactive)
REMARK    1  A    between atoms: C2_2  and  C3_3 
REMARK    2  A    between atoms: C3_3  and  O1_4 
ROOT
HETATM    1  C3  UNL     1      -1.654   0.016  -0.102  1.00  0.00     0.106 C 
HETATM    2  C4  UNL     1      -0.979  -1.290   0.022  1.00  0.00     0.048 C 
HETATM    3  C5  UNL     1       0.301  -1.361   0.745  1.00  0.00     0.004 C 
HETATM    4  C6  UNL     1       1.437  -1.275  -0.249  1.00  0.00     0.000 C 
HETATM    5  C7  UNL     1       2.602  -0.488   0.256  1.00  0.00     0.002 C 
HETATM    6  C8  UNL     1       2.770   0.851  -0.387  1.00  0.00     0.020 C 
HETATM    7  C9  UNL     1       1.524   1.446  -0.933  1.00  0.00     0.119 C 
HETATM    8  N1  UNL     1       0.417   1.356  -0.017  1.00  0.00    -0.399 N 
ATOM      9  H1  UNL     1       0.541   1.429   0.993  1.00  0.00     0.158 HD
HETATM   10  C10 UNL     1      -0.843   1.161  -0.601  1.00  0.00     0.097 C 
ENDROOT
BRANCH   1  11
HETATM   11  C2  UNL     1      -2.378   0.359   1.135  1.00  0.00     0.006 C 
HETATM   12  C1  UNL     1      -3.513  -0.229   1.417  1.00  0.00     0.010 C 
ENDBRANCH   1  11
BRANCH   1  13
HETATM   13  O1  UNL     1      -2.669  -0.158  -1.083  1.00  0.00    -0.380 OA
ATOM     14  H1  UNL     1      -2.202  -0.379  -1.880  1.00  0.00     0.211 HD
ENDBRANCH   1  13
TORSDOF 2
