REMARK  2 active torsions:
REMARK  status: ('A' for Active; 'I' for Inactive)
REMARK       I    between atoms: C1_2  and  N2_4 
REMARK       I    between atoms: N2_4  and  C2_6 
REMARK    1  A    between atoms: C2_6  and  C3_8 
REMARK    2  A    between atoms: C3_8  and  N3_9 
ROOT
HETATM    1  N3  UNL     1      -0.022  -0.165   0.015  1.00  0.00    -0.336 N 
HETATM    2  C4  UNL     1      -0.566   0.297   1.236  1.00  0.00     0.057 A 
HETATM    3  C5  UNL     1       0.199   0.950   2.174  1.00  0.00     0.031 A 
HETATM    4  C6  UNL     1      -0.300   1.429   3.387  1.00  0.00     0.002 A 
HETATM    5  C7  UNL     1      -1.632   1.237   3.660  1.00  0.00     0.002 A 
HETATM    6  C8  UNL     1      -2.434   0.588   2.748  1.00  0.00     0.026 A 
HETATM    7  C9  UNL     1      -1.902   0.135   1.572  1.00  0.00     0.091 A 
HETATM    8  S1  UNL     1      -2.993  -0.681   0.501  1.00  0.00     0.211 S 
HETATM    9  O3  UNL     1      -3.582  -1.906   1.172  1.00  0.00    -0.217 OA
HETATM   10  O4  UNL     1      -4.127   0.240   0.148  1.00  0.00    -0.217 OA
HETATM   11  C10 UNL     1      -2.097  -1.130  -0.929  1.00  0.00     0.091 A 
HETATM   12  C11 UNL     1      -2.792  -1.773  -1.958  1.00  0.00     0.026 A 
HETATM   13  C12 UNL     1      -2.125  -2.133  -3.092  1.00  0.00     0.002 A 
HETATM   14  C13 UNL     1      -0.782  -1.853  -3.198  1.00  0.00     0.002 A 
HETATM   15  C14 UNL     1      -0.111  -1.211  -2.160  1.00  0.00     0.031 A 
HETATM   16  C15 UNL     1      -0.758  -0.829  -0.985  1.00  0.00     0.057 A 
ENDROOT
BRANCH   1  17
HETATM   17  C3  UNL     1       1.406   0.090  -0.185  1.00  0.00     0.232 C 
BRANCH  17  18
HETATM   18  C2  UNL     1       1.679   1.492  -0.502  1.00  0.00     0.243 C 
HETATM   19  N2  UNL     1       2.997   1.938  -0.728  1.00  0.00    -0.280 N 
HETATM   20  C1  UNL     1       4.183   1.185  -0.689  1.00  0.00     0.335 C 
ATOM     21  H2  UNL     1       3.103   2.929  -0.947  1.00  0.00     0.173 HD
HETATM   22  N1  UNL     1       4.216  -0.192  -0.406  1.00  0.00    -0.040 NA
HETATM   23  O1  UNL     1       5.284   1.801  -0.928  1.00  0.00    -0.251 OA
HETATM   24  O2  UNL     1       0.718   2.348  -0.582  1.00  0.00    -0.271 OA
ENDBRANCH  17  18
ENDBRANCH   1  17
TORSDOF 2
