REMARK  3 active torsions:
REMARK  status: ('A' for Active; 'I' for Inactive)
REMARK    1  A    between atoms: C1_2  and  C2_4 
REMARK    2  A    between atoms: C3_6  and  S2_7 
REMARK    3  A    between atoms: S2_7  and  N2_8 
ROOT
HETATM    1  C2  UNL     1       1.234  -0.192  -0.759  1.00  0.00     0.111 A 
HETATM    2  S1  UNL     1      -0.369  -0.567  -1.241  1.00  0.00    -0.050 SA
HETATM    3  C3  UNL     1      -1.205   0.382  -0.079  1.00  0.00     0.193 A 
HETATM    4  N3  UNL     1      -0.216   0.924   0.602  1.00  0.00    -0.329 N 
ATOM      5  H3  UNL     1      -0.420   1.554   1.378  1.00  0.00     0.168 HD
HETATM    6  C4  UNL     1       1.013   0.662   0.292  1.00  0.00     0.127 A 
HETATM    7 CL1  UNL     1       2.404   1.358   1.167  1.00  0.00    -0.063 Cl
ENDROOT
BRANCH   3   8
HETATM    8  S2  UNL     1      -2.946   0.553   0.111  1.00  0.00     0.279 S 
HETATM    9  O2  UNL     1      -3.643   0.502  -1.193  1.00  0.00    -0.199 OA
HETATM   10  O3  UNL     1      -3.218   1.878   0.752  1.00  0.00    -0.199 OA
BRANCH   8  11
HETATM   11  N2  UNL     1      -3.493  -0.670   1.200  1.00  0.00    -0.323 N 
ATOM     12  H22 UNL     1      -2.897  -1.365   1.648  1.00  0.00     0.169 HD
ATOM     13  H21 UNL     1      -4.502  -0.571   1.310  1.00  0.00     0.169 HD
ENDBRANCH   8  11
ENDBRANCH   3   8
BRANCH   1  14
HETATM   14  C1  UNL     1       2.519  -0.653  -1.313  1.00  0.00     0.275 C 
HETATM   15  N1  UNL     1       3.737  -0.206  -0.748  1.00  0.00    -0.057 NA
HETATM   16  O1  UNL     1       2.559  -1.435  -2.278  1.00  0.00    -0.270 OA
ENDBRANCH   1  14
TORSDOF 3
