REMARK  1 active torsions:
REMARK  status: ('A' for Active; 'I' for Inactive)
REMARK    1  A    between atoms: C6_7  and  N2_8 
ROOT
HETATM    1  C1  UNL     1       1.982  -0.576   0.286  1.00  0.00     0.145 C 
HETATM    2  N1  UNL     1       0.962  -0.104  -0.559  1.00  0.00    -0.391 N 
HETATM    3  C2  UNL     1       0.734   1.291  -0.590  1.00  0.00     0.118 C 
HETATM    4  C3  UNL     1      -0.323   1.808   0.307  1.00  0.00     0.020 C 
HETATM    5  C4  UNL     1      -1.502   0.942   0.511  1.00  0.00     0.005 C 
HETATM    6  C5  UNL     1      -1.343  -0.492   0.210  1.00  0.00     0.054 C 
HETATM    7  C6  UNL     1      -0.214  -0.876  -0.662  1.00  0.00     0.279 C 
ENDROOT
BRANCH   7   8
HETATM    8  N2  UNL     1       0.068  -2.297  -0.439  1.00  0.00    -0.059 N 
ATOM      9  H23 UNL     1       0.798  -2.638  -1.065  1.00  0.00     0.276 HD
ATOM     10  H22 UNL     1       0.542  -2.451   0.451  1.00  0.00     0.276 HD
ATOM     11  H21 UNL     1      -0.782  -2.855  -0.513  1.00  0.00     0.276 HD
ENDBRANCH   7   8
TORSDOF 1
