REMARK  11 active torsions:
REMARK  status: ('A' for Active; 'I' for Inactive)
REMARK    1  A    between atoms: C2_2  and  C3_3 
REMARK    2  A    between atoms: C3_3  and  C4_4 
REMARK    3  A    between atoms: C4_4  and  C5_5 
REMARK    4  A    between atoms: C5_5  and  C6_6 
REMARK    5  A    between atoms: C6_6  and  C7_7 
REMARK    6  A    between atoms: C7_7  and  C8_8 
REMARK    7  A    between atoms: C7_7  and  N1_11 
REMARK    8  A    between atoms: C8_8  and  C9_9 
REMARK    9  A    between atoms: N1_11  and  C11_14 
REMARK   10  A    between atoms: C11_14  and  C12_15 
REMARK   11  A    between atoms: C12_15  and  C13_16 
ROOT
HETATM    1  C7  UNL     1      -0.624   1.056   0.110  1.00  0.00     0.185 C 
ENDROOT
BRANCH   1   2
HETATM    2  C6  UNL     1       0.588   0.276  -0.142  1.00  0.00     0.033 C 
BRANCH   2   3
HETATM    3  C5  UNL     1       1.495   0.728  -1.232  1.00  0.00     0.002 C 
BRANCH   3   4
HETATM    4  C4  UNL     1       2.653  -0.271  -1.438  1.00  0.00     0.000 C 
BRANCH   4   5
HETATM    5  C3  UNL     1       3.492  -0.403  -0.194  1.00  0.00    -0.000 C 
BRANCH   5   6
HETATM    6  C2  UNL     1       4.606  -1.384  -0.526  1.00  0.00    -0.005 C 
HETATM    7  C1  UNL     1       5.518  -1.586   0.669  1.00  0.00     0.005 C 
ENDBRANCH   5   6
ENDBRANCH   4   5
ENDBRANCH   3   4
ENDBRANCH   2   3
ENDBRANCH   1   2
BRANCH   1   8
HETATM    8  C8  UNL     1      -0.593   2.461   0.521  1.00  0.00     0.032 C 
BRANCH   8   9
HETATM    9  C9  UNL     1      -0.022   3.485  -0.377  1.00  0.00    -0.002 C 
HETATM   10  C10 UNL     1      -0.151   4.890   0.256  1.00  0.00     0.005 C 
ENDBRANCH   8   9
ENDBRANCH   1   8
BRANCH   1  11
HETATM   11  N1  UNL     1      -1.643   0.319   0.921  1.00  0.00    -0.071 N 
ATOM     12  H12 UNL     1      -1.282   0.051   1.837  1.00  0.00     0.277 HD
ATOM     13  H11 UNL     1      -2.399   0.930   1.232  1.00  0.00     0.277 HD
BRANCH  11  14
HETATM   14  C11 UNL     1      -2.133  -0.811   0.184  1.00  0.00     0.233 C 
BRANCH  14  15
HETATM   15  C12 UNL     1      -3.259  -1.514   0.938  1.00  0.00     0.032 C 
BRANCH  15  16
HETATM   16  C13 UNL     1      -3.682  -2.680   0.038  1.00  0.00    -0.013 A 
HETATM   17  C14 UNL     1      -4.810  -3.575   0.537  1.00  0.00     0.005 A 
HETATM   18  C15 UNL     1      -5.079  -2.608  -0.569  1.00  0.00     0.005 A 
ENDBRANCH  15  16
ENDBRANCH  14  15
ENDBRANCH  11  14
ENDBRANCH   1  11
TORSDOF 11
