REMARK  19 active torsions:
REMARK  status: ('A' for Active; 'I' for Inactive)
REMARK    1  A    between atoms: N1_2  and  C2_3 
REMARK    2  A    between atoms: N1_2  and  C16_47 
REMARK    3  A    between atoms: C3_6  and  N3_7 
REMARK    4  A    between atoms: N3_7  and  C4_8 
REMARK    5  A    between atoms: N3_7  and  C6_12 
REMARK    6  A    between atoms: C4_8  and  C5_9 
REMARK    7  A    between atoms: C5_9  and  O1_10 
REMARK    8  A    between atoms: C6_12  and  C7_13 
REMARK    9  A    between atoms: C7_13  and  O2_14 
REMARK   10  A    between atoms: N5_20  and  C10_21 
REMARK   11  A    between atoms: C10_21  and  O3_22 
REMARK   12  A    between atoms: C11_24  and  O4_25 
REMARK   13  A    between atoms: C12_27  and  N6_28 
REMARK   14  A    between atoms: C13_32  and  O5_33 
REMARK   15  A    between atoms: C14_35  and  N7_36 
REMARK   16  A    between atoms: N7_36  and  S1_38 
REMARK   17  A    between atoms: S1_38  and  N8_39 
REMARK   18  A    between atoms: C18_49  and  N10_50 
REMARK   19  A    between atoms: C19_53  and  N11_54 
ROOT
HETATM    1  C2  UNL     1       0.872  -0.482   0.654  1.00  0.00     0.688 A 
HETATM    2  N2  UNL     1       1.689   0.607   0.825  1.00  0.00    -0.174 N 
ATOM      3  H2  UNL     1       2.627   0.471   1.202  1.00  0.00     0.186 HD
HETATM    4  C3  UNL     1       1.282   1.851   0.507  1.00  0.00     0.150 A 
HETATM    5  C8  UNL     1       0.015   1.998   0.006  1.00  0.00     0.123 A 
HETATM    6  N4  UNL     1      -0.712   3.038  -0.399  1.00  0.00    -0.346 N 
ATOM      7  H4  UNL     1      -0.388   4.005  -0.399  1.00  0.00     0.167 HD
HETATM    8  C9  UNL     1      -1.906   2.650  -0.799  1.00  0.00     0.188 A 
HETATM    9  N5  UNL     1      -1.989   1.291  -0.658  1.00  0.00    -0.289 N 
HETATM   10  C15 UNL     1      -0.821   0.888  -0.167  1.00  0.00     0.157 A 
HETATM   11  N9  UNL     1      -0.370  -0.319   0.161  1.00  0.00    -0.173 N 
ATOM     12  H9  UNL     1      -0.973  -1.132   0.037  1.00  0.00     0.186 HD
ENDROOT
BRANCH   9  13
HETATM   13  C10 UNL     1      -3.175   0.591  -1.006  1.00  0.00     0.192 C 
HETATM   14  C11 UNL     1      -3.046  -0.317  -2.222  1.00  0.00     0.209 C 
HETATM   15  C12 UNL     1      -4.446  -0.938  -2.225  1.00  0.00     0.247 C 
HETATM   16  C13 UNL     1      -4.889  -0.980  -0.797  1.00  0.00     0.179 C 
HETATM   17  C14 UNL     1      -3.732  -0.345  -0.005  1.00  0.00     0.184 C 
BRANCH  13  18
HETATM   18  O3  UNL     1      -4.228   1.478  -1.354  1.00  0.00    -0.366 OA
ATOM     19  H3  UNL     1      -5.021   1.010  -1.587  1.00  0.00     0.212 HD
ENDBRANCH  13  18
BRANCH  14  20
HETATM   20  O4  UNL     1      -2.112  -1.325  -2.020  1.00  0.00    -0.388 OA
ATOM     21  H4  UNL     1      -2.032  -1.891  -2.778  1.00  0.00     0.210 HD
ENDBRANCH  14  20
BRANCH  15  22
HETATM   22  N6  UNL     1      -4.381  -2.234  -2.831  1.00  0.00    -0.070 N 
ATOM     23  H63 UNL     1      -3.967  -2.207  -3.763  1.00  0.00     0.274 HD
ATOM     24  H62 UNL     1      -3.690  -2.837  -2.385  1.00  0.00     0.274 HD
ATOM     25  H61 UNL     1      -5.313  -2.648  -2.833  1.00  0.00     0.274 HD
ENDBRANCH  15  22
BRANCH  16  26
HETATM   26  O5  UNL     1      -5.125  -2.277  -0.347  1.00  0.00    -0.391 OA
ATOM     27  H5  UNL     1      -5.406  -2.304   0.560  1.00  0.00     0.210 HD
ENDBRANCH  16  26
BRANCH  17  28
HETATM   28  N7  UNL     1      -4.282   0.320   1.136  1.00  0.00    -0.291 N 
ATOM     29  H7  UNL     1      -4.938   1.096   1.050  1.00  0.00     0.174 HD
BRANCH  28  30
HETATM   30  S1  UNL     1      -3.769  -0.271   2.645  1.00  0.00     0.313 S 
HETATM   31  O6  UNL     1      -4.956  -0.131   3.589  1.00  0.00    -0.183 OA
HETATM   32  O7  UNL     1      -3.518  -1.757   2.558  1.00  0.00    -0.183 OA
BRANCH  30  33
HETATM   33  N8  UNL     1      -2.428   0.543   3.310  1.00  0.00    -0.312 N 
ATOM     34  H82 UNL     1      -1.980   1.322   2.828  1.00  0.00     0.170 HD
ATOM     35  H81 UNL     1      -2.120   0.188   4.215  1.00  0.00     0.170 HD
ENDBRANCH  30  33
ENDBRANCH  28  30
ENDBRANCH  17  28
ENDBRANCH   9  13
BRANCH   4  36
HETATM   36  N3  UNL     1       2.139   2.966   0.668  1.00  0.00    -0.361 N 
BRANCH  36  37
HETATM   37  C4  UNL     1       2.766   3.650  -0.445  1.00  0.00     0.150 C 
BRANCH  37  38
HETATM   38  C5  UNL     1       2.622   2.997  -1.767  1.00  0.00     0.183 C 
BRANCH  38  39
HETATM   39  O1  UNL     1       3.288   3.775  -2.748  1.00  0.00    -0.399 OA
ATOM     40  H1  UNL     1       3.196   3.356  -3.596  1.00  0.00     0.209 HD
ENDBRANCH  38  39
ENDBRANCH  37  38
ENDBRANCH  36  37
BRANCH  36  41
HETATM   41  C6  UNL     1       2.386   3.422   2.029  1.00  0.00     0.150 C 
BRANCH  41  42
HETATM   42  C7  UNL     1       1.837   4.751   2.370  1.00  0.00     0.183 C 
BRANCH  42  43
HETATM   43  O2  UNL     1       0.480   4.870   2.262  1.00  0.00    -0.399 OA
ATOM     44  H2  UNL     1       0.127   5.724   2.481  1.00  0.00     0.209 HD
ENDBRANCH  42  43
ENDBRANCH  41  42
ENDBRANCH  36  41
ENDBRANCH   4  36
BRANCH   1  45
HETATM   45  N1  UNL     1       1.444  -1.707   1.050  1.00  0.00    -0.184 N 
HETATM   46  C1  UNL     1       1.104  -2.214   2.386  1.00  0.00     0.175 C 
BRANCH  45  47
HETATM   47  C16 UNL     1       2.358  -2.476   0.298  1.00  0.00     0.095 A 
HETATM   48  C17 UNL     1       3.111  -3.476   0.912  1.00  0.00     0.073 A 
HETATM   49  C18 UNL     1       4.060  -4.233   0.219  1.00  0.00     0.148 A 
HETATM   50  C19 UNL     1       4.271  -4.001  -1.109  1.00  0.00     0.134 A 
HETATM   51  N12 UNL     1       3.535  -3.030  -1.696  1.00  0.00    -0.327 N 
HETATM   52  C20 UNL     1       2.610  -2.288  -1.031  1.00  0.00     0.145 A 
ATOM     53  H12 UNL     1       3.681  -2.845  -2.688  1.00  0.00     0.168 HD
HETATM   54  N13 UNL     1       1.885  -1.314  -1.780  1.00  0.00    -0.080 NA
BRANCH  49  55
HETATM   55  N10 UNL     1       4.772  -5.226   0.931  1.00  0.00    -0.112 N 
HETATM   56  O8  UNL     1       4.231  -5.794   1.922  1.00  0.00    -0.532 OA
HETATM   57  O9  UNL     1       6.028  -5.637   0.632  1.00  0.00    -0.532 OA
ENDBRANCH  49  55
BRANCH  50  58
HETATM   58  N11 UNL     1       5.108  -4.649  -1.841  1.00  0.00    -0.383 N 
ATOM     59 2H11 UNL     1       5.663  -5.381  -1.398  1.00  0.00     0.157 HD
ATOM     60 1H11 UNL     1       5.266  -4.476  -2.834  1.00  0.00     0.157 HD
ENDBRANCH  50  58
ENDBRANCH  45  47
ENDBRANCH   1  45
TORSDOF 19
