REMARK  5 active torsions:
REMARK  status: ('A' for Active; 'I' for Inactive)
REMARK    1  A    between atoms: O1_2  and  C2_3 
REMARK    2  A    between atoms: C3_4  and  N1_5 
REMARK       I    between atoms: N1_5  and  C4_7 
REMARK    3  A    between atoms: C4_7  and  C5_9 
REMARK    4  A    between atoms: C14_20  and  N2_21 
REMARK    5  A    between atoms: C15_24  and  N3_25 
ROOT
HETATM    1  C2  UNL     1      -0.100   0.387   0.037  1.00  0.00     0.131 A 
HETATM    2  C3  UNL     1      -0.955   0.891  -0.910  1.00  0.00     0.093 A 
HETATM    3  C11 UNL     1      -0.497   1.163  -2.178  1.00  0.00     0.064 A 
HETATM    4 CL1  UNL     1      -1.599   1.797  -3.350  1.00  0.00    -0.082 Cl
HETATM    5  C12 UNL     1       0.831   0.941  -2.539  1.00  0.00     0.043 A 
HETATM    6  C13 UNL     1       1.659   0.434  -1.559  1.00  0.00     0.040 A 
HETATM    7  C14 UNL     1       3.018   0.098  -1.573  1.00  0.00     0.167 A 
HETATM    8  C15 UNL     1       3.339  -0.360  -0.335  1.00  0.00     0.180 A 
HETATM    9  O6  UNL     1       2.259  -0.315   0.403  1.00  0.00    -0.287 OA
HETATM   10  C21 UNL     1       1.240   0.147  -0.276  1.00  0.00     0.126 A 
ENDROOT
BRANCH   2  11
HETATM   11  N1  UNL     1      -2.311   1.131  -0.596  1.00  0.00    -0.321 N 
HETATM   12  C4  UNL     1      -3.348   0.202  -0.781  1.00  0.00     0.259 C 
HETATM   13  O2  UNL     1      -3.093  -0.922  -1.255  1.00  0.00    -0.270 OA
ATOM     14  H1  UNL     1      -2.554   2.042  -0.208  1.00  0.00     0.169 HD
BRANCH  12  15
HETATM   15  C5  UNL     1      -4.740   0.526  -0.427  1.00  0.00     0.168 A 
HETATM   16  C6  UNL     1      -5.854  -0.018  -1.295  1.00  0.00     0.051 C 
HETATM   17  C7  UNL     1      -7.143   0.638  -0.934  1.00  0.00     0.004 C 
HETATM   18  C8  UNL     1      -7.550   0.410   0.498  1.00  0.00     0.003 C 
HETATM   19  C9  UNL     1      -6.396   0.123   1.407  1.00  0.00     0.035 C 
HETATM   20  C10 UNL     1      -5.089   0.697   0.956  1.00  0.00     0.167 A 
HETATM   21  O3  UNL     1      -5.028   1.787   0.106  1.00  0.00    -0.359 OA
ENDBRANCH  12  15
ENDBRANCH   2  11
BRANCH   1  22
HETATM   22  O1  UNL     1      -0.474   0.084   1.337  1.00  0.00    -0.351 OA
HETATM   23  C1  UNL     1      -0.942  -1.211   1.655  1.00  0.00     0.210 C 
ENDBRANCH   1  22
BRANCH   7  24
HETATM   24  N2  UNL     1       3.829   0.242  -2.704  1.00  0.00    -0.110 N 
HETATM   25  O4  UNL     1       4.162   1.415  -3.042  1.00  0.00    -0.532 OA
HETATM   26  O5  UNL     1       4.305  -0.772  -3.497  1.00  0.00    -0.532 OA
ENDBRANCH   7  24
BRANCH   8  27
HETATM   27  N3  UNL     1       4.607  -0.813   0.107  1.00  0.00    -0.359 N 
HETATM   28  C16 UNL     1       5.790  -0.871  -0.701  1.00  0.00     0.125 C 
HETATM   29  C17 UNL     1       6.969  -0.957   0.283  1.00  0.00     0.020 C 
HETATM   30  C18 UNL     1       6.771   0.122   1.343  1.00  0.00     0.003 C 
HETATM   31  C19 UNL     1       5.546  -0.140   2.189  1.00  0.00     0.020 C 
HETATM   32  C20 UNL     1       4.767  -1.266   1.498  1.00  0.00     0.125 C 
ENDBRANCH   8  27
TORSDOF 5
