REMARK  4 active torsions:
REMARK  status: ('A' for Active; 'I' for Inactive)
REMARK    1  A    between atoms: N1_1  and  C1_4 
REMARK    2  A    between atoms: C3_8  and  C4_9 
REMARK       I    between atoms: C4_9  and  N3_11 
REMARK    3  A    between atoms: N3_11  and  N4_13 
REMARK    4  A    between atoms: C5_15  and  C6_16 
ROOT
HETATM    1  C4  UNL     1      -1.155  -0.440  -0.384  1.00  0.00     0.288 C 
HETATM    2  O1  UNL     1      -0.481  -0.676  -1.412  1.00  0.00    -0.264 OA
HETATM    3  N3  UNL     1      -0.477  -0.236   0.841  1.00  0.00    -0.265 N 
ATOM      4  H3  UNL     1      -1.020  -0.043   1.683  1.00  0.00     0.190 HD
ENDROOT
BRANCH   3   5
HETATM    5  N4  UNL     1       0.904  -0.291   0.928  1.00  0.00    -0.307 N 
HETATM    6  C5  UNL     1       1.687   0.692   0.699  1.00  0.00     0.138 C 
ATOM      7  H4  UNL     1       1.326  -1.180   1.194  1.00  0.00     0.186 HD
BRANCH   6   8
HETATM    8  C6  UNL     1       3.120   0.511   0.824  1.00  0.00     0.064 A 
HETATM    9  C7  UNL     1       3.985   1.557   0.582  1.00  0.00     0.118 A 
HETATM   10  N5  UNL     1       5.317   1.308   0.720  1.00  0.00    -0.372 N 
HETATM   11  C8  UNL     1       5.780   0.095   1.077  1.00  0.00     0.104 A 
ATOM     12  H5  UNL     1       5.983   2.062   0.548  1.00  0.00     0.164 HD
HETATM   13  C9  UNL     1       4.915  -0.937   1.315  1.00  0.00     0.105 A 
HETATM   14  N6  UNL     1       3.597  -0.692   1.179  1.00  0.00    -0.362 N 
ATOM     15  H6  UNL     1       2.937  -1.450   1.352  1.00  0.00     0.165 HD
ENDBRANCH   6   8
ENDBRANCH   3   5
BRANCH   1  16
HETATM   16  C3  UNL     1      -2.604  -0.388  -0.505  1.00  0.00     0.134 A 
HETATM   17  C2  UNL     1      -3.368  -0.569  -1.639  1.00  0.00     0.142 A 
HETATM   18  N2  UNL     1      -4.658  -0.438  -1.310  1.00  0.00    -0.200 N 
HETATM   19  C1  UNL     1      -4.750  -0.175   0.009  1.00  0.00     0.676 A 
ATOM     20  H2  UNL     1      -5.445  -0.523  -1.953  1.00  0.00     0.183 HD
HETATM   21  N7  UNL     1      -3.496  -0.149   0.478  1.00  0.00    -0.185 N 
ATOM     22  H7  UNL     1      -3.248   0.028   1.451  1.00  0.00     0.184 HD
BRANCH  19  23
HETATM   23  N1  UNL     1      -5.859   0.014   0.683  1.00  0.00    -0.234 N 
ATOM     24  H12 UNL     1      -6.814  -0.006   0.326  1.00  0.00     0.174 HD
ATOM     25  H11 UNL     1      -5.929   0.213   1.681  1.00  0.00     0.174 HD
ENDBRANCH  19  23
ENDBRANCH   1  16
TORSDOF 4
