REMARK  3 active torsions:
REMARK  status: ('A' for Active; 'I' for Inactive)
REMARK    1  A    between atoms: C3_3  and  N1_4 
REMARK    2  A    between atoms: C4_9  and  N4_10 
REMARK       I    between atoms: N4_10  and  C5_12 
REMARK       I    between atoms: C5_12  and  N6_16 
REMARK    3  A    between atoms: N6_16  and  N7_18 
ROOT
HETATM    1  C1  UNL     1       3.934   2.027  -0.038  1.00  0.00     0.014 C 
HETATM    2  C2  UNL     1       3.558   0.883  -0.152  1.00  0.00    -0.094 C 
HETATM    3  C3  UNL     1       3.108  -0.505  -0.283  1.00  0.00     0.264 C 
ENDROOT
BRANCH   3   4
HETATM    4  N1  UNL     1       1.650  -0.557  -0.458  1.00  0.00    -0.194 N 
HETATM    5  N2  UNL     1       0.970  -0.528  -1.579  1.00  0.00    -0.210 N 
HETATM    6  N3  UNL     1      -0.307  -0.597  -1.251  1.00  0.00    -0.114 N 
ATOM      7  H2  UNL     1       1.354  -0.464  -2.522  1.00  0.00     0.210 HD
HETATM    8  C4  UNL     1      -0.421  -0.670   0.085  1.00  0.00     0.728 A 
ATOM      9  H3  UNL     1      -1.086  -0.595  -1.910  1.00  0.00     0.207 HD
HETATM   10  N8  UNL     1       0.831  -0.642   0.569  1.00  0.00    -0.111 N 
ATOM     11  H8  UNL     1       1.099  -0.680   1.553  1.00  0.00     0.207 HD
BRANCH   8  12
HETATM   12  N4  UNL     1      -1.481  -0.750   0.819  1.00  0.00    -0.019 N 
HETATM   13  C5  UNL     1      -2.728  -0.768   0.144  1.00  0.00     0.704 C 
HETATM   14  N5  UNL     1      -3.182  -1.890  -0.298  1.00  0.00    -0.233 N 
HETATM   15  N6  UNL     1      -3.449   0.441  -0.032  1.00  0.00    -0.139 N 
ATOM     16  H52 UNL     1      -2.664  -2.759  -0.171  1.00  0.00     0.174 HD
ATOM     17  H51 UNL     1      -4.079  -1.903  -0.784  1.00  0.00     0.174 HD
ATOM     18  H6  UNL     1      -4.449   0.378  -0.221  1.00  0.00     0.205 HD
ATOM     19  H4  UNL     1      -1.424  -0.798   1.836  1.00  0.00     0.203 HD
BRANCH  15  20
HETATM   20  N7  UNL     1      -2.882   1.699   0.037  1.00  0.00    -0.331 N 
ATOM     21  H72 UNL     1      -1.881   1.743   0.227  1.00  0.00     0.177 HD
ATOM     22  H71 UNL     1      -3.400   2.568  -0.090  1.00  0.00     0.177 HD
ENDBRANCH  15  20
ENDBRANCH   8  12
ENDBRANCH   3   4
TORSDOF 3
