REMARK  13 active torsions:
REMARK  status: ('A' for Active; 'I' for Inactive)
REMARK    1  A    between atoms: C2_2  and  C3_3 
REMARK    2  A    between atoms: C3_3  and  C4_4 
REMARK    3  A    between atoms: C4_4  and  N1_5 
REMARK       I    between atoms: N1_5  and  C5_7 
REMARK    4  A    between atoms: C5_7  and  C6_9 
REMARK    5  A    between atoms: C6_9  and  C7_11 
REMARK    6  A    between atoms: C7_11  and  C8_12 
REMARK    7  A    between atoms: C7_11  and  N2_16 
REMARK    8  A    between atoms: C8_12  and  C9_13 
REMARK       I    between atoms: N2_16  and  C12_18 
REMARK    9  A    between atoms: C12_18  and  C13_20 
REMARK       I    between atoms: N3_23  and  C16_24 
REMARK   10  A    between atoms: C16_24  and  C17_26 
REMARK   11  A    between atoms: C17_26  and  N4_27 
REMARK   12  A    between atoms: C17_26  and  C24_39 
REMARK       I    between atoms: N4_27  and  C18_29 
REMARK   13  A    between atoms: C18_29  and  C19_31 
ROOT
HETATM    1  C13 UNL     1      -0.634  -0.217   1.379  1.00  0.00     0.098 A 
HETATM    2  C14 UNL     1       0.618   0.345   1.018  1.00  0.00     0.032 A 
HETATM    3  C15 UNL     1       2.043   0.035   1.302  1.00  0.00     0.141 C 
HETATM    4  N3  UNL     1       2.318  -0.738   0.076  1.00  0.00    -0.286 N 
HETATM    5  C16 UNL     1       3.544  -0.794  -0.659  1.00  0.00     0.250 C 
HETATM    6  O4  UNL     1       3.575  -1.562  -1.654  1.00  0.00    -0.271 OA
HETATM    7  C28 UNL     1       1.088  -1.404  -0.231  1.00  0.00     0.232 C 
HETATM    8  O6  UNL     1       0.863  -2.011  -1.286  1.00  0.00    -0.272 OA
HETATM    9  C29 UNL     1       0.250  -1.198   0.918  1.00  0.00     0.098 A 
ENDROOT
BRANCH   1  10
HETATM   10  C12 UNL     1      -1.843   0.106   0.570  1.00  0.00     0.223 C 
HETATM   11  N2  UNL     1      -3.073   0.486   1.157  1.00  0.00    -0.349 N 
ATOM     12  H2  UNL     1      -3.139   0.539   2.174  1.00  0.00     0.163 HD
HETATM   13  O3  UNL     1      -1.793   0.047  -0.685  1.00  0.00    -0.273 OA
BRANCH  11  14
HETATM   14  C7  UNL     1      -4.251   0.805   0.356  1.00  0.00     0.164 C 
BRANCH  14  15
HETATM   15  C6  UNL     1      -5.352  -0.120   0.737  1.00  0.00     0.238 C 
HETATM   16  O2  UNL     1      -5.139  -0.952   1.645  1.00  0.00    -0.285 OA
BRANCH  15  17
HETATM   17  C5  UNL     1      -6.654  -0.086   0.096  1.00  0.00     0.289 C 
HETATM   18  N1  UNL     1      -7.658  -0.989   0.550  1.00  0.00    -0.354 N 
ATOM     19  H1  UNL     1      -7.467  -1.646   1.307  1.00  0.00     0.162 HD
HETATM   20  O1  UNL     1      -6.916   0.716  -0.843  1.00  0.00    -0.264 OA
BRANCH  18  21
HETATM   21  C4  UNL     1      -8.957  -0.951  -0.091  1.00  0.00     0.123 C 
BRANCH  21  22
HETATM   22  C3  UNL     1      -9.924  -1.952   0.497  1.00  0.00     0.019 C 
BRANCH  22  23
HETATM   23  C2  UNL     1     -11.236  -1.799  -0.261  1.00  0.00    -0.003 C 
HETATM   24  C1  UNL     1     -10.966  -2.085  -1.711  1.00  0.00     0.005 C 
ENDBRANCH  22  23
ENDBRANCH  21  22
ENDBRANCH  18  21
ENDBRANCH  15  17
ENDBRANCH  14  15
BRANCH  14  25
HETATM   25  C8  UNL     1      -4.737   2.202   0.738  1.00  0.00     0.037 C 
BRANCH  25  26
HETATM   26  C9  UNL     1      -3.712   3.242   0.395  1.00  0.00    -0.020 C 
HETATM   27  C10 UNL     1      -4.294   4.592   0.823  1.00  0.00     0.009 C 
HETATM   28  C11 UNL     1      -3.495   3.352  -1.108  1.00  0.00     0.009 C 
ENDBRANCH  25  26
ENDBRANCH  14  25
ENDBRANCH  11  14
ENDBRANCH   1  10
BRANCH   5  29
HETATM   29  C17 UNL     1       4.676   0.022  -0.231  1.00  0.00     0.185 C 
BRANCH  29  30
HETATM   30  N4  UNL     1       5.949  -0.731  -0.362  1.00  0.00    -0.342 N 
HETATM   31  C18 UNL     1       6.785  -0.952   0.708  1.00  0.00     0.261 C 
HETATM   32  O5  UNL     1       6.411  -0.478   1.839  1.00  0.00    -0.267 OA
ATOM     33  H4  UNL     1       6.213  -1.097  -1.277  1.00  0.00     0.163 HD
BRANCH  31  34
HETATM   34  C19 UNL     1       8.042  -1.662   0.695  1.00  0.00     0.096 A 
HETATM   35  S1  UNL     1       9.081  -1.924   2.089  1.00  0.00    -0.070 SA
HETATM   36  C20 UNL     1      10.322  -2.789   1.330  1.00  0.00     0.048 A 
HETATM   37  C21 UNL     1      11.587  -3.364   1.900  1.00  0.00     0.076 C 
HETATM   38  N5  UNL     1       9.908  -2.840   0.091  1.00  0.00    -0.357 N 
HETATM   39  C22 UNL     1       8.782  -2.294  -0.267  1.00  0.00     0.028 A 
ATOM     40  H5  UNL     1      10.478  -3.316  -0.608  1.00  0.00     0.166 HD
HETATM   41  C23 UNL     1       8.332  -2.371  -1.721  1.00  0.00     0.070 C 
ENDBRANCH  31  34
ENDBRANCH  29  30
BRANCH  29  42
HETATM   42  C24 UNL     1       4.909   1.261  -1.077  1.00  0.00    -0.022 C 
HETATM   43  C25 UNL     1       3.747   2.209  -1.109  1.00  0.00     0.017 C 
HETATM   44  C26 UNL     1       5.234   0.912  -2.510  1.00  0.00     0.017 C 
HETATM   45  C27 UNL     1       6.161   1.979  -0.546  1.00  0.00     0.017 C 
ENDBRANCH  29  42
ENDBRANCH   5  29
TORSDOF 13
