REMARK  1 active torsions:
REMARK  status: ('A' for Active; 'I' for Inactive)
REMARK    1  A    between atoms: C19_24  and  O3_25 
ROOT
HETATM    1  C1  UNL     1      -1.950   2.861  -0.232  1.00  0.00     0.011 C 
HETATM    2  C2  UNL     1      -2.365   1.722   0.607  1.00  0.00    -0.008 C 
HETATM    3  C3  UNL     1      -1.249   1.199   1.464  1.00  0.00     0.033 C 
HETATM    4  C4  UNL     1      -0.023   0.789   0.771  1.00  0.00     0.113 C 
HETATM    5  N1  UNL     1       0.589  -0.293   1.533  1.00  0.00    -0.391 N 
ATOM      6  H1  UNL     1       0.040  -0.739   2.268  1.00  0.00     0.159 HD
HETATM    7  C5  UNL     1       1.794  -0.716   1.324  1.00  0.00     0.119 C 
HETATM    8  C6  UNL     1       2.802  -0.266   0.344  1.00  0.00     0.198 C 
HETATM    9  C7  UNL     1       3.729   0.697   1.038  1.00  0.00     0.070 C 
HETATM   10  C8  UNL     1       4.531   1.499   0.066  1.00  0.00     0.005 C 
HETATM   11  C9  UNL     1       5.912   0.899  -0.060  1.00  0.00     0.002 C 
HETATM   12  C10 UNL     1       5.803  -0.616  -0.082  1.00  0.00     0.019 C 
HETATM   13  C11 UNL     1       4.667  -1.056  -0.962  1.00  0.00     0.119 C 
HETATM   14  N2  UNL     1       3.471  -1.369  -0.262  1.00  0.00    -0.380 N 
HETATM   15  C12 UNL     1       3.486  -2.573   0.492  1.00  0.00     0.146 C 
HETATM   16  O1  UNL     1       2.094   0.401  -0.685  1.00  0.00    -0.202 OA
HETATM   17  O2  UNL     1       1.057  -0.350  -0.946  1.00  0.00    -0.231 OA
HETATM   18  C13 UNL     1      -0.159   0.315  -0.632  1.00  0.00     0.183 C 
HETATM   19  C14 UNL     1      -1.236  -0.692  -0.840  1.00  0.00     0.047 C 
HETATM   20  C15 UNL     1      -2.604  -0.161  -1.085  1.00  0.00    -0.034 C 
HETATM   21  C16 UNL     1      -2.595   0.442  -2.482  1.00  0.00     0.016 C 
HETATM   22  C17 UNL     1      -3.494  -1.410  -1.251  1.00  0.00     0.012 C 
HETATM   23  C18 UNL     1      -3.441  -2.295  -0.061  1.00  0.00     0.032 C 
HETATM   24  C19 UNL     1      -3.544  -1.520   1.201  1.00  0.00     0.118 C 
HETATM   25  C20 UNL     1      -3.907  -0.092   1.064  1.00  0.00     0.042 C 
HETATM   26  C21 UNL     1      -3.216   0.668  -0.047  1.00  0.00    -0.031 C 
HETATM   27  C22 UNL     1      -4.345   1.482  -0.722  1.00  0.00     0.016 C 
ENDROOT
BRANCH  24  28
HETATM   28  O3  UNL     1      -4.569  -2.131   1.974  1.00  0.00    -0.396 OA
ATOM     29  H3  UNL     1      -4.635  -1.635   2.782  1.00  0.00     0.210 HD
ENDBRANCH  24  28
TORSDOF 1
