REMARK  3 active torsions:
REMARK  status: ('A' for Active; 'I' for Inactive)
REMARK    1  A    between atoms: C4_5  and  O2_6 
REMARK    2  A    between atoms: C12_15  and  O3_16 
REMARK    3  A    between atoms: C21_28  and  O6_29 
ROOT
HETATM    1  C1  UNL     1       2.561   1.126  -1.929  1.00  0.00     0.048 C 
HETATM    2  C2  UNL     1       1.974   1.111  -0.505  1.00  0.00     0.084 C 
HETATM    3  C3  UNL     1       2.649   2.337   0.133  1.00  0.00     0.048 C 
HETATM    4  O1  UNL     1       0.650   1.159  -0.545  1.00  0.00    -0.342 OA
HETATM    5  C4  UNL     1      -0.160   1.316   0.473  1.00  0.00     0.174 C 
HETATM    6  C5  UNL     1       0.244   1.056   1.869  1.00  0.00     0.070 C 
HETATM    7  C6  UNL     1       0.442  -0.374   2.210  1.00  0.00     0.011 C 
HETATM    8  C7  UNL     1       0.286  -1.238   0.970  1.00  0.00     0.008 C 
HETATM    9  C8  UNL     1       1.563  -1.310   0.257  1.00  0.00    -0.011 C 
HETATM   10  C9  UNL     1       2.488  -2.226   1.118  1.00  0.00     0.018 C 
HETATM   11  C10 UNL     1       1.468  -2.105  -1.032  1.00  0.00     0.014 C 
HETATM   12  C11 UNL     1       0.224  -1.938  -1.796  1.00  0.00     0.033 C 
HETATM   13  C12 UNL     1      -1.038  -1.757  -1.026  1.00  0.00     0.127 C 
HETATM   14  C13 UNL     1      -1.002  -0.961   0.225  1.00  0.00     0.002 C 
HETATM   15  C14 UNL     1      -2.067  -1.732   1.065  1.00  0.00     0.019 C 
HETATM   16  C15 UNL     1      -1.434   0.465   0.210  1.00  0.00     0.064 C 
HETATM   17  C16 UNL     1      -2.347   0.832   1.382  1.00  0.00     0.045 C 
HETATM   18  C17 UNL     1      -3.809   0.604   1.163  1.00  0.00     0.172 C 
HETATM   19  O4  UNL     1      -4.243   0.560  -0.120  1.00  0.00    -0.358 OA
HETATM   20  C18 UNL     1      -3.500   1.196  -1.044  1.00  0.00     0.296 A 
HETATM   21  O5  UNL     1      -2.816   2.289  -0.623  1.00  0.00    -0.342 OA
HETATM   22  C19 UNL     1      -2.031   1.043  -1.019  1.00  0.00     0.123 A 
HETATM   23  C20 UNL     1      -1.272   1.603  -2.183  1.00  0.00     0.052 C 
HETATM   24  C21 UNL     1       2.437  -0.111   0.150  1.00  0.00     0.160 C 
ENDROOT
BRANCH   5  25
HETATM   25  O2  UNL     1      -0.644   2.652   0.445  1.00  0.00    -0.364 OA
ATOM     26  H2  UNL     1      -1.231   2.766   1.183  1.00  0.00     0.213 HD
ENDBRANCH   5  25
BRANCH  13  27
HETATM   27  O3  UNL     1      -2.035  -1.377  -1.926  1.00  0.00    -0.395 OA
ATOM     28  H3  UNL     1      -2.840  -1.262  -1.435  1.00  0.00     0.210 HD
ENDBRANCH  13  27
BRANCH  24  29
HETATM   29  O6  UNL     1       3.634  -0.568  -0.467  1.00  0.00    -0.392 OA
ATOM     30  H6  UNL     1       3.935  -1.362  -0.041  1.00  0.00     0.210 HD
ENDBRANCH  24  29
TORSDOF 3
