REMARK  7 active torsions:
REMARK  status: ('A' for Active; 'I' for Inactive)
REMARK       I    between atoms: C1_2  and  N1_3 
REMARK       I    between atoms: C1_2  and  N2_12 
REMARK    1  A    between atoms: N1_3  and  C2_5 
REMARK    2  A    between atoms: C2_5  and  C3_6 
REMARK    3  A    between atoms: N2_12  and  C9_14 
REMARK    4  A    between atoms: C11_16  and  N3_17 
REMARK       I    between atoms: N3_17  and  C12_19 
REMARK    5  A    between atoms: C12_19  and  C13_21 
REMARK    6  A    between atoms: C21_29  and  O3_30 
REMARK    7  A    between atoms: O3_30  and  C22_31 
ROOT
HETATM    1  C9  UNL     1      -0.482   0.947  -0.486  1.00  0.00     0.072 A 
HETATM    2  C10 UNL     1       0.377  -0.099  -0.583  1.00  0.00     0.062 A 
HETATM    3  C11 UNL     1       1.779   0.031  -0.533  1.00  0.00     0.037 A 
HETATM    4  C19 UNL     1       2.254   1.311  -0.376  1.00  0.00     0.032 A 
HETATM    5  C20 UNL     1       1.415   2.402  -0.274  1.00  0.00     0.042 A 
HETATM    6  C21 UNL     1       0.086   2.220  -0.328  1.00  0.00     0.103 A 
ENDROOT
BRANCH   1   7
HETATM    7  N2  UNL     1      -1.870   0.795  -0.553  1.00  0.00    -0.306 N 
HETATM    8  C1  UNL     1      -2.594  -0.382  -0.658  1.00  0.00     0.321 C 
HETATM    9  O1  UNL     1      -2.113  -1.522  -0.703  1.00  0.00    -0.247 OA
HETATM   10  N1  UNL     1      -4.042  -0.276  -0.724  1.00  0.00    -0.339 N 
ATOM     11  H1  UNL     1      -4.503   0.633  -0.697  1.00  0.00     0.164 HD
ATOM     12  H2  UNL     1      -2.417   1.656  -0.521  1.00  0.00     0.171 HD
BRANCH  10  13
HETATM   13  C2  UNL     1      -4.804  -1.488  -0.829  1.00  0.00     0.162 C 
BRANCH  13  14
HETATM   14  C3  UNL     1      -4.873  -2.140   0.505  1.00  0.00    -0.040 A 
HETATM   15  C4  UNL     1      -4.235  -3.304   0.794  1.00  0.00     0.009 A 
HETATM   16  C5  UNL     1      -4.326  -3.876   2.067  1.00  0.00     0.001 A 
HETATM   17  C6  UNL     1      -5.074  -3.242   3.031  1.00  0.00     0.000 A 
HETATM   18  C7  UNL     1      -5.713  -2.072   2.735  1.00  0.00     0.001 A 
HETATM   19  C8  UNL     1      -5.623  -1.515   1.490  1.00  0.00     0.009 A 
ENDBRANCH  13  14
ENDBRANCH  10  13
ENDBRANCH   1   7
BRANCH   6  20
HETATM   20  O3  UNL     1      -0.752   3.296  -0.227  1.00  0.00    -0.309 OA
BRANCH  20  21
HETATM   21  C22 UNL     1      -0.253   4.592  -0.063  1.00  0.00     0.076 A 
HETATM   22  C23 UNL     1      -0.037   5.082   1.200  1.00  0.00     0.037 A 
HETATM   23  C24 UNL     1       0.454   6.361   1.329  1.00  0.00     0.003 A 
HETATM   24  C25 UNL     1       0.726   7.142   0.229  1.00  0.00     0.000 A 
HETATM   25  C26 UNL     1       0.497   6.618  -1.040  1.00  0.00     0.003 A 
HETATM   26  C27 UNL     1       0.005   5.338  -1.180  1.00  0.00     0.037 A 
ENDBRANCH  20  21
ENDBRANCH   6  20
BRANCH   3  27
HETATM   27  N3  UNL     1       2.590  -1.130  -0.616  1.00  0.00    -0.323 N 
HETATM   28  C12 UNL     1       3.902  -1.142  -1.104  1.00  0.00     0.256 C 
HETATM   29  O2  UNL     1       4.461  -0.103  -1.520  1.00  0.00    -0.267 OA
ATOM     30  H3  UNL     1       2.191  -2.014  -0.299  1.00  0.00     0.169 HD
BRANCH  28  31
HETATM   31  C13 UNL     1       4.651  -2.420  -1.129  1.00  0.00     0.032 A 
HETATM   32  C14 UNL     1       5.818  -2.498  -1.874  1.00  0.00     0.017 A 
HETATM   33  C15 UNL     1       6.579  -3.649  -1.946  1.00  0.00     0.001 A 
HETATM   34  C16 UNL     1       6.179  -4.763  -1.260  1.00  0.00     0.000 A 
HETATM   35  C17 UNL     1       5.029  -4.708  -0.518  1.00  0.00     0.001 A 
HETATM   36  C18 UNL     1       4.260  -3.542  -0.447  1.00  0.00     0.017 A 
ENDBRANCH  28  31
ENDBRANCH   3  27
TORSDOF 7
