REMARK  9 active torsions:
REMARK  status: ('A' for Active; 'I' for Inactive)
REMARK    1  A    between atoms: C2_2  and  C3_3 
REMARK    2  A    between atoms: C3_3  and  N1_4 
REMARK    3  A    between atoms: C3_3  and  C4_8 
REMARK    4  A    between atoms: C4_8  and  O1_9 
REMARK    5  A    between atoms: C4_8  and  N2_11 
REMARK    6  A    between atoms: N2_11  and  C5_13 
REMARK    7  A    between atoms: C6_16  and  N4_17 
REMARK    8  A    between atoms: C9_26  and  N7_27 
REMARK    9  A    between atoms: N7_27  and  O2_29 
ROOT
HETATM    1  C5  UNL     1       0.033  -0.857  -0.435  1.00  0.00     0.149 A 
HETATM    2  N3  UNL     1       0.421  -1.829  -1.267  1.00  0.00    -0.175 N 
ATOM      3  H3  UNL     1       1.379  -1.826  -1.618  1.00  0.00     0.186 HD
HETATM    4  C6  UNL     1      -0.425  -2.826  -1.661  1.00  0.00     0.679 A 
HETATM    5  N5  UNL     1      -1.686  -2.830  -1.200  1.00  0.00    -0.173 N 
ATOM      6  H5  UNL     1      -2.317  -3.574  -1.496  1.00  0.00     0.186 HD
HETATM    7  C7  UNL     1      -2.142  -1.887  -0.363  1.00  0.00     0.173 A 
HETATM    8  C8  UNL     1      -1.260  -0.876   0.028  1.00  0.00     0.125 A 
HETATM    9  N6  UNL     1      -1.726   0.070   0.870  1.00  0.00    -0.332 N 
ATOM     10  H6  UNL     1      -1.090   0.812   1.161  1.00  0.00     0.168 HD
HETATM   11  C9  UNL     1      -2.971   0.087   1.341  1.00  0.00     0.173 A 
HETATM   12  C11 UNL     1      -3.817  -0.928   0.933  1.00  0.00     0.186 A 
HETATM   13  N8  UNL     1      -5.112  -1.125   1.271  1.00  0.00    -0.267 N 
ATOM     14  H8  UNL     1      -5.691  -0.555   1.888  1.00  0.00     0.185 HD
HETATM   15  N9  UNL     1      -5.462  -2.236   0.613  1.00  0.00    -0.006 NA
HETATM   16  N10 UNL     1      -4.435  -2.690  -0.087  1.00  0.00     0.002 NA
HETATM   17  N11 UNL     1      -3.401  -1.888   0.100  1.00  0.00    -0.202 N 
ENDROOT
BRANCH   1  18
HETATM   18  N2  UNL     1       0.814   0.078  -0.061  1.00  0.00    -0.346 N 
ATOM     19  H2  UNL     1       0.437   0.781   0.575  1.00  0.00     0.163 HD
BRANCH  18  20
HETATM   20  C4  UNL     1       2.189   0.217  -0.469  1.00  0.00     0.253 C 
BRANCH  20  21
HETATM   21  C3  UNL     1       2.679   1.645  -0.344  1.00  0.00     0.253 C 
BRANCH  21  22
HETATM   22  C2  UNL     1       3.950   1.773  -1.083  1.00  0.00    -0.000 C 
HETATM   23  C1  UNL     1       5.053   1.247  -0.574  1.00  0.00     0.009 C 
ENDBRANCH  21  22
BRANCH  21  24
HETATM   24  N1  UNL     1       2.781   2.010   1.047  1.00  0.00    -0.068 N 
ATOM     25  H13 UNL     1       3.520   1.478   1.506  1.00  0.00     0.275 HD
ATOM     26  H12 UNL     1       3.162   2.951   1.146  1.00  0.00     0.275 HD
ATOM     27  H11 UNL     1       1.903   1.922   1.558  1.00  0.00     0.275 HD
ENDBRANCH  21  24
ENDBRANCH  20  21
BRANCH  20  28
HETATM   28  O1  UNL     1       3.032  -0.685   0.137  1.00  0.00    -0.374 OA
ATOM     29  H1  UNL     1       2.725  -1.581   0.059  1.00  0.00     0.212 HD
ENDBRANCH  20  28
ENDBRANCH  18  20
ENDBRANCH   1  18
BRANCH   4  30
HETATM   30  N4  UNL     1      -0.033  -3.749  -2.460  1.00  0.00    -0.234 N 
ATOM     31  H42 UNL     1       0.925  -3.746  -2.810  1.00  0.00     0.174 HD
ATOM     32  H41 UNL     1      -0.665  -4.494  -2.754  1.00  0.00     0.174 HD
ENDBRANCH   4  30
BRANCH  11  33
HETATM   33  N7  UNL     1      -3.339   1.016   2.135  1.00  0.00    -0.248 N 
ATOM     34  H7  UNL     1      -4.295   1.019   2.490  1.00  0.00     0.196 HD
BRANCH  33  35
HETATM   35  O2  UNL     1      -2.489   1.998   2.517  1.00  0.00    -0.284 OA
HETATM   36  C10 UNL     1      -2.326   3.218   1.811  1.00  0.00     0.237 C 
ENDBRANCH  33  35
ENDBRANCH  11  33
TORSDOF 9
