REMARK  4 active torsions:
REMARK  status: ('A' for Active; 'I' for Inactive)
REMARK    1  A    between atoms: C2_2  and  N1_3 
REMARK    2  A    between atoms: C2_2  and  C3_7 
REMARK    3  A    between atoms: C3_7  and  N2_8 
REMARK    4  A    between atoms: N2_8  and  C4_11 
ROOT
HETATM    1  C4  UNL     1       0.449  -0.230   0.800  1.00  0.00     0.193 C 
HETATM    2  C5  UNL     1       0.226  -1.163  -0.255  1.00  0.00     0.041 C 
HETATM    3  C6  UNL     1      -1.107  -1.259  -0.988  1.00  0.00     0.022 C 
HETATM    4  C7  UNL     1      -1.878  -2.402  -0.407  1.00  0.00     0.008 C 
HETATM    5  C8  UNL     1      -2.648  -1.742   0.706  1.00  0.00     0.008 C 
HETATM    6  C9  UNL     1      -2.454  -0.242   0.555  1.00  0.00     0.021 C 
HETATM    7  C10 UNL     1      -1.719   0.225   1.785  1.00  0.00     0.017 C 
HETATM    8  C11 UNL     1      -0.496   0.869   1.185  1.00  0.00     0.046 C 
HETATM    9  C12 UNL     1      -0.835   1.815   0.063  1.00  0.00     0.128 C 
HETATM   10  C13 UNL     1      -2.206   2.396   0.037  1.00  0.00     0.032 C 
HETATM   11  C14 UNL     1      -3.105   1.958  -1.063  1.00  0.00     0.006 C 
HETATM   12  C15 UNL     1      -2.885   0.537  -1.612  1.00  0.00     0.039 C 
HETATM   13  C16 UNL     1      -1.823  -0.006  -0.731  1.00  0.00     0.069 C 
HETATM   14  O1  UNL     1      -0.837   0.932  -0.980  1.00  0.00    -0.374 OA
ENDROOT
BRANCH   1  15
HETATM   15  N2  UNL     1       1.741   0.463   0.616  1.00  0.00    -0.069 N 
ATOM     16  H22 UNL     1       1.859   1.223   1.286  1.00  0.00     0.277 HD
ATOM     17  H21 UNL     1       1.755   1.011  -0.244  1.00  0.00     0.277 HD
BRANCH  15  18
HETATM   18  C3  UNL     1       2.841  -0.472   0.671  1.00  0.00     0.264 C 
BRANCH  18  19
HETATM   19  C2  UNL     1       4.150   0.229   0.482  1.00  0.00     0.205 C 
HETATM   20  C1  UNL     1       5.249  -0.815   0.551  1.00  0.00     0.041 C 
BRANCH  19  21
HETATM   21  N1  UNL     1       4.218   0.965  -0.762  1.00  0.00    -0.074 N 
ATOM     22  H13 UNL     1       5.140   1.377  -0.907  1.00  0.00     0.274 HD
ATOM     23  H12 UNL     1       4.199   0.343  -1.570  1.00  0.00     0.274 HD
ATOM     24  H11 UNL     1       3.479   1.667  -0.808  1.00  0.00     0.274 HD
ENDBRANCH  19  21
ENDBRANCH  18  19
ENDBRANCH  15  18
ENDBRANCH   1  15
TORSDOF 4
