REMARK  5 active torsions:
REMARK  status: ('A' for Active; 'I' for Inactive)
REMARK    1  A    between atoms: C2_2  and  C3_3 
REMARK    2  A    between atoms: C10_14  and  N3_15 
REMARK    3  A    between atoms: N3_15  and  C11_17 
REMARK    4  A    between atoms: C11_17  and  C12_18 
REMARK    5  A    between atoms: C12_18  and  N4_19 
ROOT
HETATM    1  C3  UNL     1       3.596   0.476   0.746  1.00  0.00    -0.058 A 
HETATM    2  C4  UNL     1       3.932  -0.838   0.947  1.00  0.00     0.009 A 
HETATM    3  C5  UNL     1       2.959  -1.806   0.835  1.00  0.00     0.031 A 
HETATM    4  C6  UNL     1       1.646  -1.487   0.523  1.00  0.00     0.044 A 
HETATM    5  N1  UNL     1       0.716  -2.456   0.420  1.00  0.00    -0.341 N 
ATOM      6  H1  UNL     1       0.978  -3.430   0.572  1.00  0.00     0.167 HD
HETATM    7  C7  UNL     1      -0.560  -2.142   0.117  1.00  0.00     0.118 A 
HETATM    8  N2  UNL     1      -1.485  -3.109   0.015  1.00  0.00    -0.351 N 
ATOM      9  H2  UNL     1      -1.212  -4.079   0.169  1.00  0.00     0.166 HD
HETATM   10  C8  UNL     1      -2.759  -2.827  -0.285  1.00  0.00     0.092 A 
HETATM   11  C9  UNL     1      -3.100  -1.488  -0.490  1.00  0.00     0.047 A 
HETATM   12  C10 UNL     1      -2.176  -0.483  -0.392  1.00  0.00     0.043 A 
HETATM   13  C13 UNL     1      -0.872  -0.798  -0.082  1.00  0.00     0.035 A 
HETATM   14  C14 UNL     1       0.076   0.194   0.022  1.00  0.00     0.031 A 
HETATM   15  C15 UNL     1       1.368  -0.150   0.332  1.00  0.00    -0.008 A 
HETATM   16  C16 UNL     1       2.294   0.853   0.430  1.00  0.00     0.021 A 
ENDROOT
BRANCH  12  17
HETATM   17  N3  UNL     1      -2.482   0.739  -0.578  1.00  0.00    -0.388 N 
ATOM     18  H3  UNL     1      -1.721   1.411  -0.481  1.00  0.00     0.159 HD
BRANCH  17  19
HETATM   19  C11 UNL     1      -3.764   1.284  -0.906  1.00  0.00     0.147 C 
BRANCH  19  20
HETATM   20  C12 UNL     1      -4.469   1.850   0.311  1.00  0.00     0.249 C 
BRANCH  20  21
HETATM   21  N4  UNL     1      -4.713   0.904   1.347  1.00  0.00    -0.078 N 
ATOM     22  H43 UNL     1      -5.226   0.102   0.981  1.00  0.00     0.274 HD
ATOM     23  H42 UNL     1      -3.844   0.446   1.621  1.00  0.00     0.274 HD
ATOM     24  H41 UNL     1      -5.187   1.285   2.166  1.00  0.00     0.274 HD
ENDBRANCH  20  21
ENDBRANCH  19  20
ENDBRANCH  17  19
ENDBRANCH  12  17
BRANCH   1  25
HETATM   25  C2  UNL     1       4.587   1.581   0.848  1.00  0.00     0.034 C 
HETATM   26  C1  UNL     1       5.189   1.775  -0.534  1.00  0.00     0.010 C 
ENDBRANCH   1  25
TORSDOF 5
