REMARK  3 active torsions:
REMARK  status: ('A' for Active; 'I' for Inactive)
REMARK    1  A    between atoms: N3_10  and  C5_11 
REMARK    2  A    between atoms: C5_11  and  C6_12 
REMARK    3  A    between atoms: C9_15  and  C10_16 
ROOT
HETATM    1  C6  UNL     1       1.071  -1.216  -0.378  1.00  0.00    -0.038 A 
HETATM    2  C7  UNL     1       0.100  -1.619  -1.271  1.00  0.00     0.010 A 
HETATM    3  C8  UNL     1      -1.207  -1.234  -1.185  1.00  0.00     0.013 A 
HETATM    4  C9  UNL     1      -1.614  -0.404  -0.171  1.00  0.00    -0.026 A 
HETATM    5  C16 UNL     1      -0.671   0.021   0.743  1.00  0.00     0.013 A 
HETATM    6  C17 UNL     1       0.653  -0.381   0.639  1.00  0.00     0.010 A 
ENDROOT
BRANCH   1   7
HETATM    7  C5  UNL     1       2.462  -1.673  -0.524  1.00  0.00     0.187 C 
BRANCH   7   8
HETATM    8  N3  UNL     1       3.390  -0.841   0.249  1.00  0.00    -0.287 N 
HETATM    9  C2  UNL     1       3.628   0.551   0.029  1.00  0.00     0.069 A 
HETATM   10  C1  UNL     1       3.100   1.324  -0.876  1.00  0.00     0.047 C 
HETATM   11  C3  UNL     1       4.618   0.957   1.045  1.00  0.00     0.070 A 
HETATM   12  N1  UNL     1       5.109   2.137   1.198  1.00  0.00    -0.396 N 
HETATM   13  C4  UNL     1       4.883  -0.263   1.792  1.00  0.00     0.138 A 
ATOM     14  H12 UNL     1       4.923   2.992   0.674  1.00  0.00     0.156 HD
ATOM     15  H11 UNL     1       5.793   2.418   1.900  1.00  0.00     0.156 HD
HETATM   16  N2  UNL     1       4.188  -1.233   1.326  1.00  0.00    -0.307 N 
ATOM     17  H2  UNL     1       4.214  -2.182   1.699  1.00  0.00     0.186 HD
ENDBRANCH   7   8
ENDBRANCH   1   7
BRANCH   4  18
HETATM   18  C10 UNL     1      -3.016   0.028  -0.060  1.00  0.00    -0.026 A 
HETATM   19  C11 UNL     1      -3.613   0.289   1.141  1.00  0.00     0.012 A 
HETATM   20  C12 UNL     1      -4.935   0.695   1.211  1.00  0.00     0.001 A 
HETATM   21  C13 UNL     1      -5.652   0.835   0.026  1.00  0.00     0.000 A 
HETATM   22  C14 UNL     1      -5.018   0.563  -1.170  1.00  0.00     0.001 A 
HETATM   23  C15 UNL     1      -3.718   0.162  -1.245  1.00  0.00     0.012 A 
ENDBRANCH   4  18
TORSDOF 3
