REMARK  4 active torsions:
REMARK  status: ('A' for Active; 'I' for Inactive)
REMARK    1  A    between atoms: O1_2  and  C2_3 
REMARK    2  A    between atoms: C7_9  and  O2_10 
REMARK    3  A    between atoms: O2_10  and  S1_11 
REMARK    4  A    between atoms: C9_15  and  O5_16 
ROOT
HETATM    1  C2  UNL     1      -1.895  -0.885   0.160  1.00  0.00     0.107 A 
HETATM    2  C3  UNL     1      -2.283   0.242  -0.531  1.00  0.00     0.082 A 
HETATM    3  C4  UNL     1      -1.402   1.298  -0.738  1.00  0.00     0.128 A 
HETATM    4  F1  UNL     1      -1.783   2.416  -1.422  1.00  0.00    -0.205 F 
HETATM    5  C5  UNL     1      -0.111   1.222  -0.244  1.00  0.00     0.014 A 
HETATM    6  C6  UNL     1       0.801   2.375  -0.488  1.00  0.00     0.054 C 
HETATM    7  C7  UNL     1       0.296   0.102   0.450  1.00  0.00     0.134 A 
HETATM    8  C9  UNL     1      -0.605  -0.924   0.635  1.00  0.00     0.135 A 
ENDROOT
BRANCH   7   9
HETATM    9  O2  UNL     1       1.585   0.088   0.913  1.00  0.00    -0.230 OA
BRANCH   9  10
HETATM   10  S1  UNL     1       2.946  -0.472   0.139  1.00  0.00     0.266 S 
HETATM   11  C8  UNL     1       4.213   0.774   0.269  1.00  0.00     0.194 C 
HETATM   12  O3  UNL     1       3.495  -1.690   0.865  1.00  0.00    -0.199 OA
HETATM   13  O4  UNL     1       2.760  -0.753  -1.318  1.00  0.00    -0.199 OA
ENDBRANCH   9  10
ENDBRANCH   7   9
BRANCH   8  14
HETATM   14  O5  UNL     1      -0.171  -2.025   1.330  1.00  0.00    -0.356 OA
ATOM     15  H5  UNL     1       0.720  -2.052   1.658  1.00  0.00     0.218 HD
ENDBRANCH   8  14
BRANCH   1  16
HETATM   16  O1  UNL     1      -2.716  -1.969   0.402  1.00  0.00    -0.353 OA
HETATM   17  C1  UNL     1      -4.042  -2.087  -0.009  1.00  0.00     0.210 C 
ENDBRANCH   1  16
TORSDOF 4
