REMARK  4 active torsions:
REMARK  status: ('A' for Active; 'I' for Inactive)
REMARK    1  A    between atoms: C4_4  and  C5_5 
REMARK    2  A    between atoms: C5_5  and  N2_9 
REMARK    3  A    between atoms: N2_9  and  C6_11 
REMARK    4  A    between atoms: C9_16  and  N4_17 
ROOT
HETATM    1  C1  UNL     1      -1.833   3.830  -0.002  1.00  0.00     0.068 C 
HETATM    2  C2  UNL     1      -1.488   2.387  -0.017  1.00  0.00     0.025 A 
HETATM    3  C3  UNL     1      -0.157   1.956   0.053  1.00  0.00     0.059 A 
HETATM    4  C4  UNL     1       0.179   0.634   0.041  1.00  0.00     0.096 A 
HETATM    5  N3  UNL     1      -0.848  -0.247  -0.042  1.00  0.00    -0.188 N 
ATOM      6  H3  UNL     1      -0.627  -1.243  -0.052  1.00  0.00     0.184 HD
HETATM    7  C9  UNL     1      -2.135   0.115  -0.111  1.00  0.00     0.680 A 
HETATM    8  N5  UNL     1      -2.424   1.428  -0.097  1.00  0.00    -0.196 N 
ATOM      9  H5  UNL     1      -3.403   1.709  -0.150  1.00  0.00     0.184 HD
ENDROOT
BRANCH   4  10
HETATM   10  C5  UNL     1       1.571   0.230   0.126  1.00  0.00     0.153 C 
HETATM   11  N1  UNL     1       2.406   0.794   0.923  1.00  0.00    -0.206 N 
HETATM   12  F1  UNL     1       2.074   1.787   1.733  1.00  0.00    -0.100 F 
ATOM     13  H1  UNL     1       3.370   0.461   0.932  1.00  0.00     0.201 HD
BRANCH  10  14
HETATM   14  N2  UNL     1       2.067  -0.840  -0.701  1.00  0.00    -0.369 N 
ATOM     15  H2  UNL     1       1.539  -1.140  -1.521  1.00  0.00     0.161 HD
BRANCH  14  16
HETATM   16  C6  UNL     1       3.310  -1.485  -0.367  1.00  0.00     0.075 C 
HETATM   17  C7  UNL     1       3.216  -2.109   1.019  1.00  0.00     0.031 C 
HETATM   18  C8  UNL     1       4.477  -0.519  -0.417  1.00  0.00     0.031 C 
ENDBRANCH  14  16
ENDBRANCH  10  14
ENDBRANCH   4  10
BRANCH   7  19
HETATM   19  N4  UNL     1      -3.195  -0.846  -0.199  1.00  0.00    -0.226 N 
HETATM   20  C10 UNL     1      -4.568  -0.388  -0.271  1.00  0.00     0.168 C 
HETATM   21  C11 UNL     1      -2.936  -2.269  -0.217  1.00  0.00     0.168 C 
ENDBRANCH   7  19
TORSDOF 4
