REMARK  3 active torsions:
REMARK  status: ('A' for Active; 'I' for Inactive)
REMARK    1  A    between atoms: C2_2  and  N1_4 
REMARK    2  A    between atoms: N1_4  and  C4_7 
REMARK    3  A    between atoms: C4_7  and  C5_8 
ROOT
HETATM    1  C5  UNL     1       0.919   0.183   0.473  1.00  0.00     0.210 C 
HETATM    2  C6  UNL     1       1.692  -0.913   1.249  1.00  0.00     0.209 C 
HETATM    3  O1  UNL     1       3.004  -0.397   1.289  1.00  0.00    -0.338 OA
HETATM    4  C7  UNL     1       3.445  -0.353  -0.050  1.00  0.00     0.273 C 
HETATM    5  C8  UNL     1       3.932   1.060  -0.277  1.00  0.00     0.101 C 
HETATM    6 CL1  UNL     1       4.787  -1.522  -0.295  1.00  0.00    -0.055 Cl
HETATM    7  O2  UNL     1       2.418  -0.619  -0.929  1.00  0.00    -0.183 OA
HETATM    8  O3  UNL     1       1.437   0.210  -0.790  1.00  0.00    -0.227 OA
ENDROOT
BRANCH   1   9
HETATM    9  C4  UNL     1      -0.515  -0.276   0.440  1.00  0.00     0.269 C 
BRANCH   9  10
HETATM   10  N1  UNL     1      -1.337   0.597  -0.389  1.00  0.00    -0.069 N 
ATOM     11  H12 UNL     1      -1.107   0.534  -1.381  1.00  0.00     0.277 HD
ATOM     12  H11 UNL     1      -1.118   1.585  -0.263  1.00  0.00     0.277 HD
BRANCH  10  13
HETATM   13  C2  UNL     1      -2.714   0.289  -0.113  1.00  0.00     0.178 C 
HETATM   14  C1  UNL     1      -3.023  -1.127  -0.482  1.00  0.00     0.039 C 
HETATM   15  C3  UNL     1      -3.647   1.273  -0.812  1.00  0.00     0.039 C 
ENDBRANCH  10  13
ENDBRANCH   9  10
ENDBRANCH   1   9
TORSDOF 3
