REMARK  4 active torsions:
REMARK  status: ('A' for Active; 'I' for Inactive)
REMARK    1  A    between atoms: N1_2  and  C3_4 
REMARK    2  A    between atoms: C3_4  and  C4_5 
REMARK    3  A    between atoms: C6_7  and  N2_8 
REMARK       I    between atoms: N2_8  and  C7_10 
REMARK    4  A    between atoms: C10_17  and  N5_18 
ROOT
HETATM    1  C4  UNL     1      -0.660  -0.564   0.136  1.00  0.00     0.009 A 
HETATM    2  C5  UNL     1       0.303   0.420  -0.091  1.00  0.00     0.044 A 
HETATM    3  C6  UNL     1       1.653   0.250   0.176  1.00  0.00     0.035 A 
HETATM    4  C8  UNL     1       2.025  -0.956   0.701  1.00  0.00     0.032 A 
HETATM    5  C9  UNL     1       1.146  -1.956   0.953  1.00  0.00     0.039 A 
HETATM    6  C10 UNL     1      -0.241  -1.781   0.665  1.00  0.00     0.114 A 
ENDROOT
BRANCH   3   7
HETATM    7  N2  UNL     1       2.619   1.243  -0.142  1.00  0.00    -0.331 N 
HETATM    8  C7  UNL     1       3.989   1.039  -0.337  1.00  0.00     0.186 C 
HETATM    9  N3  UNL     1       4.838   1.969  -0.039  1.00  0.00    -0.373 N 
HETATM   10  N4  UNL     1       4.566  -0.170  -0.816  1.00  0.00    -0.064 NA
ATOM     11  H32 UNL     1       4.424   2.836   0.304  1.00  0.00     0.158 HD
ATOM     12  H31 UNL     1       5.837   1.820  -0.181  1.00  0.00     0.158 HD
ATOM     13  H2  UNL     1       2.279   2.200  -0.238  1.00  0.00     0.168 HD
ENDBRANCH   3   7
BRANCH   1  14
HETATM   14  C3  UNL     1      -2.012  -0.419  -0.390  1.00  0.00     0.072 C 
BRANCH  14  15
HETATM   15  N1  UNL     1      -3.004   0.379   0.163  1.00  0.00    -0.300 NA
HETATM   16  C1  UNL     1      -2.717   1.766   0.312  1.00  0.00     0.115 C 
HETATM   17  C2  UNL     1      -4.182   0.410  -0.818  1.00  0.00     0.115 C 
ENDBRANCH  14  15
ENDBRANCH   1  14
BRANCH   6  18
HETATM   18  N5  UNL     1      -1.092  -2.854   0.859  1.00  0.00    -0.115 N 
HETATM   19  O1  UNL     1      -2.214  -2.828   1.332  1.00  0.00    -0.532 OA
HETATM   20  O2  UNL     1      -0.540  -4.119   0.543  1.00  0.00    -0.532 OA
ENDBRANCH   6  18
TORSDOF 4
