REMARK  3 active torsions:
REMARK  status: ('A' for Active; 'I' for Inactive)
REMARK    1  A    between atoms: C5_8  and  C6_9 
REMARK    2  A    between atoms: C6_9  and  C7_11 
REMARK    3  A    between atoms: C7_11  and  C8_13 
ROOT
HETATM    1  C6  UNL     1       0.833   0.413   0.373  1.00  0.00     0.206 C 
HETATM    2  O4  UNL     1       0.391  -0.431  -0.429  1.00  0.00    -0.288 OA
ENDROOT
BRANCH   1   3
HETATM    3  C5  UNL     1       2.224   0.751   0.395  1.00  0.00     0.160 A 
HETATM    4  C2  UNL     1       3.130   0.181  -0.442  1.00  0.00    -0.016 A 
HETATM    5  C1  UNL     1       2.691  -0.832  -1.426  1.00  0.00     0.051 C 
HETATM    6  C3  UNL     1       4.490   0.544  -0.385  1.00  0.00     0.094 A 
HETATM    7  C4  UNL     1       4.844   1.488   0.547  1.00  0.00     0.313 A 
HETATM    8  O1  UNL     1       6.045   1.844   0.635  1.00  0.00    -0.258 OA
HETATM    9  O2  UNL     1       3.927   1.991   1.314  1.00  0.00    -0.148 OA
HETATM   10  O3  UNL     1       2.690   1.655   1.256  1.00  0.00    -0.184 OA
ENDBRANCH   1   3
BRANCH   1  11
HETATM   11  C7  UNL     1      -0.079   1.092   1.329  1.00  0.00     0.183 C 
HETATM   12 CL1  UNL     1       0.466   0.827   2.978  1.00  0.00    -0.114 Cl
BRANCH  11  13
HETATM   13  C8  UNL     1      -1.503   0.636   1.189  1.00  0.00     0.140 C 
HETATM   14  S1  UNL     1      -1.694  -1.141   1.480  1.00  0.00    -0.115 SA
HETATM   15  C9  UNL     1      -3.236  -1.400   0.519  1.00  0.00     0.000 C 
HETATM   16  C10 UNL     1      -4.344  -2.057   0.717  1.00  0.00     0.060 C 
HETATM   17  C12 UNL     1      -3.117  -0.705  -0.743  1.00  0.00     0.098 C 
HETATM   18  S2  UNL     1      -5.379  -1.797  -0.737  1.00  0.00    -0.139 SA
HETATM   19  C11 UNL     1      -4.469  -0.264  -1.257  1.00  0.00     0.099 C 
HETATM   20  S3  UNL     1      -2.103   0.752  -0.514  1.00  0.00    -0.140 SA
ENDBRANCH  11  13
ENDBRANCH   1  11
TORSDOF 3
