REMARK  5 active torsions:
REMARK  status: ('A' for Active; 'I' for Inactive)
REMARK    1  A    between atoms: O1_2  and  C2_3 
REMARK    2  A    between atoms: C2_3  and  C3_5 
REMARK    3  A    between atoms: C7_9  and  O3_10 
REMARK    4  A    between atoms: C9_12  and  O4_13 
REMARK    5  A    between atoms: O4_13  and  C10_14 
ROOT
HETATM    1  C3  UNL     1       1.839  -1.129   0.385  1.00  0.00     0.079 A 
HETATM    2  C4  UNL     1       0.621  -1.816   0.441  1.00  0.00     0.058 A 
HETATM    3  C5  UNL     1      -0.561  -1.138   0.162  1.00  0.00     0.083 A 
HETATM    4  C6  UNL     1      -0.477   0.211  -0.164  1.00  0.00     0.021 A 
HETATM    5  C7  UNL     1       0.697   0.897  -0.224  1.00  0.00     0.112 A 
HETATM    6  C9  UNL     1       1.860   0.209   0.055  1.00  0.00     0.129 A 
HETATM    7  C12 UNL     1      -1.877   0.643  -0.394  1.00  0.00     0.087 C 
HETATM    8  C13 UNL     1      -2.452   0.960   0.964  1.00  0.00     0.015 C 
HETATM    9  C14 UNL     1      -3.827   1.517   0.930  1.00  0.00     0.003 C 
HETATM   10  C15 UNL     1      -4.906   0.459   0.927  1.00  0.00     0.026 C 
HETATM   11  C16 UNL     1      -4.423  -0.849   0.333  1.00  0.00     0.171 C 
HETATM   12  O6  UNL     1      -3.832  -0.685  -0.896  1.00  0.00    -0.354 OA
HETATM   13  C17 UNL     1      -2.469  -0.664  -0.874  1.00  0.00     0.174 C 
HETATM   14  C18 UNL     1      -1.839  -1.105  -2.180  1.00  0.00     0.080 C 
HETATM   15  O7  UNL     1      -1.915  -1.534   0.132  1.00  0.00    -0.313 OA
ENDROOT
BRANCH   1  16
HETATM   16  C2  UNL     1       3.081  -1.836   0.683  1.00  0.00     0.295 C 
HETATM   17  O2  UNL     1       4.188  -1.255   0.653  1.00  0.00    -0.259 OA
BRANCH  16  18
HETATM   18  O1  UNL     1       3.075  -3.199   1.016  1.00  0.00    -0.322 OA
HETATM   19  C1  UNL     1       4.288  -3.867   1.303  1.00  0.00     0.213 C 
ENDBRANCH  16  18
ENDBRANCH   1  16
BRANCH   6  20
HETATM   20  O4  UNL     1       3.055   0.950  -0.018  1.00  0.00    -0.275 OA
BRANCH  20  21
HETATM   21  C10 UNL     1       3.718   1.116  -1.251  1.00  0.00     0.260 C 
HETATM   22  C11 UNL     1       4.974   1.887  -1.370  1.00  0.00     0.126 C 
HETATM   23  O5  UNL     1       3.158   0.559  -2.235  1.00  0.00    -0.265 OA
ENDBRANCH  20  21
ENDBRANCH   6  20
BRANCH   5  24
HETATM   24  O3  UNL     1       0.701   2.228  -0.553  1.00  0.00    -0.352 OA
HETATM   25  C8  UNL     1       0.607   3.316   0.299  1.00  0.00     0.210 C 
ENDBRANCH   5  24
TORSDOF 5
