REMARK  4 active torsions:
REMARK  status: ('A' for Active; 'I' for Inactive)
REMARK    1  A    between atoms: O1_2  and  C2_3 
REMARK    2  A    between atoms: C7_8  and  O2_9 
REMARK    3  A    between atoms: O2_9  and  C8_10 
REMARK    4  A    between atoms: C10_13  and  O4_14 
ROOT
HETATM    1  C2  UNL     1       1.331  -1.436  -0.967  1.00  0.00     0.111 A 
HETATM    2  C3  UNL     1      -0.025  -1.514  -1.176  1.00  0.00    -0.016 A 
HETATM    3  C4  UNL     1      -0.559  -2.545  -2.115  1.00  0.00     0.052 C 
HETATM    4  C5  UNL     1      -0.892  -0.654  -0.533  1.00  0.00    -0.009 A 
HETATM    5  C6  UNL     1      -0.364   0.280   0.320  1.00  0.00     0.114 A 
HETATM    6  C7  UNL     1       1.010   0.372   0.543  1.00  0.00     0.149 A 
HETATM    7  C10 UNL     1       1.869  -0.491  -0.103  1.00  0.00     0.139 A 
HETATM    8  O5  UNL     1      -0.992   1.258   1.091  1.00  0.00    -0.327 OA
HETATM    9  C12 UNL     1      -2.364   1.378   1.425  1.00  0.00     0.267 A 
HETATM   10  C13 UNL     1      -2.848   2.662   1.863  1.00  0.00     0.300 A 
HETATM   11  O6  UNL     1      -2.478   3.330   2.855  1.00  0.00    -0.261 OA
HETATM   12  O7  UNL     1      -3.854   3.086   0.969  1.00  0.00    -0.252 OA
HETATM   13  C14 UNL     1      -3.997   2.167  -0.086  1.00  0.00     0.203 A 
HETATM   14  O8  UNL     1      -4.590   1.816  -1.204  1.00  0.00    -0.299 OA
HETATM   15  C15 UNL     1      -4.100   0.664  -1.671  1.00  0.00     0.153 A 
HETATM   16  C16 UNL     1      -3.134   0.250  -0.798  1.00  0.00    -0.017 A 
HETATM   17  C17 UNL     1      -3.099   1.193   0.165  1.00  0.00     0.048 A 
HETATM   18  C18 UNL     1      -2.303  -0.969  -0.956  1.00  0.00     0.083 C 
ENDROOT
BRANCH   6  19
HETATM   19  O2  UNL     1       1.470   1.336   1.414  1.00  0.00    -0.273 OA
BRANCH  19  20
HETATM   20  C8  UNL     1       1.785   2.587   0.898  1.00  0.00     0.260 C 
HETATM   21  C9  UNL     1       2.289   3.706   1.735  1.00  0.00     0.126 C 
HETATM   22  O3  UNL     1       1.651   2.826  -0.338  1.00  0.00    -0.265 OA
ENDBRANCH  19  20
ENDBRANCH   6  19
BRANCH   7  23
HETATM   23  O4  UNL     1       3.229  -0.370   0.142  1.00  0.00    -0.351 OA
HETATM   24  C11 UNL     1       3.764  -1.119   1.218  1.00  0.00     0.210 C 
ENDBRANCH   7  23
BRANCH   1  25
HETATM   25  O1  UNL     1       2.194  -2.301  -1.615  1.00  0.00    -0.352 OA
HETATM   26  C1  UNL     1       2.520  -3.525  -0.993  1.00  0.00     0.210 C 
ENDBRANCH   1  25
TORSDOF 4
