REMARK  8 active torsions:
REMARK  status: ('A' for Active; 'I' for Inactive)
REMARK    1  A    between atoms: C4_5  and  O2_6 
REMARK    2  A    between atoms: O2_6  and  C5_7 
REMARK    3  A    between atoms: C5_7  and  C6_8 
REMARK    4  A    between atoms: C6_8  and  C7_9 
REMARK    5  A    between atoms: C7_9  and  C8_10 
REMARK    6  A    between atoms: C8_10  and  C9_11 
REMARK    7  A    between atoms: C9_11  and  O3_12 
REMARK    8  A    between atoms: N1_14  and  O4_16 
ROOT
HETATM    1  O1  UNL     1      -2.918   1.111  -2.914  1.00  0.00    -0.296 OA
HETATM    2  C1  UNL     1      -2.182   0.780  -2.057  1.00  0.00     0.145 C 
HETATM    3  C2  UNL     1      -1.116  -0.203  -2.476  1.00  0.00     0.137 C 
HETATM    4  C3  UNL     1      -0.537  -1.051  -1.356  1.00  0.00     0.047 C 
HETATM    5  C4  UNL     1       0.505  -0.544  -0.450  1.00  0.00     0.307 C 
HETATM    6  O5  UNL     1       0.264  -0.227   0.868  1.00  0.00    -0.347 OA
HETATM    7  C10 UNL     1       0.058   1.040   1.300  1.00  0.00     0.148 C 
HETATM    8  C11 UNL     1       0.181   1.866   0.048  1.00  0.00     0.002 C 
HETATM    9  C12 UNL     1      -0.856   1.859  -0.709  1.00  0.00    -0.011 C 
HETATM   10  C13 UNL     1      -2.230   1.230  -0.704  1.00  0.00     0.044 C 
HETATM   11  C14 UNL     1      -2.733   2.365   0.025  1.00  0.00     0.026 C 
HETATM   12  C15 UNL     1      -2.389   2.034   1.493  1.00  0.00    -0.010 C 
HETATM   13  C16 UNL     1      -3.664   1.215   1.881  1.00  0.00     0.005 C 
HETATM   14  C17 UNL     1      -4.088   0.422   0.625  1.00  0.00     0.009 C 
HETATM   15  C18 UNL     1      -2.714   0.078  -0.025  1.00  0.00     0.028 C 
HETATM   16  C19 UNL     1      -2.898  -1.224  -0.859  1.00  0.00     0.089 C 
HETATM   17  C20 UNL     1      -3.651  -2.265  -0.034  1.00  0.00     0.027 C 
HETATM   18  C21 UNL     1      -2.878  -3.568  -0.336  1.00  0.00     0.022 C 
HETATM   19  C22 UNL     1      -1.472  -2.966  -0.153  1.00  0.00     0.123 C 
HETATM   20  N2  UNL     1      -1.596  -1.800  -0.876  1.00  0.00    -0.378 N 
HETATM   21  C23 UNL     1      -1.158   1.520   1.988  1.00  0.00     0.040 C 
ENDROOT
BRANCH   5  22
HETATM   22  O2  UNL     1       1.391  -1.623  -0.220  1.00  0.00    -0.356 OA
BRANCH  22  23
HETATM   23  C5  UNL     1       2.659  -1.459  -0.663  1.00  0.00     0.171 C 
BRANCH  23  24
HETATM   24  C6  UNL     1       3.449  -0.329  -0.052  1.00  0.00     0.027 C 
BRANCH  24  25
HETATM   25  C7  UNL     1       4.831  -0.400  -0.728  1.00  0.00     0.010 C 
BRANCH  25  26
HETATM   26  C8  UNL     1       5.711   0.694  -0.188  1.00  0.00     0.086 C 
BRANCH  26  27
HETATM   27  C9  UNL     1       5.870   0.524   1.281  1.00  0.00     0.135 C 
HETATM   28  N1  UNL     1       5.482   1.457   2.058  1.00  0.00    -0.251 N 
ATOM     29  H1  UNL     1       5.593   1.334   3.064  1.00  0.00     0.196 HD
BRANCH  27  30
HETATM   30  O3  UNL     1       6.427  -0.621   1.821  1.00  0.00    -0.348 OA
ATOM     31  H3  UNL     1       6.529  -0.730   2.759  1.00  0.00     0.219 HD
ENDBRANCH  27  30
BRANCH  28  32
HETATM   32  O4  UNL     1       4.925   2.612   1.598  1.00  0.00    -0.288 OA
ATOM     33  H4  UNL     1       4.636   3.307   2.177  1.00  0.00     0.244 HD
ENDBRANCH  28  32
ENDBRANCH  26  27
ENDBRANCH  25  26
ENDBRANCH  24  25
ENDBRANCH  23  24
ENDBRANCH  22  23
ENDBRANCH   5  22
TORSDOF 8
