REMARK  15 active torsions:
REMARK  status: ('A' for Active; 'I' for Inactive)
REMARK    1  A    between atoms: O1_2  and  C2_3 
REMARK    2  A    between atoms: C2_3  and  C4_5 
REMARK    3  A    between atoms: C2_3  and  C16_22 
REMARK    4  A    between atoms: C4_5  and  C5_6 
REMARK    5  A    between atoms: C5_6  and  C6_7 
REMARK    6  A    between atoms: C6_7  and  C7_8 
REMARK    7  A    between atoms: C7_8  and  O2_9 
REMARK    8  A    between atoms: C7_8  and  C8_11 
REMARK    9  A    between atoms: C8_11  and  C9_13 
REMARK   10  A    between atoms: C9_13  and  C10_14 
REMARK   11  A    between atoms: C10_14  and  S1_15 
REMARK   12  A    between atoms: S1_15  and  C11_16 
REMARK   13  A    between atoms: C11_16  and  C12_17 
REMARK   14  A    between atoms: C21_27  and  C22_28 
REMARK   15  A    between atoms: C25_31  and  O4_32 
ROOT
HETATM    1  C16 UNL     1      -0.423  -0.227   0.095  1.00  0.00     0.029 C 
HETATM    2  C17 UNL     1      -0.581   1.168   0.650  1.00  0.00     0.009 C 
HETATM    3  C18 UNL     1      -2.002   1.291   1.152  1.00  0.00     0.010 C 
HETATM    4  C19 UNL     1      -2.631  -0.051   0.924  1.00  0.00     0.023 C 
HETATM    5  C20 UNL     1      -3.852   0.042   0.163  1.00  0.00    -0.074 C 
HETATM    6  C21 UNL     1      -4.947   0.126  -0.529  1.00  0.00     0.003 C 
HETATM    7  C31 UNL     1      -2.575   0.268  -1.012  1.00  0.00     0.044 C 
HETATM    8  C32 UNL     1      -1.855  -0.660  -0.098  1.00  0.00    -0.027 C 
HETATM    9  C33 UNL     1      -2.106  -2.082  -0.521  1.00  0.00     0.016 C 
ENDROOT
BRANCH   1  10
HETATM   10  C2  UNL     1       0.448  -0.986   1.029  1.00  0.00     0.061 C 
HETATM   11  C3  UNL     1       0.764  -2.393   0.744  1.00  0.00     0.046 C 
BRANCH  10  12
HETATM   12  O1  UNL     1      -0.259  -0.933   2.266  1.00  0.00    -0.385 OA
HETATM   13  C1  UNL     1       0.519  -1.468   3.285  1.00  0.00     0.202 C 
ENDBRANCH  10  12
BRANCH  10  14
HETATM   14  C4  UNL     1       1.729  -0.206   1.141  1.00  0.00     0.038 C 
BRANCH  14  15
HETATM   15  C5  UNL     1       2.564  -0.330  -0.153  1.00  0.00     0.006 C 
BRANCH  15  16
HETATM   16  C6  UNL     1       3.683   0.682  -0.010  1.00  0.00     0.039 C 
BRANCH  16  17
HETATM   17  C7  UNL     1       4.702   0.666  -1.115  1.00  0.00     0.187 C 
BRANCH  17  18
HETATM   18  O2  UNL     1       5.595   1.770  -0.909  1.00  0.00    -0.388 OA
ATOM     19  H2  UNL     1       6.239   1.760  -1.607  1.00  0.00     0.210 HD
ENDBRANCH  17  18
BRANCH  17  20
HETATM   20  C8  UNL     1       5.648  -0.528  -0.888  1.00  0.00     0.156 C 
HETATM   21  O3  UNL     1       5.249  -1.643  -0.989  1.00  0.00    -0.295 OA
BRANCH  20  22
HETATM   22  C9  UNL     1       7.051  -0.239  -0.537  1.00  0.00     0.091 C 
BRANCH  22  23
HETATM   23  C10 UNL     1       7.736  -1.375   0.163  1.00  0.00     0.081 C 
BRANCH  23  24
HETATM   24  S1  UNL     1       9.422  -0.809   0.613  1.00  0.00    -0.164 SA
BRANCH  24  25
HETATM   25  C11 UNL     1      10.460  -0.644  -0.835  1.00  0.00     0.112 C 
BRANCH  25  26
HETATM   26  C12 UNL     1      11.689   0.199  -0.502  1.00  0.00    -0.042 A 
HETATM   27  C13 UNL     1      11.819   1.467  -0.910  1.00  0.00     0.015 A 
HETATM   28  C14 UNL     1      12.927   2.156  -0.501  1.00  0.00     0.050 A 
HETATM   29  S2  UNL     1      13.758   1.010   0.443  1.00  0.00    -0.113 SA
HETATM   30  C15 UNL     1      12.685  -0.302   0.296  1.00  0.00     0.057 A 
ENDBRANCH  25  26
ENDBRANCH  24  25
ENDBRANCH  23  24
ENDBRANCH  22  23
ENDBRANCH  20  22
ENDBRANCH  17  20
ENDBRANCH  16  17
ENDBRANCH  15  16
ENDBRANCH  14  15
ENDBRANCH  10  14
ENDBRANCH   1  10
BRANCH   6  31
HETATM   31  C22 UNL     1      -6.198  -0.026   0.263  1.00  0.00     0.004 C 
HETATM   32  C23 UNL     1      -7.351   0.069  -0.303  1.00  0.00    -0.062 C 
HETATM   33  C24 UNL     1      -7.569   0.319  -1.734  1.00  0.00     0.067 C 
HETATM   34  C28 UNL     1      -8.598   0.033   0.547  1.00  0.00     0.037 C 
HETATM   35  C25 UNL     1      -7.983   1.779  -1.956  1.00  0.00     0.129 C 
HETATM   36  C26 UNL     1      -8.727   2.286  -0.724  1.00  0.00     0.111 C 
HETATM   37  C27 UNL     1      -9.416   1.186  -0.010  1.00  0.00     0.141 C 
HETATM   38  O5  UNL     1     -10.595   1.150   0.158  1.00  0.00    -0.297 OA
HETATM   39  C29 UNL     1      -9.306  -1.257   0.334  1.00  0.00     0.028 C 
HETATM   40  C30 UNL     1      -8.309   0.349   1.980  1.00  0.00     0.028 C 
BRANCH  35  41
HETATM   41  O4  UNL     1      -8.860   1.777  -3.021  1.00  0.00    -0.395 OA
ATOM     42  H4  UNL     1      -9.116   2.681  -3.159  1.00  0.00     0.210 HD
ENDBRANCH  35  41
ENDBRANCH   6  31
TORSDOF 15
