REMARK  3 active torsions:
REMARK  status: ('A' for Active; 'I' for Inactive)
REMARK    1  A    between atoms: C2_2  and  O1_4 
REMARK    2  A    between atoms: O1_4  and  C4_5 
REMARK    3  A    between atoms: C18_22  and  N2_24 
ROOT
HETATM    1  C4  UNL     1       2.322   0.599  -0.152  1.00  0.00     0.153 C 
HETATM    2  C5  UNL     1       2.323   1.696  -1.141  1.00  0.00     0.034 C 
HETATM    3  C6  UNL     1       1.461   2.825  -0.565  1.00  0.00     0.009 C 
HETATM    4  C7  UNL     1       0.554   2.087   0.384  1.00  0.00     0.021 C 
HETATM    5  C8  UNL     1      -0.516   1.395  -0.439  1.00  0.00     0.049 C 
HETATM    6  C9  UNL     1      -0.777   0.156   0.350  1.00  0.00     0.167 C 
HETATM    7  N1  UNL     1       0.382  -0.110   1.167  1.00  0.00    -0.056 N 
ATOM      8  H11 UNL     1       0.774  -1.038   1.006  1.00  0.00     0.278 HD
ATOM      9  H12 UNL     1       0.151  -0.229   2.153  1.00  0.00     0.278 HD
HETATM   10  C10 UNL     1       1.332   0.942   0.942  1.00  0.00     0.219 C 
HETATM   11  C11 UNL     1      -2.071   0.256   1.129  1.00  0.00     0.057 C 
HETATM   12  C12 UNL     1      -2.662   1.591   1.203  1.00  0.00    -0.023 C 
HETATM   13  C13 UNL     1      -3.791   1.910   0.609  1.00  0.00    -0.030 C 
HETATM   14  C14 UNL     1      -4.557   0.938  -0.187  1.00  0.00     0.027 C 
HETATM   15  C15 UNL     1      -3.657  -0.117  -0.801  1.00  0.00     0.016 C 
HETATM   16  C16 UNL     1      -2.701  -0.698   0.183  1.00  0.00     0.001 C 
HETATM   17  C17 UNL     1      -3.341  -1.868   0.905  1.00  0.00     0.018 C 
HETATM   18  C18 UNL     1      -1.336  -1.008  -0.397  1.00  0.00     0.161 C 
HETATM   19  C19 UNL     1      -0.877  -2.377   0.074  1.00  0.00     0.049 C 
ENDROOT
BRANCH  18  20
HETATM   20  N2  UNL     1      -1.285  -0.827  -1.822  1.00  0.00    -0.068 N 
ATOM     21  H23 UNL     1      -1.745   0.040  -2.098  1.00  0.00     0.275 HD
ATOM     22  H22 UNL     1      -0.336  -0.615  -2.131  1.00  0.00     0.275 HD
ATOM     23  H21 UNL     1      -1.667  -1.623  -2.333  1.00  0.00     0.275 HD
ENDBRANCH  18  20
BRANCH   1  24
HETATM   24  O1  UNL     1       3.504   0.273   0.425  1.00  0.00    -0.379 OA
BRANCH  24  25
HETATM   25  C2  UNL     1       3.931  -1.023   0.282  1.00  0.00     0.114 C 
HETATM   26  C1  UNL     1       4.032  -1.614   1.684  1.00  0.00     0.039 C 
HETATM   27  C3  UNL     1       5.348  -0.983  -0.263  1.00  0.00     0.039 C 
ENDBRANCH  24  25
ENDBRANCH   1  24
TORSDOF 3
