REMARK  1 active torsions:
REMARK  status: ('A' for Active; 'I' for Inactive)
REMARK       I    between atoms: C1_4  and  N3_6 
REMARK       I    between atoms: C2_8  and  N4_9 
REMARK       I    between atoms: C2_8  and  N5_13 
REMARK    1  A    between atoms: N4_9  and  O1_11 
ROOT
HETATM    1  N1  UNL     1       3.755  -0.586  -1.487  1.00  0.00    -0.373 N 
ATOM      2  H11 UNL     1       3.310  -1.215  -2.155  1.00  0.00     0.158 HD
ATOM      3  H12 UNL     1       4.723  -0.309  -1.648  1.00  0.00     0.158 HD
HETATM    4  C1  UNL     1       3.118  -0.134  -0.443  1.00  0.00     0.200 C 
HETATM    5  N2  UNL     1       3.737   0.742   0.487  1.00  0.00    -0.063 NA
HETATM    6  N3  UNL     1       1.769  -0.520  -0.218  1.00  0.00    -0.162 N 
ATOM      7  H3  UNL     1       1.560  -1.447   0.153  1.00  0.00     0.187 HD
HETATM    8  C2  UNL     1       0.820   0.290  -0.479  1.00  0.00     0.702 C 
HETATM    9  N4  UNL     1       1.101   1.592  -1.000  1.00  0.00    -0.099 N 
ATOM     10  H4  UNL     1       1.919   2.103  -0.669  1.00  0.00     0.213 HD
HETATM   11  N5  UNL     1      -0.533  -0.055  -0.269  1.00  0.00    -0.216 N 
HETATM   12  C3  UNL     1      -1.399   0.935   0.345  1.00  0.00     0.141 C 
HETATM   13  C4  UNL     1      -1.951   0.265   1.611  1.00  0.00     0.020 C 
HETATM   14  C5  UNL     1      -2.865  -0.838   1.108  1.00  0.00     0.003 C 
HETATM   15  C6  UNL     1      -1.980  -1.895   0.472  1.00  0.00     0.020 C 
HETATM   16  C7  UNL     1      -1.114  -1.331  -0.625  1.00  0.00     0.141 C 
ENDROOT
BRANCH   9  17
HETATM   17  O1  UNL     1       0.290   2.153  -1.930  1.00  0.00    -0.276 OA
ATOM     18  H1  UNL     1       0.477   3.018  -2.276  1.00  0.00     0.245 HD
ENDBRANCH   9  17
TORSDOF 1
