REMARK  17 active torsions:
REMARK  status: ('A' for Active; 'I' for Inactive)
REMARK    1  A    between atoms: C3_6  and  C4_7 
REMARK    2  A    between atoms: C4_7  and  O2_8 
REMARK    3  A    between atoms: C4_7  and  N2_10 
REMARK    4  A    between atoms: C5_12  and  C6_13 
REMARK    5  A    between atoms: C9_18  and  O4_19 
REMARK    6  A    between atoms: C10_21  and  O5_22 
REMARK    7  A    between atoms: N4_28  and  N5_29 
REMARK    8  A    between atoms: C14_31  and  N6_32 
REMARK    9  A    between atoms: C14_31  and  C15_37 
REMARK   10  A    between atoms: N6_32  and  N7_34 
REMARK   11  A    between atoms: C15_37  and  O9_38 
REMARK   12  A    between atoms: C15_37  and  C16_40 
REMARK   13  A    between atoms: C16_40  and  O10_41 
REMARK   14  A    between atoms: C16_40  and  C17_43 
REMARK   15  A    between atoms: C17_43  and  O11_44 
REMARK   16  A    between atoms: C18_48  and  C19_49 
REMARK   17  A    between atoms: C20_50  and  C21_51 
ROOT
HETATM    1  C6  UNL     1       0.043  -0.702  -0.122  1.00  0.00     0.260 C 
HETATM    2  N3  UNL     1       0.729  -1.884  -0.598  1.00  0.00    -0.062 NA
HETATM    3  O3  UNL     1       0.652  -2.850   0.407  1.00  0.00    -0.241 OA
HETATM    4  C7  UNL     1      -0.447  -3.295   1.139  1.00  0.00     0.112 A 
HETATM    5  C8  UNL     1       0.004  -4.234   2.027  1.00  0.00     0.079 A 
HETATM    6  C9  UNL     1      -0.911  -4.842   2.888  1.00  0.00     0.101 A 
HETATM    7  C10 UNL     1      -2.250  -4.515   2.857  1.00  0.00     0.099 A 
HETATM    8  C11 UNL     1      -2.703  -3.563   1.956  1.00  0.00     0.059 A 
HETATM    9  C12 UNL     1      -1.806  -2.963   1.108  1.00  0.00     0.073 A 
HETATM   10  C13 UNL     1      -2.561  -2.019   0.287  1.00  0.00     0.294 C 
HETATM   11  O6  UNL     1      -3.790  -2.258   0.376  1.00  0.00    -0.264 OA
HETATM   12  N4  UNL     1      -2.287  -0.919  -0.575  1.00  0.00    -0.157 N 
HETATM   13  N8  UNL     1      -1.081  -0.300  -0.903  1.00  0.00    -0.285 N 
ATOM     14  H8  UNL     1      -1.008   0.392  -1.649  1.00  0.00     0.184 HD
ENDROOT
BRANCH   1  15
HETATM   15  C5  UNL     1       1.053   0.418  -0.209  1.00  0.00     0.104 C 
HETATM   16  N2  UNL     1       1.618   0.558  -1.348  1.00  0.00    -0.368 N 
ATOM     17  H2  UNL     1       1.352  -0.080  -2.098  1.00  0.00     0.161 HD
BRANCH  16  18
HETATM   18  C4  UNL     1       2.603   1.560  -1.631  1.00  0.00     0.272 C 
BRANCH  18  19
HETATM   19  C3  UNL     1       3.843   0.972  -2.189  1.00  0.00     0.102 A 
HETATM   20  N1  UNL     1       4.051   0.433  -3.408  1.00  0.00    -0.259 N 
HETATM   21  O1  UNL     1       5.279   0.032  -3.498  1.00  0.00    -0.241 OA
ATOM     22  H1  UNL     1       3.350   0.354  -4.145  1.00  0.00     0.194 HD
HETATM   23  C2  UNL     1       5.924   0.274  -2.387  1.00  0.00     0.093 A 
HETATM   24  C1  UNL     1       7.350  -0.040  -2.104  1.00  0.00     0.080 C 
HETATM   25  C18 UNL     1       5.038   0.883  -1.508  1.00  0.00     0.078 A 
BRANCH  25  26
HETATM   26  C19 UNL     1       5.343   1.319  -0.159  1.00  0.00    -0.051 C 
HETATM   27  C20 UNL     1       5.611   1.697   0.957  1.00  0.00     0.010 C 
BRANCH  27  28
HETATM   28  C21 UNL     1       5.938   2.164   2.269  1.00  0.00     0.258 C 
HETATM   29  O12 UNL     1       6.383   3.311   2.515  1.00  0.00    -0.637 OA
HETATM   30  O13 UNL     1       5.758   1.304   3.344  1.00  0.00    -0.637 OA
ENDBRANCH  27  28
ENDBRANCH  25  26
ENDBRANCH  18  19
BRANCH  18  31
HETATM   31  O2  UNL     1       2.076   2.391  -2.646  1.00  0.00    -0.371 OA
ATOM     32  H2  UNL     1       1.281   2.768  -2.288  1.00  0.00     0.212 HD
ENDBRANCH  18  31
ENDBRANCH  16  18
ENDBRANCH   1  15
BRANCH  12  33
HETATM   33  N5  UNL     1      -3.346  -0.354  -1.208  1.00  0.00    -0.261 N 
HETATM   34  C14 UNL     1      -4.116   0.601  -0.898  1.00  0.00     0.149 C 
ATOM     35  H5  UNL     1      -3.563  -0.782  -2.108  1.00  0.00     0.190 HD
BRANCH  34  36
HETATM   36  N6  UNL     1      -5.136   0.875  -1.889  1.00  0.00    -0.225 N 
ATOM     37  H6  UNL     1      -6.087   0.549  -1.714  1.00  0.00     0.194 HD
BRANCH  36  38
HETATM   38  N7  UNL     1      -4.874   1.565  -3.072  1.00  0.00    -0.037 N 
HETATM   39  O7  UNL     1      -5.666   2.489  -3.372  1.00  0.00    -0.516 OA
HETATM   40  O8  UNL     1      -3.799   1.256  -3.883  1.00  0.00    -0.516 OA
ENDBRANCH  36  38
ENDBRANCH  34  36
BRANCH  34  41
HETATM   41  C15 UNL     1      -4.029   1.387   0.336  1.00  0.00     0.219 C 
BRANCH  41  42
HETATM   42  O9  UNL     1      -2.957   0.945   1.097  1.00  0.00    -0.385 OA
ATOM     43  H9  UNL     1      -2.901   1.454   1.897  1.00  0.00     0.210 HD
ENDBRANCH  41  42
BRANCH  41  44
HETATM   44  C16 UNL     1      -3.875   2.863   0.105  1.00  0.00     0.177 C 
BRANCH  44  45
HETATM   45  O10 UNL     1      -3.859   3.513   1.339  1.00  0.00    -0.390 OA
ATOM     46  H10 UNL     1      -3.762   4.447   1.193  1.00  0.00     0.210 HD
ENDBRANCH  44  45
BRANCH  44  47
HETATM   47  C17 UNL     1      -2.548   3.186  -0.576  1.00  0.00     0.198 C 
BRANCH  47  48
HETATM   48  O11 UNL     1      -2.404   4.556  -0.758  1.00  0.00    -0.398 OA
ATOM     49  H11 UNL     1      -1.578   4.757  -1.182  1.00  0.00     0.209 HD
ENDBRANCH  47  48
ENDBRANCH  44  47
ENDBRANCH  41  44
ENDBRANCH  34  41
ENDBRANCH  12  33
BRANCH   6  50
HETATM   50  O4  UNL     1      -0.444  -5.784   3.775  1.00  0.00    -0.358 OA
ATOM     51  H4  UNL     1      -1.067  -6.198   4.361  1.00  0.00     0.217 HD
ENDBRANCH   6  50
BRANCH   7  52
HETATM   52  O5  UNL     1      -3.147  -5.108   3.697  1.00  0.00    -0.358 OA
ATOM     53  H5  UNL     1      -4.070  -4.883   3.676  1.00  0.00     0.217 HD
ENDBRANCH   7  52
TORSDOF 17
