REMARK  8 active torsions:
REMARK  status: ('A' for Active; 'I' for Inactive)
REMARK    1  A    between atoms: C2_2  and  S1_3 
REMARK    2  A    between atoms: S1_3  and  C3_4 
REMARK    3  A    between atoms: C3_4  and  C4_5 
REMARK    4  A    between atoms: C3_4  and  C13_18 
REMARK    5  A    between atoms: C4_5  and  C5_6 
REMARK    6  A    between atoms: N1_7  and  C6_9 
REMARK    7  A    between atoms: C6_9  and  O1_10 
REMARK    8  A    between atoms: C6_9  and  C7_12 
ROOT
HETATM    1  C5  UNL     1       0.571  -0.212   1.604  1.00  0.00     0.059 C 
HETATM    2  N1  UNL     1       1.743   0.168   1.023  1.00  0.00    -0.373 N 
ATOM      3  H1  UNL     1       2.350   0.736   1.614  1.00  0.00     0.161 HD
ENDROOT
BRANCH   1   4
HETATM    4  C4  UNL     1      -0.720   0.320   1.183  1.00  0.00     0.064 C 
BRANCH   4   5
HETATM    5  C3  UNL     1      -1.264   0.044  -0.184  1.00  0.00     0.084 C 
BRANCH   5   6
HETATM    6  S1  UNL     1      -1.485  -1.685  -0.524  1.00  0.00    -0.160 SA
BRANCH   6   7
HETATM    7  C2  UNL     1      -2.682  -2.610   0.352  1.00  0.00     0.070 C 
HETATM    8  C1  UNL     1      -4.126  -2.301   0.041  1.00  0.00     0.016 C 
ENDBRANCH   6   7
ENDBRANCH   5   6
BRANCH   5   9
HETATM    9  C13 UNL     1      -2.502   0.881  -0.353  1.00  0.00    -0.044 A 
HETATM   10  C14 UNL     1      -3.447   0.986   0.622  1.00  0.00     0.008 A 
HETATM   11  C15 UNL     1      -4.592   1.782   0.448  1.00  0.00     0.001 A 
HETATM   12  C16 UNL     1      -4.740   2.458  -0.736  1.00  0.00     0.000 A 
HETATM   13  C17 UNL     1      -3.794   2.358  -1.723  1.00  0.00     0.001 A 
HETATM   14  C18 UNL     1      -2.677   1.565  -1.521  1.00  0.00     0.008 A 
ENDBRANCH   5   9
ENDBRANCH   4   5
ENDBRANCH   1   4
BRANCH   2  15
HETATM   15  C6  UNL     1       2.242  -0.095  -0.245  1.00  0.00     0.251 C 
BRANCH  15  16
HETATM   16  O1  UNL     1       2.008   0.904  -1.196  1.00  0.00    -0.373 OA
ATOM     17  H1  UNL     1       2.350   0.724  -2.064  1.00  0.00     0.212 HD
ENDBRANCH  15  16
BRANCH  15  18
HETATM   18  C7  UNL     1       3.761  -0.140  -0.129  1.00  0.00    -0.010 A 
HETATM   19  C8  UNL     1       4.488  -1.202  -0.617  1.00  0.00     0.011 A 
HETATM   20  C9  UNL     1       5.870  -1.240  -0.524  1.00  0.00     0.001 A 
HETATM   21  C10 UNL     1       6.515  -0.171   0.079  1.00  0.00     0.000 A 
HETATM   22  C11 UNL     1       5.823   0.910   0.579  1.00  0.00     0.001 A 
HETATM   23  C12 UNL     1       4.445   0.887   0.455  1.00  0.00     0.011 A 
ENDBRANCH  15  18
ENDBRANCH   2  15
TORSDOF 8
