REMARK  9 active torsions:
REMARK  status: ('A' for Active; 'I' for Inactive)
REMARK    1  A    between atoms: C2_2  and  C3_3 
REMARK    2  A    between atoms: C2_2  and  N1_13 
REMARK    3  A    between atoms: C3_3  and  C4_4 
REMARK    4  A    between atoms: C4_4  and  C5_5 
REMARK    5  A    between atoms: C4_4  and  C9_10 
REMARK    6  A    between atoms: N1_13  and  C12_15 
REMARK    7  A    between atoms: C12_15  and  C13_16 
REMARK    8  A    between atoms: C13_16  and  O2_17 
REMARK    9  A    between atoms: C13_16  and  C14_19 
ROOT
HETATM    1  C1  UNL     1      -0.783  -1.280  -2.100  1.00  0.00     0.032 C 
HETATM    2  C2  UNL     1      -0.945  -1.122  -0.601  1.00  0.00     0.073 C 
ENDROOT
BRANCH   2   3
HETATM    3  C3  UNL     1      -2.418  -1.399  -0.295  1.00  0.00     0.036 C 
BRANCH   3   4
HETATM    4  C4  UNL     1      -3.380  -0.512  -0.974  1.00  0.00     0.049 C 
BRANCH   4   5
HETATM    5  C5  UNL     1      -3.260   0.924  -0.653  1.00  0.00     0.057 A 
HETATM    6  C6  UNL     1      -3.539   1.513   0.574  1.00  0.00     0.035 A 
HETATM    7  C7  UNL     1      -3.300   2.857   0.434  1.00  0.00     0.027 A 
HETATM    8  C8  UNL     1      -2.884   3.060  -0.859  1.00  0.00     0.142 A 
HETATM    9  O1  UNL     1      -2.879   1.905  -1.447  1.00  0.00    -0.327 OA
ENDBRANCH   4   5
BRANCH   4  10
HETATM   10  C9  UNL     1      -4.807  -0.988  -0.895  1.00  0.00    -0.004 A 
HETATM   11  C10 UNL     1      -5.513  -1.196   0.387  1.00  0.00     0.006 A 
HETATM   12  C11 UNL     1      -5.225  -2.334  -0.543  1.00  0.00     0.006 A 
ENDBRANCH   4  10
ENDBRANCH   3   4
ENDBRANCH   2   3
BRANCH   2  13
HETATM   13  N1  UNL     1      -0.617   0.162  -0.124  1.00  0.00    -0.415 N 
ATOM     14  H1  UNL     1      -1.322   0.732   0.343  1.00  0.00     0.153 HD
BRANCH  13  15
HETATM   15  C12 UNL     1       0.701   0.658  -0.298  1.00  0.00     0.146 C 
BRANCH  15  16
HETATM   16  C13 UNL     1       1.701  -0.031   0.541  1.00  0.00     0.139 C 
BRANCH  16  17
HETATM   17  O2  UNL     1       1.810  -1.371   0.291  1.00  0.00    -0.394 OA
ATOM     18  H2  UNL     1       2.454  -1.814   0.831  1.00  0.00     0.210 HD
ENDBRANCH  16  17
BRANCH  16  19
HETATM   19  C14 UNL     1       3.080   0.586   0.496  1.00  0.00     0.016 C 
HETATM   20  C15 UNL     1       3.957  -0.248   1.417  1.00  0.00     0.007 C 
HETATM   21  C16 UNL     1       5.348   0.311   1.562  1.00  0.00     0.000 C 
HETATM   22  C17 UNL     1       5.967   0.408   0.191  1.00  0.00     0.000 C 
HETATM   23  C18 UNL     1       5.090   1.121  -0.793  1.00  0.00     0.000 C 
HETATM   24  C19 UNL     1       3.691   0.565  -0.867  1.00  0.00     0.007 C 
ENDBRANCH  16  19
ENDBRANCH  15  16
ENDBRANCH  13  15
ENDBRANCH   2  13
TORSDOF 9
