REMARK  11 active torsions:
REMARK  status: ('A' for Active; 'I' for Inactive)
REMARK    1  A    between atoms: C2_2  and  C4_4 
REMARK    2  A    between atoms: C4_4  and  C5_5 
REMARK    3  A    between atoms: C5_5  and  C6_6 
REMARK    4  A    between atoms: C6_6  and  C7_7 
REMARK    5  A    between atoms: C7_7  and  C8_8 
REMARK    6  A    between atoms: C7_7  and  C13_15 
REMARK    7  A    between atoms: C8_8  and  C9_9 
REMARK    8  A    between atoms: C9_9  and  C10_10 
REMARK    9  A    between atoms: C10_10  and  C11_11 
REMARK   10  A    between atoms: C11_11  and  C12_12 
REMARK   11  A    between atoms: C22_24  and  O3_25 
ROOT
HETATM    1  C13 UNL     1      -0.480  -0.656   0.096  1.00  0.00     0.126 C 
HETATM    2  C14 UNL     1       0.590  -1.366  -0.685  1.00  0.00     0.033 C 
HETATM    3  C15 UNL     1       1.980  -1.207  -0.170  1.00  0.00     0.010 C 
HETATM    4  C16 UNL     1       2.086  -0.085   0.762  1.00  0.00     0.019 C 
HETATM    5  C17 UNL     1       1.129   0.989   0.412  1.00  0.00     0.126 C 
HETATM    6  C18 UNL     1       1.430   1.715  -0.854  1.00  0.00     0.033 C 
HETATM    7  C19 UNL     1       2.875   1.707  -1.249  1.00  0.00     0.014 C 
HETATM    8  C20 UNL     1       3.835   1.512  -0.121  1.00  0.00    -0.014 C 
HETATM    9  C21 UNL     1       4.119   2.894   0.496  1.00  0.00     0.018 C 
HETATM   10  C22 UNL     1       5.159   1.062  -0.699  1.00  0.00     0.126 C 
HETATM   11  C23 UNL     1       5.755   0.132   0.300  1.00  0.00     0.033 C 
HETATM   12  C24 UNL     1       4.567  -0.462   1.029  1.00  0.00     0.008 C 
HETATM   13  C25 UNL     1       3.455   0.519   0.919  1.00  0.00     0.003 C 
HETATM   14  O4  UNL     1      -0.191   0.631   0.389  1.00  0.00    -0.380 OA
ENDROOT
BRANCH   1  15
HETATM   15  C7  UNL     1      -1.828  -0.704  -0.580  1.00  0.00     0.015 C 
BRANCH  15  16
HETATM   16  C6  UNL     1      -2.945  -0.034   0.145  1.00  0.00     0.007 C 
BRANCH  16  17
HETATM   17  C5  UNL     1      -2.818   1.417   0.426  1.00  0.00     0.001 C 
BRANCH  17  18
HETATM   18  C4  UNL     1      -2.711   2.186  -0.868  1.00  0.00     0.004 C 
BRANCH  18  19
HETATM   19  C2  UNL     1      -2.572   3.655  -0.512  1.00  0.00    -0.023 C 
HETATM   20  C1  UNL     1      -3.786   4.092   0.266  1.00  0.00     0.009 C 
HETATM   21  C3  UNL     1      -2.474   4.440  -1.798  1.00  0.00     0.009 C 
ENDBRANCH  18  19
ENDBRANCH  17  18
ENDBRANCH  16  17
ENDBRANCH  15  16
BRANCH  15  22
HETATM   22  C8  UNL     1      -2.283  -2.152  -0.771  1.00  0.00     0.007 C 
BRANCH  22  23
HETATM   23  C9  UNL     1      -2.552  -2.882   0.498  1.00  0.00     0.001 C 
BRANCH  23  24
HETATM   24  C10 UNL     1      -2.971  -4.300   0.146  1.00  0.00     0.010 C 
BRANCH  24  25
HETATM   25  C11 UNL     1      -3.243  -5.053   1.450  1.00  0.00     0.113 C 
BRANCH  25  26
HETATM   26  C12 UNL     1      -3.648  -6.427   1.077  1.00  0.00     0.172 C 
HETATM   27  O1  UNL     1      -4.793  -6.697   0.679  1.00  0.00    -0.648 OA
HETATM   28  O2  UNL     1      -2.733  -7.464   1.167  1.00  0.00    -0.648 OA
ENDBRANCH  25  26
ENDBRANCH  24  25
ENDBRANCH  23  24
ENDBRANCH  22  23
ENDBRANCH  15  22
ENDBRANCH   1  15
BRANCH  10  29
HETATM   29  O3  UNL     1       4.993   0.375  -1.900  1.00  0.00    -0.395 OA
ATOM     30  H3  UNL     1       5.824   0.092  -2.263  1.00  0.00     0.210 HD
ENDBRANCH  10  29
TORSDOF 11
