REMARK  3 active torsions:
REMARK  status: ('A' for Active; 'I' for Inactive)
REMARK    1  A    between atoms: C2_2  and  C3_3 
REMARK    2  A    between atoms: C3_3  and  C6_6 
REMARK    3  A    between atoms: C11_12  and  C13_14 
REMARK       I    between atoms: C13_14  and  N1_16 
ROOT
HETATM    1  C6  UNL     1      -1.752   0.714  -0.175  1.00  0.00    -0.017 C 
HETATM    2  C7  UNL     1      -3.001   0.992  -0.988  1.00  0.00     0.018 C 
HETATM    3  C8  UNL     1      -1.740   1.944   0.795  1.00  0.00     0.012 C 
HETATM    4  C9  UNL     1      -1.145   3.069   0.029  1.00  0.00     0.018 C 
HETATM    5  C10 UNL     1      -0.614   2.454  -1.199  1.00  0.00     0.076 C 
HETATM    6 BR1  UNL     1       1.053   3.170  -1.812  1.00  0.00    -0.090 Br
HETATM    7  C11 UNL     1      -0.498   0.936  -0.894  1.00  0.00     0.059 C 
HETATM    8  C12 UNL     1      -0.395   0.420  -2.314  1.00  0.00     0.027 C 
ENDROOT
BRANCH   7   9
HETATM    9  C13 UNL     1       0.748   0.806  -0.148  1.00  0.00     0.231 C 
HETATM   10  O1  UNL     1       0.981   1.747   0.695  1.00  0.00    -0.272 OA
HETATM   11  N1  UNL     1       1.759  -0.184  -0.187  1.00  0.00    -0.332 N 
HETATM   12  C14 UNL     1       1.696  -1.346  -1.092  1.00  0.00     0.147 C 
HETATM   13  C17 UNL     1       2.952  -0.183   0.629  1.00  0.00     0.109 C 
HETATM   14  C15 UNL     1       2.728  -2.393  -0.855  1.00  0.00     0.142 C 
HETATM   15  N2  UNL     1       3.067  -2.637   0.508  1.00  0.00    -0.357 N 
HETATM   16  C16 UNL     1       3.117  -1.499   1.354  1.00  0.00     0.245 C 
ATOM     17  H2  UNL     1       3.262  -3.576   0.855  1.00  0.00     0.162 HD
HETATM   18  O2  UNL     1       3.282  -1.616   2.572  1.00  0.00    -0.271 OA
HETATM   19  C18 UNL     1       4.123   0.030  -0.334  1.00  0.00     0.049 C 
HETATM   20  C19 UNL     1       3.088   0.841   1.682  1.00  0.00     0.049 C 
ENDBRANCH   7   9
BRANCH   1  21
HETATM   21  C3  UNL     1      -2.037  -0.500   0.607  1.00  0.00    -0.022 C 
HETATM   22  C4  UNL     1      -3.317  -0.206   1.421  1.00  0.00     0.020 C 
HETATM   23  C5  UNL     1      -1.057  -0.959   1.623  1.00  0.00     0.020 C 
BRANCH  21  24
HETATM   24  C2  UNL     1      -2.361  -1.674  -0.235  1.00  0.00    -0.027 C 
HETATM   25  C1  UNL     1      -3.495  -2.378  -0.158  1.00  0.00     0.007 C 
ENDBRANCH  21  24
ENDBRANCH   1  21
TORSDOF 3
