REMARK  20 active torsions:
REMARK  status: ('A' for Active; 'I' for Inactive)
REMARK    1  A    between atoms: C2_2  and  C3_3 
REMARK    2  A    between atoms: C3_3  and  S1_4 
REMARK    3  A    between atoms: S1_4  and  C4_5 
REMARK    4  A    between atoms: C7_8  and  C8_9 
REMARK    5  A    between atoms: C8_9  and  N1_10 
REMARK    6  A    between atoms: N1_10  and  C9_12 
REMARK    7  A    between atoms: C10_15  and  N3_16 
REMARK    8  A    between atoms: N3_16  and  C11_18 
REMARK    9  A    between atoms: C11_18  and  C12_19 
REMARK   10  A    between atoms: C12_19  and  O1_20 
REMARK   11  A    between atoms: C15_25  and  N5_26 
REMARK   12  A    between atoms: N5_26  and  C16_28 
REMARK   13  A    between atoms: C16_28  and  C17_29 
REMARK   14  A    between atoms: C17_29  and  N6_30 
REMARK   15  A    between atoms: N7_33  and  C20_34 
REMARK   16  A    between atoms: C20_34  and  C21_35 
REMARK   17  A    between atoms: C21_35  and  C22_36 
REMARK   18  A    between atoms: C22_36  and  N8_37 
REMARK   19  A    between atoms: N8_37  and  C24_39 
REMARK   20  A    between atoms: C29_46  and  O2_47 
ROOT
HETATM    1  C9  UNL     1       1.657   0.387   0.404  1.00  0.00     0.681 A 
HETATM    2  N2  UNL     1       1.784   1.726   0.558  1.00  0.00    -0.175 N 
ATOM      3  H2  UNL     1       2.732   2.101   0.586  1.00  0.00     0.186 HD
HETATM    4  C10 UNL     1       0.793   2.592   0.675  1.00  0.00     0.148 A 
HETATM    5  C14 UNL     1      -0.514   2.091   0.637  1.00  0.00     0.138 A 
HETATM    6  N4  UNL     1      -1.708   2.674   0.724  1.00  0.00    -0.184 N 
ATOM      7  H4  UNL     1      -1.878   3.673   0.843  1.00  0.00     0.184 HD
HETATM    8  C15 UNL     1      -2.653   1.719   0.628  1.00  0.00     0.682 A 
HETATM    9  N7  UNL     1      -2.014   0.536   0.480  1.00  0.00    -0.165 N 
HETATM   10  C30 UNL     1      -0.673   0.738   0.482  1.00  0.00     0.170 A 
HETATM   11  N10 UNL     1       0.393  -0.074   0.371  1.00  0.00    -0.173 N 
ATOM     12  H10 UNL     1       0.238  -1.076   0.258  1.00  0.00     0.186 HD
ENDROOT
BRANCH   9  13
HETATM   13  C20 UNL     1      -2.686  -0.751   0.337  1.00  0.00     0.151 C 
BRANCH  13  14
HETATM   14  C21 UNL     1      -2.869  -1.302   1.710  1.00  0.00     0.041 C 
BRANCH  14  15
HETATM   15  C22 UNL     1      -3.541  -2.624   1.803  1.00  0.00     0.124 C 
BRANCH  15  16
HETATM   16  N8  UNL     1      -4.864  -2.659   1.271  1.00  0.00    -0.383 N 
HETATM   17  C23 UNL     1      -5.873  -1.875   2.011  1.00  0.00     0.150 C 
BRANCH  16  18
HETATM   18  C24 UNL     1      -5.298  -3.357   0.146  1.00  0.00     0.066 A 
HETATM   19  C25 UNL     1      -5.792  -2.690  -0.977  1.00  0.00     0.049 A 
HETATM   20  C26 UNL     1      -6.217  -3.373  -2.097  1.00  0.00     0.090 A 
HETATM   21  N9  UNL     1      -6.166  -4.718  -2.139  1.00  0.00    -0.367 N 
HETATM   22  C27 UNL     1      -5.698  -5.390  -1.078  1.00  0.00     0.041 A 
ATOM     23  H9  UNL     1      -6.480  -5.220  -2.969  1.00  0.00     0.165 HD
HETATM   24  C28 UNL     1      -5.645  -6.870  -1.132  1.00  0.00     0.071 C 
HETATM   25  C29 UNL     1      -5.263  -4.716   0.066  1.00  0.00     0.114 A 
BRANCH  25  26
HETATM   26  O2  UNL     1      -4.804  -5.492   1.097  1.00  0.00    -0.357 OA
ATOM     27  H2  UNL     1      -4.780  -6.440   1.041  1.00  0.00     0.218 HD
ENDBRANCH  25  26
ENDBRANCH  16  18
ENDBRANCH  15  16
ENDBRANCH  14  15
ENDBRANCH  13  14
ENDBRANCH   9  13
BRANCH   8  28
HETATM   28  N5  UNL     1      -3.950   1.898   0.669  1.00  0.00    -0.224 N 
ATOM     29  H5  UNL     1      -4.555   1.081   0.584  1.00  0.00     0.177 HD
BRANCH  28  30
HETATM   30  C16 UNL     1      -4.558   3.177   0.826  1.00  0.00     0.168 C 
BRANCH  30  31
HETATM   31  C17 UNL     1      -4.755   3.905  -0.485  1.00  0.00     0.291 C 
BRANCH  31  32
HETATM   32  N6  UNL     1      -5.366   5.189  -0.317  1.00  0.00     0.081 N 
HETATM   33  C18 UNL     1      -5.483   5.772  -1.664  1.00  0.00     0.309 C 
HETATM   34  C19 UNL     1      -6.738   5.095   0.166  1.00  0.00     0.309 C 
ENDBRANCH  31  32
ENDBRANCH  30  31
ENDBRANCH  28  30
ENDBRANCH   8  28
BRANCH   4  35
HETATM   35  N3  UNL     1       0.979   3.869   0.819  1.00  0.00    -0.372 N 
ATOM     36  H3  UNL     1       0.167   4.480   0.903  1.00  0.00     0.161 HD
BRANCH  35  37
HETATM   37  C11 UNL     1       2.286   4.444   0.864  1.00  0.00     0.147 C 
BRANCH  37  38
HETATM   38  C12 UNL     1       2.803   4.748  -0.544  1.00  0.00     0.186 C 
BRANCH  38  39
HETATM   39  O1  UNL     1       1.948   5.647  -1.181  1.00  0.00    -0.394 OA
HETATM   40  C13 UNL     1       2.362   5.959  -2.453  1.00  0.00     0.201 C 
ENDBRANCH  38  39
ENDBRANCH  37  38
ENDBRANCH  35  37
ENDBRANCH   4  35
BRANCH   1  41
HETATM   41  N1  UNL     1       2.682  -0.398   0.296  1.00  0.00    -0.222 N 
ATOM     42  H1  UNL     1       2.564  -1.404   0.180  1.00  0.00     0.178 HD
BRANCH  41  43
HETATM   43  C8  UNL     1       3.989   0.192   0.345  1.00  0.00     0.176 C 
BRANCH  43  44
HETATM   44  C7  UNL     1       5.079  -0.784   0.212  1.00  0.00    -0.040 A 
HETATM   45  C6  UNL     1       4.849  -2.138   0.092  1.00  0.00     0.010 A 
HETATM   46  C5  UNL     1       5.915  -3.030  -0.033  1.00  0.00     0.019 A 
HETATM   47  C4  UNL     1       7.226  -2.601  -0.041  1.00  0.00     0.000 A 
HETATM   48  C32 UNL     1       7.451  -1.247   0.079  1.00  0.00     0.019 A 
HETATM   49  C31 UNL     1       6.389  -0.357   0.204  1.00  0.00     0.010 A 
BRANCH  47  50
HETATM   50  S1  UNL     1       8.583  -3.770  -0.202  1.00  0.00    -0.130 SA
BRANCH  50  51
HETATM   51  C3  UNL     1      10.154  -2.875  -0.186  1.00  0.00     0.079 C 
BRANCH  51  52
HETATM   52  C2  UNL     1      11.266  -3.889  -0.321  1.00  0.00     0.006 C 
HETATM   53  C1  UNL     1      11.061  -4.618  -1.637  1.00  0.00     0.006 C 
ENDBRANCH  51  52
ENDBRANCH  50  51
ENDBRANCH  47  50
ENDBRANCH  43  44
ENDBRANCH  41  43
ENDBRANCH   1  41
TORSDOF 20
