REMARK  1 active torsions:
REMARK  status: ('A' for Active; 'I' for Inactive)
REMARK       I    between atoms: N1_2  and  C3_4 
REMARK       I    between atoms: C3_4  and  N2_6 
REMARK    1  A    between atoms: N2_6  and  C4_8 
ROOT
HETATM    1  C1  UNL     1       2.327   1.389   0.715  1.00  0.00     0.154 C 
HETATM    2  N1  UNL     1       2.272  -0.002   0.306  1.00  0.00    -0.343 N 
HETATM    3  C2  UNL     1       3.524  -0.748   0.232  1.00  0.00     0.154 C 
HETATM    4  C3  UNL     1       1.035  -0.616  -0.014  1.00  0.00     0.317 C 
HETATM    5  O1  UNL     1       1.045  -1.821  -0.361  1.00  0.00    -0.247 OA
HETATM    6  N2  UNL     1      -0.154   0.152   0.072  1.00  0.00    -0.338 N 
ATOM      7  H2  UNL     1      -0.125   1.131   0.358  1.00  0.00     0.164 HD
ENDROOT
BRANCH   6   8
HETATM    8  C4  UNL     1      -1.406  -0.487  -0.256  1.00  0.00     0.086 C 
HETATM    9  C5  UNL     1      -2.236   0.249  -1.303  1.00  0.00     0.025 C 
HETATM   10  C6  UNL     1      -3.463  -0.233  -0.516  1.00  0.00     0.004 C 
HETATM   11  C7  UNL     1      -2.537  -0.194   0.709  1.00  0.00     0.025 C 
ENDBRANCH   6   8
TORSDOF 1
