REMARK  3 active torsions:
REMARK  status: ('A' for Active; 'I' for Inactive)
REMARK    1  A    between atoms: C2_2  and  C3_3 
REMARK       I    between atoms: C3_3  and  N1_5 
REMARK    2  A    between atoms: N1_5  and  C4_7 
REMARK    3  A    between atoms: C4_7  and  N2_9 
ROOT
HETATM    1  C3  UNL     1      -1.626   0.254  -0.282  1.00  0.00     0.232 C 
HETATM    2  O1  UNL     1      -1.173   1.111  -1.058  1.00  0.00    -0.272 OA
HETATM    3  N1  UNL     1      -0.928  -0.493   0.648  1.00  0.00    -0.303 N 
ATOM      4  H1  UNL     1      -1.549  -1.134   1.142  1.00  0.00     0.171 HD
ENDROOT
BRANCH   3   5
HETATM    5  C4  UNL     1       0.360  -0.616   1.094  1.00  0.00     0.176 C 
HETATM    6  S1  UNL     1       0.580  -1.822   2.331  1.00  0.00    -0.041 SA
BRANCH   5   7
HETATM    7  N2  UNL     1       1.516   0.060   0.821  1.00  0.00    -0.358 N 
HETATM    8  C5  UNL     1       2.819  -0.368   1.465  1.00  0.00     0.125 C 
HETATM    9  C6  UNL     1       3.791  -0.721   0.395  1.00  0.00     0.020 C 
HETATM   10  C7  UNL     1       3.690  -0.049  -0.907  1.00  0.00     0.003 C 
HETATM   11  C8  UNL     1       2.398   0.617  -1.266  1.00  0.00     0.020 C 
HETATM   12  C9  UNL     1       1.748   1.197   0.007  1.00  0.00     0.125 C 
ENDBRANCH   5   7
ENDBRANCH   3   5
BRANCH   1  13
HETATM   13  C2  UNL     1      -3.134   0.061  -0.435  1.00  0.00     0.038 A 
HETATM   14  C1  UNL     1      -3.793   0.996  -1.392  1.00  0.00     0.025 C 
HETATM   15  C10 UNL     1      -3.820  -0.102   0.911  1.00  0.00     0.020 A 
HETATM   16  C11 UNL     1      -3.749  -1.217  -0.051  1.00  0.00     0.020 A 
ENDBRANCH   1  13
TORSDOF 3
