REMARK  5 active torsions:
REMARK  status: ('A' for Active; 'I' for Inactive)
REMARK    1  A    between atoms: C2_2  and  C3_3 
REMARK    2  A    between atoms: C3_3  and  C4_4 
REMARK    3  A    between atoms: C4_4  and  N1_5 
REMARK    4  A    between atoms: C4_4  and  C5_9 
REMARK    5  A    between atoms: N1_5  and  N2_6 
REMARK       I    between atoms: C5_9  and  N3_11 
REMARK       I    between atoms: C6_13  and  N5_15 
ROOT
HETATM    1  C5  UNL     1       0.206  -1.401  -0.532  1.00  0.00     0.286 C 
HETATM    2  O1  UNL     1      -0.104  -2.545  -0.119  1.00  0.00    -0.265 OA
HETATM    3  N3  UNL     1      -0.712  -0.364  -0.744  1.00  0.00    -0.295 N 
ATOM      4  H3  UNL     1      -0.565   0.238  -1.554  1.00  0.00     0.171 HD
HETATM    5  C6  UNL     1      -1.729  -0.113   0.008  1.00  0.00     0.197 C 
HETATM    6  N4  UNL     1      -2.058  -0.857   1.158  1.00  0.00    -0.063 NA
HETATM    7  N5  UNL     1      -2.544   0.991  -0.382  1.00  0.00    -0.307 N 
ATOM      8  H5  UNL     1      -2.131   1.757  -0.915  1.00  0.00     0.170 HD
HETATM    9  C7  UNL     1      -3.807   1.037  -0.069  1.00  0.00     0.203 C 
HETATM   10  N6  UNL     1      -4.589   2.152  -0.473  1.00  0.00    -0.066 NA
HETATM   11  N7  UNL     1      -4.450   0.007   0.672  1.00  0.00    -0.066 NA
ENDROOT
BRANCH   1  12
HETATM   12  C4  UNL     1       1.612  -1.135  -0.808  1.00  0.00     0.175 C 
BRANCH  12  13
HETATM   13  C3  UNL     1       2.330  -0.176   0.063  1.00  0.00     0.080 C 
BRANCH  13  14
HETATM   14  C2  UNL     1       3.773  -0.036  -0.384  1.00  0.00     0.003 C 
HETATM   15  C1  UNL     1       4.476   0.949   0.525  1.00  0.00     0.005 C 
ENDBRANCH  13  14
ENDBRANCH  12  13
BRANCH  12  16
HETATM   16  N1  UNL     1       2.211  -1.684  -1.741  1.00  0.00    -0.332 NA
BRANCH  16  17
HETATM   17  N2  UNL     1       2.608  -2.174  -2.795  1.00  0.00    -0.280 N 
ATOM     18  H22 UNL     1       1.737  -1.900  -3.249  1.00  0.00     0.191 HD
ATOM     19  H21 UNL     1       3.102  -2.627  -3.564  1.00  0.00     0.191 HD
ENDBRANCH  16  17
ENDBRANCH  12  16
ENDBRANCH   1  12
TORSDOF 5
