REMARK  7 active torsions:
REMARK  status: ('A' for Active; 'I' for Inactive)
REMARK    1  A    between atoms: C3_3  and  N1_4 
REMARK    2  A    between atoms: N3_8  and  C5_9 
REMARK    3  A    between atoms: C5_9  and  C6_10 
REMARK    4  A    between atoms: C7_11  and  C8_12 
REMARK    5  A    between atoms: C8_12  and  C9_13 
REMARK    6  A    between atoms: C9_13  and  C10_14 
REMARK    7  A    between atoms: C10_14  and  O1_15 
ROOT
HETATM    1  C1  UNL     1       3.875  -1.167  -2.080  1.00  0.00     0.014 C 
HETATM    2  C2  UNL     1       3.961  -0.821  -0.926  1.00  0.00    -0.097 C 
HETATM    3  C3  UNL     1       4.058  -0.380   0.470  1.00  0.00     0.223 C 
ENDROOT
BRANCH   3   4
HETATM    4  N1  UNL     1       2.827   0.265   0.883  1.00  0.00    -0.326 N 
HETATM    5  C4  UNL     1       2.583   1.574   0.761  1.00  0.00     0.201 A 
HETATM    6  N2  UNL     1       1.346   1.844   1.240  1.00  0.00    -0.292 N 
HETATM    7  N3  UNL     1       0.810   0.711   1.662  1.00  0.00    -0.276 N 
ATOM      8  H2  UNL     1       0.904   2.763   1.270  1.00  0.00     0.188 HD
HETATM    9  C11 UNL     1       1.724  -0.260   1.441  1.00  0.00     0.205 A 
BRANCH   7  10
HETATM   10  C5  UNL     1      -0.492   0.476   2.255  1.00  0.00     0.244 C 
BRANCH  10  11
HETATM   11  C6  UNL     1      -1.439   0.185   1.171  1.00  0.00    -0.071 C 
HETATM   12  C7  UNL     1      -2.234  -0.070   0.287  1.00  0.00    -0.013 C 
BRANCH  12  13
HETATM   13  C8  UNL     1      -3.175  -0.372  -0.725  1.00  0.00    -0.013 C 
BRANCH  13  14
HETATM   14  C9  UNL     1      -3.994  -0.628  -1.574  1.00  0.00    -0.067 C 
BRANCH  14  15
HETATM   15  C10 UNL     1      -5.015  -0.935  -2.600  1.00  0.00     0.258 C 
BRANCH  15  16
HETATM   16  O1  UNL     1      -6.042   0.018  -2.470  1.00  0.00    -0.389 OA
ATOM     17  H1  UNL     1      -6.698  -0.179  -3.129  1.00  0.00     0.210 HD
ENDBRANCH  15  16
ENDBRANCH  14  15
ENDBRANCH  13  14
ENDBRANCH  12  13
ENDBRANCH  10  11
ENDBRANCH   7  10
ENDBRANCH   3   4
TORSDOF 7
