REMARK  2 active torsions:
REMARK  status: ('A' for Active; 'I' for Inactive)
REMARK       I    between atoms: N1_2  and  C2_4 
REMARK    1  A    between atoms: C2_4  and  C3_6 
REMARK    2  A    between atoms: C4_7  and  C5_8 
ROOT
HETATM    1  C3  UNL     1       0.502   0.372  -0.750  1.00  0.00     0.091 A 
HETATM    2  C4  UNL     1      -0.957   0.352  -0.578  1.00  0.00     0.011 A 
HETATM    3  C8  UNL     1      -0.267   1.491   0.015  1.00  0.00    -0.030 A 
HETATM    4  C9  UNL     1       0.111   1.609   1.455  1.00  0.00     0.016 C 
HETATM    5  C10 UNL     1      -0.358   2.841  -0.701  1.00  0.00     0.016 C 
ENDROOT
BRANCH   1   6
HETATM    6  C2  UNL     1       1.417  -0.458   0.047  1.00  0.00     0.222 C 
HETATM    7  N1  UNL     1       2.712  -0.759  -0.458  1.00  0.00    -0.365 N 
HETATM    8  C1  UNL     1       3.660  -1.571   0.280  1.00  0.00     0.149 C 
ATOM      9  H1  UNL     1       2.983  -0.391  -1.370  1.00  0.00     0.161 HD
HETATM   10  O1  UNL     1       1.127  -0.933   1.178  1.00  0.00    -0.273 OA
ENDBRANCH   1   6
BRANCH   2  11
HETATM   11  C5  UNL     1      -1.631  -0.739   0.229  1.00  0.00    -0.017 C 
HETATM   12  C6  UNL     1      -1.299  -2.050  -0.439  1.00  0.00     0.010 C 
HETATM   13  C7  UNL     1      -3.136  -0.567   0.227  1.00  0.00     0.010 C 
ENDBRANCH   2  11
TORSDOF 2
