REMARK  6 active torsions:
REMARK  status: ('A' for Active; 'I' for Inactive)
REMARK    1  A    between atoms: O1_2  and  C2_3 
REMARK    2  A    between atoms: C2_3  and  C3_4 
REMARK    3  A    between atoms: C3_4  and  C4_5 
REMARK    4  A    between atoms: C4_5  and  C5_6 
REMARK    5  A    between atoms: C5_6  and  N1_7 
REMARK    6  A    between atoms: C7_14  and  N5_15 
ROOT
HETATM    1  N1  UNL     1      -1.570  -0.219  -0.238  1.00  0.00    -0.122 N 
HETATM    2  N2  UNL     1      -2.570  -0.437  -1.064  1.00  0.00    -0.257 N 
ATOM      3  H2  UNL     1      -2.560  -1.118  -1.823  1.00  0.00     0.190 HD
HETATM    4  C6  UNL     1      -3.620   0.376  -0.762  1.00  0.00     0.222 A 
HETATM    5  N3  UNL     1      -4.874   0.449  -1.410  1.00  0.00    -0.061 NA
HETATM    6  N4  UNL     1      -3.231   1.104   0.281  1.00  0.00    -0.161 N 
ATOM      7  H4  UNL     1      -3.791   1.814   0.753  1.00  0.00     0.187 HD
HETATM    8  C7  UNL     1      -1.971   0.746   0.612  1.00  0.00     0.695 A 
ENDROOT
BRANCH   1   9
HETATM    9  C5  UNL     1      -0.277  -0.882  -0.230  1.00  0.00     0.168 C 
BRANCH   9  10
HETATM   10  C4  UNL     1       0.642  -0.093  -1.116  1.00  0.00     0.024 C 
BRANCH  10  11
HETATM   11  C3  UNL     1       2.028  -0.679  -1.196  1.00  0.00     0.028 C 
BRANCH  11  12
HETATM   12  C2  UNL     1       2.719  -0.758   0.119  1.00  0.00     0.167 C 
BRANCH  12  13
HETATM   13  O1  UNL     1       2.882   0.484   0.733  1.00  0.00    -0.396 OA
HETATM   14  C1  UNL     1       3.535   0.352   1.962  1.00  0.00     0.201 C 
ENDBRANCH  12  13
ENDBRANCH  11  12
ENDBRANCH  10  11
ENDBRANCH   9  10
ENDBRANCH   1   9
BRANCH   8  15
HETATM   15  N5  UNL     1      -1.274   1.247   1.579  1.00  0.00    -0.233 N 
ATOM     16  H52 UNL     1      -0.323   0.977   1.829  1.00  0.00     0.174 HD
ATOM     17  H51 UNL     1      -1.578   1.978   2.223  1.00  0.00     0.174 HD
ENDBRANCH   8  15
TORSDOF 6
