REMARK  6 active torsions:
REMARK  status: ('A' for Active; 'I' for Inactive)
REMARK    1  A    between atoms: O1_1  and  C1_3 
REMARK    2  A    between atoms: C2_5  and  O3_6 
REMARK    3  A    between atoms: O3_6  and  C3_7 
REMARK    4  A    between atoms: C8_12  and  O4_13 
REMARK    5  A    between atoms: C9_15  and  O5_16 
REMARK    6  A    between atoms: C10_18  and  O6_19 
ROOT
HETATM    1  C1  UNL     1      -1.929  -1.664  -1.075  1.00  0.00     0.291 C 
HETATM    2  O2  UNL     1      -0.809  -1.818  -0.285  1.00  0.00    -0.326 OA
HETATM    3  C2  UNL     1      -0.505  -0.549   0.236  1.00  0.00     0.294 C 
HETATM    4  C8  UNL     1      -1.538  -0.255   1.274  1.00  0.00     0.204 C 
HETATM    5  C9  UNL     1      -2.816   0.050   0.536  1.00  0.00     0.185 C 
HETATM    6  C10 UNL     1      -3.113  -1.095  -0.382  1.00  0.00     0.204 C 
ENDROOT
BRANCH   3   7
HETATM    7  O3  UNL     1       0.792  -0.435   0.647  1.00  0.00    -0.353 OA
BRANCH   7   8
HETATM    8  C3  UNL     1       1.542   0.466  -0.094  1.00  0.00     0.124 C 
HETATM    9  C4  UNL     1       2.211   1.520   0.741  1.00  0.00     0.032 C 
HETATM   10  C5  UNL     1       3.622   1.646   0.262  1.00  0.00     0.002 C 
HETATM   11  C6  UNL     1       3.860   0.624  -0.797  1.00  0.00     0.002 C 
HETATM   12  C7  UNL     1       2.722  -0.331  -0.663  1.00  0.00     0.032 C 
ENDBRANCH   7   8
ENDBRANCH   3   7
BRANCH   4  13
HETATM   13  O4  UNL     1      -1.181   0.751   2.159  1.00  0.00    -0.388 OA
ATOM     14  H4  UNL     1      -1.838   0.938   2.819  1.00  0.00     0.210 HD
ENDBRANCH   4  13
BRANCH   1  15
HETATM   15  O1  UNL     1      -1.608  -0.863  -2.179  1.00  0.00    -0.368 OA
ATOM     16  H1  UNL     1      -2.379  -0.757  -2.723  1.00  0.00     0.212 HD
ENDBRANCH   1  15
BRANCH   5  17
HETATM   17  O5  UNL     1      -3.883   0.283   1.388  1.00  0.00    -0.390 OA
ATOM     18  H5  UNL     1      -4.689   0.475   0.923  1.00  0.00     0.210 HD
ENDBRANCH   5  17
BRANCH   6  19
HETATM   19  O6  UNL     1      -3.982  -0.597  -1.382  1.00  0.00    -0.388 OA
ATOM     20  H6  UNL     1      -4.739  -0.233  -0.939  1.00  0.00     0.210 HD
ENDBRANCH   6  19
TORSDOF 6
