REMARK  5 active torsions:
REMARK  status: ('A' for Active; 'I' for Inactive)
REMARK    1  A    between atoms: N1_2  and  C2_4 
REMARK    2  A    between atoms: N3_7  and  C3_8 
REMARK    3  A    between atoms: C4_9  and  N4_10 
REMARK    4  A    between atoms: C9_24  and  C10_25 
REMARK       I    between atoms: C10_25  and  N8_27 
REMARK    5  A    between atoms: N8_27  and  C11_29 
ROOT
HETATM    1  C2  UNL     1       0.338  -2.012   0.272  1.00  0.00     0.137 A 
HETATM    2  N2  UNL     1      -0.976  -1.588   0.414  1.00  0.00    -0.278 N 
ATOM      3  H2  UNL     1      -1.758  -2.224   0.573  1.00  0.00     0.189 HD
HETATM    4  N3  UNL     1      -1.107  -0.315   0.325  1.00  0.00    -0.259 N 
HETATM    5  C8  UNL     1       0.114   0.196   0.116  1.00  0.00     0.138 A 
HETATM    6  C9  UNL     1       1.049  -0.851   0.078  1.00  0.00     0.095 A 
ENDROOT
BRANCH   4   7
HETATM    7  C3  UNL     1      -2.308   0.481   0.408  1.00  0.00     0.129 A 
HETATM    8  C4  UNL     1      -2.646   1.158   1.552  1.00  0.00     0.219 A 
HETATM    9  N5  UNL     1      -3.800   1.894   1.532  1.00  0.00    -0.169 N 
HETATM   10  C5  UNL     1      -4.586   1.963   0.448  1.00  0.00     0.677 A 
ATOM     11  H5  UNL     1      -4.071   2.408   2.371  1.00  0.00     0.186 HD
HETATM   12  N6  UNL     1      -5.671   2.673   0.474  1.00  0.00    -0.234 N 
HETATM   13  N7  UNL     1      -4.214   1.281  -0.654  1.00  0.00    -0.194 N 
ATOM     14  H62 UNL     1      -5.952   3.189   1.308  1.00  0.00     0.174 HD
ATOM     15  H61 UNL     1      -6.269   2.725  -0.351  1.00  0.00     0.174 HD
HETATM   16  C6  UNL     1      -3.106   0.544  -0.712  1.00  0.00     0.055 A 
ATOM     17  H7  UNL     1      -4.808   1.332  -1.481  1.00  0.00     0.184 HD
HETATM   18  C7  UNL     1      -2.716  -0.191  -1.914  1.00  0.00     0.071 C 
BRANCH   8  19
HETATM   19  N4  UNL     1      -1.841   1.114   2.718  1.00  0.00    -0.095 N 
HETATM   20  O1  UNL     1      -1.790   2.030   3.555  1.00  0.00    -0.530 OA
HETATM   21  O2  UNL     1      -1.075   0.007   2.944  1.00  0.00    -0.530 OA
ENDBRANCH   8  19
ENDBRANCH   4   7
BRANCH   1  22
HETATM   22  N1  UNL     1       0.680  -3.214   0.327  1.00  0.00    -0.360 N 
HETATM   23  C1  UNL     1       1.667  -4.125   0.271  1.00  0.00     0.120 C 
ATOM     24  H1  UNL     1      -0.178  -3.742   0.486  1.00  0.00     0.165 HD
ENDBRANCH   1  22
BRANCH   6  25
HETATM   25  C10 UNL     1       2.463  -0.675  -0.132  1.00  0.00     0.275 C 
HETATM   26  O3  UNL     1       3.268  -1.611  -0.185  1.00  0.00    -0.267 OA
HETATM   27  N8  UNL     1       2.989   0.634  -0.289  1.00  0.00    -0.152 N 
ATOM     28  H8  UNL     1       2.360   1.391  -0.558  1.00  0.00     0.187 HD
BRANCH  27  29
HETATM   29  C11 UNL     1       4.227   0.893  -0.104  1.00  0.00     0.716 A 
HETATM   30  N9  UNL     1       5.195   0.037   0.248  1.00  0.00    -0.115 N 
HETATM   31  N10 UNL     1       6.312   0.748   0.322  1.00  0.00    -0.213 N 
ATOM     32  H9  UNL     1       5.093  -0.963   0.424  1.00  0.00     0.207 HD
HETATM   33  N11 UNL     1       6.041   1.998   0.025  1.00  0.00    -0.213 N 
ATOM     34  H10 UNL     1       7.232   0.383   0.569  1.00  0.00     0.210 HD
HETATM   35  N12 UNL     1       4.755   2.106  -0.241  1.00  0.00    -0.115 N 
ATOM     36  H11 UNL     1       6.717   2.762   0.004  1.00  0.00     0.210 HD
ATOM     37  H12 UNL     1       4.259   2.958  -0.502  1.00  0.00     0.207 HD
ENDBRANCH  27  29
ENDBRANCH   6  25
TORSDOF 5
