REMARK  5 active torsions:
REMARK  status: ('A' for Active; 'I' for Inactive)
REMARK    1  A    between atoms: N1_2  and  C2_3 
REMARK    2  A    between atoms: N2_6  and  C5_7 
REMARK    3  A    between atoms: C5_7  and  C6_8 
REMARK       I    between atoms: N3_11  and  C8_13 
REMARK    4  A    between atoms: C13_20  and  C14_22 
REMARK    5  A    between atoms: C14_22  and  N5_23 
ROOT
HETATM    1  C6  UNL     1       4.967  -1.608  -0.495  1.00  0.00    -0.018 C 
HETATM    2  C7  UNL     1       5.599  -2.482  -1.050  1.00  0.00    -0.015 C 
HETATM    3 BR1  UNL     1       6.604  -3.821  -1.924  1.00  0.00     0.011 Br
ENDROOT
BRANCH   1   4
HETATM    4  C5  UNL     1       4.228  -0.563   0.141  1.00  0.00     0.164 C 
HETATM    5  N3  UNL     1       4.820   0.410   0.689  1.00  0.00    -0.290 N 
HETATM    6  C8  UNL     1       6.205   0.617   0.763  1.00  0.00     0.334 C 
ATOM      7  H3  UNL     1       4.229   1.119   1.123  1.00  0.00     0.172 HD
HETATM    8  N4  UNL     1       6.750   1.919   0.595  1.00  0.00    -0.040 NA
HETATM    9  O1  UNL     1       6.968  -0.363   0.979  1.00  0.00    -0.251 OA
BRANCH   4  10
HETATM   10  N2  UNL     1       2.817  -0.635   0.147  1.00  0.00    -0.360 N 
HETATM   11  C4  UNL     1       2.031   0.283   0.976  1.00  0.00     0.127 C 
HETATM   12  C3  UNL     1       0.715  -0.337   1.332  1.00  0.00     0.053 C 
HETATM   13  C2  UNL     1      -0.092  -0.795   0.162  1.00  0.00     0.193 C 
HETATM   14  C10 UNL     1       0.773  -0.848  -1.054  1.00  0.00     0.053 C 
HETATM   15  C9  UNL     1       2.056  -1.586  -0.637  1.00  0.00     0.127 C 
BRANCH  13  16
HETATM   16  N1  UNL     1      -1.317  -0.033  -0.030  1.00  0.00    -0.066 N 
HETATM   17  C1  UNL     1      -0.971   1.297  -0.555  1.00  0.00     0.273 C 
HETATM   18  C11 UNL     1      -2.054  -0.693  -1.084  1.00  0.00     0.240 C 
HETATM   19  C12 UNL     1      -3.389  -0.023  -1.362  1.00  0.00     0.073 C 
HETATM   20  C13 UNL     1      -4.223   0.076  -0.133  1.00  0.00     0.130 C 
HETATM   21  F1  UNL     1      -5.247  -0.878  -0.280  1.00  0.00    -0.241 F 
HETATM   22  C15 UNL     1      -3.500  -0.116   1.149  1.00  0.00     0.073 C 
HETATM   23  C16 UNL     1      -2.046   0.090   1.172  1.00  0.00     0.240 C 
BRANCH  20  24
HETATM   24  C14 UNL     1      -5.000   1.404  -0.133  1.00  0.00     0.273 C 
BRANCH  24  25
HETATM   25  N5  UNL     1      -5.858   1.470  -1.292  1.00  0.00    -0.076 N 
ATOM     26  H53 UNL     1      -5.341   1.328  -2.160  1.00  0.00     0.274 HD
ATOM     27  H52 UNL     1      -6.479   0.663  -1.356  1.00  0.00     0.274 HD
ATOM     28  H51 UNL     1      -6.373   2.350  -1.292  1.00  0.00     0.274 HD
ENDBRANCH  24  25
ENDBRANCH  20  24
ENDBRANCH  13  16
ENDBRANCH   4  10
ENDBRANCH   1   4
TORSDOF 5
