REMARK  3 active torsions:
REMARK  status: ('A' for Active; 'I' for Inactive)
REMARK       I    between atoms: C1_2  and  N1_3 
REMARK       I    between atoms: C1_2  and  N2_16 
REMARK    1  A    between atoms: N1_3  and  C2_5 
REMARK    2  A    between atoms: C2_5  and  C3_6 
REMARK    3  A    between atoms: C4_7  and  C5_8 
ROOT
HETATM    1  C5  UNL     1      -2.488   3.507   0.804  1.00  0.00    -0.003 C 
HETATM    2  C6  UNL     1      -2.948   4.623   0.952  1.00  0.00    -0.009 C 
HETATM    3 BR1  UNL     1      -3.655   6.360   1.158  1.00  0.00     0.011 Br
ENDROOT
BRANCH   1   4
HETATM    4  C4  UNL     1      -1.974   2.203   0.627  1.00  0.00    -0.012 C 
HETATM    5  C3  UNL     1      -1.548   1.087   0.460  1.00  0.00    -0.061 C 
BRANCH   5   6
HETATM    6  C2  UNL     1      -1.039  -0.288   0.233  1.00  0.00     0.099 C 
HETATM    7  C7  UNL     1      -1.706  -1.244   1.194  1.00  0.00     0.044 C 
HETATM    8  C8  UNL     1      -3.077  -1.642   0.678  1.00  0.00     0.004 C 
HETATM    9  C9  UNL     1      -2.987  -2.485  -0.569  1.00  0.00     0.000 C 
HETATM   10  C10 UNL     1      -1.662  -2.234  -1.214  1.00  0.00     0.004 C 
HETATM   11  C11 UNL     1      -1.342  -0.735  -1.155  1.00  0.00     0.044 C 
BRANCH   6  12
HETATM   12  N1  UNL     1       0.379  -0.234   0.533  1.00  0.00    -0.323 N 
HETATM   13  C1  UNL     1       1.257   0.625  -0.183  1.00  0.00     0.324 C 
HETATM   14  O1  UNL     1       0.755   1.371  -1.119  1.00  0.00    -0.247 OA
HETATM   15  N2  UNL     1       2.624   0.738   0.037  1.00  0.00    -0.264 N 
HETATM   16  C12 UNL     1       3.491   1.664  -0.715  1.00  0.00     0.259 C 
HETATM   17  C14 UNL     1       3.495   0.075   0.945  1.00  0.00     0.322 C 
HETATM   18  N3  UNL     1       4.635   0.770  -0.955  1.00  0.00    -0.339 N 
HETATM   19  C13 UNL     1       4.726  -0.133   0.125  1.00  0.00     0.292 C 
ATOM     20  H3  UNL     1       5.256   0.798  -1.764  1.00  0.00     0.164 HD
HETATM   21  O2  UNL     1       5.627  -0.950   0.381  1.00  0.00    -0.267 OA
HETATM   22  F1  UNL     1       3.041  -1.129   1.443  1.00  0.00    -0.195 F 
HETATM   23 BR2  UNL     1       4.007   1.260   2.402  1.00  0.00    -0.013 Br
ATOM     24  H1  UNL     1       0.755  -0.825   1.274  1.00  0.00     0.166 HD
ENDBRANCH   6  12
ENDBRANCH   5   6
ENDBRANCH   1   4
TORSDOF 3
