REMARK  8 active torsions:
REMARK  status: ('A' for Active; 'I' for Inactive)
REMARK    1  A    between atoms: C2_2  and  C3_3 
REMARK    2  A    between atoms: C3_3  and  C4_4 
REMARK    3  A    between atoms: C4_4  and  C5_5 
REMARK    4  A    between atoms: C9_10  and  C10_12 
REMARK    5  A    between atoms: C10_12  and  N2_13 
REMARK    6  A    between atoms: C10_12  and  N6_24 
REMARK    7  A    between atoms: N2_13  and  C11_15 
REMARK    8  A    between atoms: N6_24  and  N7_25 
ROOT
HETATM    1  C10 UNL     1      -2.802  -1.350   0.572  1.00  0.00     0.214 C 
ENDROOT
BRANCH   1   2
HETATM    2  C9  UNL     1      -1.731  -1.755  -0.340  1.00  0.00     0.194 A 
HETATM    3  C8  UNL     1      -0.451  -1.065  -0.233  1.00  0.00     0.053 A 
HETATM    4  N1  UNL     1      -0.279   0.260  -0.326  1.00  0.00    -0.361 N 
HETATM    5  C13 UNL     1       0.705  -1.841  -0.060  1.00  0.00     0.053 A 
HETATM    6  C6  UNL     1       0.932   0.814  -0.255  1.00  0.00     0.103 A 
HETATM    7  C7  UNL     1      -1.422   1.162  -0.569  1.00  0.00     0.155 C 
HETATM    8  C5  UNL     1       2.120   0.079  -0.081  1.00  0.00    -0.005 A 
HETATM    9  C14 UNL     1       1.955  -1.262   0.012  1.00  0.00     0.041 A 
HETATM   10 BR3  UNL     1       3.512  -2.304   0.246  1.00  0.00    -0.049 Br
HETATM   11 BR2  UNL     1       0.598  -3.740   0.084  1.00  0.00    -0.052 Br
HETATM   12 BR1  UNL     1      -1.471  -3.674  -0.102  1.00  0.00    -0.071 Br
BRANCH   8  13
HETATM   13  C4  UNL     1       3.316   0.828  -0.027  1.00  0.00    -0.013 C 
BRANCH  13  14
HETATM   14  C3  UNL     1       4.657   0.325   0.137  1.00  0.00     0.028 C 
BRANCH  14  15
HETATM   15  C2  UNL     1       5.575   1.581   0.128  1.00  0.00    -0.001 C 
HETATM   16  C1  UNL     1       7.005   1.190   0.292  1.00  0.00     0.005 C 
ENDBRANCH  14  15
ENDBRANCH  13  14
ENDBRANCH   8  13
ENDBRANCH   1   2
BRANCH   1  17
HETATM   17  N2  UNL     1      -4.127  -1.774   0.225  1.00  0.00    -0.163 N 
ATOM     18  H2  UNL     1      -4.284  -2.765   0.042  1.00  0.00     0.186 HD
BRANCH  17  19
HETATM   19  C11 UNL     1      -5.130  -0.971   0.132  1.00  0.00     0.703 A 
HETATM   20  N3  UNL     1      -6.363  -1.359  -0.190  1.00  0.00    -0.128 N 
HETATM   21  N4  UNL     1      -7.153  -0.318  -0.201  1.00  0.00    -0.237 N 
ATOM     22  H3  UNL     1      -6.646  -2.317  -0.396  1.00  0.00     0.205 HD
HETATM   23  C12 UNL     1      -6.409   0.752   0.120  1.00  0.00     0.353 A 
ATOM     24  H4  UNL     1      -8.150  -0.319  -0.414  1.00  0.00     0.192 HD
HETATM   25  O1  UNL     1      -6.880   1.928   0.198  1.00  0.00    -0.245 OA
HETATM   26  N5  UNL     1      -5.146   0.347   0.329  1.00  0.00    -0.139 N 
ATOM     27  H5  UNL     1      -4.353   0.934   0.588  1.00  0.00     0.189 HD
ENDBRANCH  17  19
ENDBRANCH   1  17
BRANCH   1  28
HETATM   28  N6  UNL     1      -2.675  -0.702   1.638  1.00  0.00    -0.317 NA
BRANCH  28  29
HETATM   29  N7  UNL     1      -2.453  -0.454   2.827  1.00  0.00    -0.279 N 
ATOM     30  H72 UNL     1      -2.229  -1.409   3.108  1.00  0.00     0.191 HD
ATOM     31  H71 UNL     1      -2.350   0.073   3.694  1.00  0.00     0.191 HD
ENDBRANCH  28  29
ENDBRANCH   1  28
TORSDOF 8
