REMARK  7 active torsions:
REMARK  status: ('A' for Active; 'I' for Inactive)
REMARK       I    between atoms: N3_4  and  C2_6 
REMARK       I    between atoms: C2_6  and  N4_8 
REMARK    1  A    between atoms: N4_8  and  C3_10 
REMARK    2  A    between atoms: C3_10  and  C4_11 
REMARK    3  A    between atoms: C3_10  and  C11_19 
REMARK    4  A    between atoms: C4_11  and  C5_12 
REMARK       I    between atoms: C11_19  and  N5_21 
REMARK    5  A    between atoms: C12_23  and  C13_24 
REMARK    6  A    between atoms: C13_24  and  C14_25 
REMARK    7  A    between atoms: N6_30  and  O3_31 
ROOT
HETATM    1  C3  UNL     1      -0.874   2.001  -0.836  1.00  0.00     0.182 C 
ENDROOT
BRANCH   1   2
HETATM    2  N4  UNL     1      -2.132   1.911  -0.119  1.00  0.00    -0.329 N 
HETATM    3  C2  UNL     1      -2.905   3.049   0.188  1.00  0.00     0.323 C 
HETATM    4  N3  UNL     1      -4.121   2.887   0.886  1.00  0.00    -0.285 N 
HETATM    5  O1  UNL     1      -2.571   4.220  -0.128  1.00  0.00    -0.247 OA
HETATM    6  C1  UNL     1      -4.263   2.257   1.980  1.00  0.00     0.204 C 
ATOM      7  H3  UNL     1      -4.955   3.311   0.478  1.00  0.00     0.172 HD
HETATM    8  N1  UNL     1      -3.136   1.651   2.588  1.00  0.00    -0.066 NA
HETATM    9  N2  UNL     1      -5.547   2.159   2.596  1.00  0.00    -0.066 NA
ATOM     10  H4  UNL     1      -2.468   0.993   0.173  1.00  0.00     0.165 HD
ENDBRANCH   1   2
BRANCH   1  11
HETATM   11  C4  UNL     1      -0.975   1.347  -2.191  1.00  0.00     0.073 C 
BRANCH  11  12
HETATM   12  C5  UNL     1      -1.321  -0.069  -2.162  1.00  0.00    -0.056 A 
HETATM   13  C6  UNL     1      -0.346  -1.036  -2.125  1.00  0.00     0.008 A 
HETATM   14  C7  UNL     1      -0.646  -2.394  -2.093  1.00  0.00     0.019 A 
HETATM   15  C8  UNL     1      -1.955  -2.818  -2.098  1.00  0.00     0.011 A 
HETATM   16 BR1  UNL     1      -2.378  -4.680  -2.053  1.00  0.00    -0.051 Br
HETATM   17  C9  UNL     1      -2.946  -1.861  -2.136  1.00  0.00     0.019 A 
HETATM   18  C10 UNL     1      -2.632  -0.521  -2.167  1.00  0.00     0.008 A 
ENDBRANCH  11  12
ENDBRANCH   1  11
BRANCH   1  19
HETATM   19  C11 UNL     1       0.272   1.584  -0.029  1.00  0.00     0.244 C 
HETATM   20  O2  UNL     1       0.076   1.173   1.141  1.00  0.00    -0.271 OA
HETATM   21  N5  UNL     1       1.597   1.624  -0.513  1.00  0.00    -0.339 N 
HETATM   22  C12 UNL     1       2.562   0.867  -0.193  1.00  0.00     0.070 C 
ATOM     23  H5  UNL     1       1.802   2.348  -1.202  1.00  0.00     0.167 HD
BRANCH  22  24
HETATM   24  C13 UNL     1       2.365  -0.220   0.806  1.00  0.00     0.104 C 
BRANCH  24  25
HETATM   25  C14 UNL     1       3.602  -1.079   0.896  1.00  0.00     0.044 A 
HETATM   26  C15 UNL     1       4.604  -0.782   1.791  1.00  0.00     0.028 A 
HETATM   27  C16 UNL     1       5.715  -1.591   1.835  1.00  0.00     0.003 A 
HETATM   28  C17 UNL     1       5.843  -2.686   1.008  1.00  0.00     0.020 A 
HETATM   29  C18 UNL     1       4.829  -2.960   0.125  1.00  0.00     0.123 A 
HETATM   30  N6  UNL     1       3.749  -2.158   0.095  1.00  0.00    -0.240 N 
BRANCH  30  31
HETATM   31  O3  UNL     1       2.761  -2.482  -0.811  1.00  0.00    -0.283 OA
ATOM     32  H3  UNL     1       2.864  -3.240  -1.374  1.00  0.00     0.245 HD
ENDBRANCH  30  31
ENDBRANCH  24  25
ENDBRANCH  22  24
ENDBRANCH   1  19
TORSDOF 7
