REMARK  7 active torsions:
REMARK  status: ('A' for Active; 'I' for Inactive)
REMARK    1  A    between atoms: C2_2  and  C3_3 
REMARK    2  A    between atoms: C3_3  and  O1_4 
REMARK    3  A    between atoms: C3_3  and  N1_6 
REMARK    4  A    between atoms: C3_3  and  C10_17 
REMARK    5  A    between atoms: N1_6  and  C4_9 
REMARK    6  A    between atoms: C4_9  and  C5_10 
REMARK    7  A    between atoms: C5_10  and  N2_11 
ROOT
HETATM    1  N1  UNL     1      -0.804  -0.959  -0.005  1.00  0.00    -0.041 N 
ATOM      2  H11 UNL     1      -0.645  -1.608  -0.776  1.00  0.00     0.280 HD
ATOM      3  H12 UNL     1      -0.880  -1.621   0.767  1.00  0.00     0.280 HD
ENDROOT
BRANCH   1   4
HETATM    4  C3  UNL     1      -2.073  -0.241  -0.192  1.00  0.00     0.227 C 
BRANCH   4   5
HETATM    5  C2  UNL     1      -2.359   0.521   1.055  1.00  0.00     0.064 C 
HETATM    6  C1  UNL     1      -3.512   1.490   0.947  1.00  0.00     0.010 C 
ENDBRANCH   4   5
BRANCH   4   7
HETATM    7  O1  UNL     1      -1.777   0.653  -1.262  1.00  0.00    -0.365 OA
ATOM      8  H1  UNL     1      -1.595   0.167  -2.058  1.00  0.00     0.212 HD
ENDBRANCH   4   7
BRANCH   4   9
HETATM    9  C10 UNL     1      -3.127  -1.174  -0.670  1.00  0.00     0.049 A 
HETATM   10  C11 UNL     1      -4.501  -0.798  -1.050  1.00  0.00     0.010 A 
HETATM   11  C12 UNL     1      -4.222  -1.695   0.174  1.00  0.00     0.010 A 
ENDBRANCH   4   9
ENDBRANCH   1   4
BRANCH   1  12
HETATM   12  C4  UNL     1       0.321  -0.118   0.173  1.00  0.00     0.255 C 
BRANCH  12  13
HETATM   13  C5  UNL     1       1.628  -0.899   0.247  1.00  0.00     0.149 C 
BRANCH  13  14
HETATM   14  N2  UNL     1       2.688   0.025   0.427  1.00  0.00    -0.390 N 
HETATM   15  C6  UNL     1       3.012   0.893  -0.623  1.00  0.00     0.068 C 
HETATM   16  C7  UNL     1       4.349   0.660  -1.287  1.00  0.00     0.118 C 
HETATM   17  S1  UNL     1       5.615   0.949  -0.014  1.00  0.00    -0.162 SA
HETATM   18  C8  UNL     1       4.746   0.625   1.575  1.00  0.00     0.094 C 
HETATM   19  C9  UNL     1       3.727  -0.429   1.275  1.00  0.00     0.132 C 
ENDBRANCH  13  14
ENDBRANCH  12  13
ENDBRANCH   1  12
TORSDOF 7
