REMARK  6 active torsions:
REMARK  status: ('A' for Active; 'I' for Inactive)
REMARK    1  A    between atoms: C4_6  and  C5_7 
REMARK    2  A    between atoms: C5_7  and  O1_8 
REMARK    3  A    between atoms: C5_7  and  C6_10 
REMARK    4  A    between atoms: C5_7  and  C11_17 
REMARK    5  A    between atoms: C6_10  and  C7_11 
REMARK    6  A    between atoms: C9_13  and  C10_14 
ROOT
HETATM    1  C5  UNL     1      -0.121   0.007  -0.339  1.00  0.00     0.146 C 
ENDROOT
BRANCH   1   2
HETATM    2  C4  UNL     1      -0.130  -1.458  -0.312  1.00  0.00     0.121 A 
HETATM    3  N1  UNL     1       0.698  -2.261  -1.023  1.00  0.00    -0.351 N 
HETATM    4  C3  UNL     1       0.396  -3.548  -0.799  1.00  0.00     0.114 A 
ATOM      5  H1  UNL     1       1.442  -1.934  -1.639  1.00  0.00     0.166 HD
HETATM    6  C2  UNL     1      -0.648  -3.568   0.074  1.00  0.00     0.022 A 
HETATM    7  C1  UNL     1      -1.306  -4.787   0.597  1.00  0.00     0.069 C 
HETATM    8  N2  UNL     1      -0.951  -2.300   0.357  1.00  0.00    -0.346 N 
ATOM      9  H2  UNL     1      -1.696  -2.007   0.989  1.00  0.00     0.167 HD
ENDBRANCH   1   2
BRANCH   1  10
HETATM   10  O1  UNL     1      -0.483   0.198  -1.763  1.00  0.00    -0.377 OA
ATOM     11  H1  UNL     1      -0.477   1.148  -1.781  1.00  0.00     0.211 HD
ENDBRANCH   1  10
BRANCH   1  12
HETATM   12  C6  UNL     1       1.160   0.713  -0.300  1.00  0.00     0.057 C 
BRANCH  12  13
HETATM   13  C7  UNL     1       2.162   0.618   0.748  1.00  0.00     0.004 A 
HETATM   14  C8  UNL     1       2.958  -0.505   1.214  1.00  0.00     0.021 A 
HETATM   15  C9  UNL     1       3.609   0.458   0.295  1.00  0.00     0.091 A 
BRANCH  15  16
HETATM   16  C10 UNL     1       4.641   1.388   0.745  1.00  0.00     0.177 C 
HETATM   17  O2  UNL     1       4.566   1.922   1.878  1.00  0.00    -0.648 OA
HETATM   18  O3  UNL     1       5.709   1.694  -0.067  1.00  0.00    -0.648 OA
ENDBRANCH  15  16
ENDBRANCH  12  13
ENDBRANCH   1  12
BRANCH   1  19
HETATM   19  C11 UNL     1      -1.244   0.639   0.469  1.00  0.00     0.024 A 
HETATM   20  C12 UNL     1      -1.336   0.352   1.808  1.00  0.00     0.086 A 
HETATM   21 CL1  UNL     1      -0.323  -0.678   2.852  1.00  0.00    -0.075 Cl
HETATM   22  S1  UNL     1      -2.695   1.245   2.327  1.00  0.00    -0.073 SA
HETATM   23  C13 UNL     1      -3.123   1.963   0.859  1.00  0.00     0.058 A 
HETATM   24  C14 UNL     1      -4.163   2.851   0.554  1.00  0.00     0.157 A 
HETATM   25  C18 UNL     1      -2.196   1.498  -0.034  1.00  0.00    -0.002 A 
HETATM   26  F1  UNL     1      -5.024   3.245   1.515  1.00  0.00    -0.203 F 
HETATM   27  C15 UNL     1      -4.300   3.320  -0.731  1.00  0.00     0.095 A 
HETATM   28 CL2  UNL     1      -5.555   4.422  -1.207  1.00  0.00    -0.079 Cl
HETATM   29  C16 UNL     1      -3.396   2.877  -1.631  1.00  0.00     0.059 A 
HETATM   30 CL3  UNL     1      -3.511   3.441  -3.308  1.00  0.00    -0.082 Cl
HETATM   31  C17 UNL     1      -2.354   1.993  -1.345  1.00  0.00     0.039 A 
ENDBRANCH   1  19
TORSDOF 6
