REMARK  8 active torsions:
REMARK  status: ('A' for Active; 'I' for Inactive)
REMARK    1  A    between atoms: O1_1  and  C1_3 
REMARK    2  A    between atoms: C3_5  and  C4_6 
REMARK    3  A    between atoms: C4_6  and  O2_7 
REMARK    4  A    between atoms: C4_6  and  N1_9 
REMARK    5  A    between atoms: N1_9  and  C5_11 
REMARK    6  A    between atoms: N2_22  and  C16_23 
REMARK    7  A    between atoms: C16_23  and  C17_24 
REMARK    8  A    between atoms: C25_33  and  C26_35 
ROOT
HETATM    1  C1  UNL     1       1.611  -2.485  -1.523  1.00  0.00     0.142 A 
HETATM    2  C2  UNL     1       0.236  -2.563  -1.614  1.00  0.00     0.069 A 
HETATM    3  C3  UNL     1      -0.223  -1.912  -0.494  1.00  0.00     0.009 A 
HETATM    4  C15 UNL     1       0.863  -1.469   0.227  1.00  0.00     0.104 A 
HETATM    5  N2  UNL     1       1.986  -1.825  -0.411  1.00  0.00    -0.337 N 
ENDROOT
BRANCH   3   6
HETATM    6  C4  UNL     1      -1.680  -1.729  -0.134  1.00  0.00     0.250 C 
BRANCH   6   7
HETATM    7  O2  UNL     1      -1.763  -2.025   1.249  1.00  0.00    -0.373 OA
ATOM      8  H2  UNL     1      -2.678  -1.910   1.475  1.00  0.00     0.212 HD
ENDBRANCH   6   7
BRANCH   6   9
HETATM    9  N1  UNL     1      -2.002  -0.386  -0.409  1.00  0.00    -0.384 N 
ATOM     10  H1  UNL     1      -1.278   0.256  -0.732  1.00  0.00     0.156 HD
BRANCH   9  11
HETATM   11  C5  UNL     1      -3.325   0.071  -0.238  1.00  0.00     0.029 C 
HETATM   12  C6  UNL     1      -4.341  -0.597  -1.129  1.00  0.00     0.035 C 
HETATM   13  C7  UNL     1      -5.671   0.087  -0.922  1.00  0.00    -0.012 C 
HETATM   14  C8  UNL     1      -6.129  -0.084   0.501  1.00  0.00     0.009 C 
HETATM   15  C12 UNL     1      -5.619   1.551  -1.289  1.00  0.00     0.009 C 
HETATM   16  C9  UNL     1      -5.126   0.607   1.409  1.00  0.00    -0.012 C 
HETATM   17  C10 UNL     1      -5.054   2.062   1.070  1.00  0.00     0.009 C 
HETATM   18  C14 UNL     1      -3.799  -0.098   1.181  1.00  0.00     0.035 C 
HETATM   19  C11 UNL     1      -4.635   2.220  -0.380  1.00  0.00    -0.012 C 
HETATM   20  C13 UNL     1      -3.298   1.578  -0.541  1.00  0.00     0.035 C 
ENDBRANCH   9  11
ENDBRANCH   6   9
ENDBRANCH   3   6
BRANCH   1  21
HETATM   21  O1  UNL     1       2.452  -3.038  -2.487  1.00  0.00    -0.346 OA
ATOM     22  H1  UNL     1       3.398  -2.984  -2.424  1.00  0.00     0.219 HD
ENDBRANCH   1  21
BRANCH   5  23
HETATM   23  C16 UNL     1       3.325  -1.575  -0.015  1.00  0.00     0.143 C 
BRANCH  23  24
HETATM   24  C17 UNL     1       3.932  -0.325  -0.509  1.00  0.00     0.083 C 
HETATM   25  C18 UNL     1       5.331  -0.204  -0.028  1.00  0.00    -0.040 A 
HETATM   26  C19 UNL     1       6.265  -1.129   0.422  1.00  0.00     0.050 A 
HETATM   27  C23 UNL     1       5.649   1.134  -0.101  1.00  0.00    -0.048 A 
HETATM   28  C20 UNL     1       7.513  -0.710   0.796  1.00  0.00     0.117 A 
HETATM   29  F1  UNL     1       8.477  -1.545   1.245  1.00  0.00    -0.206 F 
HETATM   30  C21 UNL     1       7.822   0.631   0.720  1.00  0.00     0.043 A 
HETATM   31  C22 UNL     1       6.909   1.555   0.278  1.00  0.00     0.011 A 
HETATM   32  C24 UNL     1       4.454   1.906  -0.604  1.00  0.00     0.089 C 
HETATM   33  C25 UNL     1       3.338   0.964  -0.100  1.00  0.00     0.174 C 
HETATM   34  F2  UNL     1       2.159   1.242  -0.797  1.00  0.00    -0.236 F 
BRANCH  33  35
HETATM   35  C26 UNL     1       3.180   1.240   1.343  1.00  0.00     0.393 C 
HETATM   36  F3  UNL     1       2.598   2.515   1.446  1.00  0.00    -0.211 F 
HETATM   37  F4  UNL     1       4.352   1.335   2.063  1.00  0.00    -0.211 F 
ENDBRANCH  33  35
ENDBRANCH  23  24
ENDBRANCH   5  23
TORSDOF 8
