REMARK  7 active torsions:
REMARK  status: ('A' for Active; 'I' for Inactive)
REMARK    1  A    between atoms: C2_2  and  C3_3 
REMARK    2  A    between atoms: C2_2  and  O1_14 
REMARK    3  A    between atoms: C3_3  and  N1_4 
REMARK    4  A    between atoms: C7_8  and  N2_9 
REMARK    5  A    between atoms: O1_14  and  C9_15 
REMARK    6  A    between atoms: C9_15  and  C10_17 
REMARK       I    between atoms: C10_17  and  N3_19 
REMARK       I    between atoms: N3_19  and  C11_21 
REMARK    7  A    between atoms: C11_21  and  C12_23 
ROOT
HETATM    1  C9  UNL     1       0.576  -0.548   0.612  1.00  0.00     0.352 C 
HETATM    2  O2  UNL     1       0.550   0.706   0.609  1.00  0.00    -0.254 OA
ENDROOT
BRANCH   1   3
HETATM    3  O1  UNL     1       1.816  -1.152   0.728  1.00  0.00    -0.303 OA
BRANCH   3   4
HETATM    4  C2  UNL     1       2.984  -0.364   0.838  1.00  0.00     0.167 C 
HETATM    5  C1  UNL     1       3.667  -0.763   2.119  1.00  0.00     0.046 C 
BRANCH   4   6
HETATM    6  C3  UNL     1       3.824  -0.642  -0.380  1.00  0.00     0.100 C 
BRANCH   6   7
HETATM    7  N1  UNL     1       5.039   0.054  -0.448  1.00  0.00    -0.350 N 
HETATM    8  C4  UNL     1       5.041   1.431  -0.627  1.00  0.00     0.068 C 
HETATM    9  C5  UNL     1       6.361   1.896  -1.199  1.00  0.00     0.047 C 
HETATM   10  C6  UNL     1       7.433   1.400  -0.241  1.00  0.00     0.043 C 
HETATM   11  C7  UNL     1       7.489  -0.102  -0.332  1.00  0.00     0.222 C 
HETATM   12  C8  UNL     1       6.180  -0.721  -0.715  1.00  0.00     0.100 C 
BRANCH  11  13
HETATM   13  N2  UNL     1       7.936  -0.594   0.959  1.00  0.00    -0.070 N 
ATOM     14  H23 UNL     1       8.817  -0.179   1.261  1.00  0.00     0.275 HD
ATOM     15  H22 UNL     1       7.362  -0.262   1.734  1.00  0.00     0.275 HD
ATOM     16  H21 UNL     1       7.974  -1.611   0.897  1.00  0.00     0.275 HD
ENDBRANCH  11  13
ENDBRANCH   6   7
ENDBRANCH   4   6
ENDBRANCH   3   4
ENDBRANCH   1   3
BRANCH   1  17
HETATM   17  C10 UNL     1      -0.664  -1.319   0.496  1.00  0.00     0.323 C 
HETATM   18  O3  UNL     1      -0.672  -2.566   0.499  1.00  0.00    -0.261 OA
HETATM   19  N3  UNL     1      -1.893  -0.628   0.375  1.00  0.00    -0.288 N 
HETATM   20  C11 UNL     1      -3.096  -1.343   0.263  1.00  0.00     0.233 C 
ATOM     21  H3  UNL     1      -1.905   0.392   0.369  1.00  0.00     0.172 HD
HETATM   22  O4  UNL     1      -3.058  -2.602   0.272  1.00  0.00    -0.272 OA
BRANCH  20  23
HETATM   23  C12 UNL     1      -4.378  -0.602   0.135  1.00  0.00     0.042 C 
HETATM   24  C13 UNL     1      -4.562   0.261   1.345  1.00  0.00     0.024 C 
HETATM   25  C14 UNL     1      -5.850   1.064   1.199  1.00  0.00    -0.013 C 
HETATM   26  C15 UNL     1      -5.728   1.894  -0.048  1.00  0.00     0.009 C 
HETATM   27  C19 UNL     1      -6.971   0.057   1.098  1.00  0.00     0.009 C 
HETATM   28  C16 UNL     1      -5.590   0.991  -1.259  1.00  0.00    -0.013 C 
HETATM   29  C17 UNL     1      -6.730   0.013  -1.381  1.00  0.00     0.009 C 
HETATM   30  C21 UNL     1      -4.294   0.237  -1.104  1.00  0.00     0.024 C 
HETATM   31  C18 UNL     1      -6.813  -0.806  -0.116  1.00  0.00    -0.013 C 
HETATM   32  C20 UNL     1      -5.511  -1.592  -0.015  1.00  0.00     0.024 C 
ENDBRANCH  20  23
ENDBRANCH   1  17
TORSDOF 7
