REMARK  5 active torsions:
REMARK  status: ('A' for Active; 'I' for Inactive)
REMARK    1  A    between atoms: C2_2  and  C4_4 
REMARK    2  A    between atoms: C4_4  and  C5_5 
REMARK    3  A    between atoms: C5_5  and  O1_6 
REMARK    4  A    between atoms: C9_11  and  O2_12 
REMARK    5  A    between atoms: C22_27  and  O4_28 
ROOT
HETATM    1  C4  UNL     1       2.292  -0.280   0.331  1.00  0.00     0.041 C 
HETATM    2  C6  UNL     1       2.569   0.703  -0.818  1.00  0.00     0.049 C 
HETATM    3  C7  UNL     1       2.149   2.088  -0.491  1.00  0.00    -0.020 C 
HETATM    4  C8  UNL     1       1.134   2.751   0.038  1.00  0.00     0.001 C 
HETATM    5  C9  UNL     1      -0.188   2.472   0.615  1.00  0.00     0.148 C 
HETATM    6  C10 UNL     1      -0.752   1.154   0.463  1.00  0.00     0.064 C 
HETATM    7  C11 UNL     1      -1.994   0.972  -0.402  1.00  0.00    -0.028 C 
HETATM    8  C12 UNL     1      -2.089   1.819  -1.631  1.00  0.00     0.016 C 
HETATM    9  C13 UNL     1      -3.209   1.110   0.419  1.00  0.00     0.010 C 
HETATM   10  C14 UNL     1      -3.763  -0.045   1.129  1.00  0.00     0.002 C 
HETATM   11  C15 UNL     1      -2.861  -1.218   1.301  1.00  0.00     0.009 C 
HETATM   12  C16 UNL     1      -2.204  -1.466  -0.031  1.00  0.00    -0.040 C 
HETATM   13  C17 UNL     1      -3.475  -1.701  -0.915  1.00  0.00     0.015 C 
HETATM   14  C18 UNL     1      -1.593  -2.833   0.013  1.00  0.00     0.015 C 
HETATM   15  C19 UNL     1      -1.462  -0.412  -0.678  1.00  0.00     0.040 C 
HETATM   16  C20 UNL     1      -0.119   0.124  -0.382  1.00  0.00     0.100 C 
HETATM   17  O3  UNL     1       0.414   0.722  -1.521  1.00  0.00    -0.376 OA
HETATM   18  C21 UNL     1       1.626   0.214  -1.912  1.00  0.00     0.178 C 
HETATM   19  C22 UNL     1       0.864  -0.671   0.394  1.00  0.00     0.169 C 
ENDROOT
BRANCH   1  20
HETATM   20  C2  UNL     1       3.231  -1.410   0.047  1.00  0.00    -0.079 C 
HETATM   21  C1  UNL     1       2.845  -2.622   0.469  1.00  0.00     0.015 C 
HETATM   22  C3  UNL     1       4.549  -1.264  -0.626  1.00  0.00     0.043 C 
ENDBRANCH   1  20
BRANCH   1  23
HETATM   23  C5  UNL     1       2.859   0.398   1.554  1.00  0.00     0.181 C 
BRANCH  23  24
HETATM   24  O1  UNL     1       4.130   0.865   1.264  1.00  0.00    -0.400 OA
ATOM     25  H1  UNL     1       4.487   1.292   2.034  1.00  0.00     0.209 HD
ENDBRANCH  23  24
ENDBRANCH   1  23
BRANCH  19  26
HETATM   26  O4  UNL     1       0.558  -0.820   1.742  1.00  0.00    -0.391 OA
ATOM     27  H4  UNL     1      -0.357  -1.071   1.782  1.00  0.00     0.210 HD
ENDBRANCH  19  26
BRANCH   5  28
HETATM   28  O2  UNL     1      -1.094   3.509   0.277  1.00  0.00    -0.391 OA
ATOM     29  H2  UNL     1      -1.949   3.329   0.650  1.00  0.00     0.210 HD
ENDBRANCH   5  28
TORSDOF 5
