REMARK  4 active torsions:
REMARK  status: ('A' for Active; 'I' for Inactive)
REMARK    1  A    between atoms: C2_2  and  O1_4 
REMARK    2  A    between atoms: C2_2  and  N1_6 
REMARK    3  A    between atoms: N1_6  and  C4_8 
REMARK    4  A    between atoms: C4_8  and  C5_9 
ROOT
HETATM    1  C5  UNL     1      -0.226  -0.562  -0.191  1.00  0.00     0.008 C 
HETATM    2  C6  UNL     1      -0.510   0.050   1.178  1.00  0.00     0.012 C 
HETATM    3  C7  UNL     1      -2.001  -0.062   1.234  1.00  0.00    -0.006 C 
HETATM    4  C8  UNL     1      -2.365  -1.501   0.959  1.00  0.00     0.006 C 
HETATM    5  C9  UNL     1      -2.301  -1.678  -0.558  1.00  0.00     0.006 C 
HETATM    6  C10 UNL     1      -1.525  -0.412  -0.924  1.00  0.00    -0.001 C 
HETATM    7  C11 UNL     1      -2.376   0.561  -0.110  1.00  0.00    -0.040 C 
HETATM    8  C12 UNL     1      -3.850   0.362  -0.398  1.00  0.00     0.015 C 
HETATM    9  C13 UNL     1      -1.972   1.979  -0.240  1.00  0.00     0.015 C 
ENDROOT
BRANCH   1  10
HETATM   10  C4  UNL     1       0.952   0.070  -0.869  1.00  0.00     0.121 C 
BRANCH  10  11
HETATM   11  N1  UNL     1       2.018   0.023   0.103  1.00  0.00    -0.392 N 
ATOM     12  H1  UNL     1       1.847  -0.187   1.086  1.00  0.00     0.156 HD
BRANCH  11  13
HETATM   13  C2  UNL     1       3.321   0.288  -0.399  1.00  0.00     0.120 C 
HETATM   14  C1  UNL     1       4.013   1.207   0.601  1.00  0.00     0.070 C 
HETATM   15  C3  UNL     1       4.095  -1.025  -0.350  1.00  0.00     0.070 C 
BRANCH  13  16
HETATM   16  O1  UNL     1       3.384   0.900  -1.626  1.00  0.00    -0.372 OA
ATOM     17  H1  UNL     1       2.953   0.327  -2.249  1.00  0.00     0.212 HD
ENDBRANCH  13  16
ENDBRANCH  11  13
ENDBRANCH  10  11
ENDBRANCH   1  10
TORSDOF 4
