REMARK  8 active torsions:
REMARK  status: ('A' for Active; 'I' for Inactive)
REMARK    1  A    between atoms: C2_2  and  C4_4 
REMARK       I    between atoms: C4_4  and  N1_6 
REMARK    2  A    between atoms: N1_6  and  C5_8 
REMARK    3  A    between atoms: C7_13  and  C8_14 
REMARK    4  A    between atoms: C8_14  and  C9_15 
REMARK       I    between atoms: C9_15  and  N4_17 
REMARK    5  A    between atoms: N4_17  and  C10_19 
REMARK    6  A    between atoms: C11_22  and  C12_23 
REMARK    7  A    between atoms: C12_23  and  N6_25 
REMARK    8  A    between atoms: C12_23  and  O3_29 
ROOT
HETATM    1  C9  UNL     1       1.276  -1.014   0.356  1.00  0.00     0.228 C 
HETATM    2  O2  UNL     1       0.890  -1.059   1.548  1.00  0.00    -0.273 OA
HETATM    3  N4  UNL     1       2.617  -1.332   0.081  1.00  0.00    -0.307 N 
ATOM      4  H4  UNL     1       2.851  -2.278  -0.222  1.00  0.00     0.171 HD
ENDROOT
BRANCH   1   5
HETATM    5  C8  UNL     1       0.400  -0.659  -0.748  1.00  0.00     0.152 C 
BRANCH   5   6
HETATM    6  C7  UNL     1      -1.045  -0.511  -0.403  1.00  0.00     0.036 A 
HETATM    7  C6  UNL     1      -1.946  -1.515  -0.122  1.00  0.00     0.132 A 
HETATM    8  N2  UNL     1      -3.168  -1.203   0.110  1.00  0.00    -0.324 N 
HETATM    9  N3  UNL     1      -1.443  -2.893  -0.113  1.00  0.00    -0.082 NA
HETATM   10  C5  UNL     1      -3.531   0.113   0.069  1.00  0.00     0.152 A 
ATOM     11  H2  UNL     1      -3.857  -1.925   0.321  1.00  0.00     0.169 HD
HETATM   12  S2  UNL     1      -2.036   0.870  -0.314  1.00  0.00    -0.054 SA
BRANCH  10  13
HETATM   13  N1  UNL     1      -4.693   0.557   0.233  1.00  0.00    -0.307 N 
HETATM   14  C4  UNL     1      -5.503   1.577   0.297  1.00  0.00     0.227 C 
HETATM   15  O1  UNL     1      -5.098   2.787   0.430  1.00  0.00    -0.273 OA
ATOM     16  H1  UNL     1      -5.278  -0.264   0.389  1.00  0.00     0.171 HD
BRANCH  14  17
HETATM   17  C2  UNL     1      -7.002   1.388   0.221  1.00  0.00     0.070 C 
HETATM   18  C1  UNL     1      -7.472   0.517   1.358  1.00  0.00     0.019 C 
HETATM   19  C3  UNL     1      -7.356   0.680  -1.093  1.00  0.00     0.019 C 
ENDBRANCH  14  17
ENDBRANCH  10  13
ENDBRANCH   5   6
ENDBRANCH   1   5
BRANCH   3  20
HETATM   20  C10 UNL     1       3.569  -0.452   0.202  1.00  0.00     0.151 A 
HETATM   21  N5  UNL     1       4.870  -0.633  -0.032  1.00  0.00    -0.335 N 
HETATM   22  C11 UNL     1       5.683   0.374   0.152  1.00  0.00     0.080 A 
ATOM     23  H5  UNL     1       5.222  -1.537  -0.347  1.00  0.00     0.168 HD
HETATM   24  C14 UNL     1       5.139   1.559   0.577  1.00  0.00     0.083 A 
HETATM   25  S1  UNL     1       3.487   1.179   0.696  1.00  0.00    -0.064 SA
BRANCH  22  26
HETATM   26  C12 UNL     1       7.183   0.214  -0.105  1.00  0.00     0.262 C 
HETATM   27  C13 UNL     1       7.819   1.553  -0.114  1.00  0.00     0.085 C 
BRANCH  26  28
HETATM   28  N6  UNL     1       7.688  -0.646   0.923  1.00  0.00    -0.042 N 
ATOM     29  H63 UNL     1       7.474  -0.317   1.864  1.00  0.00     0.278 HD
ATOM     30  H62 UNL     1       7.193  -1.536   0.983  1.00  0.00     0.278 HD
ATOM     31  H61 UNL     1       8.688  -0.753   0.752  1.00  0.00     0.278 HD
ENDBRANCH  26  28
BRANCH  26  32
HETATM   32  O3  UNL     1       7.353  -0.347  -1.375  1.00  0.00    -0.361 OA
ATOM     33  H3  UNL     1       8.284  -0.446  -1.535  1.00  0.00     0.213 HD
ENDBRANCH  26  32
ENDBRANCH  22  26
ENDBRANCH   3  20
TORSDOF 8
