REMARK  2 active torsions:
REMARK  status: ('A' for Active; 'I' for Inactive)
REMARK    1  A    between atoms: C2_2  and  N1_3 
REMARK    2  A    between atoms: N3_12  and  O1_13 
ROOT
HETATM    1  N1  UNL     1       1.420  -0.485  -1.058  1.00  0.00    -0.224 N 
ATOM      2  H1  UNL     1       1.638  -1.195  -1.757  1.00  0.00     0.177 HD
HETATM    3  C3  UNL     1       0.201  -0.425  -0.767  1.00  0.00     0.704 A 
HETATM    4  N2  UNL     1      -0.614  -1.305  -1.424  1.00  0.00    -0.200 N 
ATOM      5  H2  UNL     1      -0.200  -1.948  -2.099  1.00  0.00     0.183 HD
HETATM    6  C4  UNL     1      -1.939  -1.354  -1.214  1.00  0.00     0.108 A 
HETATM    7  C5  UNL     1      -2.483  -0.475  -0.296  1.00  0.00     0.045 A 
HETATM    8  C6  UNL     1      -1.691   0.429   0.387  1.00  0.00     0.056 A 
HETATM    9  C7  UNL     1      -2.284   1.378   1.379  1.00  0.00     0.071 C 
HETATM   10  N3  UNL     1      -0.373   0.405   0.110  1.00  0.00    -0.057 N 
ENDROOT
BRANCH   1  11
HETATM   11  C2  UNL     1       2.543   0.228  -0.615  1.00  0.00     0.134 C 
HETATM   12  C1  UNL     1       3.102  -0.258   0.725  1.00  0.00     0.027 C 
ENDBRANCH   1  11
BRANCH  10  13
HETATM   13  O1  UNL     1       0.416   1.289   0.776  1.00  0.00    -0.269 OA
ATOM     14  H1  UNL     1       0.008   1.879   1.399  1.00  0.00     0.245 HD
ENDBRANCH  10  13
TORSDOF 2
