REMARK  5 active torsions:
REMARK  status: ('A' for Active; 'I' for Inactive)
REMARK    1  A    between atoms: O1_2  and  C2_3 
REMARK    2  A    between atoms: C6_9  and  N2_10 
REMARK    3  A    between atoms: C11_16  and  C12_17 
REMARK    4  A    between atoms: C12_17  and  N3_18 
REMARK    5  A    between atoms: N3_18  and  C13_20 
ROOT
HETATM    1  C2  UNL     1      -2.188   1.441  -0.731  1.00  0.00     0.113 A 
HETATM    2  C3  UNL     1      -1.158   2.385  -0.760  1.00  0.00     0.058 A 
HETATM    3  C4  UNL     1       0.103   2.036  -0.327  1.00  0.00     0.039 A 
HETATM    4  C5  UNL     1       0.265   0.738   0.118  1.00  0.00     0.076 A 
HETATM    5  N1  UNL     1      -0.745  -0.147   0.133  1.00  0.00    -0.338 N 
ATOM      6  H1  UNL     1      -0.565  -1.092   0.472  1.00  0.00     0.167 HD
HETATM    7  C6  UNL     1      -2.000   0.171  -0.288  1.00  0.00     0.138 A 
HETATM    8  C11 UNL     1       1.664   0.621   0.513  1.00  0.00     0.077 A 
HETATM    9  N7  UNL     1       2.336   1.851   0.304  1.00  0.00    -0.339 N 
ATOM     10  H7  UNL     1       3.318   2.051   0.494  1.00  0.00     0.167 HD
HETATM   11  C16 UNL     1       1.371   2.749  -0.223  1.00  0.00     0.112 A 
HETATM   12  N8  UNL     1       1.625   3.971  -0.539  1.00  0.00    -0.385 N 
ATOM     13  H81 UNL     1       2.512   4.470  -0.466  1.00  0.00     0.157 HD
ATOM     14  H82 UNL     1       0.932   4.616  -0.918  1.00  0.00     0.157 HD
ENDROOT
BRANCH   8  15
HETATM   15  C12 UNL     1       2.234  -0.462   0.997  1.00  0.00     0.121 C 
BRANCH  15  16
HETATM   16  N3  UNL     1       3.606  -0.484   1.356  1.00  0.00    -0.347 N 
ATOM     17  H3  UNL     1       3.942   0.067   2.146  1.00  0.00     0.167 HD
BRANCH  16  18
HETATM   18  C13 UNL     1       4.506  -1.282   0.603  1.00  0.00     0.148 A 
HETATM   19  N4  UNL     1       4.246  -2.063  -0.455  1.00  0.00    -0.336 N 
HETATM   20  C14 UNL     1       5.378  -2.651  -0.877  1.00  0.00     0.183 A 
ATOM     21  H4  UNL     1       3.326  -2.192  -0.877  1.00  0.00     0.168 HD
HETATM   22  N5  UNL     1       6.351  -2.225  -0.065  1.00  0.00    -0.338 N 
HETATM   23  C15 UNL     1       5.850  -1.383   0.855  1.00  0.00     0.161 A 
ATOM     24  H5  UNL     1       7.331  -2.499  -0.134  1.00  0.00     0.168 HD
HETATM   25  N6  UNL     1       6.632  -0.759   1.863  1.00  0.00    -0.079 NA
ENDBRANCH  16  18
ENDBRANCH  15  16
ENDBRANCH   8  15
BRANCH   7  26
HETATM   26  N2  UNL     1      -2.960  -0.838  -0.242  1.00  0.00    -0.361 N 
HETATM   27  C7  UNL     1      -2.679  -2.113   0.484  1.00  0.00     0.151 C 
HETATM   28  C8  UNL     1      -4.006  -2.498   1.105  1.00  0.00     0.187 C 
HETATM   29  O2  UNL     1      -4.782  -1.390   1.414  1.00  0.00    -0.388 OA
HETATM   30  C9  UNL     1      -5.237  -0.669   0.340  1.00  0.00     0.187 C 
HETATM   31  C10 UNL     1      -4.277  -0.850  -0.836  1.00  0.00     0.151 C 
ENDBRANCH   7  26
BRANCH   1  32
HETATM   32  O1  UNL     1      -3.409   1.843  -1.167  1.00  0.00    -0.352 OA
HETATM   33  C1  UNL     1      -3.639   3.151  -1.632  1.00  0.00     0.210 C 
ENDBRANCH   1  32
TORSDOF 5
