REMARK  5 active torsions:
REMARK  status: ('A' for Active; 'I' for Inactive)
REMARK    1  A    between atoms: C3_8  and  N3_9 
REMARK    2  A    between atoms: C10_21  and  N6_22 
REMARK    3  A    between atoms: N6_22  and  C11_24 
REMARK    4  A    between atoms: N7_27  and  C14_28 
REMARK    5  A    between atoms: C14_28  and  O2_29 
ROOT
HETATM    1  O1  UNL     1       0.437  -4.999   4.040  1.00  0.00    -0.247 OA
HETATM    2  C1  UNL     1       0.425  -3.969   3.302  1.00  0.00     0.326 A 
HETATM    3  N1  UNL     1       1.312  -2.959   3.271  1.00  0.00    -0.292 N 
ATOM      4  H1  UNL     1       2.143  -2.882   3.858  1.00  0.00     0.172 HD
HETATM    5  C2  UNL     1       0.921  -2.052   2.327  1.00  0.00     0.155 A 
HETATM    6  N2  UNL     1       1.452  -0.888   1.913  1.00  0.00    -0.174 N 
ATOM      7  H2  UNL     1       2.314  -0.544   2.335  1.00  0.00     0.186 HD
HETATM    8  C3  UNL     1       0.842  -0.166   0.931  1.00  0.00     0.683 A 
HETATM    9  N5  UNL     1      -0.288  -0.690   0.429  1.00  0.00    -0.174 N 
ATOM     10  H5  UNL     1      -0.753  -0.158  -0.307  1.00  0.00     0.186 HD
HETATM   11  C10 UNL     1      -0.864  -1.837   0.796  1.00  0.00     0.148 A 
HETATM   12  C16 UNL     1      -0.239  -2.580   1.805  1.00  0.00     0.126 A 
HETATM   13  N8  UNL     1      -0.544  -3.749   2.397  1.00  0.00    -0.302 N 
ATOM     14  H8  UNL     1      -1.347  -4.346   2.199  1.00  0.00     0.171 HD
ENDROOT
BRANCH   8  15
HETATM   15  N3  UNL     1       1.393   1.062   0.487  1.00  0.00    -0.216 N 
HETATM   16  C4  UNL     1       0.619   1.657  -0.564  1.00  0.00     0.141 C 
HETATM   17  C5  UNL     1       1.376   1.660  -1.885  1.00  0.00     0.022 C 
HETATM   18  C6  UNL     1       2.383   2.784  -1.957  1.00  0.00     0.029 C 
HETATM   19  C7  UNL     1       3.747   2.168  -1.712  1.00  0.00     0.232 C 
HETATM   20  N4  UNL     1       3.639   0.931  -0.964  1.00  0.00    -0.074 N 
HETATM   21  C8  UNL     1       3.853   1.110   0.438  1.00  0.00     0.252 C 
ATOM     22  H42 UNL     1       2.745   0.474  -1.141  1.00  0.00     0.277 HD
ATOM     23  H41 UNL     1       4.266   0.220  -1.341  1.00  0.00     0.277 HD
HETATM   24  C9  UNL     1       2.591   1.414   1.193  1.00  0.00     0.168 C 
ENDBRANCH   8  15
BRANCH  11  25
HETATM   25  N6  UNL     1      -2.051  -2.343   0.220  1.00  0.00    -0.367 N 
ATOM     26  H6  UNL     1      -2.364  -3.242   0.587  1.00  0.00     0.161 HD
BRANCH  25  27
HETATM   27  C11 UNL     1      -2.868  -1.785  -0.791  1.00  0.00     0.113 C 
HETATM   28  C12 UNL     1      -2.159  -1.420  -2.077  1.00  0.00     0.057 C 
HETATM   29  C13 UNL     1      -2.986  -0.271  -2.611  1.00  0.00     0.277 C 
HETATM   30  N7  UNL     1      -3.752   0.278  -1.540  1.00  0.00     0.113 N 
HETATM   31  C15 UNL     1      -3.423  -0.460  -0.338  1.00  0.00     0.300 C 
BRANCH  30  32
HETATM   32  C14 UNL     1      -3.574   1.701  -1.404  1.00  0.00     0.437 C 
BRANCH  32  33
HETATM   33  O2  UNL     1      -4.310   2.243  -0.367  1.00  0.00    -0.373 OA
ATOM     34  H2  UNL     1      -4.193   3.181  -0.277  1.00  0.00     0.211 HD
ENDBRANCH  32  33
ENDBRANCH  30  32
ENDBRANCH  25  27
ENDBRANCH  11  25
TORSDOF 5
