REMARK  17 active torsions:
REMARK  status: ('A' for Active; 'I' for Inactive)
REMARK    1  A    between atoms: O1_2  and  C2_3 
REMARK    2  A    between atoms: C2_3  and  C3_4 
REMARK    3  A    between atoms: C3_4  and  O2_5 
REMARK    4  A    between atoms: C4_7  and  O3_8 
REMARK    5  A    between atoms: O3_8  and  C5_9 
REMARK    6  A    between atoms: C7_12  and  N1_13 
REMARK    7  A    between atoms: C9_15  and  C10_16 
REMARK    8  A    between atoms: C10_16  and  O6_18 
REMARK    9  A    between atoms: O6_18  and  C11_19 
REMARK   10  A    between atoms: C15_26  and  N4_27 
REMARK   11  A    between atoms: C18_37  and  O9_38 
REMARK   12  A    between atoms: C18_37  and  C19_40 
REMARK   13  A    between atoms: C19_40  and  O10_41 
REMARK   14  A    between atoms: C19_40  and  C20_43 
REMARK   15  A    between atoms: C20_43  and  O11_44 
REMARK   16  A    between atoms: C20_43  and  C21_46 
REMARK   17  A    between atoms: C21_46  and  O12_47 
ROOT
HETATM    1  C2  UNL     1      -2.701   0.521  -0.914  1.00  0.00     0.170 C 
HETATM    2  C4  UNL     1      -1.506   1.146  -0.295  1.00  0.00     0.223 C 
HETATM    3  C7  UNL     1      -1.057   0.110   0.697  1.00  0.00     0.265 C 
HETATM    4  O8  UNL     1      -1.220  -1.072  -0.054  1.00  0.00    -0.322 OA
HETATM    5  C18 UNL     1      -2.352  -0.961  -0.801  1.00  0.00     0.229 C 
ENDROOT
BRANCH   3   6
HETATM    6  N1  UNL     1       0.368   0.229   0.930  1.00  0.00    -0.311 N 
HETATM    7  C8  UNL     1       1.230  -0.334   0.035  1.00  0.00     0.117 A 
HETATM    8  C9  UNL     1       2.599  -0.278   0.164  1.00  0.00     0.106 A 
HETATM    9  C13 UNL     1       3.112   0.385   1.260  1.00  0.00     0.207 A 
HETATM   10  O7  UNL     1       4.350   0.474   1.440  1.00  0.00    -0.286 OA
HETATM   11  C14 UNL     1       2.270   0.965   2.184  1.00  0.00     0.103 A 
HETATM   12  C15 UNL     1       2.802   1.633   3.288  1.00  0.00     0.117 A 
HETATM   13  C17 UNL     1       0.907   0.862   1.979  1.00  0.00     0.128 A 
HETATM   14  N5  UNL     1       1.918   2.172   4.142  1.00  0.00    -0.338 N 
HETATM   15  C16 UNL     1       0.591   2.081   3.957  1.00  0.00     0.183 A 
ATOM     16  H5  UNL     1       2.267   2.669   4.962  1.00  0.00     0.168 HD
HETATM   17  N6  UNL     1       0.112   1.428   2.879  1.00  0.00    -0.337 N 
ATOM     18  H6  UNL     1      -0.898   1.367   2.750  1.00  0.00     0.168 HD
BRANCH   8  19
HETATM   19  C10 UNL     1       3.497  -0.889  -0.808  1.00  0.00     0.300 C 
HETATM   20  O5  UNL     1       2.993  -1.483  -1.791  1.00  0.00    -0.259 OA
BRANCH  19  21
HETATM   21  O6  UNL     1       4.873  -0.846  -0.699  1.00  0.00    -0.292 OA
BRANCH  21  22
HETATM   22  C11 UNL     1       5.728  -1.446  -1.656  1.00  0.00     0.256 C 
HETATM   23  C12 UNL     1       6.850  -2.274  -1.081  1.00  0.00     0.181 C 
HETATM   24  N2  UNL     1       7.698  -1.647  -2.084  1.00  0.00    -0.142 NA
HETATM   25  N3  UNL     1       6.811  -0.572  -2.096  1.00  0.00    -0.114 NA
ENDBRANCH  21  22
ENDBRANCH  19  21
ENDBRANCH   8  19
BRANCH  12  26
HETATM   26  N4  UNL     1       4.066   1.682   3.403  1.00  0.00    -0.385 N 
ATOM     27  H42 UNL     1       4.738   1.272   2.754  1.00  0.00     0.157 HD
ATOM     28  H41 UNL     1       4.455   2.170   4.210  1.00  0.00     0.157 HD
ENDBRANCH  12  26
ENDBRANCH   3   6
BRANCH   2  29
HETATM   29  O3  UNL     1      -1.642   2.433   0.178  1.00  0.00    -0.308 OA
BRANCH  29  30
HETATM   30  C5  UNL     1      -0.898   3.532  -0.260  1.00  0.00     0.255 C 
HETATM   31  C6  UNL     1      -1.120   4.888   0.317  1.00  0.00     0.126 C 
HETATM   32  O4  UNL     1      -0.040   3.335  -1.153  1.00  0.00    -0.266 OA
ENDBRANCH  29  30
ENDBRANCH   2  29
BRANCH   1  33
HETATM   33  O1  UNL     1      -3.898   0.717  -0.378  1.00  0.00    -0.374 OA
HETATM   34  C1  UNL     1      -4.509   1.909  -0.322  1.00  0.00     0.203 C 
ENDBRANCH   1  33
BRANCH   1  35
HETATM   35  C3  UNL     1      -2.734   0.923  -2.378  1.00  0.00     0.211 C 
BRANCH  35  36
HETATM   36  O2  UNL     1      -3.689   0.143  -3.040  1.00  0.00    -0.398 OA
ATOM     37  H2  UNL     1      -3.710   0.394  -3.956  1.00  0.00     0.209 HD
ENDBRANCH  35  36
ENDBRANCH   1  35
BRANCH   5  38
HETATM   38  O9  UNL     1      -2.081  -1.455  -2.078  1.00  0.00    -0.361 OA
ATOM     39  H9  UNL     1      -1.864  -2.377  -2.008  1.00  0.00     0.213 HD
ENDBRANCH   5  38
BRANCH   5  40
HETATM   40  C19 UNL     1      -3.494  -1.741  -0.189  1.00  0.00     0.214 C 
BRANCH  40  41
HETATM   41  O10 UNL     1      -3.751  -1.259   1.075  1.00  0.00    -0.387 OA
ATOM     42  H10 UNL     1      -4.468  -1.749   1.459  1.00  0.00     0.210 HD
ENDBRANCH  40  41
BRANCH  40  43
HETATM   43  C20 UNL     1      -3.258  -3.212  -0.173  1.00  0.00     0.175 C 
BRANCH  43  44
HETATM   44  O11 UNL     1      -2.996  -3.738  -1.414  1.00  0.00    -0.391 OA
ATOM     45  H11 UNL     1      -2.846  -4.676  -1.404  1.00  0.00     0.210 HD
ENDBRANCH  43  44
BRANCH  43  46
HETATM   46  C21 UNL     1      -2.218  -3.664   0.811  1.00  0.00     0.198 C 
BRANCH  46  47
HETATM   47  O12 UNL     1      -2.410  -3.176   2.082  1.00  0.00    -0.398 OA
ATOM     48  H12 UNL     1      -1.752  -3.462   2.705  1.00  0.00     0.209 HD
ENDBRANCH  46  47
ENDBRANCH  43  46
ENDBRANCH  40  43
ENDBRANCH   5  40
TORSDOF 17
