REMARK  8 active torsions:
REMARK  status: ('A' for Active; 'I' for Inactive)
REMARK    1  A    between atoms: C2_2  and  C3_4 
REMARK    2  A    between atoms: C3_4  and  N1_5 
REMARK    3  A    between atoms: C3_4  and  C4_9 
REMARK    4  A    between atoms: C4_9  and  S1_10 
REMARK    5  A    between atoms: S1_10  and  C5_11 
REMARK    6  A    between atoms: C6_14  and  C7_15 
REMARK    7  A    between atoms: C8_18  and  C9_19 
REMARK       I    between atoms: C9_19  and  N4_21 
REMARK       I    between atoms: N4_21  and  C10_23 
REMARK    8  A    between atoms: C11_28  and  N7_29 
ROOT
HETATM    1  C5  UNL     1       0.548  -0.625  -1.128  1.00  0.00     0.146 A 
HETATM    2  N2  UNL     1      -0.333  -1.501  -0.661  1.00  0.00    -0.332 N 
ATOM      3  H2  UNL     1      -0.103  -2.493  -0.716  1.00  0.00     0.168 HD
HETATM    4  C6  UNL     1      -1.541  -1.142  -0.107  1.00  0.00     0.119 A 
HETATM    5  C8  UNL     1      -1.854   0.153  -0.036  1.00  0.00     0.107 A 
HETATM    6  C11 UNL     1      -0.931   1.085  -0.523  1.00  0.00     0.119 A 
HETATM    7  N8  UNL     1       0.222   0.669  -1.045  1.00  0.00    -0.322 N 
ATOM      8  H8  UNL     1       0.881   1.364  -1.395  1.00  0.00     0.169 HD
ENDROOT
BRANCH   1   9
HETATM    9  S1  UNL     1       2.079  -1.124  -1.824  1.00  0.00    -0.091 SA
BRANCH   9  10
HETATM   10  C4  UNL     1       3.417  -1.249  -0.648  1.00  0.00     0.123 C 
BRANCH  10  11
HETATM   11  C3  UNL     1       3.831   0.075  -0.049  1.00  0.00     0.261 C 
BRANCH  11  12
HETATM   12  C2  UNL     1       4.944  -0.135   0.913  1.00  0.00     0.154 C 
HETATM   13  C1  UNL     1       6.260   0.523   0.751  1.00  0.00     0.093 C 
HETATM   14  O1  UNL     1       4.785  -0.869   1.869  1.00  0.00    -0.296 OA
ENDBRANCH  11  12
BRANCH  11  15
HETATM   15  N1  UNL     1       4.305   0.995  -1.063  1.00  0.00    -0.068 N 
ATOM     16  H13 UNL     1       4.665   1.866  -0.674  1.00  0.00     0.275 HD
ATOM     17  H12 UNL     1       5.167   0.684  -1.512  1.00  0.00     0.275 HD
ATOM     18  H11 UNL     1       3.541   1.139  -1.723  1.00  0.00     0.275 HD
ENDBRANCH  11  15
ENDBRANCH  10  11
ENDBRANCH   9  10
ENDBRANCH   1   9
BRANCH   4  19
HETATM   19  C7  UNL     1      -2.390  -2.200   0.424  1.00  0.00     0.282 C 
HETATM   20  N3  UNL     1      -2.228  -3.552  -0.063  1.00  0.00    -0.056 NA
HETATM   21  O2  UNL     1      -3.248  -1.945   1.289  1.00  0.00    -0.269 OA
ENDBRANCH   4  19
BRANCH   6  22
HETATM   22  N7  UNL     1      -1.221   2.319  -0.452  1.00  0.00    -0.385 N 
ATOM     23  H72 UNL     1      -2.104   2.637  -0.052  1.00  0.00     0.157 HD
ATOM     24  H71 UNL     1      -0.548   2.998  -0.807  1.00  0.00     0.157 HD
ENDBRANCH   6  22
BRANCH   5  25
HETATM   25  C9  UNL     1      -3.138   0.697   0.369  1.00  0.00     0.264 C 
HETATM   26  O3  UNL     1      -3.124   1.716   1.169  1.00  0.00    -0.267 OA
HETATM   27  N4  UNL     1      -4.414   0.253  -0.016  1.00  0.00    -0.297 N 
HETATM   28  C10 UNL     1      -5.593   0.876   0.459  1.00  0.00     0.188 C 
ATOM     29  H4  UNL     1      -4.493  -0.539  -0.654  1.00  0.00     0.171 HD
HETATM   30  N5  UNL     1      -6.771   0.464   0.103  1.00  0.00    -0.373 N 
HETATM   31  N6  UNL     1      -5.583   1.991   1.355  1.00  0.00    -0.064 NA
ATOM     32  H52 UNL     1      -6.778  -0.331  -0.536  1.00  0.00     0.158 HD
ATOM     33  H51 UNL     1      -7.621   0.913   0.445  1.00  0.00     0.158 HD
ENDBRANCH   5  25
TORSDOF 8
