REMARK  8 active torsions:
REMARK  status: ('A' for Active; 'I' for Inactive)
REMARK    1  A    between atoms: C2_2  and  N1_3 
REMARK    2  A    between atoms: C2_2  and  C8_18 
REMARK       I    between atoms: N1_3  and  C3_5 
REMARK    3  A    between atoms: C3_5  and  C4_7 
REMARK       I    between atoms: C8_18  and  N5_20 
REMARK    4  A    between atoms: N5_20  and  C9_22 
REMARK    5  A    between atoms: C9_22  and  C10_23 
REMARK    6  A    between atoms: C9_22  and  C11_25 
REMARK    7  A    between atoms: C11_25  and  N6_26 
REMARK    8  A    between atoms: C11_25  and  O5_30 
ROOT
HETATM    1  C1  UNL     1      -0.306   2.509   0.814  1.00  0.00     0.042 C 
HETATM    2  C2  UNL     1      -0.086   1.047   0.864  1.00  0.00     0.172 C 
ENDROOT
BRANCH   2   3
HETATM    3  N1  UNL     1      -1.167   0.358   0.146  1.00  0.00    -0.344 N 
HETATM    4  C3  UNL     1      -1.921  -0.663   0.742  1.00  0.00     0.261 C 
HETATM    5  O1  UNL     1      -1.575  -0.928   1.962  1.00  0.00    -0.267 OA
ATOM      6  H1  UNL     1      -1.375   0.631  -0.815  1.00  0.00     0.163 HD
BRANCH   4   7
HETATM    7  C4  UNL     1      -3.003  -1.431   0.173  1.00  0.00     0.141 A 
HETATM    8  C5  UNL     1      -3.582  -2.419   0.986  1.00  0.00     0.139 A 
HETATM    9  N2  UNL     1      -3.105  -2.684   2.308  1.00  0.00    -0.081 NA
HETATM   10  N3  UNL     1      -4.593  -3.126   0.472  1.00  0.00    -0.320 N 
HETATM   11  C6  UNL     1      -5.097  -2.961  -0.767  1.00  0.00     0.179 A 
ATOM     12  H3  UNL     1      -5.015  -3.844   1.061  1.00  0.00     0.169 HD
HETATM   13  S1  UNL     1      -6.328  -3.891  -1.283  1.00  0.00    -0.040 SA
HETATM   14  N4  UNL     1      -4.522  -2.001  -1.532  1.00  0.00    -0.299 N 
HETATM   15  C7  UNL     1      -3.509  -1.258  -1.085  1.00  0.00     0.266 A 
ATOM     16  H4  UNL     1      -4.874  -1.843  -2.476  1.00  0.00     0.171 HD
HETATM   17  O2  UNL     1      -3.005  -0.359  -1.866  1.00  0.00    -0.267 OA
ENDBRANCH   4   7
ENDBRANCH   2   3
BRANCH   2  18
HETATM   18  C8  UNL     1       1.221   0.664   0.286  1.00  0.00     0.240 C 
HETATM   19  O3  UNL     1       1.247  -0.411  -0.403  1.00  0.00    -0.271 OA
HETATM   20  N5  UNL     1       2.416   1.389   0.441  1.00  0.00    -0.344 N 
ATOM     21  H5  UNL     1       2.422   2.261   0.971  1.00  0.00     0.163 HD
BRANCH  20  22
HETATM   22  C9  UNL     1       3.655   0.883  -0.165  1.00  0.00     0.201 C 
BRANCH  22  23
HETATM   23  C10 UNL     1       4.802   1.092   0.730  1.00  0.00     0.260 C 
HETATM   24  O4  UNL     1       4.670   1.669   1.815  1.00  0.00    -0.304 OA
ENDBRANCH  22  23
BRANCH  22  25
HETATM   25  C11 UNL     1       3.903   1.491  -1.531  1.00  0.00     0.346 C 
BRANCH  25  26
HETATM   26  N6  UNL     1       5.027   0.822  -2.149  1.00  0.00    -0.051 N 
ATOM     27  H63 UNL     1       5.860   0.838  -1.560  1.00  0.00     0.277 HD
ATOM     28  H62 UNL     1       4.901  -0.189  -2.191  1.00  0.00     0.277 HD
ATOM     29  H61 UNL     1       5.194   1.231  -3.068  1.00  0.00     0.277 HD
ENDBRANCH  25  26
BRANCH  25  30
HETATM   30  O5  UNL     1       4.037   2.857  -1.527  1.00  0.00    -0.368 OA
ATOM     31  H5  UNL     1       4.192   3.238  -2.383  1.00  0.00     0.212 HD
ENDBRANCH  25  30
ENDBRANCH  22  25
ENDBRANCH  20  22
ENDBRANCH   2  18
TORSDOF 8
