REMARK  9 active torsions:
REMARK  status: ('A' for Active; 'I' for Inactive)
REMARK    1  A    between atoms: N1_1  and  N2_4 
REMARK       I    between atoms: N2_4  and  C1_6 
REMARK    2  A    between atoms: C1_6  and  C2_8 
REMARK    3  A    between atoms: C2_8  and  O2_9 
REMARK    4  A    between atoms: C2_8  and  C3_11 
REMARK    5  A    between atoms: C3_11  and  C4_12 
REMARK    6  A    between atoms: C3_11  and  N7_24 
REMARK    7  A    between atoms: N3_13  and  N4_15 
REMARK    8  A    between atoms: N4_15  and  C5_17 
REMARK       I    between atoms: N7_24  and  C8_26 
REMARK    9  A    between atoms: C8_26  and  C9_28 
ROOT
HETATM    1  C3  UNL     1      -0.538   0.938   0.621  1.00  0.00     0.163 C 
ENDROOT
BRANCH   1   2
HETATM    2  C2  UNL     1      -1.245   2.267   0.544  1.00  0.00     0.239 C 
BRANCH   2   3
HETATM    3  C1  UNL     1      -0.377   3.411   0.815  1.00  0.00     0.266 C 
HETATM    4  N2  UNL     1      -0.227   4.417  -0.175  1.00  0.00    -0.274 N 
ATOM      5  H2  UNL     1      -0.731   4.317  -1.056  1.00  0.00     0.189 HD
HETATM    6  O1  UNL     1       0.265   3.573   1.890  1.00  0.00    -0.269 OA
BRANCH   4   7
HETATM    7  N1  UNL     1       0.596   5.554   0.013  1.00  0.00    -0.343 N 
ATOM      8  H12 UNL     1       1.093   5.638   0.900  1.00  0.00     0.176 HD
ATOM      9  H11 UNL     1       0.704   6.277  -0.698  1.00  0.00     0.176 HD
ENDBRANCH   4   7
ENDBRANCH   2   3
BRANCH   2  10
HETATM   10  O2  UNL     1      -1.799   2.389  -0.719  1.00  0.00    -0.384 OA
ATOM     11  H2  UNL     1      -2.363   1.645  -0.895  1.00  0.00     0.210 HD
ENDBRANCH   2  10
ENDBRANCH   1   2
BRANCH   1  12
HETATM   12  C4  UNL     1       0.182   0.723   1.877  1.00  0.00     0.108 C 
HETATM   13  N3  UNL     1       1.469   0.675   1.960  1.00  0.00    -0.311 N 
ATOM     14  H3  UNL     1       1.897   0.522   2.873  1.00  0.00     0.185 HD
BRANCH  13  15
HETATM   15  N4  UNL     1       2.297   0.824   0.848  1.00  0.00    -0.272 N 
ATOM     16  H4  UNL     1       2.076   1.526   0.141  1.00  0.00     0.190 HD
BRANCH  15  17
HETATM   17  C5  UNL     1       3.450   0.001   0.694  1.00  0.00     0.190 C 
HETATM   18  N5  UNL     1       4.545   0.360   0.112  1.00  0.00    -0.360 N 
HETATM   19  C6  UNL     1       5.520  -0.705   0.122  1.00  0.00     0.142 C 
ATOM     20  H5  UNL     1       4.701   1.279  -0.302  1.00  0.00     0.162 HD
HETATM   21  C7  UNL     1       4.655  -1.932   0.347  1.00  0.00     0.142 C 
HETATM   22  N6  UNL     1       3.576  -1.343   1.156  1.00  0.00    -0.360 N 
ATOM     23  H6  UNL     1       3.034  -1.798   1.890  1.00  0.00     0.162 HD
ENDBRANCH  15  17
ENDBRANCH  13  15
ENDBRANCH   1  12
BRANCH   1  24
HETATM   24  N7  UNL     1      -1.557  -0.097   0.378  1.00  0.00    -0.345 N 
HETATM   25  C8  UNL     1      -1.512  -0.945  -0.733  1.00  0.00     0.252 C 
HETATM   26  O3  UNL     1      -0.574  -0.844  -1.581  1.00  0.00    -0.268 OA
ATOM     27  H7  UNL     1      -2.323  -0.199   1.044  1.00  0.00     0.163 HD
BRANCH  25  28
HETATM   28  C9  UNL     1      -2.517  -1.967  -0.975  1.00  0.00     0.032 A 
HETATM   29  C10 UNL     1      -2.443  -2.797  -2.095  1.00  0.00     0.017 A 
HETATM   30  C11 UNL     1      -3.383  -3.765  -2.337  1.00  0.00     0.001 A 
HETATM   31  C12 UNL     1      -4.444  -3.963  -1.483  1.00  0.00     0.000 A 
HETATM   32  C13 UNL     1      -4.552  -3.166  -0.368  1.00  0.00     0.001 A 
HETATM   33  C14 UNL     1      -3.593  -2.193  -0.141  1.00  0.00     0.017 A 
ENDBRANCH  25  28
ENDBRANCH   1  24
TORSDOF 9
