REMARK  0 active torsions:
REMARK  status: ('A' for Active; 'I' for Inactive)
ROOT
HETATM    1  C1  UNL     1       0.866  -1.515   0.317  1.00  0.00     0.000 C 
HETATM    2  C2  UNL     1      -0.497  -2.003   0.053  1.00  0.00     0.000 C 
HETATM    3  C3  UNL     1      -1.651  -1.112  -0.108  1.00  0.00     0.002 C 
HETATM    4  C4  UNL     1      -1.865   0.056   0.781  1.00  0.00     0.026 C 
HETATM    5  C5  UNL     1      -2.031   1.392   0.194  1.00  0.00     0.167 C 
HETATM    6  O1  UNL     1      -0.928   2.290   0.214  1.00  0.00    -0.391 OA
HETATM    7  C6  UNL     1       0.165   1.532   0.051  1.00  0.00     0.167 C 
HETATM    8  C7  UNL     1       1.509   1.893  -0.368  1.00  0.00     0.026 C 
HETATM    9  C8  UNL     1       2.264   0.554  -0.211  1.00  0.00     0.002 C 
HETATM   10  C9  UNL     1       1.552  -0.659  -0.682  1.00  0.00     0.000 C 
ENDROOT
TORSDOF 0
