REMARK  2 active torsions:
REMARK  status: ('A' for Active; 'I' for Inactive)
REMARK    1  A    between atoms: C10_11  and  C11_12 
REMARK    2  A    between atoms: C11_12  and  O1_13 
ROOT
HETATM    1  C1  UNL     1       1.894  -1.395   0.646  1.00  0.00     0.032 C 
HETATM    2  C2  UNL     1       0.778  -0.750  -0.150  1.00  0.00     0.055 C 
HETATM    3  C3  UNL     1       0.946  -1.097  -1.551  1.00  0.00     0.069 C 
HETATM    4  N1  UNL     1       1.092  -1.388  -2.661  1.00  0.00    -0.196 NA
HETATM    5  C4  UNL     1      -0.532  -1.385   0.337  1.00  0.00     0.008 C 
HETATM    6  C5  UNL     1      -1.578  -1.025  -0.699  1.00  0.00     0.007 C 
HETATM    7  C6  UNL     1      -1.546   0.443  -1.028  1.00  0.00     0.005 C 
HETATM    8  C7  UNL     1      -0.802   1.136   0.122  1.00  0.00    -0.007 C 
HETATM    9  C8  UNL     1      -1.475   0.616   1.386  1.00  0.00     0.005 C 
HETATM   10  C9  UNL     1      -0.841  -0.738   1.681  1.00  0.00     0.007 C 
HETATM   11  C10 UNL     1       0.652   0.715   0.084  1.00  0.00     0.036 C 
ENDROOT
BRANCH  11  12
HETATM   12  C11 UNL     1       1.423   1.551  -0.905  1.00  0.00     0.170 C 
BRANCH  12  13
HETATM   13  O1  UNL     1       1.252   2.905  -0.618  1.00  0.00    -0.400 OA
ATOM     14  H1  UNL     1       1.738   3.432  -1.241  1.00  0.00     0.209 HD
ENDBRANCH  12  13
ENDBRANCH  11  12
TORSDOF 2
