REMARK  6 active torsions:
REMARK  status: ('A' for Active; 'I' for Inactive)
REMARK    1  A    between atoms: C2_2  and  C3_3 
REMARK    2  A    between atoms: C3_3  and  C4_4 
REMARK    3  A    between atoms: C4_4  and  N1_5 
REMARK       I    between atoms: N1_5  and  C5_7 
REMARK    4  A    between atoms: C5_7  and  C6_9 
REMARK       I    between atoms: N2_10  and  C7_12 
REMARK    5  A    between atoms: C7_12  and  C8_14 
REMARK    6  A    between atoms: C8_14  and  N3_16 
REMARK       I    between atoms: N3_16  and  C10_18 
ROOT
HETATM    1  C6  UNL     1       0.952   0.655   1.754  1.00  0.00     0.165 C 
HETATM    2  N2  UNL     1       1.837   0.586   0.886  1.00  0.00    -0.330 N 
ATOM      3  H2  UNL     1       2.782   0.772   1.221  1.00  0.00     0.168 HD
HETATM    4  C7  UNL     1       1.746   0.302  -0.442  1.00  0.00     0.244 C 
HETATM    5  O2  UNL     1       1.656  -0.857  -0.900  1.00  0.00    -0.271 OA
ENDROOT
BRANCH   1   6
HETATM    6  C5  UNL     1      -0.484   0.424   1.480  1.00  0.00     0.260 C 
HETATM    7  N1  UNL     1      -1.399   0.539   2.504  1.00  0.00    -0.336 N 
ATOM      8  H1  UNL     1      -0.989   0.799   3.401  1.00  0.00     0.168 HD
HETATM    9  O1  UNL     1      -0.760   0.136   0.310  1.00  0.00    -0.267 OA
BRANCH   7  10
HETATM   10  C4  UNL     1      -2.789   0.365   2.540  1.00  0.00     0.064 C 
BRANCH  10  11
HETATM   11  C3  UNL     1      -3.414  -0.960   2.383  1.00  0.00     0.044 C 
BRANCH  11  12
HETATM   12  C2  UNL     1      -3.111  -1.679   1.124  1.00  0.00     0.001 C 
HETATM   13  C1  UNL     1      -3.941  -2.996   1.101  1.00  0.00     0.005 C 
ENDBRANCH  11  12
ENDBRANCH  10  11
ENDBRANCH   7  10
ENDBRANCH   1   6
BRANCH   4  14
HETATM   14  C8  UNL     1       1.757   1.444  -1.429  1.00  0.00     0.172 C 
HETATM   15  C9  UNL     1       2.506   2.616  -0.876  1.00  0.00     0.042 C 
BRANCH  14  16
HETATM   16  N3  UNL     1       2.257   0.925  -2.667  1.00  0.00    -0.348 N 
HETATM   17  C10 UNL     1       3.502   0.260  -2.688  1.00  0.00     0.214 C 
HETATM   18  C11 UNL     1       4.067  -0.306  -3.957  1.00  0.00     0.117 C 
HETATM   19  O3  UNL     1       4.185   0.118  -1.641  1.00  0.00    -0.274 OA
ATOM     20  H3  UNL     1       1.718   1.035  -3.526  1.00  0.00     0.163 HD
ENDBRANCH  14  16
ENDBRANCH   4  14
TORSDOF 6
