REMARK  7 active torsions:
REMARK  status: ('A' for Active; 'I' for Inactive)
REMARK    1  A    between atoms: O1_1  and  C1_3 
REMARK    2  A    between atoms: C1_3  and  C6_17 
REMARK    3  A    between atoms: N1_4  and  C2_6 
REMARK    4  A    between atoms: C4_8  and  C5_9 
REMARK    5  A    between atoms: C6_17  and  O2_18 
REMARK    6  A    between atoms: C6_17  and  C7_20 
REMARK    7  A    between atoms: C6_17  and  C8_29 
ROOT
HETATM    1  C1  UNL     1      -0.876  -1.274   0.665  1.00  0.00     0.163 C 
HETATM    2  N1  UNL     1       0.460  -1.436   0.482  1.00  0.00    -0.323 N 
ATOM      3  H1  UNL     1       0.777  -2.405   0.490  1.00  0.00     0.169 HD
ENDROOT
BRANCH   1   4
HETATM    4  O1  UNL     1      -1.154  -1.278   2.008  1.00  0.00    -0.347 OA
ATOM      5  H1  UNL     1      -2.088  -1.165   2.136  1.00  0.00     0.219 HD
ENDBRANCH   1   4
BRANCH   1   6
HETATM    6  C6  UNL     1      -2.103  -1.103  -0.047  1.00  0.00     0.213 C 
BRANCH   6   7
HETATM    7  O2  UNL     1      -3.115  -1.882   0.659  1.00  0.00    -0.372 OA
ATOM      8  H2  UNL     1      -3.931  -1.768   0.186  1.00  0.00     0.211 HD
ENDBRANCH   6   7
BRANCH   6   9
HETATM    9  C7  UNL     1      -2.591   0.294   0.204  1.00  0.00     0.159 A 
HETATM   10  N4  UNL     1      -2.546   0.826   1.466  1.00  0.00    -0.269 N 
HETATM   11  N5  UNL     1      -3.053   2.039   1.383  1.00  0.00    -0.227 N 
ATOM     12  H4  UNL     1      -2.189   0.371   2.306  1.00  0.00     0.190 HD
HETATM   13  N6  UNL     1      -3.415   2.302   0.165  1.00  0.00    -0.227 N 
ATOM     14  H5  UNL     1      -3.148   2.683   2.168  1.00  0.00     0.210 HD
HETATM   15  N7  UNL     1      -3.125   1.228  -0.549  1.00  0.00    -0.269 N 
ATOM     16  H6  UNL     1      -3.839   3.166  -0.174  1.00  0.00     0.210 HD
ATOM     17  H7  UNL     1      -3.293   1.137  -1.551  1.00  0.00     0.190 HD
ENDBRANCH   6   9
BRANCH   6  18
HETATM   18  C8  UNL     1      -2.219  -1.496  -1.440  1.00  0.00     0.228 C 
HETATM   19 CL1  UNL     1      -3.908  -1.117  -2.006  1.00  0.00    -0.104 Cl
HETATM   20 CL2  UNL     1      -2.115  -3.291  -1.563  1.00  0.00    -0.104 Cl
ENDBRANCH   6  18
ENDBRANCH   1   6
BRANCH   2  21
HETATM   21  C2  UNL     1       1.384  -0.573   0.302  1.00  0.00     0.123 A 
HETATM   22  C3  UNL     1       2.742  -0.853   0.141  1.00  0.00     0.085 A 
HETATM   23  C4  UNL     1       3.382   0.311  -0.076  1.00  0.00     0.135 A 
HETATM   24  N2  UNL     1       2.483   1.321  -0.055  1.00  0.00    -0.295 N 
HETATM   25  N3  UNL     1       1.275   0.779   0.176  1.00  0.00    -0.285 N 
ATOM     26  H2  UNL     1       2.685   2.312  -0.190  1.00  0.00     0.187 HD
ATOM     27  H3  UNL     1       0.403   1.304   0.247  1.00  0.00     0.188 HD
BRANCH  23  28
HETATM   28  C5  UNL     1       4.822   0.587  -0.275  1.00  0.00     0.434 C 
HETATM   29  F1  UNL     1       5.183   1.641   0.589  1.00  0.00    -0.165 F 
HETATM   30  F2  UNL     1       5.095   1.052  -1.536  1.00  0.00    -0.165 F 
HETATM   31  F3  UNL     1       5.613  -0.517   0.026  1.00  0.00    -0.165 F 
ENDBRANCH  23  28
ENDBRANCH   2  21
TORSDOF 7
