REMARK  11 active torsions:
REMARK  status: ('A' for Active; 'I' for Inactive)
REMARK    1  A    between atoms: C2_3  and  C3_4 
REMARK    2  A    between atoms: C3_4  and  C4_5 
REMARK    3  A    between atoms: C4_5  and  C5_6 
REMARK    4  A    between atoms: C5_6  and  C6_7 
REMARK    5  A    between atoms: C6_7  and  C7_8 
REMARK    6  A    between atoms: C7_8  and  C8_9 
REMARK    7  A    between atoms: C8_9  and  C9_10 
REMARK    8  A    between atoms: C9_10  and  N2_11 
REMARK    9  A    between atoms: N2_11  and  C10_14 
REMARK   10  A    between atoms: C10_14  and  C11_15 
REMARK   11  A    between atoms: C14_22  and  N4_23 
ROOT
HETATM    1  C3  UNL     1       2.130  -0.474  -0.425  1.00  0.00     0.076 C 
ENDROOT
BRANCH   1   2
HETATM    2  C2  UNL     1       3.436  -0.040   0.130  1.00  0.00     0.084 A 
HETATM    3  N1  UNL     1       4.119   0.989  -0.382  1.00  0.00    -0.326 N 
HETATM    4  C1  UNL     1       3.552   1.713  -1.491  1.00  0.00     0.159 C 
HETATM    5  C14 UNL     1       5.328   1.372   0.130  1.00  0.00     0.121 A 
HETATM    6  C13 UNL     1       5.873   0.697   1.197  1.00  0.00     0.070 A 
HETATM    7  C12 UNL     1       5.166  -0.361   1.718  1.00  0.00     0.112 A 
HETATM    8 BR2  UNL     1       7.565   1.244   1.903  1.00  0.00    -0.046 Br
HETATM    9  N3  UNL     1       3.978  -0.710   1.188  1.00  0.00    -0.354 N 
ATOM     10  H3  UNL     1       3.469  -1.498   1.589  1.00  0.00     0.166 HD
BRANCH   5  11
HETATM   11  N4  UNL     1       5.953   2.366  -0.397  1.00  0.00    -0.384 N 
ATOM     12  H42 UNL     1       5.549   2.867  -1.188  1.00  0.00     0.157 HD
ATOM     13  H41 UNL     1       6.855   2.652  -0.015  1.00  0.00     0.157 HD
ENDBRANCH   5  11
ENDBRANCH   1   2
BRANCH   1  14
HETATM   14  C4  UNL     1       0.973   0.223   0.187  1.00  0.00     0.007 C 
BRANCH  14  15
HETATM   15  C5  UNL     1      -0.367  -0.216  -0.429  1.00  0.00     0.000 C 
BRANCH  15  16
HETATM   16  C6  UNL     1      -0.621  -1.662  -0.254  1.00  0.00     0.000 C 
BRANCH  16  17
HETATM   17  C7  UNL     1      -1.842  -2.278  -0.772  1.00  0.00     0.002 C 
BRANCH  17  18
HETATM   18  C8  UNL     1      -3.171  -1.948  -0.290  1.00  0.00     0.027 C 
BRANCH  18  19
HETATM   19  C9  UNL     1      -3.721  -0.575  -0.399  1.00  0.00     0.232 C 
BRANCH  19  20
HETATM   20  N2  UNL     1      -5.117  -0.626   0.100  1.00  0.00    -0.074 N 
ATOM     21  H22 UNL     1      -5.657  -1.347  -0.378  1.00  0.00     0.277 HD
ATOM     22  H21 UNL     1      -5.160  -0.998   1.049  1.00  0.00     0.277 HD
BRANCH  20  23
HETATM   23  C10 UNL     1      -5.757   0.649   0.011  1.00  0.00     0.243 C 
BRANCH  23  24
HETATM   24  C11 UNL     1      -5.234   1.704   0.924  1.00  0.00     0.112 C 
HETATM   25 BR1  UNL     1      -6.242   3.334   0.636  1.00  0.00    -0.095 Br
ENDBRANCH  23  24
ENDBRANCH  20  23
ENDBRANCH  19  20
ENDBRANCH  18  19
ENDBRANCH  17  18
ENDBRANCH  16  17
ENDBRANCH  15  16
ENDBRANCH  14  15
ENDBRANCH   1  14
TORSDOF 11
