REMARK  15 active torsions:
REMARK  status: ('A' for Active; 'I' for Inactive)
REMARK    1  A    between atoms: C2_2  and  C3_3 
REMARK    2  A    between atoms: C3_3  and  C4_4 
REMARK    3  A    between atoms: C7_7  and  C8_8 
REMARK    4  A    between atoms: C8_8  and  C9_9 
REMARK    5  A    between atoms: C10_10  and  C11_11 
REMARK    6  A    between atoms: C11_11  and  C12_12 
REMARK    7  A    between atoms: C12_12  and  C13_13 
REMARK    8  A    between atoms: C13_13  and  C14_14 
REMARK    9  A    between atoms: C14_14  and  C15_15 
REMARK   10  A    between atoms: C15_15  and  C16_16 
REMARK   11  A    between atoms: C16_16  and  C17_17 
REMARK   12  A    between atoms: C17_17  and  C18_18 
REMARK   13  A    between atoms: C18_18  and  C19_19 
REMARK   14  A    between atoms: C19_19  and  N1_20 
REMARK   15  A    between atoms: N3_28  and  C23_29 
ROOT
HETATM    1  C9  UNL     1      -0.839  -1.039   0.201  1.00  0.00     0.067 A 
HETATM    2  C10 UNL     1       0.232  -0.430   0.819  1.00  0.00    -0.028 A 
HETATM    3  C20 UNL     1       0.793  -1.127   1.898  1.00  0.00     0.028 A 
HETATM    4  C21 UNL     1       0.319  -2.344   2.328  1.00  0.00     0.111 A 
HETATM    5  N2  UNL     1      -0.737  -2.868   1.662  1.00  0.00    -0.299 N 
HETATM    6  C22 UNL     1      -1.311  -4.149   2.039  1.00  0.00     0.177 C 
HETATM    7  N3  UNL     1      -1.300  -2.249   0.640  1.00  0.00    -0.236 N 
ENDROOT
BRANCH   2   8
HETATM    8  C11 UNL     1       0.802   0.877   0.401  1.00  0.00     0.041 C 
BRANCH   8   9
HETATM    9  C12 UNL     1       1.668   0.725  -0.851  1.00  0.00     0.005 C 
BRANCH   9  10
HETATM   10  C13 UNL     1       2.246   2.043  -1.276  1.00  0.00     0.000 C 
BRANCH  10  11
HETATM   11  C14 UNL     1       3.112   2.668  -0.225  1.00  0.00     0.000 C 
BRANCH  11  12
HETATM   12  C15 UNL     1       4.285   1.825   0.180  1.00  0.00     0.000 C 
BRANCH  12  13
HETATM   13  C16 UNL     1       5.180   1.550  -0.978  1.00  0.00     0.000 C 
BRANCH  13  14
HETATM   14  C17 UNL     1       6.352   0.704  -0.496  1.00  0.00     0.002 C 
BRANCH  14  15
HETATM   15  C18 UNL     1       5.919  -0.611   0.084  1.00  0.00     0.027 C 
BRANCH  15  16
HETATM   16  C19 UNL     1       7.198  -1.336   0.513  1.00  0.00     0.229 C 
BRANCH  16  17
HETATM   17  N1  UNL     1       8.008  -1.504  -0.678  1.00  0.00    -0.079 N 
ATOM     18  H13 UNL     1       7.514  -1.976  -1.436  1.00  0.00     0.274 HD
ATOM     19  H12 UNL     1       8.189  -0.627  -1.167  1.00  0.00     0.274 HD
ATOM     20  H11 UNL     1       8.860  -1.987  -0.392  1.00  0.00     0.274 HD
ENDBRANCH  16  17
ENDBRANCH  15  16
ENDBRANCH  14  15
ENDBRANCH  13  14
ENDBRANCH  12  13
ENDBRANCH  11  12
ENDBRANCH  10  11
ENDBRANCH   9  10
ENDBRANCH   8   9
ENDBRANCH   2   8
BRANCH   1  21
HETATM   21  C8  UNL     1      -1.454  -0.356  -0.908  1.00  0.00     0.061 C 
BRANCH  21  22
HETATM   22  C7  UNL     1      -2.437   0.543  -0.736  1.00  0.00     0.037 A 
HETATM   23  C6  UNL     1      -3.018   1.189  -1.787  1.00  0.00     0.030 A 
HETATM   24  C5  UNL     1      -4.017   2.095  -1.588  1.00  0.00     0.019 A 
HETATM   25  C4  UNL     1      -4.471   2.384  -0.294  1.00  0.00     0.028 A 
HETATM   26  C27 UNL     1      -3.872   1.725   0.731  1.00  0.00     0.255 A 
HETATM   27  N7  UNL     1      -2.888   0.836   0.487  1.00  0.00    -0.323 N 
HETATM   28  O2  UNL     1      -4.209   1.913   1.945  1.00  0.00    -0.267 OA
ATOM     29  H7  UNL     1      -2.463   0.359   1.282  1.00  0.00     0.169 HD
BRANCH  25  30
HETATM   30  C3  UNL     1      -5.441   3.266  -0.123  1.00  0.00    -0.010 C 
BRANCH  30  31
HETATM   31  C2  UNL     1      -5.974   3.628   1.177  1.00  0.00     0.023 C 
HETATM   32  C1  UNL     1      -7.027   4.736   0.978  1.00  0.00     0.009 C 
ENDBRANCH  30  31
ENDBRANCH  25  30
ENDBRANCH  21  22
ENDBRANCH   1  21
BRANCH   7  33
HETATM   33  C23 UNL     1      -2.403  -2.837  -0.032  1.00  0.00     0.160 A 
HETATM   34  C24 UNL     1      -2.632  -3.751  -0.963  1.00  0.00     0.127 A 
HETATM   35  N4  UNL     1      -2.433  -4.704  -1.899  1.00  0.00    -0.302 N 
HETATM   36  C26 UNL     1      -4.005  -3.585  -0.899  1.00  0.00     0.142 A 
HETATM   37  C25 UNL     1      -3.634  -5.098  -2.383  1.00  0.00     0.326 A 
ATOM     38  H4  UNL     1      -1.526  -5.067  -2.193  1.00  0.00     0.171 HD
HETATM   39  O1  UNL     1      -3.817  -5.987  -3.284  1.00  0.00    -0.247 OA
HETATM   40  N5  UNL     1      -4.607  -4.410  -1.768  1.00  0.00    -0.292 N 
ATOM     41  H5  UNL     1      -5.610  -4.497  -1.930  1.00  0.00     0.172 HD
HETATM   42  N6  UNL     1      -3.813  -2.695   0.005  1.00  0.00    -0.323 N 
ATOM     43  H6  UNL     1      -4.442  -2.104   0.549  1.00  0.00     0.169 HD
ENDBRANCH   7  33
TORSDOF 15
