REMARK  12 active torsions:
REMARK  status: ('A' for Active; 'I' for Inactive)
REMARK    1  A    between atoms: C3_3  and  C4_4 
REMARK    2  A    between atoms: C4_4  and  N1_5 
REMARK    3  A    between atoms: N1_5  and  C5_6 
REMARK    4  A    between atoms: C5_6  and  C6_7 
REMARK    5  A    between atoms: C6_7  and  C7_8 
REMARK    6  A    between atoms: C6_7  and  N3_13 
REMARK    7  A    between atoms: C7_8  and  N2_9 
REMARK       I    between atoms: N3_13  and  C11_15 
REMARK    8  A    between atoms: C11_15  and  C12_17 
REMARK       I    between atoms: C12_17  and  N4_19 
REMARK    9  A    between atoms: C13_20  and  C14_21 
REMARK   10  A    between atoms: C14_21  and  N5_22 
REMARK   11  A    between atoms: C19_30  and  C20_31 
REMARK   12  A    between atoms: C20_31  and  O3_32 
ROOT
HETATM    1  C1  UNL     1      -6.868   4.811   0.825  1.00  0.00     0.112 C 
HETATM    2  C2  UNL     1      -5.651   4.003   0.950  1.00  0.00    -0.109 C 
HETATM    3  C3  UNL     1      -4.634   3.334   1.053  1.00  0.00    -0.079 C 
ENDROOT
BRANCH   3   4
HETATM    4  C4  UNL     1      -3.423   2.563   1.205  1.00  0.00     0.337 C 
BRANCH   4   5
HETATM    5  N1  UNL     1      -3.412   1.298   0.430  1.00  0.00    -0.029 N 
HETATM    6  C21 UNL     1      -4.663   1.084  -0.316  1.00  0.00     0.256 C 
HETATM    7  C22 UNL     1      -5.246   0.260   0.786  1.00  0.00     0.012 A 
HETATM    8  C23 UNL     1      -5.974  -0.978   0.384  1.00  0.00     0.019 C 
HETATM    9  C24 UNL     1      -4.911   0.433   2.191  1.00  0.00     0.048 A 
HETATM   10  C25 UNL     1      -3.780   0.183   1.241  1.00  0.00     0.207 A 
BRANCH   5  11
HETATM   11  C5  UNL     1      -2.323   1.296  -0.439  1.00  0.00     0.230 C 
BRANCH  11  12
HETATM   12  C6  UNL     1      -1.542   0.097  -0.815  1.00  0.00     0.062 C 
BRANCH  12  13
HETATM   13  C7  UNL     1      -2.290  -0.968  -1.508  1.00  0.00     0.294 C 
BRANCH  13  14
HETATM   14  N2  UNL     1      -1.563  -2.146  -1.909  1.00  0.00    -0.073 N 
HETATM   15  C8  UNL     1      -2.418  -2.933  -2.841  1.00  0.00     0.272 C 
HETATM   16  C9  UNL     1      -0.280  -1.937  -2.480  1.00  0.00     0.272 C 
HETATM   17  C10 UNL     1      -1.433  -3.013  -0.754  1.00  0.00     0.272 C 
ENDBRANCH  13  14
ENDBRANCH  12  13
BRANCH  12  18
HETATM   18  N3  UNL     1      -0.641  -0.336   0.236  1.00  0.00    -0.320 N 
HETATM   19  C11 UNL     1       0.736   0.020   0.307  1.00  0.00     0.314 C 
HETATM   20  O1  UNL     1       1.174   0.752  -0.594  1.00  0.00    -0.262 OA
ATOM     21  H3  UNL     1      -1.018  -0.934   0.971  1.00  0.00     0.169 HD
BRANCH  19  22
HETATM   22  C12 UNL     1       1.599  -0.441   1.373  1.00  0.00     0.314 C 
HETATM   23  O2  UNL     1       1.056  -1.196   2.273  1.00  0.00    -0.262 OA
HETATM   24  N4  UNL     1       2.966  -0.163   1.547  1.00  0.00    -0.306 N 
HETATM   25  C13 UNL     1       3.823   0.646   0.688  1.00  0.00     0.141 C 
HETATM   26  C19 UNL     1       3.762  -0.656   2.668  1.00  0.00     0.313 C 
HETATM   27  C18 UNL     1       4.878   1.103   1.686  1.00  0.00     0.261 C 
HETATM   28  N6  UNL     1       5.034  -0.024   2.588  1.00  0.00    -0.050 N 
ATOM     29  H62 UNL     1       5.784  -0.659   2.315  1.00  0.00     0.279 HD
ATOM     30  H61 UNL     1       5.414   0.237   3.498  1.00  0.00     0.279 HD
BRANCH  25  31
HETATM   31  C14 UNL     1       4.382  -0.225  -0.375  1.00  0.00     0.263 C 
BRANCH  31  32
HETATM   32  N5  UNL     1       5.241   0.407  -1.319  1.00  0.00    -0.077 N 
HETATM   33  C15 UNL     1       5.069  -0.319  -2.592  1.00  0.00     0.271 C 
HETATM   34  C16 UNL     1       4.940   1.779  -1.604  1.00  0.00     0.271 C 
HETATM   35  C17 UNL     1       6.633   0.218  -0.958  1.00  0.00     0.271 C 
ENDBRANCH  31  32
ENDBRANCH  25  31
BRANCH  26  36
HETATM   36  C20 UNL     1       3.910  -2.136   2.707  1.00  0.00     0.218 C 
BRANCH  36  37
HETATM   37  O3  UNL     1       4.685  -2.549   3.807  1.00  0.00    -0.397 OA
ATOM     38  H3  UNL     1       4.779  -3.494   3.832  1.00  0.00     0.209 HD
ENDBRANCH  36  37
ENDBRANCH  26  36
ENDBRANCH  19  22
ENDBRANCH  12  18
ENDBRANCH  11  12
ENDBRANCH   5  11
ENDBRANCH   4   5
ENDBRANCH   3   4
TORSDOF 12
