REMARK  10 active torsions:
REMARK  status: ('A' for Active; 'I' for Inactive)
REMARK    1  A    between atoms: C2_2  and  N1_3 
REMARK    2  A    between atoms: N1_3  and  C3_4 
REMARK    3  A    between atoms: N1_3  and  C17_22 
REMARK    4  A    between atoms: C3_4  and  C4_5 
REMARK    5  A    between atoms: C4_5  and  N2_6 
REMARK       I    between atoms: N2_6  and  C5_8 
REMARK    6  A    between atoms: C5_8  and  C6_10 
REMARK    7  A    between atoms: C6_10  and  C7_11 
REMARK    8  A    between atoms: C17_22  and  N4_23 
REMARK    9  A    between atoms: C19_25  and  C20_26 
REMARK   10  A    between atoms: N5_27  and  N6_29 
ROOT
HETATM    1  N1  UNL     1       1.947   0.343   0.676  1.00  0.00     0.108 N 
ENDROOT
BRANCH   1   2
HETATM    2  C2  UNL     1       2.171  -0.279   1.967  1.00  0.00     0.270 C 
HETATM    3  C1  UNL     1       2.096   0.665   3.117  1.00  0.00     0.037 C 
ENDBRANCH   1   2
BRANCH   1   4
HETATM    4  C3  UNL     1       0.577   0.785   0.550  1.00  0.00     0.294 C 
BRANCH   4   5
HETATM    5  C4  UNL     1       0.193   1.336  -0.768  1.00  0.00     0.152 C 
BRANCH   5   6
HETATM    6  N2  UNL     1      -1.177   1.748  -0.875  1.00  0.00    -0.359 N 
HETATM    7  C5  UNL     1      -2.243   0.823  -0.712  1.00  0.00     0.220 C 
HETATM    8  O1  UNL     1      -1.944  -0.364  -0.473  1.00  0.00    -0.274 OA
ATOM      9  H2  UNL     1      -1.390   2.726  -1.072  1.00  0.00     0.162 HD
BRANCH   7  10
HETATM   10  C6  UNL     1      -3.653   1.240  -0.818  1.00  0.00     0.143 C 
BRANCH  10  11
HETATM   11  C7  UNL     1      -4.603   0.185  -0.567  1.00  0.00     0.147 C 
HETATM   12  C8  UNL     1      -4.602  -1.065  -1.439  1.00  0.00     0.043 C 
HETATM   13  C9  UNL     1      -5.807  -1.761  -0.797  1.00  0.00     0.042 C 
HETATM   14  C10 UNL     1      -6.244  -0.589   0.075  1.00  0.00     0.135 C 
HETATM   15  C11 UNL     1      -7.385  -0.780   0.949  1.00  0.00     0.048 C 
HETATM   16  C12 UNL     1      -6.092   0.577  -0.799  1.00  0.00     0.020 C 
HETATM   17  N3  UNL     1      -4.941  -0.297   0.717  1.00  0.00    -0.055 N 
HETATM   18  C13 UNL     1      -6.499   1.927  -0.308  1.00  0.00     0.020 C 
HETATM   19  C14 UNL     1      -6.437   0.504  -2.261  1.00  0.00     0.020 C 
HETATM   20  C15 UNL     1      -5.033   0.624   1.825  1.00  0.00     0.274 C 
HETATM   21  C16 UNL     1      -4.352  -1.508   1.240  1.00  0.00     0.274 C 
ENDBRANCH  10  11
ENDBRANCH   7  10
ENDBRANCH   5   6
ENDBRANCH   4   5
ENDBRANCH   1   4
BRANCH   1  22
HETATM   22  C17 UNL     1       2.945   1.278   0.315  1.00  0.00     0.419 C 
BRANCH  22  23
HETATM   23  N4  UNL     1       4.267   0.636   0.197  1.00  0.00    -0.273 N 
HETATM   24  C18 UNL     1       5.150   0.491   1.173  1.00  0.00     0.126 A 
HETATM   25  C19 UNL     1       6.289  -0.169   0.679  1.00  0.00     0.015 A 
HETATM   26  C23 UNL     1       6.015  -0.397  -0.636  1.00  0.00     0.124 A 
HETATM   27  N9  UNL     1       4.775   0.107  -0.894  1.00  0.00    -0.303 N 
HETATM   28  C24 UNL     1       4.098   0.076  -2.183  1.00  0.00     0.177 C 
BRANCH  25  29
HETATM   29  C20 UNL     1       7.462  -0.512   1.444  1.00  0.00     0.123 C 
HETATM   30  N5  UNL     1       8.519  -1.087   1.103  1.00  0.00    -0.289 N 
ATOM     31  H5  UNL     1       9.201  -1.206   1.852  1.00  0.00     0.188 HD
BRANCH  30  32
HETATM   32  N6  UNL     1       8.912  -1.584  -0.116  1.00  0.00    -0.192 N 
HETATM   33  C21 UNL     1       9.637  -0.869  -1.007  1.00  0.00     0.228 A 
HETATM   34  N7  UNL     1       9.872  -1.652  -2.062  1.00  0.00    -0.345 N 
HETATM   35  C22 UNL     1       9.301  -2.850  -1.842  1.00  0.00     0.200 A 
ATOM     36  H7  UNL     1      10.397  -1.387  -2.895  1.00  0.00     0.167 HD
HETATM   37  N8  UNL     1       8.719  -2.779  -0.638  1.00  0.00    -0.274 N 
ATOM     38  H8  UNL     1       8.203  -3.537  -0.191  1.00  0.00     0.190 HD
ENDBRANCH  30  32
ENDBRANCH  25  29
ENDBRANCH  22  23
ENDBRANCH   1  22
TORSDOF 10
