REMARK  5 active torsions:
REMARK  status: ('A' for Active; 'I' for Inactive)
REMARK    1  A    between atoms: C2_2  and  N1_3 
REMARK    2  A    between atoms: C2_2  and  C3_8 
REMARK    3  A    between atoms: C3_8  and  N2_9 
REMARK    4  A    between atoms: N2_9  and  C4_12 
REMARK    5  A    between atoms: C5_16  and  N4_17 
ROOT
HETATM    1  N2  UNL     1       0.285  -0.824   0.257  1.00  0.00    -0.037 N 
ATOM      2  H21 UNL     1       0.146  -1.388  -0.581  1.00  0.00     0.280 HD
ATOM      3  H22 UNL     1      -0.247  -1.381   0.926  1.00  0.00     0.280 HD
ENDROOT
BRANCH   1   4
HETATM    4  C3  UNL     1      -0.304   0.486   0.097  1.00  0.00     0.308 C 
BRANCH   4   5
HETATM    5  C2  UNL     1      -1.782   0.485  -0.098  1.00  0.00     0.283 C 
HETATM    6  C1  UNL     1      -2.517  -0.125   1.092  1.00  0.00     0.086 C 
HETATM    7  F1  UNL     1      -2.231   1.774  -0.245  1.00  0.00    -0.210 F 
BRANCH   5   8
HETATM    8  N1  UNL     1      -2.207  -0.247  -1.275  1.00  0.00    -0.041 N 
ATOM      9  H13 UNL     1      -2.071  -1.254  -1.192  1.00  0.00     0.278 HD
ATOM     10  H12 UNL     1      -3.220  -0.263  -1.394  1.00  0.00     0.278 HD
ATOM     11  H11 UNL     1      -1.716   0.161  -2.070  1.00  0.00     0.278 HD
ENDBRANCH   5   8
ENDBRANCH   4   5
ENDBRANCH   1   4
BRANCH   1  12
HETATM   12  C4  UNL     1       1.666  -0.784   0.617  1.00  0.00     0.442 A 
HETATM   13  N3  UNL     1       2.482  -1.624  -0.284  1.00  0.00    -0.009 N 
HETATM   14  C5  UNL     1       2.743  -0.225  -0.099  1.00  0.00     0.440 A 
ATOM     15  H32 UNL     1       3.015  -2.490  -0.203  1.00  0.00     0.282 HD
ATOM     16  H31 UNL     1       2.306  -2.242  -1.076  1.00  0.00     0.282 HD
BRANCH  14  17
HETATM   17  N4  UNL     1       3.637   0.778  -0.541  1.00  0.00    -0.046 N 
ATOM     18  H43 UNL     1       2.926   1.431  -0.870  1.00  0.00     0.276 HD
ATOM     19  H42 UNL     1       3.945   1.076   0.385  1.00  0.00     0.276 HD
ATOM     20  H41 UNL     1       4.417   1.183  -1.059  1.00  0.00     0.276 HD
ENDBRANCH  14  17
ENDBRANCH   1  12
TORSDOF 5
