REMARK  6 active torsions:
REMARK  status: ('A' for Active; 'I' for Inactive)
REMARK    1  A    between atoms: C5_7  and  C6_8 
REMARK    2  A    between atoms: C6_8  and  N2_9 
REMARK    3  A    between atoms: C7_15  and  C8_16 
REMARK    4  A    between atoms: C10_18  and  C11_19 
REMARK    5  A    between atoms: C11_19  and  C12_23 
REMARK    6  A    between atoms: C14_25  and  C15_26 
ROOT
HETATM    1  N1  UNL     1       3.053  -4.072   1.523  1.00  0.00    -0.197 NA
HETATM    2  C1  UNL     1       3.677  -3.112   1.320  1.00  0.00     0.068 C 
HETATM    3  C2  UNL     1       4.490  -1.906   1.065  1.00  0.00     0.145 C 
HETATM    4  C3  UNL     1       5.936  -2.354   1.013  1.00  0.00     0.189 C 
HETATM    5  O1  UNL     1       6.431  -2.228  -0.286  1.00  0.00    -0.388 OA
HETATM    6  C4  UNL     1       7.013  -0.977  -0.396  1.00  0.00     0.194 C 
HETATM    7  C5  UNL     1       5.994   0.057   0.000  1.00  0.00     0.126 C 
HETATM    8  N3  UNL     1       4.714  -0.124  -0.608  1.00  0.00    -0.402 N 
ATOM      9  H3  UNL     1       4.309   0.559  -1.248  1.00  0.00     0.154 HD
HETATM   10  C7  UNL     1       4.045  -1.335  -0.251  1.00  0.00     0.156 C 
ENDROOT
BRANCH  10  11
HETATM   11  C8  UNL     1       2.588  -1.052  -0.172  1.00  0.00     0.102 A 
HETATM   12  C9  UNL     1       1.816  -0.330  -1.068  1.00  0.00     0.071 A 
HETATM   13  C10 UNL     1       0.516  -0.319  -0.601  1.00  0.00     0.086 A 
HETATM   14  N6  UNL     1       0.559  -1.028   0.546  1.00  0.00    -0.259 N 
HETATM   15  O3  UNL     1       1.760  -1.435   0.766  1.00  0.00    -0.240 OA
ATOM     16  H6  UNL     1      -0.242  -1.214   1.150  1.00  0.00     0.195 HD
BRANCH  13  17
HETATM   17  C11 UNL     1      -0.649   0.296  -1.173  1.00  0.00     0.083 C 
HETATM   18  N4  UNL     1      -0.551   0.948  -2.280  1.00  0.00    -0.395 N 
ATOM     19  H42 UNL     1       0.357   1.022  -2.739  1.00  0.00     0.156 HD
ATOM     20  H41 UNL     1      -1.378   1.385  -2.686  1.00  0.00     0.156 HD
BRANCH  17  21
HETATM   21  C12 UNL     1      -1.946   0.190  -0.517  1.00  0.00     0.085 A 
HETATM   22  C13 UNL     1      -3.150   0.741  -0.971  1.00  0.00     0.069 A 
HETATM   23  C14 UNL     1      -4.120   0.404  -0.055  1.00  0.00     0.083 A 
HETATM   24  O2  UNL     1      -3.523  -0.295   0.868  1.00  0.00    -0.241 OA
HETATM   25  N5  UNL     1      -2.264  -0.435   0.628  1.00  0.00    -0.259 N 
ATOM     26  H5  UNL     1      -1.608  -0.944   1.220  1.00  0.00     0.195 HD
BRANCH  23  27
HETATM   27  C15 UNL     1      -5.550   0.779  -0.137  1.00  0.00     0.045 C 
HETATM   28  C16 UNL     1      -6.349  -0.511  -0.117  1.00  0.00     0.011 C 
HETATM   29  C17 UNL     1      -7.782  -0.179  -0.472  1.00  0.00     0.001 C 
HETATM   30  C18 UNL     1      -8.104   1.271  -0.217  1.00  0.00     0.000 C 
HETATM   31  C19 UNL     1      -7.443   1.799   1.028  1.00  0.00     0.001 C 
HETATM   32  C20 UNL     1      -5.968   1.580   1.068  1.00  0.00     0.011 C 
ENDBRANCH  23  27
ENDBRANCH  17  21
ENDBRANCH  13  17
ENDBRANCH  10  11
BRANCH   7  33
HETATM   33  C6  UNL     1       6.535   1.406  -0.488  1.00  0.00     0.256 C 
BRANCH  33  34
HETATM   34  N2  UNL     1       5.627   2.476  -0.156  1.00  0.00    -0.077 N 
ATOM     35  H23 UNL     1       4.688   2.296  -0.511  1.00  0.00     0.274 HD
ATOM     36  H22 UNL     1       5.415   2.494   0.842  1.00  0.00     0.274 HD
ATOM     37  H21 UNL     1       5.987   3.373  -0.481  1.00  0.00     0.274 HD
ENDBRANCH  33  34
ENDBRANCH   7  33
TORSDOF 6
