REMARK  5 active torsions:
REMARK  status: ('A' for Active; 'I' for Inactive)
REMARK    1  A    between atoms: C2_2  and  C7_10 
REMARK    2  A    between atoms: N1_3  and  C3_5 
REMARK    3  A    between atoms: C3_5  and  C4_6 
REMARK    4  A    between atoms: C4_6  and  N2_7 
REMARK    5  A    between atoms: C13_22  and  N4_23 
ROOT
HETATM    1  C7  UNL     1      -1.775  -0.197  -0.338  1.00  0.00     0.054 A 
HETATM    2  S1  UNL     1      -0.881   1.104   0.304  1.00  0.00    -0.068 SA
HETATM    3  C8  UNL     1       0.657   0.383   0.369  1.00  0.00     0.093 A 
HETATM    4  N3  UNL     1       1.783   0.991   0.817  1.00  0.00    -0.316 N 
ATOM      5  H3  UNL     1       1.655   1.917   1.225  1.00  0.00     0.169 HD
HETATM    6  C9  UNL     1       3.042   0.533   0.793  1.00  0.00     0.260 C 
HETATM    7  O1  UNL     1       3.834   1.173   1.510  1.00  0.00    -0.267 OA
HETATM    8  C10 UNL     1       3.612  -0.558   0.082  1.00  0.00     0.082 A 
HETATM    9  C11 UNL     1       2.851  -1.591  -0.351  1.00  0.00     0.075 A 
HETATM   10  S2  UNL     1       3.915  -2.660  -1.134  1.00  0.00    -0.075 SA
HETATM   11  C12 UNL     1       5.354  -1.758  -0.897  1.00  0.00     0.077 A 
HETATM   12  S3  UNL     1       7.068  -1.561  -1.102  1.00  0.00    -0.044 SA
HETATM   13  C13 UNL     1       7.196  -0.066  -0.299  1.00  0.00     0.147 A 
HETATM   14  N5  UNL     1       6.005   0.199   0.065  1.00  0.00    -0.334 N 
ATOM     15  H5  UNL     1       5.818   1.062   0.576  1.00  0.00     0.168 HD
HETATM   16  C16 UNL     1       4.983  -0.642  -0.213  1.00  0.00     0.075 A 
HETATM   17  C17 UNL     1       1.474  -1.827  -0.242  1.00  0.00     0.205 C 
HETATM   18  O2  UNL     1       1.177  -3.037  -0.262  1.00  0.00    -0.286 OA
HETATM   19  C18 UNL     1       0.437  -0.876  -0.119  1.00  0.00     0.075 A 
HETATM   20  C19 UNL     1      -0.829  -1.176  -0.486  1.00  0.00     0.082 A 
HETATM   21  N6  UNL     1      -1.214  -2.481  -1.021  1.00  0.00    -0.100 NA
ENDROOT
BRANCH   1  22
HETATM   22  C2  UNL     1      -3.217  -0.272  -0.664  1.00  0.00     0.020 C 
HETATM   23  C1  UNL     1      -3.847  -1.465  -1.215  1.00  0.00     0.069 C 
HETATM   24  N1  UNL     1      -3.891   0.785  -0.433  1.00  0.00    -0.391 N 
ATOM     25  H1  UNL     1      -3.365   1.569  -0.047  1.00  0.00     0.159 HD
BRANCH  24  26
HETATM   26  C3  UNL     1      -5.275   1.016  -0.641  1.00  0.00     0.150 C 
BRANCH  26  27
HETATM   27  C4  UNL     1      -6.020   0.461   0.580  1.00  0.00     0.290 C 
BRANCH  27  28
HETATM   28  N2  UNL     1      -7.443   0.655   0.453  1.00  0.00     0.081 N 
HETATM   29  C5  UNL     1      -7.774   2.066   0.531  1.00  0.00     0.309 C 
HETATM   30  C6  UNL     1      -7.996   0.024  -0.704  1.00  0.00     0.309 C 
ENDBRANCH  27  28
ENDBRANCH  26  27
ENDBRANCH  24  26
ENDBRANCH   1  22
BRANCH  13  31
HETATM   31  N4  UNL     1       8.380   0.745  -0.069  1.00  0.00    -0.370 N 
HETATM   32  C14 UNL     1       8.253   1.980   0.642  1.00  0.00     0.151 C 
HETATM   33  C15 UNL     1       9.603   0.217  -0.594  1.00  0.00     0.151 C 
ENDBRANCH  13  31
TORSDOF 5
