REMARK  4 active torsions:
REMARK  status: ('A' for Active; 'I' for Inactive)
REMARK    1  A    between atoms: N1_1  and  C1_5 
REMARK    2  A    between atoms: C1_5  and  C2_6 
REMARK    3  A    between atoms: C1_5  and  C4_9 
REMARK    4  A    between atoms: C2_6  and  C3_7 
ROOT
HETATM    1  C1  UNL     1      -0.261  -1.135  -0.524  1.00  0.00     0.252 C 
ENDROOT
BRANCH   1   2
HETATM    2  N1  UNL     1       0.364  -2.468  -0.251  1.00  0.00    -0.068 N 
ATOM      3  H13 UNL     1       0.504  -2.654   0.742  1.00  0.00     0.275 HD
ATOM      4  H12 UNL     1      -0.258  -3.254  -0.439  1.00  0.00     0.275 HD
ATOM      5  H11 UNL     1       1.227  -2.495  -0.794  1.00  0.00     0.275 HD
ENDBRANCH   1   2
BRANCH   1   6
HETATM    6  C2  UNL     1      -1.509  -1.096   0.262  1.00  0.00     0.052 C 
BRANCH   6   7
HETATM    7  C3  UNL     1      -2.380   0.095   0.222  1.00  0.00     0.088 C 
HETATM    8  S1  UNL     1      -1.708   1.625   0.841  1.00  0.00    -0.098 SA
ENDBRANCH   6   7
ENDBRANCH   1   6
BRANCH   1   9
HETATM    9  C4  UNL     1       0.731  -0.082  -0.269  1.00  0.00     0.120 A 
HETATM   10  N2  UNL     1       1.680  -0.168   0.607  1.00  0.00    -0.362 N 
HETATM   11  C5  UNL     1       2.493   1.020   0.628  1.00  0.00     0.257 A 
ATOM     12  H2  UNL     1       1.833  -0.978   1.208  1.00  0.00     0.162 HD
HETATM   13  N3  UNL     1       1.933   1.910  -0.333  1.00  0.00    -0.120 NA
HETATM   14  N4  UNL     1       0.875   1.173  -0.871  1.00  0.00    -0.290 N 
ATOM     15  H4  UNL     1       0.273   1.513  -1.621  1.00  0.00     0.183 HD
ENDBRANCH   1   9
TORSDOF 4
