REMARK  4 active torsions:
REMARK  status: ('A' for Active; 'I' for Inactive)
REMARK    1  A    between atoms: S1_3  and  N2_6 
REMARK    2  A    between atoms: N2_6  and  C2_8 
REMARK    3  A    between atoms: C5_11  and  S2_12 
REMARK    4  A    between atoms: S2_12  and  N3_13 
ROOT
HETATM    1  N1  UNL     1      -3.265   2.807   0.325  1.00  0.00    -0.177 NA
HETATM    2  C1  UNL     1      -3.429   1.711  -0.036  1.00  0.00     0.215 C 
HETATM    3  S1  UNL     1      -3.659   0.088  -0.580  1.00  0.00     0.328 S 
HETATM    4  O1  UNL     1      -5.032  -0.391  -0.165  1.00  0.00    -0.190 OA
HETATM    5  O2  UNL     1      -3.483  -0.052  -2.060  1.00  0.00    -0.190 OA
ENDROOT
BRANCH   3   6
HETATM    6  N2  UNL     1      -2.470  -0.879   0.198  1.00  0.00    -0.273 N 
ATOM      7  H2  UNL     1      -2.790  -1.627   0.813  1.00  0.00     0.179 HD
BRANCH   6   8
HETATM    8  C2  UNL     1      -1.074  -0.703   0.039  1.00  0.00     0.043 A 
HETATM    9  C3  UNL     1      -0.291  -0.719   1.181  1.00  0.00     0.031 A 
HETATM   10  C4  UNL     1       1.064  -0.548   1.038  1.00  0.00     0.027 A 
HETATM   11  C5  UNL     1       1.635  -0.364  -0.203  1.00  0.00     0.079 A 
HETATM   12  C6  UNL     1       0.856  -0.350  -1.318  1.00  0.00     0.027 A 
HETATM   13  C7  UNL     1      -0.514  -0.521  -1.200  1.00  0.00     0.031 A 
BRANCH  11  14
HETATM   14  S2  UNL     1       3.378  -0.155  -0.265  1.00  0.00     0.256 S 
HETATM   15  O3  UNL     1       4.004  -0.835   0.899  1.00  0.00    -0.201 OA
HETATM   16  O4  UNL     1       3.853  -0.689  -1.585  1.00  0.00    -0.201 OA
BRANCH  14  17
HETATM   17  N3  UNL     1       3.676   1.551  -0.128  1.00  0.00    -0.324 N 
ATOM     18  H32 UNL     1       2.967   2.277  -0.031  1.00  0.00     0.169 HD
ATOM     19  H31 UNL     1       4.688   1.672  -0.164  1.00  0.00     0.169 HD
ENDBRANCH  14  17
ENDBRANCH  11  14
ENDBRANCH   6   8
ENDBRANCH   3   6
TORSDOF 4
