REMARK  2 active torsions:
REMARK  status: ('A' for Active; 'I' for Inactive)
REMARK    1  A    between atoms: C6_8  and  C7_9 
REMARK    2  A    between atoms: C8_10  and  C9_11 
ROOT
HETATM    1  C7  UNL     1      -0.537  -1.261   0.082  1.00  0.00     0.034 C 
HETATM    2  C8  UNL     1       0.435  -0.431   0.333  1.00  0.00     0.008 C 
ENDROOT
BRANCH   1   3
HETATM    3  C6  UNL     1      -1.936  -0.986   0.564  1.00  0.00     0.294 C 
HETATM    4  O2  UNL     1      -2.873  -1.774  -0.152  1.00  0.00    -0.286 OA
HETATM    5  C5  UNL     1      -3.643  -1.282  -1.183  1.00  0.00     0.264 C 
HETATM    6  C4  UNL     1      -3.825   0.207  -1.233  1.00  0.00     0.148 C 
HETATM    7  O1  UNL     1      -4.180  -2.010  -2.052  1.00  0.00    -0.265 OA
HETATM    8  C2  UNL     1      -3.457   0.714   0.155  1.00  0.00     0.066 C 
HETATM    9  C1  UNL     1      -3.522   2.235   0.097  1.00  0.00     0.046 C 
HETATM   10  C3  UNL     1      -4.478   0.151   1.120  1.00  0.00     0.046 C 
HETATM   11  O3  UNL     1      -2.165   0.365   0.459  1.00  0.00    -0.347 OA
ENDBRANCH   1   3
BRANCH   2  12
HETATM   12  C9  UNL     1       1.823  -0.566  -0.067  1.00  0.00    -0.051 C 
HETATM   13  C10 UNL     1       2.722   0.374   0.264  1.00  0.00     0.001 C 
HETATM   14  C11 UNL     1       4.138   0.344  -0.083  1.00  0.00     0.029 C 
HETATM   15  C12 UNL     1       4.736   1.724   0.235  1.00  0.00     0.032 C 
HETATM   16  C13 UNL     1       4.955  -0.650   0.692  1.00  0.00     0.032 C 
HETATM   17  S1  UNL     1       4.426   0.176  -1.892  1.00  0.00    -0.084 SA
HETATM   18  S2  UNL     1       2.916  -1.246  -2.482  1.00  0.00    -0.092 SA
HETATM   19  C14 UNL     1       2.254  -1.732  -0.834  1.00  0.00     0.124 C 
ENDBRANCH   2  12
TORSDOF 2
