REMARK  4 active torsions:
REMARK  status: ('A' for Active; 'I' for Inactive)
REMARK    1  A    between atoms: C4_4  and  C5_5 
REMARK    2  A    between atoms: C5_5  and  C6_6 
REMARK    3  A    between atoms: C7_7  and  O1_8 
REMARK    4  A    between atoms: N2_14  and  C9_15 
ROOT
HETATM    1  C6  UNL     1      -0.497   0.324  -0.419  1.00  0.00     0.070 A 
HETATM    2  C7  UNL     1      -0.532   0.787  -1.717  1.00  0.00     0.166 A 
HETATM    3  N1  UNL     1      -1.757   0.609  -2.209  1.00  0.00    -0.312 N 
ATOM      4  H1  UNL     1      -2.060   0.863  -3.149  1.00  0.00     0.170 HD
HETATM    5  C8  UNL     1      -2.539   0.034  -1.256  1.00  0.00     0.182 A 
HETATM    6  S1  UNL     1      -4.128  -0.346  -1.481  1.00  0.00    -0.040 SA
HETATM    7  N2  UNL     1      -1.762  -0.133  -0.172  1.00  0.00    -0.300 N 
ENDROOT
BRANCH   1   8
HETATM    8  C5  UNL     1       0.688   0.371   0.469  1.00  0.00     0.089 C 
BRANCH   8   9
HETATM    9  C4  UNL     1       1.735  -0.596   0.009  1.00  0.00    -0.019 C 
HETATM   10  C2  UNL     1       2.985  -0.236  -0.246  1.00  0.00    -0.091 C 
HETATM   11  C1  UNL     1       3.370   1.185  -0.070  1.00  0.00     0.042 C 
HETATM   12  C3  UNL     1       3.987  -1.235  -0.702  1.00  0.00     0.042 C 
ENDBRANCH   8   9
ENDBRANCH   1   8
BRANCH   2  13
HETATM   13  O1  UNL     1       0.566   1.352  -2.391  1.00  0.00    -0.345 OA
ATOM     14  H1  UNL     1       0.542   1.671  -3.285  1.00  0.00     0.219 HD
ENDBRANCH   2  13
BRANCH   7  15
HETATM   15  C9  UNL     1      -2.148  -0.671   1.093  1.00  0.00     0.109 C 
HETATM   16  C10 UNL     1      -2.045   0.441   2.150  1.00  0.00     0.056 C 
HETATM   17  C11 UNL     1      -3.585  -1.137   1.168  1.00  0.00     0.056 C 
HETATM   18 CL1  UNL     1      -1.097  -2.049   1.536  1.00  0.00    -0.096 Cl
ENDBRANCH   7  15
TORSDOF 4
