REMARK  5 active torsions:
REMARK  status: ('A' for Active; 'I' for Inactive)
REMARK    1  A    between atoms: C2_2  and  O1_3 
REMARK    2  A    between atoms: C2_2  and  C10_15 
REMARK    3  A    between atoms: O1_3  and  C3_4 
REMARK    4  A    between atoms: C6_8  and  O3_9 
REMARK    5  A    between atoms: C13_19  and  O5_21 
ROOT
HETATM    1  C1  UNL     1      -0.891   1.622  -1.718  1.00  0.00     0.040 C 
HETATM    2  C2  UNL     1      -0.351   0.546  -0.823  1.00  0.00     0.127 C 
ENDROOT
BRANCH   2   3
HETATM    3  O1  UNL     1       0.541   1.164   0.065  1.00  0.00    -0.334 OA
BRANCH   3   4
HETATM    4  C3  UNL     1       1.818   0.673  -0.009  1.00  0.00     0.414 C 
HETATM    5  O2  UNL     1       2.669   1.766  -0.285  1.00  0.00    -0.331 OA
HETATM    6  C4  UNL     1       3.820   1.223  -0.840  1.00  0.00     0.154 C 
HETATM    7  C5  UNL     1       4.752   2.367  -1.196  1.00  0.00     0.042 C 
HETATM    8  C6  UNL     1       4.463   0.356   0.215  1.00  0.00     0.180 C 
HETATM    9  C7  UNL     1       3.483  -0.487   0.961  1.00  0.00     0.087 C 
HETATM   10  C8  UNL     1       3.146  -1.757   0.183  1.00  0.00     0.048 C 
HETATM   11  C9  UNL     1       4.143  -0.908   2.270  1.00  0.00     0.048 C 
HETATM   12  O4  UNL     1       2.274   0.156   1.212  1.00  0.00    -0.326 OA
BRANCH   8  13
HETATM   13  O3  UNL     1       5.453  -0.442  -0.343  1.00  0.00    -0.390 OA
ATOM     14  H3  UNL     1       5.858  -0.988   0.321  1.00  0.00     0.210 HD
ENDBRANCH   8  13
ENDBRANCH   3   4
ENDBRANCH   2   3
BRANCH   2  15
HETATM   15  C10 UNL     1      -1.409  -0.085   0.051  1.00  0.00     0.023 C 
HETATM   16  C11 UNL     1      -1.962   1.053   0.883  1.00  0.00     0.026 C 
HETATM   17  C12 UNL     1      -3.047   0.615   1.826  1.00  0.00     0.092 C 
HETATM   18 BR1  UNL     1      -2.337  -0.248   3.409  1.00  0.00    -0.088 Br
HETATM   19  C13 UNL     1      -4.073  -0.220   1.129  1.00  0.00     0.068 C 
HETATM   20  C14 UNL     1      -5.438   0.463   1.219  1.00  0.00     0.047 C 
HETATM   21  C15 UNL     1      -3.807  -0.398  -0.342  1.00  0.00     0.048 C 
HETATM   22  C16 UNL     1      -2.408  -0.910  -0.631  1.00  0.00    -0.039 C 
HETATM   23  C17 UNL     1      -2.352  -2.361  -0.123  1.00  0.00     0.015 C 
HETATM   24  C18 UNL     1      -2.301  -1.004  -2.121  1.00  0.00     0.015 C 
BRANCH  19  25
HETATM   25  O5  UNL     1      -4.258  -1.471   1.763  1.00  0.00    -0.389 OA
ATOM     26  H5  UNL     1      -4.910  -2.002   1.320  1.00  0.00     0.210 HD
ENDBRANCH  19  25
ENDBRANCH   2  15
TORSDOF 5
