REMARK  3 active torsions:
REMARK  status: ('A' for Active; 'I' for Inactive)
REMARK    1  A    between atoms: C3_5  and  C4_6 
REMARK    2  A    between atoms: C7_12  and  C8_13 
REMARK    3  A    between atoms: N4_14  and  N5_16 
ROOT
HETATM    1  C4  UNL     1       2.190   1.909   1.553  1.00  0.00    -0.014 C 
HETATM    2  C5  UNL     1       2.388   2.887   2.233  1.00  0.00     0.021 C 
HETATM    3  C6  UNL     1       2.597   4.044   3.035  1.00  0.00     0.152 C 
HETATM    4  N2  UNL     1       2.753   4.981   3.701  1.00  0.00    -0.182 NA
ENDROOT
BRANCH   1   5
HETATM    5  C3  UNL     1       1.930   0.746   0.741  1.00  0.00     0.163 A 
HETATM    6  N1  UNL     1       2.784  -0.018   0.086  1.00  0.00    -0.337 N 
HETATM    7  C2  UNL     1       2.149  -1.006  -0.555  1.00  0.00     0.035 A 
ATOM      8  H1  UNL     1       3.794   0.126   0.071  1.00  0.00     0.168 HD
HETATM    9  C1  UNL     1       2.769  -2.077  -1.405  1.00  0.00     0.070 C 
HETATM   10  C7  UNL     1       0.780  -0.859  -0.284  1.00  0.00     0.073 A 
HETATM   11  N3  UNL     1       0.689   0.214   0.504  1.00  0.00    -0.332 N 
ATOM     12  H3  UNL     1      -0.183   0.587   0.878  1.00  0.00     0.168 HD
BRANCH  10  13
HETATM   13  C8  UNL     1      -0.246  -1.744  -0.803  1.00  0.00     0.138 C 
HETATM   14  N4  UNL     1      -1.490  -1.682  -0.609  1.00  0.00    -0.308 N 
ATOM     15  H4  UNL     1      -2.075  -2.390  -1.052  1.00  0.00     0.186 HD
BRANCH  14  16
HETATM   16  N5  UNL     1      -2.111  -0.730   0.155  1.00  0.00    -0.276 N 
HETATM   17  C9  UNL     1      -3.098  -0.059  -0.300  1.00  0.00     0.215 C 
HETATM   18  N6  UNL     1      -3.561  -0.298  -1.611  1.00  0.00    -0.065 NA
HETATM   19  N7  UNL     1      -3.717   0.911   0.502  1.00  0.00    -0.065 NA
ATOM     20  H5  UNL     1      -1.780  -0.554   1.103  1.00  0.00     0.189 HD
ENDBRANCH  14  16
ENDBRANCH  10  13
ENDBRANCH   1   5
TORSDOF 3
