REMARK  6 active torsions:
REMARK  status: ('A' for Active; 'I' for Inactive)
REMARK       I    between atoms: C2_2  and  N1_4 
REMARK    1  A    between atoms: N1_4  and  C3_6 
REMARK    2  A    between atoms: C3_6  and  O2_10 
REMARK    3  A    between atoms: O2_10  and  N3_11 
REMARK    4  A    between atoms: C4_13  and  C5_14 
REMARK    5  A    between atoms: C9_19  and  S2_20 
REMARK    6  A    between atoms: S2_20  and  C10_21 
ROOT
HETATM    1  N3  UNL     1       1.150   0.016  -0.779  1.00  0.00    -0.268 N 
ATOM      2  H3  UNL     1       0.493  -0.677  -0.422  1.00  0.00     0.194 HD
HETATM    3  C4  UNL     1       0.706   1.184  -0.992  1.00  0.00     0.128 C 
ENDROOT
BRANCH   1   4
HETATM    4  O2  UNL     1       2.428  -0.386  -0.988  1.00  0.00    -0.202 OA
BRANCH   4   5
HETATM    5  C3  UNL     1       3.499   0.089  -0.241  1.00  0.00     0.243 C 
HETATM    6  N2  UNL     1       3.445   1.346   0.077  1.00  0.00    -0.364 N 
ATOM      7  H22 UNL     1       4.231   1.695   0.625  1.00  0.00     0.159 HD
ATOM      8  H21 UNL     1       2.661   1.931  -0.212  1.00  0.00     0.159 HD
BRANCH   5   9
HETATM    9  N1  UNL     1       4.582  -0.720   0.158  1.00  0.00    -0.292 N 
HETATM   10  C2  UNL     1       4.645  -2.082  -0.184  1.00  0.00     0.220 C 
HETATM   11  C1  UNL     1       5.791  -2.906   0.246  1.00  0.00     0.117 C 
HETATM   12  O1  UNL     1       3.732  -2.611  -0.856  1.00  0.00    -0.274 OA
ATOM     13  H1  UNL     1       5.337  -0.308   0.707  1.00  0.00     0.172 HD
ENDBRANCH   5   9
ENDBRANCH   4   5
ENDBRANCH   1   4
BRANCH   3  14
HETATM   14  C5  UNL     1      -0.720   1.527  -0.729  1.00  0.00     0.006 A 
HETATM   15  C6  UNL     1      -1.215   2.756  -0.946  1.00  0.00     0.029 A 
HETATM   16  C7  UNL     1      -2.536   2.965  -0.671  1.00  0.00    -0.019 A 
HETATM   17  C8  UNL     1      -3.333   4.237  -0.824  1.00  0.00     0.056 C 
HETATM   18  S1  UNL     1      -3.059   1.448  -0.118  1.00  0.00    -0.087 SA
HETATM   19  C9  UNL     1      -1.596   0.586  -0.246  1.00  0.00     0.053 A 
BRANCH  19  20
HETATM   20  S2  UNL     1      -1.232  -1.132   0.139  1.00  0.00    -0.118 SA
BRANCH  20  21
HETATM   21  C10 UNL     1      -2.711  -1.974   0.746  1.00  0.00     0.045 C 
HETATM   22  C11 UNL     1      -3.078  -1.354   2.076  1.00  0.00     0.021 C 
HETATM   23  C12 UNL     1      -3.869  -1.872  -0.195  1.00  0.00     0.021 C 
ENDBRANCH  20  21
ENDBRANCH  19  20
ENDBRANCH   3  14
TORSDOF 6
