REMARK  9 active torsions:
REMARK  status: ('A' for Active; 'I' for Inactive)
REMARK    1  A    between atoms: C2_2  and  C4_4 
REMARK    2  A    between atoms: C4_4  and  C5_5 
REMARK    3  A    between atoms: C5_5  and  C6_6 
REMARK    4  A    between atoms: C5_5  and  N1_8 
REMARK    5  A    between atoms: N1_8  and  C7_11 
REMARK    6  A    between atoms: C7_11  and  O2_12 
REMARK    7  A    between atoms: C7_11  and  N2_14 
REMARK    8  A    between atoms: N2_14  and  C8_17 
REMARK    9  A    between atoms: C8_17  and  C10_20 
ROOT
HETATM    1  C8  UNL     1      -2.293   0.645  -0.133  1.00  0.00     0.327 C 
HETATM    2  C9  UNL     1      -1.263   1.082  -1.083  1.00  0.00     0.095 C 
HETATM    3  N3  UNL     1      -0.459   1.446  -1.860  1.00  0.00    -0.195 NA
ENDROOT
BRANCH   1   4
HETATM    4  N2  UNL     1      -1.940  -0.602   0.429  1.00  0.00    -0.004 N 
ATOM      5  H22 UNL     1      -1.886  -1.327  -0.286  1.00  0.00     0.284 HD
ATOM      6  H21 UNL     1      -2.702  -0.983   0.989  1.00  0.00     0.284 HD
BRANCH   4   7
HETATM    7  C7  UNL     1      -0.719  -0.530   1.191  1.00  0.00     0.524 C 
BRANCH   7   8
HETATM    8  N1  UNL     1       0.476  -0.374   0.452  1.00  0.00    -0.013 N 
ATOM      9  H12 UNL     1       0.338   0.257  -0.337  1.00  0.00     0.283 HD
ATOM     10  H11 UNL     1       0.705  -1.228  -0.057  1.00  0.00     0.283 HD
BRANCH   8  11
HETATM   11  C5  UNL     1       1.573   0.049   1.258  1.00  0.00     0.252 C 
BRANCH  11  12
HETATM   12  C4  UNL     1       2.588   0.839   0.434  1.00  0.00     0.044 C 
BRANCH  12  13
HETATM   13  C2  UNL     1       3.390   0.034  -0.522  1.00  0.00    -0.020 C 
HETATM   14  C1  UNL     1       4.309   1.041  -1.250  1.00  0.00     0.009 C 
HETATM   15  C3  UNL     1       4.357  -0.951   0.119  1.00  0.00     0.009 C 
ENDBRANCH  12  13
ENDBRANCH  11  12
BRANCH  11  16
HETATM   16  C6  UNL     1       2.230  -0.976   2.070  1.00  0.00     0.264 C 
HETATM   17  O1  UNL     1       1.997  -2.156   2.137  1.00  0.00    -0.305 OA
ENDBRANCH  11  16
ENDBRANCH   8  11
ENDBRANCH   7   8
BRANCH   7  18
HETATM   18  O2  UNL     1      -0.695  -1.620   2.062  1.00  0.00    -0.349 OA
ATOM     19  H2  UNL     1      -1.498  -1.725   2.559  1.00  0.00     0.213 HD
ENDBRANCH   7  18
ENDBRANCH   4   7
ENDBRANCH   1   4
BRANCH   1  20
HETATM   20  C10 UNL     1      -3.602   0.662  -0.889  1.00  0.00     0.240 C 
HETATM   21  C11 UNL     1      -3.625  -0.269  -2.059  1.00  0.00     0.111 C 
HETATM   22  S1  UNL     1      -4.580  -1.673  -1.360  1.00  0.00    -0.140 SA
HETATM   23  C12 UNL     1      -5.038  -0.841   0.216  1.00  0.00     0.306 C 
HETATM   24  N4  UNL     1      -4.766   0.513  -0.096  1.00  0.00    -0.059 N 
ATOM     25  H42 UNL     1      -4.710   1.081   0.750  1.00  0.00     0.278 HD
ATOM     26  H41 UNL     1      -5.571   0.957  -0.538  1.00  0.00     0.278 HD
ENDBRANCH   1  20
TORSDOF 9
