REMARK  11 active torsions:
REMARK  status: ('A' for Active; 'I' for Inactive)
REMARK    1  A    between atoms: C2_2  and  C4_4 
REMARK    2  A    between atoms: C4_4  and  N1_6 
REMARK    3  A    between atoms: N1_6  and  C6_8 
REMARK    4  A    between atoms: C7_11  and  N3_12 
REMARK    5  A    between atoms: N3_12  and  C8_13 
REMARK    6  A    between atoms: C8_13  and  C9_14 
REMARK    7  A    between atoms: N4_17  and  C12_18 
REMARK    8  A    between atoms: C12_18  and  C13_19 
REMARK    9  A    between atoms: C13_19  and  N5_20 
REMARK   10  A    between atoms: C22_31  and  N7_32 
REMARK   11  A    between atoms: N7_32  and  C23_34 
ROOT
HETATM    1  C6  UNL     1      -4.408   0.420   0.036  1.00  0.00     0.696 A 
HETATM    2  N2  UNL     1      -3.212   0.933  -0.219  1.00  0.00    -0.148 N 
ATOM      3  H2  UNL     1      -3.082   1.465  -1.079  1.00  0.00     0.188 HD
HETATM    4  C7  UNL     1      -2.136   0.776   0.632  1.00  0.00     0.287 A 
HETATM    5  N6  UNL     1      -2.382   0.061   1.747  1.00  0.00    -0.148 N 
ATOM      6  H6  UNL     1      -1.621  -0.085   2.410  1.00  0.00     0.188 HD
HETATM    7  C22 UNL     1      -3.578  -0.465   2.023  1.00  0.00     0.700 A 
HETATM    8  N8  UNL     1      -4.585  -0.283   1.166  1.00  0.00    -0.022 N 
ATOM      9  H8  UNL     1      -5.500  -0.683   1.372  1.00  0.00     0.203 HD
ENDROOT
BRANCH   4  10
HETATM   10  N3  UNL     1      -1.091   1.273   0.339  1.00  0.00    -0.387 NA
BRANCH  10  11
HETATM   11  C8  UNL     1       0.096   1.811   0.053  1.00  0.00     0.164 C 
BRANCH  11  12
HETATM   12  C9  UNL     1       1.203   0.787  -0.162  1.00  0.00     0.047 C 
HETATM   13  C10 UNL     1       1.462  -0.070   1.040  1.00  0.00     0.056 C 
HETATM   14  C11 UNL     1       2.325  -1.222   0.584  1.00  0.00     0.069 C 
HETATM   15  N4  UNL     1       3.410  -0.853  -0.225  1.00  0.00    -0.352 N 
HETATM   16  C20 UNL     1       3.624   0.479  -0.548  1.00  0.00     0.069 C 
HETATM   17  C21 UNL     1       2.485   1.427  -0.575  1.00  0.00     0.056 C 
BRANCH  15  18
HETATM   18  C12 UNL     1       4.170  -1.886  -0.798  1.00  0.00     0.098 C 
BRANCH  18  19
HETATM   19  C13 UNL     1       5.357  -1.428  -1.611  1.00  0.00     0.317 C 
BRANCH  19  20
HETATM   20  N5  UNL     1       6.290  -0.651  -0.848  1.00  0.00     0.093 N 
HETATM   21  C14 UNL     1       7.003  -1.374   0.150  1.00  0.00     0.273 C 
HETATM   22  C15 UNL     1       7.736  -0.363   1.037  1.00  0.00     0.030 C 
HETATM   23  C16 UNL     1       8.987   0.049   0.321  1.00  0.00     0.002 C 
HETATM   24  C17 UNL     1       8.743   1.407  -0.318  1.00  0.00     0.002 C 
HETATM   25  C18 UNL     1       7.529   1.407  -1.193  1.00  0.00     0.030 C 
HETATM   26  C19 UNL     1       7.207   0.033  -1.741  1.00  0.00     0.273 C 
ENDBRANCH  19  20
ENDBRANCH  18  19
ENDBRANCH  15  18
ENDBRANCH  11  12
ENDBRANCH  10  11
ENDBRANCH   4  10
BRANCH   1  27
HETATM   27  N1  UNL     1      -5.399   0.570  -0.737  1.00  0.00    -0.221 N 
ATOM     28  H1  UNL     1      -6.265   0.127  -0.431  1.00  0.00     0.178 HD
BRANCH  27  29
HETATM   29  C4  UNL     1      -5.474   1.277  -1.985  1.00  0.00     0.098 C 
HETATM   30  C5  UNL     1      -5.180   0.387  -3.175  1.00  0.00     0.033 C 
BRANCH  29  31
HETATM   31  C2  UNL     1      -6.838   1.932  -2.117  1.00  0.00     0.000 C 
HETATM   32  C1  UNL     1      -7.961   0.955  -2.203  1.00  0.00     0.011 C 
HETATM   33  C3  UNL     1      -6.871   2.828  -3.343  1.00  0.00     0.011 C 
ENDBRANCH  29  31
ENDBRANCH  27  29
ENDBRANCH   1  27
BRANCH   7  34
HETATM   34  N7  UNL     1      -3.688  -1.129   3.117  1.00  0.00    -0.189 N 
ATOM     35  H7  UNL     1      -2.849  -1.204   3.693  1.00  0.00     0.184 HD
BRANCH  34  36
HETATM   36  C23 UNL     1      -4.846  -1.764   3.603  1.00  0.00     0.072 A 
HETATM   37  C24 UNL     1      -5.045  -3.132   3.496  1.00  0.00     0.057 A 
HETATM   38  C25 UNL     1      -6.183  -3.736   3.984  1.00  0.00     0.058 A 
HETATM   39 CL1  UNL     1      -6.422  -5.461   3.843  1.00  0.00    -0.082 Cl
HETATM   40  C26 UNL     1      -7.179  -2.996   4.605  1.00  0.00     0.057 A 
HETATM   41 CL2  UNL     1      -8.622  -3.755   5.227  1.00  0.00    -0.082 Cl
HETATM   42  C27 UNL     1      -6.968  -1.629   4.706  1.00  0.00     0.051 A 
HETATM   43  C28 UNL     1      -5.832  -1.013   4.221  1.00  0.00     0.063 A 
HETATM   44 CL3  UNL     1      -5.688   0.720   4.412  1.00  0.00    -0.082 Cl
ENDBRANCH  34  36
ENDBRANCH   7  34
TORSDOF 11
