REMARK  1 active torsions:
REMARK  status: ('A' for Active; 'I' for Inactive)
REMARK    1  A    between atoms: N2_7  and  C3_8 
ROOT
HETATM    1  O1  UNL     1      -3.649   1.429  -0.379  1.00  0.00    -0.245 OA
HETATM    2  C1  UNL     1      -2.643   0.715  -0.087  1.00  0.00     0.343 A 
HETATM    3  N1  UNL     1      -2.629  -0.461   0.587  1.00  0.00    -0.257 N 
ATOM      4  H1  UNL     1      -3.450  -0.939   0.958  1.00  0.00     0.175 HD
HETATM    5  C2  UNL     1      -1.356  -0.900   0.689  1.00  0.00     0.364 A 
HETATM    6  O2  UNL     1      -0.944  -1.955   1.246  1.00  0.00    -0.244 OA
HETATM    7  N2  UNL     1      -0.572   0.006   0.076  1.00  0.00    -0.026 N 
HETATM    8  N6  UNL     1      -1.350   0.965  -0.382  1.00  0.00    -0.226 N 
ATOM      9  H6  UNL     1      -1.020   1.785  -0.891  1.00  0.00     0.193 HD
ENDROOT
BRANCH   7  10
HETATM   10  C3  UNL     1       0.845  -0.058  -0.054  1.00  0.00     0.723 A 
HETATM   11  N3  UNL     1       1.593   0.583  -1.003  1.00  0.00    -0.183 N 
HETATM   12  C4  UNL     1       2.879   0.301  -0.828  1.00  0.00     0.215 A 
ATOM     13  H3  UNL     1       1.219   1.187  -1.735  1.00  0.00     0.185 HD
HETATM   14  N4  UNL     1       2.985  -0.520   0.228  1.00  0.00    -0.281 N 
HETATM   15  N5  UNL     1       1.744  -0.730   0.688  1.00  0.00    -0.129 N 
ATOM     16  H4  UNL     1       3.847  -0.910   0.609  1.00  0.00     0.188 HD
ATOM     17  H5  UNL     1       1.513  -1.318   1.489  1.00  0.00     0.205 HD
ENDBRANCH   7  10
TORSDOF 1
