REMARK  11 active torsions:
REMARK  status: ('A' for Active; 'I' for Inactive)
REMARK    1  A    between atoms: C2_2  and  O1_3 
REMARK    2  A    between atoms: O1_3  and  C3_4 
REMARK       I    between atoms: C3_4  and  N1_6 
REMARK    3  A    between atoms: N1_6  and  C4_8 
REMARK    4  A    between atoms: C4_8  and  C5_9 
REMARK    5  A    between atoms: C5_9  and  N2_11 
REMARK       I    between atoms: N2_11  and  C6_13 
REMARK    6  A    between atoms: C6_13  and  O4_15 
REMARK    7  A    between atoms: O4_15  and  C7_16 
REMARK    8  A    between atoms: C7_16  and  C8_17 
REMARK    9  A    between atoms: C14_23  and  C15_24 
REMARK   10  A    between atoms: C15_24  and  N3_25 
REMARK   11  A    between atoms: N3_25  and  C18_28 
ROOT
HETATM    1  C8  UNL     1      -0.515   0.349   0.872  1.00  0.00    -0.014 C 
HETATM    2  C9  UNL     1      -0.017  -0.684  -0.114  1.00  0.00     0.012 C 
HETATM    3  C10 UNL     1      -0.699  -0.377  -1.404  1.00  0.00     0.010 C 
HETATM    4  C11 UNL     1      -2.228  -0.532  -1.236  1.00  0.00    -0.035 C 
HETATM    5  C12 UNL     1      -2.334  -2.036  -0.947  1.00  0.00     0.016 C 
HETATM    6  C13 UNL     1      -2.798  -0.328  -2.582  1.00  0.00     0.016 C 
HETATM    7  C14 UNL     1      -2.733   0.324  -0.120  1.00  0.00     0.027 C 
HETATM    8  C20 UNL     1      -2.021   0.017   1.171  1.00  0.00     0.027 C 
HETATM    9  C21 UNL     1      -2.123   1.735  -0.305  1.00  0.00     0.124 C 
HETATM   10 CL2  UNL     1      -2.977   2.929   0.744  1.00  0.00    -0.101 Cl
HETATM   11 CL3  UNL     1      -2.194   2.414  -1.885  1.00  0.00    -0.101 Cl
HETATM   12  C22 UNL     1      -0.709   1.663   0.246  1.00  0.00     0.054 C 
ENDROOT
BRANCH   1  13
HETATM   13  C7  UNL     1       0.263   0.219   2.120  1.00  0.00     0.190 C 
BRANCH  13  14
HETATM   14  O4  UNL     1       1.611   0.345   1.985  1.00  0.00    -0.303 OA
BRANCH  14  15
HETATM   15  C6  UNL     1       2.503   1.266   1.632  1.00  0.00     0.361 C 
HETATM   16  N2  UNL     1       3.931   0.993   1.604  1.00  0.00    -0.318 N 
ATOM     17  H2  UNL     1       4.274   0.068   1.862  1.00  0.00     0.166 HD
HETATM   18  O3  UNL     1       2.130   2.409   1.310  1.00  0.00    -0.238 OA
BRANCH  16  19
HETATM   19  C5  UNL     1       4.867   2.018   1.215  1.00  0.00     0.201 C 
HETATM   20 CL1  UNL     1       6.007   2.384   2.529  1.00  0.00    -0.101 Cl
BRANCH  19  21
HETATM   21  C4  UNL     1       5.645   1.567   0.021  1.00  0.00     0.166 C 
BRANCH  21  22
HETATM   22  N1  UNL     1       6.413   0.382   0.335  1.00  0.00    -0.334 N 
HETATM   23  C3  UNL     1       7.237  -0.225  -0.667  1.00  0.00     0.360 C 
HETATM   24  O2  UNL     1       7.300   0.263  -1.823  1.00  0.00    -0.239 OA
ATOM     25  H1  UNL     1       6.368  -0.022   1.271  1.00  0.00     0.164 HD
BRANCH  23  26
HETATM   26  O1  UNL     1       7.966  -1.350  -0.367  1.00  0.00    -0.304 OA
BRANCH  26  27
HETATM   27  C2  UNL     1       8.795  -2.005  -1.287  1.00  0.00     0.176 C 
HETATM   28  C1  UNL     1       9.887  -1.098  -1.799  1.00  0.00     0.034 C 
ENDBRANCH  26  27
ENDBRANCH  23  26
ENDBRANCH  21  22
ENDBRANCH  19  21
ENDBRANCH  16  19
ENDBRANCH  14  15
ENDBRANCH  13  14
ENDBRANCH   1  13
BRANCH   7  29
HETATM   29  C15 UNL     1      -4.190   0.456   0.007  1.00  0.00     0.249 C 
BRANCH  29  30
HETATM   30  N3  UNL     1      -5.169  -0.469   0.220  1.00  0.00    -0.074 N 
HETATM   31  C16 UNL     1      -5.937  -0.891  -0.984  1.00  0.00     0.272 C 
HETATM   32  C17 UNL     1      -5.071  -1.636   0.990  1.00  0.00     0.272 C 
BRANCH  30  33
HETATM   33  C18 UNL     1      -6.292   0.318   0.854  1.00  0.00     0.232 C 
HETATM   34  C19 UNL     1      -5.929   0.797   2.201  1.00  0.00     0.034 C 
ENDBRANCH  30  33
ENDBRANCH  29  30
ENDBRANCH   7  29
TORSDOF 11
