REMARK  7 active torsions:
REMARK  status: ('A' for Active; 'I' for Inactive)
REMARK       I    between atoms: C1_2  and  N1_3 
REMARK    1  A    between atoms: C1_2  and  C11_23 
REMARK    2  A    between atoms: N1_3  and  C2_5 
REMARK    3  A    between atoms: C2_5  and  C8_14 
REMARK    4  A    between atoms: N2_6  and  C3_8 
REMARK    5  A    between atoms: C3_8  and  C4_9 
REMARK    6  A    between atoms: C8_14  and  C9_19 
REMARK    7  A    between atoms: N3_15  and  O3_17 
ROOT
HETATM    1  C2  UNL     1      -0.916  -0.954   1.180  1.00  0.00     0.135 C 
HETATM    2  N2  UNL     1      -1.567   0.061   1.669  1.00  0.00    -0.368 N 
ATOM      3  H2  UNL     1      -2.405  -0.147   2.212  1.00  0.00     0.161 HD
ENDROOT
BRANCH   1   4
HETATM    4  N1  UNL     1       0.241  -0.647   0.434  1.00  0.00    -0.307 N 
HETATM    5  C1  UNL     1       1.221  -1.306  -0.251  1.00  0.00     0.257 C 
HETATM    6  O1  UNL     1       1.350  -2.526  -0.403  1.00  0.00    -0.267 OA
ATOM      7  H1  UNL     1       0.389   0.362   0.395  1.00  0.00     0.170 HD
BRANCH   5   8
HETATM    8  C11 UNL     1       2.317  -0.521  -0.934  1.00  0.00     0.032 A 
HETATM    9  C12 UNL     1       3.532  -1.094  -1.124  1.00  0.00     0.018 A 
HETATM   10  C13 UNL     1       4.583  -0.452  -1.742  1.00  0.00     0.020 A 
HETATM   11  C14 UNL     1       4.397   0.836  -2.192  1.00  0.00     0.011 A 
HETATM   12 BR1  UNL     1       5.832   1.766  -3.058  1.00  0.00    -0.051 Br
HETATM   13  C15 UNL     1       3.166   1.426  -2.003  1.00  0.00     0.020 A 
HETATM   14  C16 UNL     1       2.105   0.761  -1.372  1.00  0.00     0.018 A 
ENDBRANCH   5   8
ENDBRANCH   1   4
BRANCH   1  15
HETATM   15  C8  UNL     1      -1.462  -2.275   1.464  1.00  0.00     0.120 C 
HETATM   16  N3  UNL     1      -0.736  -3.234   0.929  1.00  0.00    -0.264 N 
ATOM     17  H3  UNL     1       0.089  -2.951   0.400  1.00  0.00     0.194 HD
BRANCH  16  18
HETATM   18  O3  UNL     1      -0.977  -4.518   1.014  1.00  0.00    -0.289 OA
ATOM     19  H3  UNL     1      -0.453  -5.210   0.628  1.00  0.00     0.244 HD
ENDBRANCH  16  18
BRANCH  15  20
HETATM   20  C9  UNL     1      -2.594  -2.666   2.191  1.00  0.00     0.077 C 
HETATM   21 CL1  UNL     1      -2.849  -4.517   2.251  1.00  0.00    -0.081 Cl
HETATM   22  C10 UNL     1      -3.519  -2.086   2.835  1.00  0.00     0.111 C 
HETATM   23 CL2  UNL     1      -3.916  -0.470   3.192  1.00  0.00    -0.095 Cl
ENDBRANCH  15  20
ENDBRANCH   1  15
BRANCH   2  24
HETATM   24  C3  UNL     1      -1.218   1.447   1.517  1.00  0.00     0.186 C 
BRANCH  24  25
HETATM   25  C4  UNL     1      -1.639   2.069   0.257  1.00  0.00     0.070 A 
HETATM   26  C5  UNL     1      -1.381   3.391  -0.043  1.00  0.00     0.036 A 
HETATM   27  C6  UNL     1      -1.896   3.660  -1.274  1.00  0.00     0.027 A 
HETATM   28  C7  UNL     1      -2.467   2.477  -1.707  1.00  0.00     0.142 A 
HETATM   29  O2  UNL     1      -2.286   1.581  -0.770  1.00  0.00    -0.325 OA
ENDBRANCH  24  25
ENDBRANCH   2  24
TORSDOF 7
