REMARK  8 active torsions:
REMARK  status: ('A' for Active; 'I' for Inactive)
REMARK    1  A    between atoms: C4_6  and  C5_7 
REMARK    2  A    between atoms: C5_7  and  O2_8 
REMARK    3  A    between atoms: C5_7  and  O3_10 
REMARK    4  A    between atoms: N2_12  and  C6_13 
REMARK    5  A    between atoms: C6_13  and  N3_14 
REMARK    6  A    between atoms: N3_14  and  O4_15 
REMARK    7  A    between atoms: N3_14  and  C7_17 
REMARK    8  A    between atoms: C9_19  and  N4_20 
REMARK       I    between atoms: N6_26  and  C11_28 
ROOT
HETATM    1  N3  UNL     1       0.364  -0.043   0.670  1.00  0.00    -0.196 N 
ENDROOT
BRANCH   1   2
HETATM    2  C6  UNL     1      -0.910   0.451   1.051  1.00  0.00     0.228 C 
BRANCH   2   3
HETATM    3  N2  UNL     1      -2.059  -0.172   0.453  1.00  0.00    -0.256 N 
HETATM    4  C4  UNL     1      -2.658   0.297  -0.616  1.00  0.00     0.082 A 
HETATM    5  C3  UNL     1      -3.780  -0.391  -1.129  1.00  0.00     0.105 A 
HETATM    6  C2  UNL     1      -4.219  -1.528  -0.503  1.00  0.00     0.253 A 
HETATM    7  N1  UNL     1      -3.599  -1.991   0.582  1.00  0.00    -0.270 N 
HETATM    8  O1  UNL     1      -5.220  -2.175  -0.930  1.00  0.00    -0.268 OA
HETATM    9  C1  UNL     1      -4.046  -3.205   1.276  1.00  0.00     0.164 C 
HETATM   10  C12 UNL     1      -2.545  -1.324   1.043  1.00  0.00     0.336 A 
HETATM   11  O6  UNL     1      -1.952  -1.764   2.078  1.00  0.00    -0.246 OA
BRANCH   4  12
HETATM   12  C5  UNL     1      -2.283   1.521  -1.305  1.00  0.00     0.306 C 
BRANCH  12  13
HETATM   13  O2  UNL     1      -0.980   1.576  -1.776  1.00  0.00    -0.366 OA
ATOM     14  H2  UNL     1      -0.735   2.376  -2.226  1.00  0.00     0.213 HD
ENDBRANCH  12  13
BRANCH  12  15
HETATM   15  O3  UNL     1      -2.595   2.683  -0.594  1.00  0.00    -0.366 OA
ATOM     16  H3  UNL     1      -2.350   3.483  -1.044  1.00  0.00     0.213 HD
ENDBRANCH  12  15
ENDBRANCH   4  12
ENDBRANCH   2   3
ENDBRANCH   1   2
BRANCH   1  17
HETATM   17  O4  UNL     1       0.517  -1.377   0.516  1.00  0.00    -0.280 OA
ATOM     18  H4  UNL     1       1.370  -1.708   0.261  1.00  0.00     0.245 HD
ENDBRANCH   1  17
BRANCH   1  19
HETATM   19  C7  UNL     1       1.502   0.774   0.513  1.00  0.00     0.182 A 
HETATM   20  C8  UNL     1       1.534   2.129   0.769  1.00  0.00     0.107 A 
HETATM   21  C9  UNL     1       2.678   2.871   0.595  1.00  0.00     0.105 A 
HETATM   22  N5  UNL     1       3.775   2.248   0.167  1.00  0.00    -0.308 N 
HETATM   23  C10 UNL     1       3.743   0.917  -0.085  1.00  0.00     0.234 A 
ATOM     24  H5  UNL     1       4.639   2.773   0.029  1.00  0.00     0.171 HD
HETATM   25  N6  UNL     1       4.850   0.392  -0.496  1.00  0.00    -0.296 N 
HETATM   26  O5  UNL     1       2.659   0.262   0.090  1.00  0.00    -0.259 OA
HETATM   27  C11 UNL     1       4.938  -0.988  -0.791  1.00  0.00     0.189 C 
ATOM     28  H6  UNL     1       5.674   0.983  -0.609  1.00  0.00     0.172 HD
HETATM   29  N7  UNL     1       4.356  -1.419  -1.854  1.00  0.00    -0.373 N 
HETATM   30  N8  UNL     1       5.652  -1.867   0.067  1.00  0.00    -0.064 NA
ATOM     31  H72 UNL     1       3.843  -0.788  -2.470  1.00  0.00     0.158 HD
ATOM     32  H71 UNL     1       4.419  -2.415  -2.067  1.00  0.00     0.158 HD
BRANCH  21  33
HETATM   33  N4  UNL     1       2.627   4.129   0.856  1.00  0.00    -0.385 N 
ATOM     34  H42 UNL     1       1.787   4.606   1.184  1.00  0.00     0.157 HD
ATOM     35  H41 UNL     1       3.476   4.680   0.727  1.00  0.00     0.157 HD
ENDBRANCH  21  33
ENDBRANCH   1  19
TORSDOF 8
