REMARK  8 active torsions:
REMARK  status: ('A' for Active; 'I' for Inactive)
REMARK    1  A    between atoms: O1_1  and  N1_3 
REMARK    2  A    between atoms: C1_5  and  O2_6 
REMARK    3  A    between atoms: C1_5  and  N2_8 
REMARK    4  A    between atoms: N2_8  and  N3_10 
REMARK    5  A    between atoms: C2_12  and  C3_13 
REMARK    6  A    between atoms: C5_15  and  O3_16 
REMARK    7  A    between atoms: C6_18  and  O4_19 
REMARK    8  A    between atoms: C7_21  and  O5_22 
ROOT
HETATM    1  C3  UNL     1      -0.093   0.810   0.780  1.00  0.00     0.018 C 
HETATM    2  C4  UNL     1      -0.313  -0.092  -0.129  1.00  0.00     0.027 C 
HETATM    3  C5  UNL     1      -1.549  -0.763  -0.518  1.00  0.00     0.174 C 
HETATM    4  C6  UNL     1      -2.672  -0.728   0.452  1.00  0.00     0.189 C 
HETATM    5  C7  UNL     1      -2.976   0.668   0.947  1.00  0.00     0.216 C 
HETATM    6  S1  UNL     1      -1.519   1.363   1.758  1.00  0.00    -0.094 SA
ENDROOT
BRANCH   1   7
HETATM    7  C2  UNL     1       1.188   1.420   1.091  1.00  0.00     0.125 C 
HETATM    8  N3  UNL     1       2.312   1.227   0.584  1.00  0.00    -0.307 N 
ATOM      9  H3  UNL     1       3.021   1.814   1.024  1.00  0.00     0.186 HD
BRANCH   8  10
HETATM   10  N2  UNL     1       2.848   0.460  -0.382  1.00  0.00    -0.264 N 
ATOM     11  H2  UNL     1       2.666   0.690  -1.359  1.00  0.00     0.190 HD
BRANCH  10  12
HETATM   12  C1  UNL     1       3.654  -0.652  -0.077  1.00  0.00     0.256 C 
HETATM   13  N1  UNL     1       4.710  -0.508   0.620  1.00  0.00    -0.232 N 
ATOM     14  H1  UNL     1       5.285  -1.323   0.833  1.00  0.00     0.198 HD
BRANCH  13  15
HETATM   15  O1  UNL     1       5.081   0.706   1.082  1.00  0.00    -0.287 OA
ATOM     16  H1  UNL     1       5.869   0.813   1.602  1.00  0.00     0.244 HD
ENDBRANCH  13  15
BRANCH  12  17
HETATM   17  O2  UNL     1       3.301  -1.900  -0.533  1.00  0.00    -0.330 OA
ATOM     18  H2  UNL     1       2.513  -2.007  -1.053  1.00  0.00     0.221 HD
ENDBRANCH  12  17
ENDBRANCH  10  12
ENDBRANCH   8  10
ENDBRANCH   1   7
BRANCH   3  19
HETATM   19  O3  UNL     1      -1.998  -0.326  -1.781  1.00  0.00    -0.389 OA
ATOM     20  H3  UNL     1      -2.803  -0.763  -2.034  1.00  0.00     0.210 HD
ENDBRANCH   3  19
BRANCH   5  21
HETATM   21  O5  UNL     1      -3.471   1.490  -0.049  1.00  0.00    -0.382 OA
ATOM     22  H5  UNL     1      -3.662   2.367   0.262  1.00  0.00     0.211 HD
ENDBRANCH   5  21
BRANCH   4  23
HETATM   23  O4  UNL     1      -3.820  -1.191  -0.188  1.00  0.00    -0.389 OA
ATOM     24  H4  UNL     1      -4.539  -1.169   0.433  1.00  0.00     0.210 HD
ENDBRANCH   4  23
TORSDOF 8
