REMARK  8 active torsions:
REMARK  status: ('A' for Active; 'I' for Inactive)
REMARK    1  A    between atoms: C2_2  and  C3_3 
REMARK    2  A    between atoms: C3_3  and  O1_4 
REMARK    3  A    between atoms: C3_3  and  C5_6 
REMARK    4  A    between atoms: C5_6  and  O2_7 
REMARK    5  A    between atoms: C5_6  and  C11_20 
REMARK    6  A    between atoms: O2_7  and  C6_8 
REMARK    7  A    between atoms: C6_8  and  C7_9 
REMARK    8  A    between atoms: N4_24  and  C15_25 
ROOT
HETATM    1  C5  UNL     1      -1.783  -1.000   0.109  1.00  0.00     0.164 C 
ENDROOT
BRANCH   1   2
HETATM    2  C3  UNL     1      -1.628  -2.486   0.044  1.00  0.00     0.150 C 
BRANCH   2   3
HETATM    3  C2  UNL     1      -2.956  -3.124  -0.413  1.00  0.00     0.030 C 
HETATM    4  C1  UNL     1      -2.838  -4.600  -0.598  1.00  0.00     0.007 C 
ENDBRANCH   2   3
BRANCH   2   5
HETATM    5  O1  UNL     1      -1.331  -3.093   1.248  1.00  0.00    -0.388 OA
HETATM    6  C4  UNL     1      -0.280  -3.974   1.226  1.00  0.00     0.202 C 
ENDBRANCH   2   5
ENDBRANCH   1   2
BRANCH   1   7
HETATM    7  O2  UNL     1      -2.814  -0.693   1.001  1.00  0.00    -0.375 OA
BRANCH   7   8
HETATM    8  C6  UNL     1      -3.924  -0.112   0.494  1.00  0.00     0.245 C 
BRANCH   8   9
HETATM    9  C7  UNL     1      -3.753   1.197  -0.169  1.00  0.00     0.106 A 
HETATM   10  N1  UNL     1      -3.638   2.333   0.532  1.00  0.00    -0.331 N 
HETATM   11  C8  UNL     1      -3.490   3.539  -0.018  1.00  0.00     0.101 A 
ATOM     12  H1  UNL     1      -3.665   2.272   1.550  1.00  0.00     0.168 HD
HETATM   13  N2  UNL     1      -3.389   4.564   0.740  1.00  0.00    -0.385 N 
HETATM   14  C9  UNL     1      -3.449   3.656  -1.383  1.00  0.00     0.065 A 
ATOM     15  H22 UNL     1      -3.420   4.477   1.756  1.00  0.00     0.157 HD
ATOM     16  H21 UNL     1      -3.276   5.486   0.319  1.00  0.00     0.157 HD
HETATM   17  C10 UNL     1      -3.565   2.498  -2.127  1.00  0.00     0.093 A 
HETATM   18  N3  UNL     1      -3.714   1.302  -1.505  1.00  0.00    -0.354 N 
ATOM     19  H3  UNL     1      -3.799   0.457  -2.070  1.00  0.00     0.166 HD
ENDBRANCH   8   9
ENDBRANCH   7   8
ENDBRANCH   1   7
BRANCH   1  20
HETATM   20  C11 UNL     1      -0.619  -0.197   0.487  1.00  0.00     0.109 C 
HETATM   21  C12 UNL     1      -0.002  -0.428   1.830  1.00  0.00     0.018 C 
HETATM   22  C13 UNL     1       0.720   0.850   2.247  1.00  0.00     0.021 C 
HETATM   23  C14 UNL     1       1.281   1.589   1.061  1.00  0.00     0.126 C 
HETATM   24  N4  UNL     1       1.616   0.622   0.017  1.00  0.00    -0.347 N 
HETATM   25  C21 UNL     1       0.507  -0.141  -0.482  1.00  0.00     0.227 C 
HETATM   26  O3  UNL     1       0.569  -0.652  -1.594  1.00  0.00    -0.273 OA
BRANCH  24  27
HETATM   27  C15 UNL     1       2.963   0.439  -0.484  1.00  0.00     0.087 C 
HETATM   28  C16 UNL     1       3.953   0.111   0.597  1.00  0.00     0.025 C 
HETATM   29  C17 UNL     1       5.126   1.056   0.636  1.00  0.00     0.002 C 
HETATM   30  C18 UNL     1       5.798   1.009  -0.717  1.00  0.00     0.000 C 
HETATM   31  C19 UNL     1       4.807   1.544  -1.727  1.00  0.00     0.002 C 
HETATM   32  C20 UNL     1       3.439   1.727  -1.156  1.00  0.00     0.025 C 
ENDBRANCH  24  27
ENDBRANCH   1  20
TORSDOF 8
