REMARK  11 active torsions:
REMARK  status: ('A' for Active; 'I' for Inactive)
REMARK    1  A    between atoms: C3_3  and  C5_5 
REMARK    2  A    between atoms: C5_5  and  C6_6 
REMARK    3  A    between atoms: C6_6  and  C7_7 
REMARK    4  A    between atoms: C7_7  and  C8_8 
REMARK       I    between atoms: C8_8  and  N1_10 
REMARK    5  A    between atoms: N1_10  and  C9_12 
REMARK    6  A    between atoms: C9_12  and  C11_14 
REMARK    7  A    between atoms: C11_14  and  C12_16 
REMARK    8  A    between atoms: C12_16  and  N2_17 
REMARK    9  A    between atoms: C12_16  and  C18_26 
REMARK       I    between atoms: N2_17  and  C13_19 
REMARK   10  A    between atoms: C13_19  and  O4_21 
REMARK   11  A    between atoms: O4_21  and  C14_22 
ROOT
HETATM    1  C1  UNL     1      -5.580   4.459   0.398  1.00  0.00     0.012 C 
HETATM    2  C2  UNL     1      -5.583   3.271   0.606  1.00  0.00    -0.113 C 
HETATM    3  C3  UNL     1      -5.603   1.782   0.844  1.00  0.00     0.061 C 
HETATM    4  C4  UNL     1      -5.416   1.679   2.339  1.00  0.00     0.023 C 
ENDROOT
BRANCH   3   5
HETATM    5  C5  UNL     1      -4.518   1.246   0.002  1.00  0.00     0.027 C 
BRANCH   5   6
HETATM    6  C6  UNL     1      -4.281  -0.237  -0.032  1.00  0.00    -0.031 C 
HETATM    7  C21 UNL     1      -5.445  -0.889  -0.723  1.00  0.00     0.010 C 
HETATM    8  C22 UNL     1      -5.955  -2.159  -0.195  1.00  0.00     0.001 C 
HETATM    9  C23 UNL     1      -4.964  -2.933   0.636  1.00  0.00     0.000 C 
HETATM   10  C24 UNL     1      -4.612  -1.998   1.776  1.00  0.00     0.001 C 
HETATM   11  C25 UNL     1      -3.802  -0.876   1.200  1.00  0.00     0.010 C 
BRANCH   6  12
HETATM   12  C7  UNL     1      -3.116  -0.391  -1.039  1.00  0.00     0.112 C 
BRANCH  12  13
HETATM   13  C8  UNL     1      -1.875   0.247  -0.649  1.00  0.00     0.218 C 
HETATM   14  O1  UNL     1      -1.585   0.771   0.458  1.00  0.00    -0.274 OA
HETATM   15  N1  UNL     1      -0.843   0.300  -1.616  1.00  0.00    -0.350 N 
ATOM     16  H1  UNL     1      -1.034  -0.112  -2.529  1.00  0.00     0.163 HD
BRANCH  15  17
HETATM   17  C9  UNL     1       0.464   0.893  -1.413  1.00  0.00     0.152 C 
HETATM   18  C10 UNL     1       0.699   2.090  -2.280  1.00  0.00     0.040 C 
BRANCH  17  19
HETATM   19  C11 UNL     1       1.525  -0.131  -1.419  1.00  0.00     0.172 C 
HETATM   20  O2  UNL     1       1.204  -1.302  -1.126  1.00  0.00    -0.293 OA
BRANCH  19  21
HETATM   21  C12 UNL     1       2.946   0.069  -1.735  1.00  0.00     0.162 C 
BRANCH  21  22
HETATM   22  N2  UNL     1       3.772  -0.673  -0.773  1.00  0.00    -0.325 N 
HETATM   23  C13 UNL     1       4.795  -0.072  -0.005  1.00  0.00     0.362 C 
HETATM   24  O3  UNL     1       5.006   1.158  -0.150  1.00  0.00    -0.238 OA
ATOM     25  H2  UNL     1       3.599  -1.671  -0.653  1.00  0.00     0.165 HD
BRANCH  23  26
HETATM   26  O4  UNL     1       5.577  -0.737   0.892  1.00  0.00    -0.294 OA
BRANCH  26  27
HETATM   27  C14 UNL     1       6.593  -0.224   1.674  1.00  0.00     0.061 C 
HETATM   28  C15 UNL     1       7.215  -1.320   2.536  1.00  0.00     0.046 C 
HETATM   29  C16 UNL     1       6.026   0.790   2.638  1.00  0.00     0.046 C 
HETATM   30  C17 UNL     1       7.719   0.419   0.922  1.00  0.00     0.046 C 
ENDBRANCH  26  27
ENDBRANCH  23  26
ENDBRANCH  21  22
BRANCH  21  31
HETATM   31  C18 UNL     1       3.318  -0.488  -3.104  1.00  0.00     0.008 C 
HETATM   32  C19 UNL     1       3.055  -1.972  -3.218  1.00  0.00     0.012 C 
HETATM   33  C20 UNL     1       2.738   0.240  -4.265  1.00  0.00     0.012 C 
ENDBRANCH  21  31
ENDBRANCH  19  21
ENDBRANCH  17  19
ENDBRANCH  15  17
ENDBRANCH  12  13
ENDBRANCH   6  12
ENDBRANCH   5   6
ENDBRANCH   3   5
TORSDOF 11
