REMARK  6 active torsions:
REMARK  status: ('A' for Active; 'I' for Inactive)
REMARK    1  A    between atoms: O1_2  and  C2_3 
REMARK    2  A    between atoms: C2_3  and  O2_4 
REMARK    3  A    between atoms: C2_3  and  C3_6 
REMARK    4  A    between atoms: N1_8  and  C5_9 
REMARK    5  A    between atoms: C5_9  and  C6_10 
REMARK    6  A    between atoms: C14_18  and  O3_19 
ROOT
HETATM    1  C3  UNL     1       2.577  -0.183   0.110  1.00  0.00     0.046 A 
HETATM    2  C4  UNL     1       1.465  -0.985   0.263  1.00  0.00     0.105 A 
HETATM    3  N1  UNL     1       0.606  -0.366   1.089  1.00  0.00    -0.363 N 
HETATM    4  C13 UNL     1       1.142   0.800   1.459  1.00  0.00     0.127 A 
HETATM    5  C14 UNL     1       2.388   0.944   0.856  1.00  0.00     0.093 A 
ENDROOT
BRANCH   3   6
HETATM    6  C5  UNL     1      -0.671  -0.868   1.504  1.00  0.00     0.132 C 
BRANCH   6   7
HETATM    7  C6  UNL     1      -1.797  -0.463   0.599  1.00  0.00     0.004 C 
HETATM    8  C7  UNL     1      -1.926   1.046   0.537  1.00  0.00     0.006 C 
HETATM    9  C8  UNL     1      -3.343   1.456   0.172  1.00  0.00     0.000 C 
HETATM   10  C9  UNL     1      -3.792   0.870  -1.134  1.00  0.00     0.000 C 
HETATM   11  C10 UNL     1      -4.179  -0.582  -0.904  1.00  0.00     0.000 C 
HETATM   12  C11 UNL     1      -3.062  -1.530  -1.265  1.00  0.00     0.000 C 
HETATM   13  C12 UNL     1      -1.728  -1.081  -0.762  1.00  0.00     0.006 C 
ENDBRANCH   6   7
ENDBRANCH   3   6
BRANCH   1  14
HETATM   14  C2  UNL     1       3.800  -0.465  -0.723  1.00  0.00     0.294 C 
BRANCH  14  15
HETATM   15  O1  UNL     1       4.959  -0.175  -0.046  1.00  0.00    -0.362 OA
HETATM   16  C1  UNL     1       5.802   0.687  -0.740  1.00  0.00     0.205 C 
ENDBRANCH  14  15
BRANCH  14  17
HETATM   17  O2  UNL     1       3.789  -1.841  -0.982  1.00  0.00    -0.367 OA
ATOM     18  H2  UNL     1       2.987  -2.042  -1.450  1.00  0.00     0.213 HD
ENDBRANCH  14  17
ENDBRANCH   1  14
BRANCH   5  19
HETATM   19  O3  UNL     1       3.247   2.031   1.004  1.00  0.00    -0.359 OA
ATOM     20  H3  UNL     1       3.115   2.816   1.523  1.00  0.00     0.217 HD
ENDBRANCH   5  19
TORSDOF 6
