REMARK  1 active torsions:
REMARK  status: ('A' for Active; 'I' for Inactive)
REMARK    1  A    between atoms: C11_14  and  O4_15 
ROOT
HETATM    1  C1  UNL     1       0.346   2.568  -1.982  1.00  0.00     0.024 C 
HETATM    2  C2  UNL     1       1.029   2.313  -0.650  1.00  0.00     0.121 C 
HETATM    3  C3  UNL     1       0.910   3.547   0.171  1.00  0.00     0.265 C 
HETATM    4  O1  UNL     1       0.889   4.726  -0.294  1.00  0.00    -0.265 OA
HETATM    5  O2  UNL     1       0.833   3.098   1.480  1.00  0.00    -0.318 OA
HETATM    6  C4  UNL     1       0.031   1.932   1.444  1.00  0.00     0.221 C 
HETATM    7  C5  UNL     1       0.309   1.236   0.137  1.00  0.00     0.133 C 
HETATM    8  O3  UNL     1      -0.884   1.000  -0.491  1.00  0.00    -0.333 OA
HETATM    9  C6  UNL     1      -1.386  -0.257  -0.394  1.00  0.00     0.224 C 
HETATM   10  C7  UNL     1      -2.273  -0.498  -1.623  1.00  0.00     0.074 C 
HETATM   11  C8  UNL     1      -2.947  -1.853  -1.530  1.00  0.00     0.006 C 
HETATM   12  C9  UNL     1      -3.807  -1.830  -0.279  1.00  0.00     0.003 C 
HETATM   13  C10 UNL     1      -2.863  -1.799   0.903  1.00  0.00     0.037 C 
HETATM   14  C11 UNL     1      -2.201  -0.416   0.877  1.00  0.00     0.183 C 
HETATM   15  O5  UNL     1      -0.442  -1.273  -0.399  1.00  0.00    -0.197 OA
HETATM   16  O6  UNL     1       0.314  -1.063   0.683  1.00  0.00    -0.223 OA
HETATM   17  C12 UNL     1       1.160   0.006   0.314  1.00  0.00     0.130 C 
HETATM   18  C13 UNL     1       1.831  -0.415  -0.965  1.00  0.00     0.045 C 
HETATM   19  C14 UNL     1       2.428  -1.805  -0.698  1.00  0.00     0.019 C 
HETATM   20  C15 UNL     1       3.620  -1.570   0.214  1.00  0.00     0.058 C 
HETATM   21 BR1  UNL     1       3.610  -2.908   1.632  1.00  0.00    -0.091 Br
HETATM   22  C16 UNL     1       3.591  -0.224   0.872  1.00  0.00     0.019 C 
HETATM   23  C17 UNL     1       2.193   0.138   1.377  1.00  0.00     0.045 C 
ENDROOT
BRANCH  14  24
HETATM   24  O4  UNL     1      -3.234   0.502   0.964  1.00  0.00    -0.390 OA
ATOM     25  H4  UNL     1      -3.744   0.403   1.759  1.00  0.00     0.210 HD
ENDBRANCH  14  24
TORSDOF 1
