REMARK  4 active torsions:
REMARK  status: ('A' for Active; 'I' for Inactive)
REMARK    1  A    between atoms: C3_4  and  O1_5 
REMARK    2  A    between atoms: C4_7  and  C5_8 
REMARK       I    between atoms: C5_8  and  N2_10 
REMARK    3  A    between atoms: N2_10  and  C6_12 
REMARK    4  A    between atoms: C9_16  and  O3_17 
ROOT
HETATM    1  C1  UNL     1       4.488  -0.992  -0.184  1.00  0.00     0.158 C 
HETATM    2  N1  UNL     1       3.166  -0.389   0.049  1.00  0.00    -0.339 N 
HETATM    3  C2  UNL     1       2.888   0.657   0.826  1.00  0.00     0.130 A 
HETATM    4  C3  UNL     1       1.514   0.918   0.779  1.00  0.00     0.101 A 
HETATM    5  C4  UNL     1       0.950  -0.016  -0.063  1.00  0.00     0.117 A 
HETATM    6  C9  UNL     1       2.019  -0.803  -0.488  1.00  0.00     0.160 A 
ENDROOT
BRANCH   5   7
HETATM    7  C5  UNL     1      -0.440  -0.183  -0.450  1.00  0.00     0.260 C 
HETATM    8  O2  UNL     1      -0.719  -1.123  -1.245  1.00  0.00    -0.267 OA
HETATM    9  N2  UNL     1      -1.504   0.633  -0.001  1.00  0.00    -0.335 N 
ATOM     10  H2  UNL     1      -1.313   1.402   0.642  1.00  0.00     0.164 HD
BRANCH   9  11
HETATM   11  C6  UNL     1      -2.870   0.389  -0.445  1.00  0.00     0.103 C 
HETATM   12  C7  UNL     1      -3.798   1.387   0.174  1.00  0.00     0.056 C 
HETATM   13  C8  UNL     1      -3.345  -0.997  -0.091  1.00  0.00     0.056 C 
HETATM   14 CL1  UNL     1      -2.923   0.624  -2.213  1.00  0.00    -0.096 Cl
ENDBRANCH   9  11
ENDBRANCH   5   7
BRANCH   4  15
HETATM   15  O1  UNL     1       0.895   1.927   1.463  1.00  0.00    -0.358 OA
ATOM     16  H1  UNL     1      -0.038   2.104   1.431  1.00  0.00     0.217 HD
ENDBRANCH   4  15
BRANCH   6  17
HETATM   17  O3  UNL     1       1.891  -1.881  -1.364  1.00  0.00    -0.345 OA
ATOM     18  H3  UNL     1       1.073  -2.176  -1.747  1.00  0.00     0.219 HD
ENDBRANCH   6  17
TORSDOF 4
