REMARK  9 active torsions:
REMARK  status: ('A' for Active; 'I' for Inactive)
REMARK    1  A    between atoms: C2_2  and  C3_3 
REMARK    2  A    between atoms: C3_3  and  N1_4 
REMARK    3  A    between atoms: C6_7  and  C7_8 
REMARK    4  A    between atoms: C8_9  and  O1_10 
REMARK    5  A    between atoms: C11_14  and  O2_15 
REMARK    6  A    between atoms: N2_17  and  C12_18 
REMARK    7  A    between atoms: C13_20  and  C14_21 
REMARK    8  A    between atoms: C14_21  and  O4_23 
REMARK    9  A    between atoms: O4_23  and  C15_24 
ROOT
HETATM    1  C7  UNL     1      -0.440  -0.799   0.158  1.00  0.00     0.069 A 
HETATM    2  C8  UNL     1      -0.454  -2.128  -0.234  1.00  0.00     0.091 A 
HETATM    3  C9  UNL     1       0.695  -2.791  -0.526  1.00  0.00     0.024 A 
HETATM    4  C10 UNL     1       0.619  -4.223  -0.926  1.00  0.00     0.056 C 
HETATM    5  C11 UNL     1       1.937  -2.173  -0.447  1.00  0.00     0.159 A 
HETATM    6  N2  UNL     1       1.978  -0.892  -0.075  1.00  0.00    -0.247 N 
HETATM    7  C17 UNL     1       0.821  -0.233   0.222  1.00  0.00     0.268 A 
HETATM    8  O5  UNL     1       0.887   0.969   0.577  1.00  0.00    -0.267 OA
ENDROOT
BRANCH   1   9
HETATM    9  C6  UNL     1      -1.704  -0.031   0.271  1.00  0.00    -0.055 C 
HETATM   10  C5  UNL     1      -2.195   0.022   1.650  1.00  0.00     0.079 C 
HETATM   11  C4  UNL     1      -3.682   0.079   1.807  1.00  0.00     0.062 C 
HETATM   12  N1  UNL     1      -4.513  -0.105   0.719  1.00  0.00    -0.389 N 
HETATM   13  C19 UNL     1      -4.021  -0.581  -0.526  1.00  0.00     0.126 C 
HETATM   14  C18 UNL     1      -2.619  -0.193  -0.863  1.00  0.00     0.055 C 
BRANCH  12  15
HETATM   15  C3  UNL     1      -5.587   0.862   0.557  1.00  0.00     0.148 C 
BRANCH  15  16
HETATM   16  C2  UNL     1      -5.056   2.189   0.194  1.00  0.00    -0.018 C 
HETATM   17  C1  UNL     1      -5.411   2.814  -0.948  1.00  0.00     0.008 C 
ENDBRANCH  15  16
ENDBRANCH  12  15
ENDBRANCH   1   9
BRANCH   2  18
HETATM   18  O1  UNL     1      -1.650  -2.795  -0.330  1.00  0.00    -0.359 OA
ATOM     19  H1  UNL     1      -1.660  -3.706  -0.599  1.00  0.00     0.217 HD
ENDBRANCH   2  18
BRANCH   6  20
HETATM   20  C12 UNL     1       3.200  -0.162  -0.108  1.00  0.00     0.120 C 
HETATM   21 CL1  UNL     1       3.098   1.539   0.416  1.00  0.00    -0.064 Cl
HETATM   22  C13 UNL     1       4.369  -0.551  -0.488  1.00  0.00     0.125 C 
BRANCH  22  23
HETATM   23  C14 UNL     1       5.548   0.273  -0.478  1.00  0.00     0.285 C 
HETATM   24  O3  UNL     1       6.689  -0.189  -0.839  1.00  0.00    -0.260 OA
BRANCH  23  25
HETATM   25  O4  UNL     1       5.513   1.599  -0.095  1.00  0.00    -0.318 OA
BRANCH  25  26
HETATM   26  C15 UNL     1       6.665   2.409  -0.098  1.00  0.00     0.174 C 
HETATM   27  C16 UNL     1       6.290   3.838   0.259  1.00  0.00     0.034 C 
ENDBRANCH  25  26
ENDBRANCH  23  25
ENDBRANCH  22  23
ENDBRANCH   6  20
BRANCH   5  28
HETATM   28  O2  UNL     1       3.039  -2.944  -0.759  1.00  0.00    -0.345 OA
ATOM     29  H2  UNL     1       3.888  -2.521  -0.705  1.00  0.00     0.219 HD
ENDBRANCH   5  28
TORSDOF 9
