REMARK  14 active torsions:
REMARK  status: ('A' for Active; 'I' for Inactive)
REMARK    1  A    between atoms: O1_2  and  C2_3 
REMARK    2  A    between atoms: C2_3  and  C3_5 
REMARK    3  A    between atoms: C4_6  and  S1_7 
REMARK    4  A    between atoms: S1_7  and  C5_8 
REMARK    5  A    between atoms: C5_8  and  C6_9 
REMARK    6  A    between atoms: C8_12  and  C9_13 
REMARK    7  A    between atoms: C9_13  and  O4_15 
REMARK    8  A    between atoms: C11_17  and  C12_18 
REMARK    9  A    between atoms: C12_18  and  S3_19 
REMARK   10  A    between atoms: S3_19  and  C13_20 
REMARK   11  A    between atoms: C13_20  and  C14_21 
REMARK   12  A    between atoms: C14_21  and  N1_22 
REMARK   13  A    between atoms: C14_21  and  N2_26 
REMARK   14  A    between atoms: N2_26  and  O5_27 
ROOT
HETATM    1  C6  UNL     1       0.068  -0.776  -0.298  1.00  0.00     0.062 C 
HETATM    2  S2  UNL     1      -0.240  -1.179  -2.089  1.00  0.00    -0.162 SA
HETATM    3  C7  UNL     1       0.793  -2.658  -2.157  1.00  0.00     0.089 C 
HETATM    4  C8  UNL     1       1.323  -2.704  -0.729  1.00  0.00     0.101 C 
HETATM    5  C11 UNL     1       1.494  -1.313  -0.237  1.00  0.00     0.024 C 
ENDROOT
BRANCH   1   6
HETATM    6  C5  UNL     1      -0.078   0.683  -0.091  1.00  0.00     0.096 C 
BRANCH   6   7
HETATM    7  S1  UNL     1      -1.714   1.300  -0.574  1.00  0.00    -0.109 SA
BRANCH   7   8
HETATM    8  C4  UNL     1      -3.024   0.729   0.455  1.00  0.00     0.103 A 
HETATM    9  C3  UNL     1      -4.264   1.089   0.082  1.00  0.00     0.107 A 
HETATM   10  C16 UNL     1      -5.403   0.649   0.880  1.00  0.00     0.128 A 
HETATM   11  C15 UNL     1      -5.257  -0.117   1.995  1.00  0.00     0.214 A 
HETATM   12  N5  UNL     1      -6.723   0.607   1.112  1.00  0.00    -0.254 N 
HETATM   13  N4  UNL     1      -3.965  -0.497   2.391  1.00  0.00    -0.275 N 
HETATM   14  O6  UNL     1      -6.547  -0.126   2.173  1.00  0.00    -0.215 OA
HETATM   15  N3  UNL     1      -2.867  -0.064   1.609  1.00  0.00    -0.291 N 
ATOM     16  H4  UNL     1      -3.821  -1.071   3.222  1.00  0.00     0.189 HD
ATOM     17  H3  UNL     1      -1.926  -0.337   1.892  1.00  0.00     0.187 HD
ATOM     18  H5  UNL     1      -7.541   0.996   0.643  1.00  0.00     0.195 HD
BRANCH   9  19
HETATM   19  C2  UNL     1      -4.462   1.908  -1.115  1.00  0.00     0.298 C 
HETATM   20  O2  UNL     1      -5.627   2.233  -1.448  1.00  0.00    -0.259 OA
BRANCH  19  21
HETATM   21  O1  UNL     1      -3.414   2.336  -1.894  1.00  0.00    -0.322 OA
HETATM   22  C1  UNL     1      -3.517   3.117  -3.046  1.00  0.00     0.213 C 
ENDBRANCH  19  21
ENDBRANCH   9  19
ENDBRANCH   7   8
ENDBRANCH   6   7
ENDBRANCH   1   6
BRANCH   5  23
HETATM   23  C12 UNL     1       2.112  -1.276   1.114  1.00  0.00     0.080 C 
BRANCH  23  24
HETATM   24  S3  UNL     1       2.302   0.351   1.844  1.00  0.00    -0.165 SA
BRANCH  24  25
HETATM   25  C13 UNL     1       3.463   1.399   0.970  1.00  0.00     0.126 C 
BRANCH  25  26
HETATM   26  C14 UNL     1       3.525   2.730   1.713  1.00  0.00     0.311 C 
BRANCH  26  27
HETATM   27  N1  UNL     1       2.219   3.346   1.741  1.00  0.00    -0.058 N 
ATOM     28  H13 UNL     1       1.826   3.450   0.805  1.00  0.00     0.276 HD
ATOM     29  H12 UNL     1       1.512   2.723   2.132  1.00  0.00     0.276 HD
ATOM     30  H11 UNL     1       2.260   4.236   2.238  1.00  0.00     0.276 HD
ENDBRANCH  26  27
BRANCH  26  31
HETATM   31  N2  UNL     1       4.374   3.611   0.907  1.00  0.00    -0.070 NA
BRANCH  31  32
HETATM   32  O5  UNL     1       3.822   3.774  -0.321  1.00  0.00    -0.294 OA
ATOM     33  H5  UNL     1       4.372   4.345  -0.844  1.00  0.00     0.238 HD
ENDBRANCH  31  32
ENDBRANCH  26  31
ENDBRANCH  25  26
ENDBRANCH  24  25
ENDBRANCH  23  24
ENDBRANCH   5  23
BRANCH   4  34
HETATM   34  C9  UNL     1       2.480  -3.600  -0.631  1.00  0.00     0.263 C 
HETATM   35  O3  UNL     1       3.663  -3.298  -0.473  1.00  0.00    -0.265 OA
BRANCH  34  36
HETATM   36  O4  UNL     1       2.205  -4.981  -0.735  1.00  0.00    -0.326 OA
HETATM   37  C10 UNL     1       3.257  -5.929  -0.656  1.00  0.00     0.213 C 
ENDBRANCH  34  36
ENDBRANCH   4  34
TORSDOF 14
