REMARK  6 active torsions:
REMARK  status: ('A' for Active; 'I' for Inactive)
REMARK    1  A    between atoms: C2_2  and  C3_3 
REMARK    2  A    between atoms: C6_10  and  C7_11 
REMARK    3  A    between atoms: C7_11  and  C8_12 
REMARK    4  A    between atoms: C8_12  and  C9_13 
REMARK    5  A    between atoms: C9_13  and  C10_14 
REMARK    6  A    between atoms: C10_14  and  C11_15 
ROOT
HETATM    1  C3  UNL     1      -4.582   0.417   0.376  1.00  0.00     0.154 A 
HETATM    2  N1  UNL     1      -4.789  -0.999   0.480  1.00  0.00    -0.363 N 
ATOM      3  H1  UNL     1      -5.680  -1.459   0.668  1.00  0.00     0.162 HD
HETATM    4  C4  UNL     1      -3.664  -1.589   0.297  1.00  0.00     0.114 A 
HETATM    5  N2  UNL     1      -3.136  -2.855   0.257  1.00  0.00    -0.351 N 
ATOM      6  H2  UNL     1      -3.670  -3.713   0.397  1.00  0.00     0.166 HD
HETATM    7  C5  UNL     1      -1.821  -2.805   0.008  1.00  0.00     0.097 A 
HETATM    8  C6  UNL     1      -1.508  -1.474  -0.112  1.00  0.00    -0.027 A 
HETATM    9  C16 UNL     1      -2.647  -0.691   0.065  1.00  0.00     0.038 A 
HETATM   10  C17 UNL     1      -3.138   0.533   0.100  1.00  0.00     0.065 A 
HETATM   11  N4  UNL     1      -2.457   1.756  -0.085  1.00  0.00    -0.103 NA
ENDROOT
BRANCH   8  12
HETATM   12  C7  UNL     1      -0.148  -0.923  -0.389  1.00  0.00     0.041 C 
BRANCH  12  13
HETATM   13  C8  UNL     1       0.462  -0.373   0.863  1.00  0.00     0.005 C 
BRANCH  13  14
HETATM   14  C9  UNL     1       1.814   0.204   0.577  1.00  0.00     0.006 C 
BRANCH  14  15
HETATM   15  C10 UNL     1       2.728  -0.867   0.045  1.00  0.00     0.057 C 
BRANCH  15  16
HETATM   16  C11 UNL     1       4.057  -0.187  -0.176  1.00  0.00     0.009 A 
HETATM   17  C12 UNL     1       4.280   0.372  -1.405  1.00  0.00     0.025 A 
HETATM   18  C13 UNL     1       5.501   0.998  -1.601  1.00  0.00     0.003 A 
HETATM   19  C14 UNL     1       6.387   1.006  -0.547  1.00  0.00     0.017 A 
HETATM   20  C15 UNL     1       6.119   0.428   0.679  1.00  0.00     0.088 A 
HETATM   21  N3  UNL     1       4.914  -0.181   0.851  1.00  0.00    -0.369 N 
ATOM     22  H3  UNL     1       4.671  -0.621   1.739  1.00  0.00     0.165 HD
ENDBRANCH  15  16
ENDBRANCH  14  15
ENDBRANCH  13  14
ENDBRANCH  12  13
ENDBRANCH   8  12
BRANCH   1  23
HETATM   23  C2  UNL     1      -5.411   1.041  -0.679  1.00  0.00    -0.006 C 
HETATM   24  C1  UNL     1      -5.470   2.344  -0.816  1.00  0.00     0.009 C 
ENDBRANCH   1  23
TORSDOF 6
