REMARK  6 active torsions:
REMARK  status: ('A' for Active; 'I' for Inactive)
REMARK    1  A    between atoms: N3_4  and  C2_6 
REMARK    2  A    between atoms: C2_6  and  C3_7 
REMARK    3  A    between atoms: C3_7  and  S1_8 
REMARK    4  A    between atoms: S1_8  and  C4_9 
REMARK    5  A    between atoms: N4_13  and  C8_14 
REMARK    6  A    between atoms: C8_14  and  C9_15 
ROOT
HETATM    1  C4  UNL     1       0.092  -1.113  -0.697  1.00  0.00     0.016 A 
HETATM    2  C5  UNL     1       0.344  -1.989   0.337  1.00  0.00     0.021 A 
HETATM    3  C6  UNL     1      -0.419  -1.853   1.491  1.00  0.00     0.019 A 
HETATM    4  C7  UNL     1      -1.385  -0.878   1.584  1.00  0.00     0.091 A 
HETATM    5  N4  UNL     1      -1.625  -0.024   0.567  1.00  0.00    -0.358 N 
HETATM    6  C12 UNL     1      -0.878  -0.170  -0.542  1.00  0.00     0.109 A 
ENDROOT
BRANCH   1   7
HETATM    7  S1  UNL     1       1.078  -1.295  -2.178  1.00  0.00    -0.127 SA
BRANCH   7   8
HETATM    8  C3  UNL     1       2.555  -0.247  -1.984  1.00  0.00     0.099 C 
BRANCH   8   9
HETATM    9  C2  UNL     1       3.387  -0.819  -0.860  1.00  0.00     0.132 C 
BRANCH   9  10
HETATM   10  N3  UNL     1       4.585  -0.066  -0.617  1.00  0.00    -0.366 N 
HETATM   11  C1  UNL     1       4.683   0.996   0.067  1.00  0.00     0.196 C 
HETATM   12  N1  UNL     1       5.955   1.604   0.198  1.00  0.00    -0.067 NA
HETATM   13  N2  UNL     1       3.589   1.633   0.722  1.00  0.00    -0.067 NA
ATOM     14  H3  UNL     1       5.444  -0.422  -1.037  1.00  0.00     0.161 HD
ENDBRANCH   9  10
ENDBRANCH   8   9
ENDBRANCH   7   8
ENDBRANCH   1   7
BRANCH   5  15
HETATM   15  C8  UNL     1      -2.639   0.970   0.714  1.00  0.00     0.204 C 
BRANCH  15  16
HETATM   16  C9  UNL     1      -3.976   0.555   0.282  1.00  0.00     0.099 A 
HETATM   17  N5  UNL     1      -4.453   0.710  -0.964  1.00  0.00    -0.353 N 
HETATM   18  C10 UNL     1      -5.718   0.222  -1.029  1.00  0.00     0.106 A 
ATOM     19  H5  UNL     1      -3.943   1.130  -1.741  1.00  0.00     0.166 HD
HETATM   20  C11 UNL     1      -6.042  -0.253   0.217  1.00  0.00     0.106 A 
HETATM   21  N6  UNL     1      -4.968  -0.037   0.987  1.00  0.00    -0.353 N 
ATOM     22  H6  UNL     1      -4.906  -0.286   1.974  1.00  0.00     0.166 HD
ENDBRANCH  15  16
ENDBRANCH   5  15
TORSDOF 6
