REMARK  1 active torsions:
REMARK  status: ('A' for Active; 'I' for Inactive)
REMARK    1  A    between atoms: C6_6  and  O1_8 
ROOT
HETATM    1  C1  UNL     1      -2.611  -0.249   0.828  1.00  0.00     0.014 C 
HETATM    2  C2  UNL     1      -1.114  -0.247   0.759  1.00  0.00     0.030 C 
HETATM    3  C3  UNL     1      -0.584   0.805  -0.192  1.00  0.00    -0.032 C 
HETATM    4  C4  UNL     1      -1.330   2.090  -0.206  1.00  0.00     0.016 C 
HETATM    5  C5  UNL     1       0.895   0.996  -0.071  1.00  0.00     0.047 C 
HETATM    6  C6  UNL     1       1.667  -0.302  -0.238  1.00  0.00     0.058 C 
HETATM    7  C7  UNL     1       2.802  -0.266   0.771  1.00  0.00     0.046 C 
HETATM    8  C8  UNL     1       0.815  -1.515  -0.010  1.00  0.00     0.081 C 
HETATM    9  C9  UNL     1      -0.633  -1.270  -0.279  1.00  0.00     0.111 C 
HETATM   10  F1  UNL     1      -1.417  -2.360  -0.427  1.00  0.00    -0.242 F 
HETATM   11  C10 UNL     1      -0.848  -0.157  -1.314  1.00  0.00     0.053 C 
ENDROOT
BRANCH   6  12
HETATM   12  O1  UNL     1       2.279  -0.337  -1.513  1.00  0.00    -0.390 OA
ATOM     13  H1  UNL     1       2.762  -1.149  -1.617  1.00  0.00     0.210 HD
ENDBRANCH   6  12
TORSDOF 1
