REMARK  14 active torsions:
REMARK  status: ('A' for Active; 'I' for Inactive)
REMARK    1  A    between atoms: O1_2  and  C2_3 
REMARK    2  A    between atoms: C2_3  and  C5_6 
REMARK    3  A    between atoms: C7_8  and  O2_10 
REMARK    4  A    between atoms: C9_12  and  C10_13 
REMARK    5  A    between atoms: C11_14  and  C12_15 
REMARK    6  A    between atoms: C13_17  and  C15_19 
REMARK    7  A    between atoms: C18_23  and  O4_24 
REMARK    8  A    between atoms: C19_26  and  O5_27 
REMARK    9  A    between atoms: C20_29  and  O6_30 
REMARK   10  A    between atoms: O6_30  and  C21_31 
REMARK   11  A    between atoms: C21_31  and  C22_32 
REMARK   12  A    between atoms: C23_33  and  C25_35 
REMARK   13  A    between atoms: C25_35  and  O7_36 
REMARK   14  A    between atoms: O7_36  and  C26_37 
ROOT
HETATM    1  C12 UNL     1       0.275   1.810   0.146  1.00  0.00     0.177 C 
HETATM    2  O3  UNL     1       0.278   2.574  -0.994  1.00  0.00    -0.364 OA
HETATM    3  C13 UNL     1       0.973   3.744  -0.926  1.00  0.00     0.107 C 
HETATM    4  C14 UNL     1       1.866   3.819  -2.166  1.00  0.00     0.051 C 
HETATM    5  C18 UNL     1       1.845   3.882   0.286  1.00  0.00     0.185 C 
HETATM    6  C19 UNL     1       2.618   2.613   0.559  1.00  0.00     0.181 C 
HETATM    7  C20 UNL     1       1.642   1.466   0.670  1.00  0.00     0.185 C 
ENDROOT
BRANCH   1   8
HETATM    8  C11 UNL     1      -0.405   0.520  -0.181  1.00  0.00     0.006 C 
HETATM    9  C10 UNL     1      -1.457   0.090   0.512  1.00  0.00     0.006 C 
BRANCH   9  10
HETATM   10  C9  UNL     1      -2.144  -1.190   0.200  1.00  0.00     0.178 C 
HETATM   11  C7  UNL     1      -2.593  -1.821   1.472  1.00  0.00     0.086 C 
HETATM   12  C6  UNL     1      -4.087  -1.629   1.451  1.00  0.00     0.075 C 
HETATM   13  C8  UNL     1      -2.214  -3.287   1.506  1.00  0.00     0.049 C 
HETATM   14  C5  UNL     1      -4.374  -1.024   0.122  1.00  0.00     0.159 C 
HETATM   15  O9  UNL     1      -3.235  -1.011  -0.625  1.00  0.00    -0.371 OA
BRANCH  11  16
HETATM   16  O2  UNL     1      -2.056  -1.159   2.557  1.00  0.00    -0.387 OA
ATOM     17  H2  UNL     1      -1.114  -1.280   2.570  1.00  0.00     0.210 HD
ENDBRANCH  11  16
BRANCH  14  18
HETATM   18  C2  UNL     1      -5.525  -1.749  -0.519  1.00  0.00     0.079 C 
HETATM   19  C3  UNL     1      -5.936  -1.049  -1.810  1.00  0.00     0.048 C 
HETATM   20  C4  UNL     1      -5.099  -3.140  -0.873  1.00  0.00     0.048 C 
BRANCH  18  21
HETATM   21  O1  UNL     1      -6.606  -1.688   0.334  1.00  0.00    -0.383 OA
HETATM   22  C1  UNL     1      -7.738  -2.313  -0.181  1.00  0.00     0.202 C 
ENDBRANCH  18  21
ENDBRANCH  14  18
ENDBRANCH   9  10
ENDBRANCH   1   8
BRANCH   7  23
HETATM   23  O6  UNL     1       2.206   0.372   0.065  1.00  0.00    -0.377 OA
BRANCH  23  24
HETATM   24  C21 UNL     1       2.437  -0.613   1.013  1.00  0.00     0.196 C 
BRANCH  24  25
HETATM   25  C22 UNL     1       3.039  -1.834   0.487  1.00  0.00     0.004 C 
HETATM   26  C23 UNL     1       4.211  -2.262   0.927  1.00  0.00    -0.061 C 
HETATM   27  C24 UNL     1       4.932  -1.493   1.972  1.00  0.00     0.045 C 
BRANCH  26  28
HETATM   28  C25 UNL     1       4.844  -3.515   0.398  1.00  0.00     0.212 C 
BRANCH  28  29
HETATM   29  O7  UNL     1       6.109  -3.220  -0.192  1.00  0.00    -0.318 OA
BRANCH  29  30
HETATM   30  C26 UNL     1       6.818  -4.285  -0.727  1.00  0.00     0.255 C 
HETATM   31  C27 UNL     1       8.144  -4.065  -1.360  1.00  0.00     0.126 C 
HETATM   32  O8  UNL     1       6.329  -5.452  -0.676  1.00  0.00    -0.266 OA
ENDBRANCH  29  30
ENDBRANCH  28  29
ENDBRANCH  26  28
ENDBRANCH  24  25
ENDBRANCH  23  24
ENDBRANCH   7  23
BRANCH   3  33
HETATM   33  C15 UNL     1       0.022   4.913  -0.953  1.00  0.00     0.063 C 
HETATM   34  C16 UNL     1       0.716   6.240  -0.882  1.00  0.00     0.035 C 
HETATM   35  C17 UNL     1      -0.787   4.807  -2.224  1.00  0.00     0.035 C 
HETATM   36 CL1  UNL     1      -1.117   4.806   0.407  1.00  0.00    -0.117 Cl
ENDBRANCH   3  33
BRANCH   6  37
HETATM   37  O5  UNL     1       3.315   2.817   1.769  1.00  0.00    -0.390 OA
ATOM     38  H5  UNL     1       3.801   2.019   1.941  1.00  0.00     0.210 HD
ENDBRANCH   6  37
BRANCH   5  39
HETATM   39  O4  UNL     1       1.181   4.275   1.423  1.00  0.00    -0.390 OA
ATOM     40  H4  UNL     1       1.733   4.362   2.191  1.00  0.00     0.210 HD
ENDBRANCH   5  39
TORSDOF 14
