REMARK  2 active torsions:
REMARK  status: ('A' for Active; 'I' for Inactive)
REMARK    1  A    between atoms: C3_4  and  C4_5 
REMARK    2  A    between atoms: C4_5  and  N2_6 
ROOT
HETATM    1  N1  UNL     1      -2.364   2.558   1.772  1.00  0.00    -0.191 NA
HETATM    2  C1  UNL     1      -1.476   1.948   1.303  1.00  0.00     0.107 C 
HETATM    3  C2  UNL     1      -0.396   1.189   0.743  1.00  0.00     0.136 A 
HETATM    4  C3  UNL     1      -0.620  -0.125   0.356  1.00  0.00     0.063 A 
HETATM    5  N3  UNL     1       0.417  -0.800  -0.163  1.00  0.00    -0.331 N 
ATOM      6  H3  UNL     1       0.288  -1.768  -0.459  1.00  0.00     0.168 HD
HETATM    7  C5  UNL     1       1.623  -0.223  -0.300  1.00  0.00     0.195 A 
HETATM    8  N4  UNL     1       2.737  -0.947  -0.857  1.00  0.00    -0.063 NA
HETATM    9  N5  UNL     1       1.868   1.048   0.067  1.00  0.00    -0.296 N 
ATOM     10  H5  UNL     1       2.793   1.461  -0.048  1.00  0.00     0.171 HD
HETATM   11  C6  UNL     1       0.848   1.756   0.592  1.00  0.00     0.270 A 
HETATM   12  O1  UNL     1       1.072   2.964   0.943  1.00  0.00    -0.266 OA
ENDROOT
BRANCH   4  13
HETATM   13  C4  UNL     1      -1.965  -0.728   0.523  1.00  0.00     0.288 C 
BRANCH  13  14
HETATM   14  N2  UNL     1      -1.892  -2.086   0.038  1.00  0.00    -0.074 N 
ATOM     15  H23 UNL     1      -1.543  -2.149  -0.918  1.00  0.00     0.274 HD
ATOM     16  H22 UNL     1      -1.153  -2.629   0.485  1.00  0.00     0.274 HD
ATOM     17  H21 UNL     1      -2.817  -2.501   0.153  1.00  0.00     0.274 HD
ENDBRANCH  13  14
ENDBRANCH   4  13
TORSDOF 2
