REMARK  0 active torsions:
REMARK  status: ('A' for Active; 'I' for Inactive)
REMARK       I    between atoms: C1_2  and  N2_4 
ROOT
HETATM    1  N1  UNL     1       3.440   0.024  -0.461  1.00  0.00    -0.039 NA
HETATM    2  C1  UNL     1       2.130  -0.479  -0.593  1.00  0.00     0.341 C 
HETATM    3  O1  UNL     1       1.953  -1.544  -1.234  1.00  0.00    -0.250 OA
HETATM    4  N2  UNL     1       1.023   0.202  -0.014  1.00  0.00    -0.246 N 
HETATM    5  C2  UNL     1       1.108   1.356   0.695  1.00  0.00     0.195 A 
HETATM    6  N3  UNL     1      -0.147   1.652   1.054  1.00  0.00    -0.344 N 
ATOM      7  H3  UNL     1      -0.417   2.469   1.602  1.00  0.00     0.167 HD
HETATM    8  C3  UNL     1      -0.994   0.731   0.596  1.00  0.00     0.147 A 
HETATM    9  C4  UNL     1      -2.361   0.543   0.669  1.00  0.00     0.277 A 
HETATM   10  O2  UNL     1      -3.024   1.392   1.291  1.00  0.00    -0.266 OA
HETATM   11  N4  UNL     1      -2.987  -0.500   0.104  1.00  0.00    -0.318 N 
ATOM     12  H4  UNL     1      -3.998  -0.616   0.171  1.00  0.00     0.169 HD
HETATM   13  C5  UNL     1      -2.218  -1.386  -0.556  1.00  0.00     0.185 A 
HETATM   14  N5  UNL     1      -0.883  -1.266  -0.666  1.00  0.00    -0.336 N 
ATOM     15  H5  UNL     1      -0.345  -1.966  -1.177  1.00  0.00     0.168 HD
HETATM   16  C6  UNL     1      -0.255  -0.206  -0.091  1.00  0.00     0.150 A 
ENDROOT
TORSDOF 0
