REMARK  9 active torsions:
REMARK  status: ('A' for Active; 'I' for Inactive)
REMARK    1  A    between atoms: C2_2  and  C4_4 
REMARK    2  A    between atoms: C4_4  and  N1_5 
REMARK    3  A    between atoms: N1_5  and  C5_7 
REMARK    4  A    between atoms: C6_10  and  N3_11 
REMARK    5  A    between atoms: C13_21  and  N6_22 
REMARK    6  A    between atoms: C14_27  and  N8_28 
REMARK    7  A    between atoms: N8_28  and  C15_30 
REMARK    8  A    between atoms: C15_30  and  C16_31 
REMARK    9  A    between atoms: C16_31  and  C17_32 
ROOT
HETATM    1  C5  UNL     1      -0.392   0.592  -0.017  1.00  0.00     0.146 A 
HETATM    2  N2  UNL     1      -1.640   0.195  -0.209  1.00  0.00    -0.174 N 
ATOM      3  H2  UNL     1      -2.374   0.885  -0.372  1.00  0.00     0.186 HD
HETATM    4  C6  UNL     1      -1.944  -1.116  -0.190  1.00  0.00     0.682 A 
HETATM    5  N5  UNL     1      -1.022  -2.071   0.019  1.00  0.00    -0.185 N 
ATOM      6  H5  UNL     1      -1.289  -3.055   0.026  1.00  0.00     0.184 HD
HETATM    7  C12 UNL     1       0.255  -1.711   0.219  1.00  0.00     0.124 A 
HETATM    8  C13 UNL     1       1.267  -2.613   0.441  1.00  0.00     0.144 A 
HETATM    9  N7  UNL     1       2.503  -2.115   0.626  1.00  0.00    -0.175 N 
ATOM     10  H7  UNL     1       3.259  -2.779   0.792  1.00  0.00     0.186 HD
HETATM   11  C14 UNL     1       2.815  -0.815   0.609  1.00  0.00     0.680 A 
HETATM   12  N11 UNL     1       1.843   0.085   0.393  1.00  0.00    -0.186 N 
ATOM     13  H11 UNL     1       2.052   1.083   0.374  1.00  0.00     0.184 HD
HETATM   14  C20 UNL     1       0.589  -0.357   0.202  1.00  0.00     0.124 A 
ENDROOT
BRANCH  11  15
HETATM   15  N8  UNL     1       4.045  -0.426   0.798  1.00  0.00    -0.226 N 
ATOM     16  H8  UNL     1       4.784  -1.110   0.961  1.00  0.00     0.177 HD
BRANCH  15  17
HETATM   17  C15 UNL     1       4.348   0.991   0.773  1.00  0.00     0.144 C 
BRANCH  17  18
HETATM   18  C16 UNL     1       5.775   1.132   1.318  1.00  0.00     0.078 C 
BRANCH  18  19
HETATM   19  C17 UNL     1       6.651   0.348   0.410  1.00  0.00     0.027 A 
HETATM   20  C18 UNL     1       6.944  -1.006   0.604  1.00  0.00     0.114 A 
HETATM   21  N9  UNL     1       7.755  -1.426  -0.377  1.00  0.00    -0.360 N 
HETATM   22  C19 UNL     1       7.970  -0.367  -1.169  1.00  0.00     0.180 A 
ATOM     23  H9  UNL     1       8.133  -2.366  -0.497  1.00  0.00     0.166 HD
HETATM   24  N10 UNL     1       7.302   0.710  -0.696  1.00  0.00    -0.355 N 
ATOM     25  H10 UNL     1       7.297   1.640  -1.114  1.00  0.00     0.166 HD
ENDBRANCH  18  19
ENDBRANCH  17  18
ENDBRANCH  15  17
ENDBRANCH  11  15
BRANCH   8  26
HETATM   26  N6  UNL     1       1.005  -3.862   0.464  1.00  0.00    -0.383 N 
ATOM     27  H62 UNL     1       0.068  -4.240   0.324  1.00  0.00     0.157 HD
ATOM     28  H61 UNL     1       1.756  -4.532   0.629  1.00  0.00     0.157 HD
ENDBRANCH   8  26
BRANCH   1  29
HETATM   29  N1  UNL     1      -0.089   1.835  -0.033  1.00  0.00    -0.374 N 
ATOM     30  H1  UNL     1       0.873   2.141   0.115  1.00  0.00     0.161 HD
BRANCH  29  31
HETATM   31  C4  UNL     1      -1.145   2.795  -0.266  1.00  0.00     0.125 C 
BRANCH  31  32
HETATM   32  C2  UNL     1      -0.521   4.184  -0.134  1.00  0.00    -0.005 C 
HETATM   33  C1  UNL     1       0.031   4.270   1.279  1.00  0.00     0.011 C 
HETATM   34  C3  UNL     1      -1.555   5.259  -0.277  1.00  0.00     0.011 C 
ENDBRANCH  31  32
ENDBRANCH  29  31
ENDBRANCH   1  29
BRANCH   4  35
HETATM   35  N3  UNL     1      -3.328  -1.447  -0.410  1.00  0.00    -0.214 N 
HETATM   36  C7  UNL     1      -4.244  -1.552   0.690  1.00  0.00     0.160 C 
HETATM   37  C8  UNL     1      -4.985  -2.875   0.532  1.00  0.00     0.136 C 
HETATM   38  N4  UNL     1      -5.616  -2.969  -0.745  1.00  0.00    -0.414 N 
HETATM   39  C9  UNL     1      -6.869  -2.289  -0.852  1.00  0.00     0.143 C 
HETATM   40  C10 UNL     1      -4.746  -2.816  -1.866  1.00  0.00     0.136 C 
HETATM   41  C11 UNL     1      -3.786  -1.675  -1.763  1.00  0.00     0.160 C 
ENDBRANCH   4  35
TORSDOF 9
