REMARK  7 active torsions:
REMARK  status: ('A' for Active; 'I' for Inactive)
REMARK    1  A    between atoms: O1_2  and  C2_3 
REMARK    2  A    between atoms: C2_3  and  C3_5 
REMARK    3  A    between atoms: C3_5  and  O3_6 
REMARK    4  A    between atoms: C3_5  and  C14_22 
REMARK    5  A    between atoms: O3_6  and  C4_7 
REMARK    6  A    between atoms: C8_11  and  N1_12 
REMARK       I    between atoms: N1_12  and  C9_14 
REMARK       I    between atoms: C9_14  and  N2_16 
REMARK    7  A    between atoms: N2_16  and  C10_18 
ROOT
HETATM    1  C4  UNL     1      -0.956  -0.802  -1.701  1.00  0.00     0.145 C 
HETATM    2  C5  UNL     1      -1.181  -0.197  -3.048  1.00  0.00     0.034 C 
HETATM    3  C6  UNL     1       0.042  -0.458  -3.898  1.00  0.00     0.005 C 
HETATM    4  C7  UNL     1       0.902  -1.412  -3.086  1.00  0.00     0.028 C 
HETATM    5  C8  UNL     1       0.520  -1.018  -1.674  1.00  0.00     0.115 C 
ENDROOT
BRANCH   1   6
HETATM    6  O3  UNL     1      -1.500  -0.137  -0.648  1.00  0.00    -0.368 OA
BRANCH   6   7
HETATM    7  C3  UNL     1      -2.407  -0.800   0.137  1.00  0.00     0.228 C 
BRANCH   7   8
HETATM    8  C2  UNL     1      -2.060  -0.699   1.581  1.00  0.00     0.288 C 
HETATM    9  O2  UNL     1      -2.731  -1.255   2.485  1.00  0.00    -0.262 OA
BRANCH   8  10
HETATM   10  O1  UNL     1      -0.944   0.045   1.925  1.00  0.00    -0.324 OA
HETATM   11  C1  UNL     1      -0.598   0.156   3.309  1.00  0.00     0.213 C 
ENDBRANCH   8  10
ENDBRANCH   7   8
BRANCH   7  12
HETATM   12  C14 UNL     1      -3.713   0.005   0.009  1.00  0.00    -0.016 C 
HETATM   13  C15 UNL     1      -4.220   0.010  -1.410  1.00  0.00     0.018 C 
HETATM   14  C16 UNL     1      -4.753  -0.583   0.900  1.00  0.00     0.018 C 
HETATM   15  C17 UNL     1      -3.443   1.433   0.401  1.00  0.00     0.018 C 
ENDBRANCH   7  12
ENDBRANCH   6   7
ENDBRANCH   1   6
BRANCH   5  16
HETATM   16  N1  UNL     1       1.305   0.055  -1.163  1.00  0.00    -0.336 N 
HETATM   17  C9  UNL     1       2.253  -0.148  -0.133  1.00  0.00     0.317 C 
HETATM   18  O4  UNL     1       2.399  -1.301   0.331  1.00  0.00    -0.247 OA
HETATM   19  N2  UNL     1       3.039   0.896   0.389  1.00  0.00    -0.335 N 
ATOM     20  H2  UNL     1       2.905   1.830   0.001  1.00  0.00     0.165 HD
ATOM     21  H1  UNL     1       1.181   0.991  -1.549  1.00  0.00     0.164 HD
BRANCH  19  22
HETATM   22  C10 UNL     1       4.015   0.740   1.428  1.00  0.00     0.023 C 
HETATM   23  C11 UNL     1       5.119  -0.242   1.012  1.00  0.00     0.037 C 
HETATM   24  C12 UNL     1       3.423   0.240   2.721  1.00  0.00     0.037 C 
HETATM   25  C13 UNL     1       4.709   2.068   1.646  1.00  0.00     0.037 C 
ENDBRANCH  19  22
ENDBRANCH   5  16
TORSDOF 7
