REMARK  2 active torsions:
REMARK  status: ('A' for Active; 'I' for Inactive)
REMARK    1  A    between atoms: C10_11  and  O2_12 
REMARK    2  A    between atoms: C15_19  and  N1_20 
ROOT
HETATM    1  C1  UNL     1      -3.232  -0.269   1.399  1.00  0.00     0.018 C 
HETATM    2  C2  UNL     1      -2.486   0.172   0.153  1.00  0.00    -0.012 C 
HETATM    3  C3  UNL     1      -3.267   1.338  -0.475  1.00  0.00     0.012 C 
HETATM    4  C4  UNL     1      -1.957   2.085  -0.595  1.00  0.00     0.009 C 
HETATM    5  C5  UNL     1      -1.387   1.071   0.406  1.00  0.00     0.032 C 
HETATM    6  C6  UNL     1      -0.019   0.714   0.088  1.00  0.00     0.079 A 
HETATM    7  O1  UNL     1       0.206   0.010  -1.055  1.00  0.00    -0.370 OA
HETATM    8  C7  UNL     1       0.702  -1.233  -0.593  1.00  0.00     0.158 C 
HETATM    9  C8  UNL     1      -0.320  -1.906   0.272  1.00  0.00     0.037 C 
HETATM   10  C9  UNL     1      -1.631  -2.131  -0.385  1.00  0.00     0.035 C 
HETATM   11  C10 UNL     1      -2.363  -0.921  -0.823  1.00  0.00     0.127 C 
HETATM   12  C11 UNL     1       1.806  -0.672   0.311  1.00  0.00     0.099 C 
HETATM   13  O3  UNL     1       2.518  -1.590   0.964  1.00  0.00    -0.377 OA
HETATM   14  C12 UNL     1       3.756  -1.684   0.330  1.00  0.00     0.169 C 
HETATM   15  C13 UNL     1       4.055  -0.288  -0.215  1.00  0.00     0.036 C 
HETATM   16  C14 UNL     1       2.664   0.192  -0.536  1.00  0.00     0.055 C 
HETATM   17  C15 UNL     1       2.411   1.613  -0.157  1.00  0.00     0.170 C 
HETATM   18  C16 UNL     1       1.078   1.630   0.541  1.00  0.00     0.061 A 
HETATM   19  C17 UNL     1       0.988   0.279   1.132  1.00  0.00     0.068 A 
ENDROOT
BRANCH  17  20
HETATM   20  N1  UNL     1       2.471   2.540  -1.246  1.00  0.00    -0.150 N 
HETATM   21  O4  UNL     1       1.473   3.216  -1.523  1.00  0.00    -0.536 OA
HETATM   22  O5  UNL     1       3.598   2.713  -2.003  1.00  0.00    -0.536 OA
ENDBRANCH  17  20
BRANCH  11  23
HETATM   23  O2  UNL     1      -3.694  -1.366  -1.069  1.00  0.00    -0.395 OA
ATOM     24  H2  UNL     1      -3.615  -2.072  -1.700  1.00  0.00     0.210 HD
ENDBRANCH  11  23
TORSDOF 2
