REMARK  5 active torsions:
REMARK  status: ('A' for Active; 'I' for Inactive)
REMARK    1  A    between atoms: O1_2  and  C2_3 
REMARK    2  A    between atoms: C2_3  and  C3_7 
REMARK    3  A    between atoms: N2_11  and  C7_12 
REMARK    4  A    between atoms: C7_12  and  C8_13 
REMARK    5  A    between atoms: C14_19  and  O2_20 
ROOT
HETATM    1  C8  UNL     1       0.263  -0.091   0.573  1.00  0.00     0.137 C 
HETATM    2  C9  UNL     1      -0.886  -0.478  -0.334  1.00  0.00     0.032 C 
HETATM    3  C10 UNL     1      -2.134  -0.535   0.468  1.00  0.00    -0.018 C 
HETATM    4  C11 UNL     1      -2.971  -1.669  -0.120  1.00  0.00     0.011 C 
HETATM    5  C12 UNL     1      -4.408  -1.598   0.277  1.00  0.00     0.004 C 
HETATM    6  C13 UNL     1      -5.110  -0.343  -0.096  1.00  0.00     0.048 C 
HETATM    7  C14 UNL     1      -4.131   0.722  -0.452  1.00  0.00     0.144 C 
HETATM    8  C15 UNL     1      -4.663   2.096  -0.170  1.00  0.00     0.252 C 
HETATM    9  O3  UNL     1      -5.836   2.520  -0.170  1.00  0.00    -0.270 OA
HETATM   10  N3  UNL     1      -3.511   2.876   0.115  1.00  0.00    -0.358 N 
ATOM     11  H3  UNL     1      -3.492   3.895   0.166  1.00  0.00     0.162 HD
HETATM   12  C16 UNL     1      -2.351   1.999   0.325  1.00  0.00     0.131 C 
HETATM   13  C17 UNL     1      -2.988   0.666   0.528  1.00  0.00     0.057 C 
HETATM   14  C18 UNL     1      -1.801  -0.969   1.896  1.00  0.00     0.150 C 
HETATM   15  S1  UNL     1      -0.006  -1.300   1.812  1.00  0.00     0.151 S 
HETATM   16  O4  UNL     1       0.022  -2.718   1.327  1.00  0.00    -0.227 OA
HETATM   17  O5  UNL     1       0.649  -1.060   3.103  1.00  0.00    -0.227 OA
ENDROOT
BRANCH   1  18
HETATM   18  C7  UNL     1       1.551   0.129  -0.006  1.00  0.00     0.293 C 
BRANCH  18  19
HETATM   19  N2  UNL     1       2.289  -0.879  -0.700  1.00  0.00     0.102 N 
HETATM   20  C3  UNL     1       3.333  -0.187  -1.453  1.00  0.00     0.296 C 
HETATM   21  C4  UNL     1       4.458  -1.136  -1.689  1.00  0.00     0.046 C 
HETATM   22  C5  UNL     1       4.364  -2.087  -0.549  1.00  0.00     0.033 C 
HETATM   23  C6  UNL     1       3.123  -1.660   0.209  1.00  0.00     0.273 C 
BRANCH  20  24
HETATM   24  C2  UNL     1       3.843   1.038  -0.856  1.00  0.00     0.145 C 
HETATM   25  N1  UNL     1       3.643   2.180  -1.446  1.00  0.00    -0.382 N 
ATOM     26  H12 UNL     1       4.001   3.039  -1.027  1.00  0.00     0.158 HD
ATOM     27  H11 UNL     1       3.120   2.118  -2.319  1.00  0.00     0.158 HD
BRANCH  24  28
HETATM   28  O1  UNL     1       4.555   1.123   0.332  1.00  0.00    -0.343 OA
HETATM   29  C1  UNL     1       5.630   2.019   0.522  1.00  0.00     0.211 C 
ENDBRANCH  24  28
ENDBRANCH  20  24
ENDBRANCH  18  19
ENDBRANCH   1  18
BRANCH   7  30
HETATM   30  O2  UNL     1      -3.726   0.718  -1.765  1.00  0.00    -0.380 OA
ATOM     31  H2  UNL     1      -3.102   1.397  -1.992  1.00  0.00     0.211 HD
ENDBRANCH   7  30
TORSDOF 5
