REMARK  2 active torsions:
REMARK  status: ('A' for Active; 'I' for Inactive)
REMARK    1  A    between atoms: C1_2  and  C2_3 
REMARK       I    between atoms: C1_2  and  N3_14 
REMARK    2  A    between atoms: C3_8  and  C4_9 
ROOT
HETATM    1  O1  UNL     1      -0.763  -1.913  -0.768  1.00  0.00    -0.266 OA
HETATM    2  C1  UNL     1      -0.577  -0.802  -0.212  1.00  0.00     0.275 C 
HETATM    3  N3  UNL     1      -1.685  -0.124   0.338  1.00  0.00    -0.316 N 
HETATM    4  C8  UNL     1      -1.428   1.186   0.982  1.00  0.00     0.360 C 
HETATM    5  N4  UNL     1      -2.671   1.719   1.512  1.00  0.00    -0.058 N 
ATOM      6  H41 UNL     1      -2.522   2.606   1.992  1.00  0.00     0.279 HD
ATOM      7  H42 UNL     1      -3.008   1.167   2.301  1.00  0.00     0.279 HD
HETATM    8  C9  UNL     1      -3.678   1.837   0.479  1.00  0.00     0.252 C 
HETATM    9  C10 UNL     1      -3.883   0.567  -0.265  1.00  0.00     0.108 C 
HETATM   10  S1  UNL     1      -5.616  -0.009  -0.022  1.00  0.00    -0.089 SA
HETATM   11  S2  UNL     1      -5.109  -2.108  -0.147  1.00  0.00    -0.095 SA
HETATM   12  C11 UNL     1      -3.289  -1.797  -0.368  1.00  0.00     0.113 C 
HETATM   13  C12 UNL     1      -3.045  -0.531   0.367  1.00  0.00     0.115 C 
ENDROOT
BRANCH   2  14
HETATM   14  C2  UNL     1       0.782  -0.280  -0.168  1.00  0.00     0.140 A 
HETATM   15  N1  UNL     1       1.294   0.845   0.342  1.00  0.00    -0.294 N 
HETATM   16  N2  UNL     1       2.601   0.921   0.157  1.00  0.00    -0.302 N 
ATOM     17  H1  UNL     1       0.742   1.559   0.817  1.00  0.00     0.187 HD
HETATM   18  C3  UNL     1       3.022  -0.188  -0.504  1.00  0.00     0.054 A 
ATOM     19  H2  UNL     1       3.198   1.690   0.462  1.00  0.00     0.186 HD
HETATM   20  C7  UNL     1       1.902  -0.930  -0.705  1.00  0.00     0.092 A 
HETATM   21 CL1  UNL     1       1.881  -2.465  -1.517  1.00  0.00    -0.080 Cl
BRANCH  18  22
HETATM   22  C4  UNL     1       4.400  -0.479  -0.896  1.00  0.00     0.039 A 
HETATM   23  C5  UNL     1       5.466   0.545  -0.535  1.00  0.00     0.011 A 
HETATM   24  C6  UNL     1       5.457  -0.889   0.017  1.00  0.00     0.011 A 
ENDBRANCH  18  22
ENDBRANCH   2  14
TORSDOF 2
