REMARK  5 active torsions:
REMARK  status: ('A' for Active; 'I' for Inactive)
REMARK    1  A    between atoms: C3_3  and  C4_4 
REMARK    2  A    between atoms: C7_7  and  O1_8 
REMARK    3  A    between atoms: N1_10  and  O2_11 
REMARK    4  A    between atoms: N2_14  and  S1_15 
REMARK    5  A    between atoms: S1_15  and  C9_18 
ROOT
HETATM    1  C1  UNL     1       5.705   0.473  -1.689  1.00  0.00     0.112 C 
HETATM    2  C2  UNL     1       4.404   0.828  -1.091  1.00  0.00    -0.104 C 
HETATM    3  C3  UNL     1       3.350   1.119  -0.584  1.00  0.00    -0.046 C 
ENDROOT
BRANCH   3   4
HETATM    4  C4  UNL     1       2.085   1.446   0.035  1.00  0.00     0.125 A 
HETATM    5  C5  UNL     1       1.283   0.549   0.716  1.00  0.00    -0.005 A 
HETATM    6  C6  UNL     1       0.157   1.211   1.170  1.00  0.00     0.023 A 
HETATM    7  C14 UNL     1       1.320  -0.891   1.076  1.00  0.00     0.073 C 
HETATM    8  C7  UNL     1       0.276   2.504   0.766  1.00  0.00     0.177 A 
HETATM    9  C8  UNL     1      -0.775   0.333   1.918  1.00  0.00     0.177 C 
HETATM   10  N1  UNL     1       1.439   2.623   0.087  1.00  0.00    -0.192 N 
HETATM   11  N2  UNL     1      -1.157  -0.858   1.133  1.00  0.00    -0.317 N 
HETATM   12  C11 UNL     1       0.054  -1.537   0.719  1.00  0.00     0.038 C 
HETATM   13  C12 UNL     1       0.100  -1.859  -0.758  1.00  0.00     0.039 C 
HETATM   14  C13 UNL     1       0.002  -2.902   1.427  1.00  0.00     0.039 C 
BRANCH   8  15
HETATM   15  O1  UNL     1      -0.683   3.481   1.044  1.00  0.00    -0.344 OA
ATOM     16  H1  UNL     1      -0.600   4.384   0.762  1.00  0.00     0.219 HD
ENDBRANCH   8  15
BRANCH  10  17
HETATM   17  O2  UNL     1       1.900   3.786  -0.474  1.00  0.00    -0.280 OA
ATOM     18  H2  UNL     1       1.443   4.618  -0.437  1.00  0.00     0.245 HD
ENDBRANCH  10  17
BRANCH  11  19
HETATM   19  S1  UNL     1      -2.532  -0.856   0.187  1.00  0.00     0.110 S 
HETATM   20  O3  UNL     1      -3.526  -0.177   1.570  1.00  0.00    -0.234 OA
HETATM   21 CL1  UNL     1      -1.594   0.386  -0.967  1.00  0.00    -0.003 Cl
BRANCH  19  22
HETATM   22  C9  UNL     1      -3.965  -0.774  -0.923  1.00  0.00     0.129 C 
HETATM   23  C10 UNL     1      -4.577   0.636  -1.088  1.00  0.00     0.020 C 
ENDBRANCH  19  22
ENDBRANCH  11  19
ENDBRANCH   3   4
TORSDOF 5
