REMARK  5 active torsions:
REMARK  status: ('A' for Active; 'I' for Inactive)
REMARK    1  A    between atoms: C3_3  and  N1_4 
REMARK       I    between atoms: N1_4  and  C4_6 
REMARK       I    between atoms: C4_6  and  N2_8 
REMARK    2  A    between atoms: N3_11  and  C7_12 
REMARK    3  A    between atoms: C7_12  and  N4_13 
REMARK    4  A    between atoms: C8_14  and  O2_15 
REMARK    5  A    between atoms: C11_19  and  O3_20 
ROOT
HETATM    1  C1  UNL     1       7.556   1.823   0.358  1.00  0.00     0.014 C 
HETATM    2  C2  UNL     1       6.992   0.953   0.980  1.00  0.00    -0.098 C 
HETATM    3  C3  UNL     1       6.289  -0.095   1.731  1.00  0.00     0.217 C 
ENDROOT
BRANCH   3   4
HETATM    4  N1  UNL     1       4.906  -0.061   1.281  1.00  0.00    -0.333 N 
HETATM    5  C4  UNL     1       4.534  -0.276  -0.060  1.00  0.00     0.319 C 
HETATM    6  O1  UNL     1       5.407  -0.508  -0.916  1.00  0.00    -0.247 OA
HETATM    7  N2  UNL     1       3.177  -0.230  -0.432  1.00  0.00    -0.331 N 
HETATM    8  C5  UNL     1       2.139   0.042   0.570  1.00  0.00     0.158 C 
HETATM    9  C17 UNL     1       2.708  -0.440  -1.788  1.00  0.00     0.158 C 
HETATM   10  C6  UNL     1       0.833  -0.459  -0.039  1.00  0.00     0.294 C 
HETATM   11  N3  UNL     1       0.509   0.315  -1.196  1.00  0.00     0.109 N 
HETATM   12  C16 UNL     1       1.626   0.579  -2.060  1.00  0.00     0.294 C 
ATOM     13  H1  UNL     1       4.174   0.127   1.966  1.00  0.00     0.165 HD
BRANCH  11  14
HETATM   14  C7  UNL     1      -0.619  -0.186  -1.937  1.00  0.00     0.406 C 
BRANCH  14  15
HETATM   15  N4  UNL     1      -1.813  -0.192  -1.113  1.00  0.00    -0.280 N 
HETATM   16  C8  UNL     1      -2.644   0.888  -1.017  1.00  0.00     0.152 A 
HETATM   17  C9  UNL     1      -3.666   0.502  -0.163  1.00  0.00     0.004 A 
HETATM   18  C10 UNL     1      -3.471  -0.788   0.260  1.00  0.00     0.004 A 
HETATM   19  C15 UNL     1      -4.849   1.321   0.284  1.00  0.00     0.044 C 
HETATM   20  C11 UNL     1      -2.289  -1.200  -0.360  1.00  0.00     0.152 A 
HETATM   21  C12 UNL     1      -4.411  -1.465   1.183  1.00  0.00     0.044 C 
HETATM   22  C13 UNL     1      -5.117  -0.411   1.988  1.00  0.00     0.005 C 
HETATM   23  C14 UNL     1      -5.865   0.491   1.027  1.00  0.00     0.005 C 
BRANCH  16  24
HETATM   24  O2  UNL     1      -2.490   2.120  -1.650  1.00  0.00    -0.345 OA
ATOM     25  H2  UNL     1      -3.068   2.871  -1.583  1.00  0.00     0.219 HD
ENDBRANCH  16  24
BRANCH  20  26
HETATM   26  O3  UNL     1      -1.759  -2.468  -0.175  1.00  0.00    -0.345 OA
ATOM     27  H3  UNL     1      -2.095  -3.180   0.357  1.00  0.00     0.219 HD
ENDBRANCH  20  26
ENDBRANCH  14  15
ENDBRANCH  11  14
ENDBRANCH   3   4
TORSDOF 5
