REMARK  3 active torsions:
REMARK  status: ('A' for Active; 'I' for Inactive)
REMARK    1  A    between atoms: C2_3  and  C3_4 
REMARK       I    between atoms: C3_4  and  N2_6 
REMARK    2  A    between atoms: N2_6  and  C4_8 
REMARK    3  A    between atoms: C4_8  and  C5_9 
ROOT
HETATM    1  N1  UNL     1      -1.821   0.111  -3.175  1.00  0.00    -0.196 NA
HETATM    2  C1  UNL     1      -1.736   0.128  -1.998  1.00  0.00     0.080 C 
HETATM    3  C2  UNL     1      -1.659   0.132  -0.538  1.00  0.00     0.137 C 
HETATM    4  C12 UNL     1      -2.428  -1.050  -0.009  1.00  0.00     0.019 C 
HETATM    5  C13 UNL     1      -2.716  -0.993   1.465  1.00  0.00     0.011 C 
HETATM    6  C14 UNL     1      -3.510   0.232   1.778  1.00  0.00    -0.013 C 
HETATM    7  C15 UNL     1      -4.798   0.321   1.015  1.00  0.00     0.009 C 
HETATM    8  C16 UNL     1      -4.499   0.261  -0.486  1.00  0.00    -0.013 C 
HETATM    9  C17 UNL     1      -3.781  -1.049  -0.728  1.00  0.00     0.011 C 
HETATM   10  C18 UNL     1      -3.679   1.451  -0.839  1.00  0.00     0.011 C 
HETATM   11  C19 UNL     1      -2.354   1.385  -0.084  1.00  0.00     0.019 C 
HETATM   12  C20 UNL     1      -2.667   1.440   1.370  1.00  0.00     0.011 C 
ENDROOT
BRANCH   3  13
HETATM   13  C3  UNL     1      -0.213   0.091  -0.142  1.00  0.00     0.242 C 
HETATM   14  O1  UNL     1       0.052   0.249   1.070  1.00  0.00    -0.272 OA
HETATM   15  N2  UNL     1       0.819  -0.118  -1.066  1.00  0.00    -0.340 N 
ATOM     16  H2  UNL     1       0.517  -0.213  -2.036  1.00  0.00     0.163 HD
BRANCH  15  17
HETATM   17  C4  UNL     1       2.240  -0.220  -0.859  1.00  0.00     0.121 C 
HETATM   18  C6  UNL     1       2.709   1.016  -0.152  1.00  0.00     0.042 C 
HETATM   19  C7  UNL     1       4.168   1.255  -0.189  1.00  0.00     0.009 C 
HETATM   20  C8  UNL     1       5.088   0.271   0.392  1.00  0.00     0.079 C 
HETATM   21  C9  UNL     1       4.552  -0.658   1.399  1.00  0.00     0.243 C 
HETATM   22  F1  UNL     1       5.550  -1.652   1.571  1.00  0.00    -0.206 F 
HETATM   23  F2  UNL     1       4.557   0.026   2.636  1.00  0.00    -0.206 F 
HETATM   24  C10 UNL     1       3.226  -1.274   1.221  1.00  0.00     0.082 C 
HETATM   25  C11 UNL     1       2.697  -1.469  -0.150  1.00  0.00     0.048 C 
BRANCH  17  26
HETATM   26  C5  UNL     1       2.815  -0.341  -2.247  1.00  0.00     0.202 C 
HETATM   27  O2  UNL     1       2.177   0.046  -3.280  1.00  0.00    -0.646 OA
HETATM   28  O3  UNL     1       4.061  -0.888  -2.446  1.00  0.00    -0.646 OA
ENDBRANCH  17  26
ENDBRANCH  15  17
ENDBRANCH   3  13
TORSDOF 3
