REMARK  10 active torsions:
REMARK  status: ('A' for Active; 'I' for Inactive)
REMARK    1  A    between atoms: C2_2  and  N1_3 
REMARK    2  A    between atoms: C2_2  and  C8_23 
REMARK    3  A    between atoms: N1_3  and  C3_5 
REMARK    4  A    between atoms: C4_11  and  N5_12 
REMARK    5  A    between atoms: C8_23  and  C9_25 
REMARK    6  A    between atoms: C9_25  and  O5_26 
REMARK    7  A    between atoms: C9_25  and  C10_28 
REMARK    8  A    between atoms: C10_28  and  O6_29 
REMARK    9  A    between atoms: C10_28  and  N7_31 
REMARK   10  A    between atoms: C12_36  and  N9_37 
ROOT
HETATM    1  N7  UNL     1      -2.959  -0.242  -0.444  1.00  0.00    -0.343 N 
ATOM      2  H7  UNL     1      -2.201   0.440  -0.428  1.00  0.00     0.164 HD
HETATM    3  C11 UNL     1      -3.953   0.431  -0.586  1.00  0.00     0.143 A 
HETATM    4  N8  UNL     1      -3.801   1.796  -0.679  1.00  0.00    -0.175 N 
ATOM      5  H8  UNL     1      -2.861   2.191  -0.690  1.00  0.00     0.186 HD
HETATM    6  C12 UNL     1      -4.845   2.613  -0.755  1.00  0.00     0.678 A 
HETATM    7  N10 UNL     1      -6.081   2.134  -0.753  1.00  0.00    -0.177 N 
ATOM      8  H10 UNL     1      -6.870   2.777  -0.814  1.00  0.00     0.185 HD
HETATM    9  C13 UNL     1      -6.307   0.820  -0.672  1.00  0.00     0.156 A 
HETATM   10  N11 UNL     1      -7.635   0.275  -0.669  1.00  0.00    -0.080 NA
HETATM   11  C14 UNL     1      -5.230  -0.090  -0.581  1.00  0.00     0.130 A 
HETATM   12  C15 UNL     1      -5.499  -1.518  -0.558  1.00  0.00     0.107 C 
HETATM   13  N12 UNL     1      -5.732  -2.645  -0.580  1.00  0.00    -0.191 NA
ENDROOT
BRANCH   1  14
HETATM   14  C10 UNL     1      -2.321  -1.448  -0.293  1.00  0.00     0.281 C 
BRANCH  14  15
HETATM   15  C9  UNL     1      -0.837  -1.380  -0.044  1.00  0.00     0.140 C 
BRANCH  15  16
HETATM   16  C8  UNL     1      -0.302  -0.267   0.736  1.00  0.00     0.204 C 
HETATM   17  O4  UNL     1      -1.036   0.709   0.872  1.00  0.00    -0.288 OA
BRANCH  16  18
HETATM   18  C2  UNL     1       1.032  -0.189   1.336  1.00  0.00     0.156 C 
HETATM   19  C1  UNL     1       1.416  -1.021   2.481  1.00  0.00     0.041 C 
BRANCH  18  20
HETATM   20  N1  UNL     1       2.052  -0.181   0.289  1.00  0.00    -0.362 N 
ATOM     21  H1  UNL     1       1.813  -0.458  -0.663  1.00  0.00     0.162 HD
BRANCH  20  22
HETATM   22  C3  UNL     1       3.344   0.205   0.600  1.00  0.00     0.154 A 
HETATM   23  N2  UNL     1       3.828   0.701   1.802  1.00  0.00    -0.268 N 
HETATM   24  N3  UNL     1       5.123   0.950   1.691  1.00  0.00    -0.219 N 
ATOM     25  H2  UNL     1       3.271   0.851   2.643  1.00  0.00     0.190 HD
HETATM   26  N4  UNL     1       5.540   0.650   0.491  1.00  0.00    -0.062 N 
ATOM     27  H3  UNL     1       5.711   1.323   2.436  1.00  0.00     0.209 HD
HETATM   28  C4  UNL     1       6.813   0.759   0.008  1.00  0.00     0.703 C 
HETATM   29  C7  UNL     1       4.491   0.194  -0.206  1.00  0.00     0.196 A 
HETATM   30  N6  UNL     1       7.409  -0.105  -0.863  1.00  0.00    -0.133 N 
HETATM   31  C5  UNL     1       6.779  -0.989  -1.670  1.00  0.00     0.387 C 
ATOM     32  H6  UNL     1       8.428  -0.082  -0.910  1.00  0.00     0.189 HD
HETATM   33  O1  UNL     1       7.427  -1.988  -2.053  1.00  0.00    -0.237 OA
HETATM   34  O2  UNL     1       5.527  -0.867  -2.076  1.00  0.00    -0.221 OA
HETATM   35  C6  UNL     1       4.459  -0.302  -1.507  1.00  0.00     0.325 C 
HETATM   36  O3  UNL     1       3.392  -0.193  -2.104  1.00  0.00    -0.257 OA
BRANCH  28  37
HETATM   37  N5  UNL     1       7.491   1.748   0.424  1.00  0.00    -0.233 N 
ATOM     38  H52 UNL     1       7.045   2.394   1.075  1.00  0.00     0.174 HD
ATOM     39  H51 UNL     1       8.442   1.829   0.063  1.00  0.00     0.174 HD
ENDBRANCH  28  37
ENDBRANCH  20  22
ENDBRANCH  18  20
ENDBRANCH  16  18
ENDBRANCH  15  16
BRANCH  15  40
HETATM   40  O5  UNL     1      -0.259  -2.585   0.219  1.00  0.00    -0.357 OA
ATOM     41  H5  UNL     1      -0.607  -3.309  -0.288  1.00  0.00     0.217 HD
ENDBRANCH  15  40
ENDBRANCH  14  15
BRANCH  14  42
HETATM   42  O6  UNL     1      -2.466  -2.259  -1.511  1.00  0.00    -0.370 OA
ATOM     43  H6  UNL     1      -3.402  -2.302  -1.668  1.00  0.00     0.212 HD
ENDBRANCH  14  42
ENDBRANCH   1  14
BRANCH   6  44
HETATM   44  N9  UNL     1      -4.616   3.912  -0.815  1.00  0.00    -0.234 N 
ATOM     45  H92 UNL     1      -3.665   4.281  -0.817  1.00  0.00     0.174 HD
ATOM     46  H91 UNL     1      -5.418   4.540  -0.873  1.00  0.00     0.174 HD
ENDBRANCH   6  44
TORSDOF 10
