REMARK  4 active torsions:
REMARK  status: ('A' for Active; 'I' for Inactive)
REMARK    1  A    between atoms: N1_2  and  C2_4 
REMARK    2  A    between atoms: C3_6  and  N2_7 
REMARK    3  A    between atoms: C4_12  and  C5_13 
REMARK    4  A    between atoms: N4_20  and  N5_21 
ROOT
HETATM    1  C5  UNL     1      -0.328  -0.770   0.404  1.00  0.00     0.103 C 
HETATM    2  C6  UNL     1      -0.904  -0.456  -0.926  1.00  0.00    -0.017 A 
HETATM    3  C7  UNL     1      -0.745  -0.944  -2.189  1.00  0.00     0.010 A 
HETATM    4  C8  UNL     1      -1.454  -0.455  -3.268  1.00  0.00     0.001 A 
HETATM    5  C9  UNL     1      -2.364   0.564  -3.096  1.00  0.00     0.002 A 
HETATM    6  C10 UNL     1      -2.537   1.068  -1.832  1.00  0.00     0.032 A 
HETATM    7  C11 UNL     1      -1.819   0.573  -0.737  1.00  0.00     0.058 A 
HETATM    8  N4  UNL     1      -1.821   0.948   0.613  1.00  0.00    -0.288 N 
HETATM    9  C12 UNL     1      -0.744   0.266   1.348  1.00  0.00     0.059 C 
HETATM   10  C13 UNL     1      -1.515  -0.377   2.540  1.00  0.00     0.041 C 
HETATM   11  C14 UNL     1       0.268   1.193   1.905  1.00  0.00     0.041 C 
ENDROOT
BRANCH   1  12
HETATM   12  C4  UNL     1       1.143  -1.106   0.338  1.00  0.00     0.056 A 
HETATM   13  C2  UNL     1       2.045  -0.265  -0.228  1.00  0.00     0.096 A 
HETATM   14  S1  UNL     1       3.535  -1.131   0.028  1.00  0.00    -0.035 SA
HETATM   15  C3  UNL     1       2.904  -2.481   0.825  1.00  0.00     0.144 A 
HETATM   16  N3  UNL     1       1.603  -2.233   0.870  1.00  0.00    -0.337 N 
ATOM     17  H3  UNL     1       0.964  -2.898   1.307  1.00  0.00     0.168 HD
BRANCH  13  18
HETATM   18  N1  UNL     1       1.937   0.998  -0.899  1.00  0.00    -0.387 N 
HETATM   19  C1  UNL     1       3.133   1.646  -1.396  1.00  0.00     0.147 C 
ATOM     20  H1  UNL     1       1.025   1.436  -1.025  1.00  0.00     0.159 HD
ENDBRANCH  13  18
BRANCH  15  21
HETATM   21  N2  UNL     1       3.535  -3.538   1.297  1.00  0.00    -0.380 N 
ATOM     22  H22 UNL     1       4.536  -3.729   1.262  1.00  0.00     0.158 HD
ATOM     23  H21 UNL     1       3.154  -4.353   1.778  1.00  0.00     0.158 HD
ENDBRANCH  15  21
ENDBRANCH   1  12
BRANCH   8  24
HETATM   24  N5  UNL     1      -2.704   1.845   1.234  1.00  0.00    -0.342 N 
ATOM     25  H52 UNL     1      -3.451   2.318   0.725  1.00  0.00     0.177 HD
ATOM     26  H51 UNL     1      -2.705   2.118   2.217  1.00  0.00     0.177 HD
ENDBRANCH   8  24
TORSDOF 4
