REMARK  3 active torsions:
REMARK  status: ('A' for Active; 'I' for Inactive)
REMARK    1  A    between atoms: C4_6  and  C5_7 
REMARK    2  A    between atoms: C8_10  and  O2_11 
REMARK    3  A    between atoms: C15_21  and  O3_22 
ROOT
HETATM    1  N1  UNL     1       6.828   2.183   0.460  1.00  0.00    -0.191 NA
HETATM    2  C1  UNL     1       5.742   1.910   0.266  1.00  0.00     0.104 C 
HETATM    3  C2  UNL     1       4.370   1.572   0.059  1.00  0.00     0.102 A 
HETATM    4  C3  UNL     1       3.418   2.255  -0.720  1.00  0.00     0.167 A 
HETATM    5  O1  UNL     1       2.303   1.596  -0.638  1.00  0.00    -0.320 OA
HETATM    6  C4  UNL     1       2.380   0.541   0.099  1.00  0.00     0.109 A 
HETATM    7  C15 UNL     1       3.678   0.478   0.573  1.00  0.00     0.120 A 
ENDROOT
BRANCH   7   8
HETATM    8  O3  UNL     1       4.248  -0.478   1.408  1.00  0.00    -0.357 OA
ATOM      9  H3  UNL     1       3.776  -1.224   1.759  1.00  0.00     0.218 HD
ENDBRANCH   7   8
BRANCH   6  10
HETATM   10  C5  UNL     1       1.277  -0.386   0.385  1.00  0.00     0.138 C 
HETATM   11  C6  UNL     1       1.245  -1.551  -0.579  1.00  0.00     0.034 C 
HETATM   12  C7  UNL     1       0.117  -2.483  -0.302  1.00  0.00     0.036 C 
HETATM   13  C8  UNL     1      -1.154  -1.816   0.107  1.00  0.00     0.146 C 
HETATM   14  C9  UNL     1      -1.149  -0.345   0.153  1.00  0.00     0.052 C 
HETATM   15  C10 UNL     1      -1.856   0.228   1.392  1.00  0.00     0.033 C 
HETATM   16  C14 UNL     1      -2.062   0.145  -0.995  1.00  0.00     0.033 C 
HETATM   17  N2  UNL     1       0.051   0.367   0.003  1.00  0.00    -0.400 N 
HETATM   18  C11 UNL     1      -2.417   1.614   1.030  1.00  0.00     0.002 C 
HETATM   19  C12 UNL     1      -3.788   1.337   0.397  1.00  0.00     0.000 C 
HETATM   20  C13 UNL     1      -3.515   0.149  -0.538  1.00  0.00     0.002 C 
ATOM     21  H2  UNL     1       0.081   1.327  -0.341  1.00  0.00     0.154 HD
BRANCH  13  22
HETATM   22  O2  UNL     1      -1.653  -2.302   1.321  1.00  0.00    -0.393 OA
ATOM     23  H2  UNL     1      -2.462  -1.877   1.581  1.00  0.00     0.210 HD
ENDBRANCH  13  22
ENDBRANCH   6  10
TORSDOF 3
