REMARK  3 active torsions:
REMARK  status: ('A' for Active; 'I' for Inactive)
REMARK    1  A    between atoms: C2_2  and  C3_4 
REMARK    2  A    between atoms: C4_7  and  N2_8 
REMARK    3  A    between atoms: N4_16  and  C10_17 
ROOT
HETATM    1  C3  UNL     1      -2.729   2.240   0.150  1.00  0.00     0.153 A 
HETATM    2  N1  UNL     1      -3.158   0.988  -0.021  1.00  0.00    -0.324 N 
ATOM      3  H1  UNL     1      -4.158   0.817  -0.122  1.00  0.00     0.169 HD
HETATM    4  C4  UNL     1      -2.306  -0.059  -0.064  1.00  0.00     0.136 A 
HETATM    5  C9  UNL     1      -0.944   0.174   0.074  1.00  0.00     0.120 A 
HETATM    6  N3  UNL     1       0.163  -0.571   0.085  1.00  0.00    -0.293 N 
ATOM      7  H3  UNL     1       0.174  -1.585  -0.024  1.00  0.00     0.187 HD
HETATM    8  N4  UNL     1       1.251   0.176   0.256  1.00  0.00    -0.296 N 
HETATM    9  C16 UNL     1       0.850   1.455   0.361  1.00  0.00     0.142 A 
HETATM   10  C17 UNL     1      -0.512   1.471   0.250  1.00  0.00     0.083 A 
HETATM   11  N5  UNL     1      -1.400   2.464   0.284  1.00  0.00    -0.336 N 
ATOM     12  H5  UNL     1      -1.069   3.420   0.415  1.00  0.00     0.168 HD
ENDROOT
BRANCH   8  13
HETATM   13  C10 UNL     1       2.619  -0.306   0.317  1.00  0.00     0.107 C 
HETATM   14  C11 UNL     1       3.407   0.550   1.281  1.00  0.00     0.027 C 
HETATM   15  C12 UNL     1       4.851   0.129   1.359  1.00  0.00     0.002 C 
HETATM   16  C13 UNL     1       5.497   0.050  -0.004  1.00  0.00     0.000 C 
HETATM   17  C14 UNL     1       4.682  -0.823  -0.902  1.00  0.00     0.002 C 
HETATM   18  C15 UNL     1       3.276  -0.277  -1.025  1.00  0.00     0.027 C 
ENDBRANCH   8  13
BRANCH   4  19
HETATM   19  N2  UNL     1      -2.781  -1.375  -0.246  1.00  0.00    -0.365 N 
HETATM   20  C5  UNL     1      -2.413  -2.233  -1.352  1.00  0.00     0.124 C 
HETATM   21  C6  UNL     1      -3.209  -3.516  -1.153  1.00  0.00     0.021 C 
HETATM   22  C7  UNL     1      -4.337  -3.138  -0.220  1.00  0.00     0.021 C 
HETATM   23  C8  UNL     1      -3.696  -2.061   0.633  1.00  0.00     0.124 C 
ENDBRANCH   4  19
BRANCH   1  24
HETATM   24  C2  UNL     1      -3.611   3.392   0.202  1.00  0.00     0.189 C 
HETATM   25  C1  UNL     1      -3.110   4.767   0.392  1.00  0.00     0.100 C 
HETATM   26  O1  UNL     1      -4.843   3.205   0.080  1.00  0.00    -0.290 OA
ENDBRANCH   1  24
TORSDOF 3
