REMARK  20 active torsions:
REMARK  status: ('A' for Active; 'I' for Inactive)
REMARK    1  A    between atoms: C2_2  and  C3_3 
REMARK    2  A    between atoms: C3_3  and  C4_4 
REMARK    3  A    between atoms: C3_3  and  C6_6 
REMARK    4  A    between atoms: C7_7  and  C8_8 
REMARK    5  A    between atoms: C7_7  and  C11_11 
REMARK    6  A    between atoms: C11_11  and  O1_12 
REMARK    7  A    between atoms: C11_11  and  C33_48 
REMARK    8  A    between atoms: O1_12  and  C12_13 
REMARK    9  A    between atoms: C16_19  and  O2_20 
REMARK   10  A    between atoms: O2_20  and  C17_21 
REMARK   11  A    between atoms: C20_25  and  C21_26 
REMARK   12  A    between atoms: C21_26  and  C22_27 
REMARK   13  A    between atoms: C22_27  and  C23_28 
REMARK   14  A    between atoms: C23_28  and  C24_29 
REMARK   15  A    between atoms: C24_29  and  C25_30 
REMARK   16  A    between atoms: C25_30  and  C26_32 
REMARK   17  A    between atoms: C28_34  and  O5_35 
REMARK   18  A    between atoms: C28_34  and  N1_37 
REMARK   19  A    between atoms: N1_37  and  C29_39 
REMARK   20  A    between atoms: C29_39  and  O6_40 
ROOT
HETATM    1  C8  UNL     1      -4.162   1.154  -0.606  1.00  0.00    -0.069 C 
HETATM    2  C9  UNL     1      -4.701   1.467  -1.631  1.00  0.00    -0.106 C 
HETATM    3  C10 UNL     1      -5.371   1.891  -2.871  1.00  0.00     0.112 C 
ENDROOT
BRANCH   1   4
HETATM    4  C7  UNL     1      -3.476   0.816   0.681  1.00  0.00     0.031 C 
HETATM    5  C6  UNL     1      -4.354   0.443   1.758  1.00  0.00     0.001 C 
BRANCH   5   6
HETATM    6  C3  UNL     1      -5.479   1.194   2.329  1.00  0.00     0.030 C 
BRANCH   6   7
HETATM    7  C2  UNL     1      -6.580   1.511   1.349  1.00  0.00    -0.028 C 
HETATM    8  C1  UNL     1      -6.911   2.779   1.183  1.00  0.00     0.007 C 
ENDBRANCH   6   7
BRANCH   6   9
HETATM    9  C4  UNL     1      -6.177   0.156   3.280  1.00  0.00     0.008 C 
HETATM   10  C5  UNL     1      -7.368   0.785   3.919  1.00  0.00     0.006 C 
ENDBRANCH   6   9
ENDBRANCH   5   6
BRANCH   4  11
HETATM   11  C11 UNL     1      -2.282   1.689   0.815  1.00  0.00     0.263 C 
BRANCH  11  12
HETATM   12  O1  UNL     1      -1.709   1.685  -0.500  1.00  0.00    -0.364 OA
BRANCH  12  13
HETATM   13  C12 UNL     1      -0.363   1.267  -0.454  1.00  0.00     0.138 C 
HETATM   14  C13 UNL     1       0.420   2.083  -1.401  1.00  0.00     0.112 C 
HETATM   15  C14 UNL     1       0.282   1.387  -2.753  1.00  0.00     0.253 C 
HETATM   16  F1  UNL     1      -0.354   2.292  -3.618  1.00  0.00    -0.206 F 
HETATM   17  F2  UNL     1       1.504   1.058  -3.227  1.00  0.00    -0.206 F 
HETATM   18  C15 UNL     1      -0.681   0.276  -2.543  1.00  0.00     0.103 C 
HETATM   19  C16 UNL     1      -0.287  -1.026  -3.163  1.00  0.00     0.166 C 
HETATM   20  C32 UNL     1      -0.342  -0.114  -1.087  1.00  0.00     0.068 C 
HETATM   21  C19 UNL     1       1.034  -1.228  -2.491  1.00  0.00     0.021 C 
HETATM   22  C20 UNL     1       1.028  -0.675  -1.248  1.00  0.00    -0.011 C 
BRANCH  19  23
HETATM   23  O2  UNL     1      -1.155  -2.061  -2.719  1.00  0.00    -0.312 OA
BRANCH  23  24
HETATM   24  C17 UNL     1      -1.601  -3.062  -3.515  1.00  0.00     0.255 C 
HETATM   25  C18 UNL     1      -2.534  -4.056  -2.812  1.00  0.00     0.126 C 
HETATM   26  O3  UNL     1      -1.332  -3.230  -4.678  1.00  0.00    -0.266 OA
ENDBRANCH  23  24
ENDBRANCH  19  23
BRANCH  22  27
HETATM   27  C21 UNL     1       2.155  -0.737  -0.437  1.00  0.00    -0.146 C 
BRANCH  27  28
HETATM   28  C22 UNL     1       3.164  -0.791   0.293  1.00  0.00     0.124 C 
BRANCH  28  29
HETATM   29  C23 UNL     1       4.489  -1.437  -0.105  1.00  0.00     0.143 C 
HETATM   30  C30 UNL     1       4.701  -1.633  -1.530  1.00  0.00     0.068 C 
HETATM   31  C31 UNL     1       4.273  -3.064  -1.367  1.00  0.00     0.236 C 
HETATM   32  N2  UNL     1       4.249  -2.888   0.058  1.00  0.00    -0.065 N 
ATOM     33  H22 UNL     1       4.871  -3.441   0.648  1.00  0.00     0.278 HD
ATOM     34  H21 UNL     1       3.445  -3.212   0.595  1.00  0.00     0.278 HD
BRANCH  29  35
HETATM   35  C24 UNL     1       5.604  -1.017   0.790  1.00  0.00     0.123 C 
BRANCH  35  36
HETATM   36  C25 UNL     1       6.940  -1.511   0.554  1.00  0.00     0.165 C 
HETATM   37  O4  UNL     1       7.098  -2.385  -0.379  1.00  0.00    -0.292 OA
BRANCH  36  38
HETATM   38  C26 UNL     1       8.176  -1.156   1.220  1.00  0.00     0.051 C 
HETATM   39  C27 UNL     1       9.299  -1.762   0.698  1.00  0.00     0.032 C 
HETATM   40  C28 UNL     1       8.396  -0.283   2.275  1.00  0.00     0.154 C 
BRANCH  40  41
HETATM   41  O5  UNL     1       9.633  -0.046   2.726  1.00  0.00    -0.345 OA
ATOM     42  H5  UNL     1       9.784   0.552   3.449  1.00  0.00     0.219 HD
ENDBRANCH  40  41
BRANCH  40  43
HETATM   43  N1  UNL     1       7.492   0.506   3.064  1.00  0.00    -0.327 N 
ATOM     44  H1  UNL     1       6.490   0.396   2.910  1.00  0.00     0.169 HD
BRANCH  43  45
HETATM   45  C29 UNL     1       7.920   1.414   4.029  1.00  0.00     0.225 C 
BRANCH  45  46
HETATM   46  O6  UNL     1       6.962   2.074   4.669  1.00  0.00    -0.356 OA
ATOM     47  H6  UNL     1       7.254   2.693   5.327  1.00  0.00     0.218 HD
ENDBRANCH  45  46
ENDBRANCH  43  45
ENDBRANCH  40  43
ENDBRANCH  36  38
ENDBRANCH  35  36
ENDBRANCH  29  35
ENDBRANCH  28  29
ENDBRANCH  27  28
ENDBRANCH  22  27
ENDBRANCH  12  13
ENDBRANCH  11  12
BRANCH  11  48
HETATM   48  C33 UNL     1      -2.618   3.073   1.119  1.00  0.00     0.208 C 
HETATM   49  O7  UNL     1      -3.152   3.567   2.124  1.00  0.00    -0.646 OA
HETATM   50  O8  UNL     1      -2.273   4.051   0.091  1.00  0.00    -0.646 OA
ENDBRANCH  11  48
ENDBRANCH   4  11
ENDBRANCH   1   4
TORSDOF 20
