REMARK  3 active torsions:
REMARK  status: ('A' for Active; 'I' for Inactive)
REMARK    1  A    between atoms: N1_1  and  N2_4 
REMARK    2  A    between atoms: C2_7  and  C3_8 
REMARK       I    between atoms: C3_8  and  N3_10 
REMARK    3  A    between atoms: N3_10  and  C4_12 
ROOT
HETATM    1  N2  UNL     1      -1.426  -1.059   1.432  1.00  0.00    -0.314 N 
ATOM      2  H2  UNL     1      -2.054  -1.723   1.885  1.00  0.00     0.185 HD
HETATM    3  C1  UNL     1      -1.838  -0.527   0.356  1.00  0.00     0.025 C 
HETATM    4  C2  UNL     1      -1.149   0.453  -0.503  1.00  0.00     0.126 C 
HETATM    5  C9  UNL     1      -1.931   1.760  -0.324  1.00  0.00     0.027 C 
HETATM    6  C10 UNL     1      -3.420   1.476  -0.375  1.00  0.00     0.019 C 
HETATM    7  C11 UNL     1      -3.863   1.110   1.050  1.00  0.00     0.040 C 
HETATM    8  C12 UNL     1      -4.318  -0.307   0.735  1.00  0.00     0.134 C 
HETATM    9  O2  UNL     1      -5.018  -0.116  -0.456  1.00  0.00    -0.379 OA
HETATM   10  C13 UNL     1      -3.752   0.156  -1.030  1.00  0.00     0.138 C 
HETATM   11  C14 UNL     1      -3.216  -0.897  -0.114  1.00  0.00     0.092 C 
ENDROOT
BRANCH   4  12
HETATM   12  C3  UNL     1       0.257   0.720  -0.216  1.00  0.00     0.227 C 
HETATM   13  O1  UNL     1       0.621   1.821   0.325  1.00  0.00    -0.273 OA
HETATM   14  N3  UNL     1       1.320  -0.186  -0.500  1.00  0.00    -0.356 N 
ATOM     15  H3  UNL     1       1.079  -1.078  -0.931  1.00  0.00     0.162 HD
BRANCH  14  16
HETATM   16  C4  UNL     1       2.696   0.066  -0.224  1.00  0.00     0.084 C 
HETATM   17  C5  UNL     1       3.336  -0.998   0.641  1.00  0.00     0.025 C 
HETATM   18  C6  UNL     1       4.799  -1.032   0.219  1.00  0.00     0.002 C 
HETATM   19  C7  UNL     1       4.922  -0.106  -0.962  1.00  0.00     0.002 C 
HETATM   20  C8  UNL     1       3.525  -0.048  -1.496  1.00  0.00     0.025 C 
ENDBRANCH  14  16
ENDBRANCH   4  12
BRANCH   1  21
HETATM   21  N1  UNL     1      -0.205  -0.828   2.055  1.00  0.00    -0.345 N 
ATOM     22  H12 UNL     1       0.409  -0.161   1.587  1.00  0.00     0.176 HD
ATOM     23  H11 UNL     1       0.126  -1.256   2.920  1.00  0.00     0.176 HD
ENDBRANCH   1  21
TORSDOF 3
