REMARK  4 active torsions:
REMARK  status: ('A' for Active; 'I' for Inactive)
REMARK    1  A    between atoms: C2_2  and  N1_4 
REMARK       I    between atoms: N1_4  and  C4_6 
REMARK       I    between atoms: C4_6  and  N2_8 
REMARK    2  A    between atoms: C6_10  and  N3_11 
REMARK       I    between atoms: N3_11  and  C7_13 
REMARK    3  A    between atoms: C7_13  and  C8_15 
REMARK    4  A    between atoms: C12_19  and  C13_20 
REMARK       I    between atoms: C13_20  and  N4_22 
ROOT
HETATM    1  N1  UNL     1       3.774  -0.367  -0.186  1.00  0.00    -0.339 N 
ATOM      2  H1  UNL     1       3.400  -1.305  -0.039  1.00  0.00     0.164 HD
HETATM    3  C4  UNL     1       2.862   0.663  -0.482  1.00  0.00     0.318 C 
HETATM    4  O1  UNL     1       3.326   1.838  -0.667  1.00  0.00    -0.247 OA
HETATM    5  N2  UNL     1       1.476   0.424  -0.575  1.00  0.00    -0.331 N 
HETATM    6  C5  UNL     1       0.856  -0.864  -0.375  1.00  0.00     0.153 C 
HETATM    7  C6  UNL     1      -0.522  -0.550   0.163  1.00  0.00     0.117 C 
HETATM    8  C12 UNL     1      -0.770   0.894  -0.076  1.00  0.00     0.120 C 
HETATM    9  C18 UNL     1       0.420   1.355  -0.882  1.00  0.00     0.143 C 
ENDROOT
BRANCH   7  10
HETATM   10  N3  UNL     1      -1.438  -1.457  -0.451  1.00  0.00    -0.353 N 
HETATM   11  C7  UNL     1      -2.114  -2.425   0.332  1.00  0.00     0.225 C 
HETATM   12  O2  UNL     1      -1.915  -2.494   1.579  1.00  0.00    -0.273 OA
ATOM     13  H3  UNL     1      -1.606  -1.408  -1.456  1.00  0.00     0.163 HD
BRANCH  11  14
HETATM   14  C8  UNL     1      -3.062  -3.367  -0.302  1.00  0.00     0.030 C 
HETATM   15  C9  UNL     1      -2.352  -4.217  -1.363  1.00  0.00     0.024 C 
HETATM   16  C10 UNL     1      -3.578  -4.357   0.732  1.00  0.00     0.024 C 
HETATM   17  C11 UNL     1      -4.241  -2.703  -0.935  1.00  0.00     0.024 C 
ENDBRANCH  11  14
ENDBRANCH   7  10
BRANCH   8  18
HETATM   18  C13 UNL     1      -0.766   1.688   1.195  1.00  0.00     0.227 C 
HETATM   19  O3  UNL     1      -0.535   1.045   2.248  1.00  0.00    -0.273 OA
HETATM   20  N4  UNL     1      -1.013   3.088   1.186  1.00  0.00    -0.352 N 
HETATM   21  C14 UNL     1      -1.291   3.954   0.073  1.00  0.00     0.126 C 
HETATM   22  C17 UNL     1      -1.020   3.903   2.384  1.00  0.00     0.126 C 
HETATM   23  C15 UNL     1      -2.286   4.939   0.645  1.00  0.00     0.021 C 
HETATM   24  C16 UNL     1      -1.732   5.178   2.031  1.00  0.00     0.021 C 
ENDBRANCH   8  18
BRANCH   1  25
HETATM   25  C2  UNL     1       5.196  -0.188  -0.077  1.00  0.00     0.078 C 
HETATM   26  C1  UNL     1       5.636  -0.719   1.263  1.00  0.00     0.032 C 
HETATM   27  C3  UNL     1       5.857  -1.001  -1.192  1.00  0.00     0.032 C 
ENDBRANCH   1  25
TORSDOF 4
