REMARK  5 active torsions:
REMARK  status: ('A' for Active; 'I' for Inactive)
REMARK    1  A    between atoms: C1_2  and  C2_3 
REMARK       I    between atoms: C1_2  and  N1_9 
REMARK    2  A    between atoms: C2_3  and  O2_4 
REMARK    3  A    between atoms: O2_4  and  C3_5 
REMARK    4  A    between atoms: C3_5  and  C4_7 
REMARK    5  A    between atoms: N1_9  and  C5_11 
ROOT
HETATM    1  C5  UNL     1       0.030  -1.364   0.300  1.00  0.00     0.130 A 
HETATM    2  N2  UNL     1      -0.630  -2.434   0.774  1.00  0.00    -0.285 N 
ATOM      3  H2  UNL     1      -0.236  -3.371   0.858  1.00  0.00     0.188 HD
HETATM    4  N3  UNL     1      -1.888  -2.092   1.123  1.00  0.00    -0.303 N 
ATOM      5  H3  UNL     1      -2.586  -2.728   1.509  1.00  0.00     0.186 HD
HETATM    6  C6  UNL     1      -2.079  -0.785   0.884  1.00  0.00     0.036 A 
HETATM    7  C7  UNL     1      -0.903  -0.325   0.376  1.00  0.00     0.011 A 
HETATM    8  C8  UNL     1      -0.581   1.028  -0.059  1.00  0.00     0.044 C 
HETATM    9  C9  UNL     1      -1.683   1.739  -0.800  1.00  0.00     0.005 C 
HETATM   10  C10 UNL     1      -2.720   2.129   0.238  1.00  0.00     0.001 C 
HETATM   11  C11 UNL     1      -3.721   1.010   0.283  1.00  0.00     0.006 C 
HETATM   12  C12 UNL     1      -3.343  -0.124   1.163  1.00  0.00     0.059 C 
ENDROOT
BRANCH   1  13
HETATM   13  N1  UNL     1       1.228  -1.231  -0.149  1.00  0.00    -0.310 N 
HETATM   14  C1  UNL     1       2.211  -2.198  -0.277  1.00  0.00     0.247 C 
HETATM   15  O1  UNL     1       2.033  -3.350   0.257  1.00  0.00    -0.271 OA
ATOM     16  H1  UNL     1       1.488  -0.292  -0.450  1.00  0.00     0.170 HD
BRANCH  14  17
HETATM   17  C2  UNL     1       3.464  -1.965  -1.010  1.00  0.00     0.281 C 
BRANCH  17  18
HETATM   18  O2  UNL     1       3.760  -0.675  -1.398  1.00  0.00    -0.311 OA
BRANCH  18  19
HETATM   19  C3  UNL     1       3.975   0.320  -0.418  1.00  0.00     0.269 C 
HETATM   20  O3  UNL     1       3.866  -0.045   0.767  1.00  0.00    -0.264 OA
BRANCH  19  21
HETATM   21  C4  UNL     1       4.320   1.710  -0.804  1.00  0.00     0.196 C 
HETATM   22 BR1  UNL     1       2.898   2.961  -0.496  1.00  0.00    -0.086 Br
ENDBRANCH  19  21
ENDBRANCH  18  19
ENDBRANCH  17  18
ENDBRANCH  14  17
ENDBRANCH   1  13
TORSDOF 5
