REMARK  11 active torsions:
REMARK  status: ('A' for Active; 'I' for Inactive)
REMARK    1  A    between atoms: C2_2  and  O1_6 
REMARK    2  A    between atoms: O1_6  and  C3_7 
REMARK    3  A    between atoms: C3_7  and  C4_8 
REMARK    4  A    between atoms: C3_7  and  C5_11 
REMARK    5  A    between atoms: C4_8  and  O2_9 
REMARK    6  A    between atoms: C5_11  and  O3_12 
REMARK    7  A    between atoms: O3_12  and  N2_13 
REMARK    8  A    between atoms: N6_22  and  O4_24 
REMARK    9  A    between atoms: C10_27  and  N7_28 
REMARK   10  A    between atoms: C10_27  and  N8_32 
REMARK   11  A    between atoms: N8_32  and  C11_34 
ROOT
HETATM    1  N2  UNL     1      -0.163   0.280  -0.407  1.00  0.00    -0.117 NA
HETATM    2  C6  UNL     1      -0.335   1.495  -1.223  1.00  0.00     0.207 C 
HETATM    3  N3  UNL     1       0.549   2.580  -0.829  1.00  0.00    -0.344 N 
ATOM      4  H3  UNL     1       1.516   2.372  -0.579  1.00  0.00     0.163 HD
HETATM    5  C7  UNL     1       0.087   3.938  -0.785  1.00  0.00     0.191 C 
HETATM    6  N4  UNL     1       0.972   5.018  -1.026  1.00  0.00    -0.063 NA
HETATM    7  N5  UNL     1      -1.162   4.154  -0.518  1.00  0.00    -0.318 N 
ATOM      8  H5  UNL     1      -1.524   5.107  -0.478  1.00  0.00     0.169 HD
HETATM    9  C8  UNL     1      -2.014   3.056  -0.283  1.00  0.00     0.117 C 
HETATM   10  N6  UNL     1      -3.142   3.274   0.320  1.00  0.00    -0.256 N 
ATOM     11  H6  UNL     1      -3.765   2.485   0.493  1.00  0.00     0.195 HD
HETATM   12  C9  UNL     1      -1.722   1.662  -0.674  1.00  0.00     0.170 C 
HETATM   13  C10 UNL     1      -1.179   0.808   0.474  1.00  0.00     0.305 C 
ENDROOT
BRANCH  13  14
HETATM   14  N7  UNL     1      -0.563   1.583   1.523  1.00  0.00    -0.035 N 
ATOM     15  H73 UNL     1       0.144   1.049   2.029  1.00  0.00     0.279 HD
ATOM     16  H72 UNL     1       0.042   2.316   1.153  1.00  0.00     0.279 HD
ATOM     17  H71 UNL     1      -1.280   1.956   2.145  1.00  0.00     0.279 HD
ENDBRANCH  13  14
BRANCH  13  18
HETATM   18  N8  UNL     1      -2.146  -0.111   0.963  1.00  0.00    -0.176 N 
ATOM     19  H8  UNL     1      -2.411  -0.024   1.944  1.00  0.00     0.181 HD
BRANCH  18  20
HETATM   20  C11 UNL     1      -2.774  -1.131   0.221  1.00  0.00     0.677 C 
HETATM   21  N9  UNL     1      -3.832  -0.867  -0.459  1.00  0.00    -0.225 N 
HETATM   22  C12 UNL     1      -4.643  -1.767  -1.297  1.00  0.00     0.157 C 
ATOM     23  H9  UNL     1      -4.155   0.099  -0.412  1.00  0.00     0.177 HD
HETATM   24  C13 UNL     1      -4.958  -3.057  -0.616  1.00  0.00     0.140 C 
HETATM   25  N10 UNL     1      -3.799  -3.963  -0.630  1.00  0.00    -0.384 N 
HETATM   26  C14 UNL     1      -2.610  -3.669  -0.235  1.00  0.00     0.193 C 
ATOM     27  H10 UNL     1      -3.951  -4.907  -0.984  1.00  0.00     0.160 HD
HETATM   28  N11 UNL     1      -2.153  -2.406   0.302  1.00  0.00    -0.189 N 
ATOM     29  H11 UNL     1      -1.267  -2.435   0.806  1.00  0.00     0.184 HD
ENDBRANCH  18  20
ENDBRANCH  13  18
BRANCH   1  30
HETATM   30  O3  UNL     1       1.095   0.287   0.082  1.00  0.00    -0.295 OA
BRANCH  30  31
HETATM   31  C5  UNL     1       1.518  -0.981   0.470  1.00  0.00     0.229 C 
BRANCH  31  32
HETATM   32  C3  UNL     1       2.919  -0.928   1.006  1.00  0.00     0.179 C 
BRANCH  32  33
HETATM   33  O1  UNL     1       3.900  -0.476   0.161  1.00  0.00    -0.330 OA
BRANCH  33  34
HETATM   34  C2  UNL     1       4.553  -1.186  -0.801  1.00  0.00     0.108 C 
HETATM   35  C1  UNL     1       5.839  -0.663  -1.421  1.00  0.00     0.097 C 
HETATM   36  N1  UNL     1       4.094  -2.303  -1.196  1.00  0.00    -0.384 N 
ATOM     37  H12 UNL     1       4.583  -2.835  -1.916  1.00  0.00     0.157 HD
ATOM     38  H11 UNL     1       3.231  -2.654  -0.780  1.00  0.00     0.157 HD
ENDBRANCH  33  34
ENDBRANCH  32  33
BRANCH  32  39
HETATM   39  C4  UNL     1       3.284  -2.084   1.907  1.00  0.00     0.198 C 
BRANCH  39  40
HETATM   40  O2  UNL     1       4.361  -1.636   2.698  1.00  0.00    -0.398 OA
ATOM     41  H2  UNL     1       4.591  -2.363   3.265  1.00  0.00     0.209 HD
ENDBRANCH  39  40
ENDBRANCH  32  39
ENDBRANCH  31  32
ENDBRANCH  30  31
ENDBRANCH   1  30
BRANCH  10  42
HETATM   42  O4  UNL     1      -3.528   4.513   0.731  1.00  0.00    -0.288 OA
ATOM     43  H4  UNL     1      -4.354   4.673   1.173  1.00  0.00     0.244 HD
ENDBRANCH  10  42
TORSDOF 11
