REMARK  11 active torsions:
REMARK  status: ('A' for Active; 'I' for Inactive)
REMARK    1  A    between atoms: N1_1  and  C1_5 
REMARK    2  A    between atoms: C1_5  and  C2_6 
REMARK    3  A    between atoms: C1_5  and  C4_10 
REMARK    4  A    between atoms: C2_6  and  C3_7 
REMARK    5  A    between atoms: C3_7  and  O1_8 
REMARK    6  A    between atoms: C4_10  and  O2_11 
REMARK    7  A    between atoms: C4_10  and  C5_13 
REMARK    8  A    between atoms: C7_17  and  C8_18 
REMARK    9  A    between atoms: C9_23  and  C10_24 
REMARK   10  A    between atoms: C12_26  and  O3_27 
REMARK   11  A    between atoms: N5_30  and  N6_31 
ROOT
HETATM    1  C8  UNL     1       0.323  -1.009   0.601  1.00  0.00     0.209 A 
HETATM    2  N3  UNL     1       0.550  -0.831   1.910  1.00  0.00    -0.275 N 
ATOM      3  H3  UNL     1      -0.166  -0.657   2.616  1.00  0.00     0.189 HD
HETATM    4  N4  UNL     1       1.868  -0.918   2.145  1.00  0.00    -0.276 N 
ATOM      5  H4  UNL     1       2.338  -0.824   3.046  1.00  0.00     0.189 HD
HETATM    6  C9  UNL     1       2.442  -1.153   0.959  1.00  0.00     0.194 A 
HETATM    7  O5  UNL     1       1.491  -1.200   0.061  1.00  0.00    -0.268 OA
ENDROOT
BRANCH   1   8
HETATM    8  C7  UNL     1      -0.966  -0.998  -0.116  1.00  0.00     0.159 A 
HETATM    9  N2  UNL     1      -1.163  -1.178  -1.425  1.00  0.00    -0.347 N 
HETATM   10  C6  UNL     1      -2.476  -1.092  -1.659  1.00  0.00     0.117 A 
ATOM     11  H2  UNL     1      -0.439  -1.351  -2.123  1.00  0.00     0.167 HD
HETATM   12  C5  UNL     1      -3.143  -0.850  -0.477  1.00  0.00     0.057 A 
HETATM   13  N10 UNL     1      -2.171  -0.800   0.446  1.00  0.00    -0.339 N 
ATOM     14  H10 UNL     1      -2.325  -0.634   1.440  1.00  0.00     0.167 HD
BRANCH  12  15
HETATM   15  C4  UNL     1      -4.606  -0.686  -0.293  1.00  0.00     0.199 C 
BRANCH  15  16
HETATM   16  C1  UNL     1      -5.026   0.699  -0.732  1.00  0.00     0.220 C 
BRANCH  16  17
HETATM   17  N1  UNL     1      -4.335   1.699   0.054  1.00  0.00    -0.072 N 
ATOM     18  H13 UNL     1      -4.610   2.650  -0.193  1.00  0.00     0.274 HD
ATOM     19  H12 UNL     1      -4.642   1.713   1.027  1.00  0.00     0.274 HD
ATOM     20  H11 UNL     1      -3.331   1.546  -0.037  1.00  0.00     0.274 HD
ENDBRANCH  16  17
BRANCH  16  21
HETATM   21  C2  UNL     1      -6.495   0.923  -0.599  1.00  0.00     0.062 C 
BRANCH  21  22
HETATM   22  C3  UNL     1      -6.975   0.819   0.834  1.00  0.00     0.166 C 
BRANCH  22  23
HETATM   23  O1  UNL     1      -8.349   1.032   0.926  1.00  0.00    -0.401 OA
ATOM     24  H1  UNL     1      -8.650   0.967   1.825  1.00  0.00     0.209 HD
ENDBRANCH  22  23
ENDBRANCH  21  22
ENDBRANCH  16  21
ENDBRANCH  15  16
BRANCH  15  25
HETATM   25  O2  UNL     1      -5.238  -1.681  -1.014  1.00  0.00    -0.387 OA
ATOM     26  H2  UNL     1      -4.974  -2.551  -0.738  1.00  0.00     0.210 HD
ENDBRANCH  15  25
ENDBRANCH  12  15
ENDBRANCH   1   8
BRANCH   6  27
HETATM   27  C10 UNL     1       3.854  -1.335   0.677  1.00  0.00     0.117 A 
HETATM   28  C11 UNL     1       4.703  -0.378   0.378  1.00  0.00     0.065 A 
HETATM   29  C12 UNL     1       4.307   0.928   0.305  1.00  0.00     0.098 A 
HETATM   30  C15 UNL     1       6.031  -0.640   0.124  1.00  0.00     0.135 A 
HETATM   31  C13 UNL     1       5.246   1.895  -0.015  1.00  0.00     0.157 A 
HETATM   32  N5  UNL     1       6.534   1.644  -0.262  1.00  0.00    -0.234 N 
HETATM   33  C14 UNL     1       6.935   0.361  -0.192  1.00  0.00     0.294 A 
HETATM   34  O4  UNL     1       8.151   0.127  -0.425  1.00  0.00    -0.264 OA
HETATM   35  N7  UNL     1       6.520  -1.845   0.166  1.00  0.00    -0.280 N 
HETATM   36  N8  UNL     1       5.716  -2.921   0.470  1.00  0.00    -0.242 N 
ATOM     37  H7  UNL     1       7.510  -1.994  -0.028  1.00  0.00     0.188 HD
HETATM   38  N9  UNL     1       4.371  -2.683   0.730  1.00  0.00    -0.281 N 
ATOM     39  H8  UNL     1       6.097  -3.867   0.504  1.00  0.00     0.208 HD
ATOM     40  H9  UNL     1       3.750  -3.459   0.958  1.00  0.00     0.188 HD
BRANCH  29  41
HETATM   41  O3  UNL     1       3.000   1.295   0.541  1.00  0.00    -0.358 OA
ATOM     42  H3  UNL     1       2.725   2.203   0.490  1.00  0.00     0.217 HD
ENDBRANCH  29  41
BRANCH  32  43
HETATM   43  N6  UNL     1       7.454   2.653  -0.583  1.00  0.00    -0.336 N 
ATOM     44  H62 UNL     1       7.150   3.625  -0.636  1.00  0.00     0.177 HD
ATOM     45  H61 UNL     1       8.438   2.461  -0.772  1.00  0.00     0.177 HD
ENDBRANCH  32  43
ENDBRANCH   6  27
TORSDOF 11
