REMARK  4 active torsions:
REMARK  status: ('A' for Active; 'I' for Inactive)
REMARK    1  A    between atoms: N1_1  and  C1_5 
REMARK    2  A    between atoms: C1_5  and  C2_6 
REMARK    3  A    between atoms: C5_9  and  O1_10 
REMARK    4  A    between atoms: O1_10  and  C6_11 
ROOT
HETATM    1  C2  UNL     1       2.438  -0.280   0.028  1.00  0.00    -0.013 A 
HETATM    2  C3  UNL     1       1.555  -1.353  -0.526  1.00  0.00     0.014 C 
HETATM    3  C4  UNL     1       0.297  -0.729  -1.141  1.00  0.00     0.033 C 
HETATM    4  C5  UNL     1      -0.444  -0.081   0.008  1.00  0.00     0.122 C 
HETATM    5  C10 UNL     1       0.352   0.965   0.701  1.00  0.00     0.037 C 
HETATM    6  C11 UNL     1       1.809   0.910   0.536  1.00  0.00    -0.001 A 
HETATM    7  C12 UNL     1       2.534  -0.045   1.499  1.00  0.00     0.017 A 
ENDROOT
BRANCH   1   8
HETATM    8  C1  UNL     1       3.752  -0.115  -0.731  1.00  0.00     0.239 C 
BRANCH   8   9
HETATM    9  N1  UNL     1       4.515   0.931  -0.120  1.00  0.00    -0.079 N 
ATOM     10  H13 UNL     1       3.993   1.805  -0.053  1.00  0.00     0.274 HD
ATOM     11  H12 UNL     1       4.660   0.774   0.877  1.00  0.00     0.274 HD
ATOM     12  H11 UNL     1       5.393   1.041  -0.627  1.00  0.00     0.274 HD
ENDBRANCH   8   9
ENDBRANCH   1   8
BRANCH   4  13
HETATM   13  O1  UNL     1      -1.650   0.457  -0.369  1.00  0.00    -0.381 OA
BRANCH  13  14
HETATM   14  C6  UNL     1      -2.751  -0.104   0.215  1.00  0.00     0.122 C 
HETATM   15  C7  UNL     1      -3.737  -0.552  -0.872  1.00  0.00     0.032 C 
HETATM   16  C8  UNL     1      -4.849  -0.034   0.001  1.00  0.00     0.005 C 
HETATM   17  C9  UNL     1      -3.819   0.858   0.683  1.00  0.00     0.032 C 
ENDBRANCH  13  14
ENDBRANCH   4  13
TORSDOF 4
