REMARK  5 active torsions:
REMARK  status: ('A' for Active; 'I' for Inactive)
REMARK    1  A    between atoms: N1_2  and  C3_4 
REMARK    2  A    between atoms: C3_4  and  C4_5 
REMARK    3  A    between atoms: C4_5  and  N2_6 
REMARK       I    between atoms: N2_6  and  C5_8 
REMARK       I    between atoms: C5_8  and  N4_12 
REMARK    4  A    between atoms: N4_12  and  N5_14 
REMARK    5  A    between atoms: C6_16  and  C7_17 
ROOT
HETATM    1  N2  UNL     1      -1.474   0.679  -0.743  1.00  0.00    -0.224 N 
ATOM      2  H2  UNL     1      -2.086   0.780  -1.553  1.00  0.00     0.177 HD
HETATM    3  C5  UNL     1      -0.109   0.438  -0.920  1.00  0.00     0.686 C 
HETATM    4  N3  UNL     1       0.498   0.814  -1.968  1.00  0.00    -0.234 N 
ATOM      5  H31 UNL     1       1.494   0.638  -2.097  1.00  0.00     0.174 HD
ATOM      6  H32 UNL     1      -0.021   1.303  -2.697  1.00  0.00     0.174 HD
HETATM    7  N4  UNL     1       0.616  -0.245   0.099  1.00  0.00    -0.133 N 
ATOM      8  H4  UNL     1       0.643   0.180   1.026  1.00  0.00     0.205 HD
ENDROOT
BRANCH   1   9
HETATM    9  C4  UNL     1      -2.014   0.785   0.591  1.00  0.00     0.168 C 
BRANCH   9  10
HETATM   10  C3  UNL     1      -3.505   1.046   0.580  1.00  0.00     0.291 C 
BRANCH  10  11
HETATM   11  N1  UNL     1      -4.194  -0.021  -0.085  1.00  0.00     0.081 N 
HETATM   12  C1  UNL     1      -5.620   0.236  -0.092  1.00  0.00     0.309 C 
HETATM   13  C2  UNL     1      -3.959  -1.313   0.525  1.00  0.00     0.309 C 
ENDBRANCH  10  11
ENDBRANCH   9  10
ENDBRANCH   1   9
BRANCH   7  14
HETATM   14  N5  UNL     1       1.273  -1.418  -0.074  1.00  0.00    -0.297 N 
HETATM   15  C6  UNL     1       2.481  -1.672  -0.115  1.00  0.00     0.119 C 
ATOM     16  H5  UNL     1       0.666  -2.230  -0.190  1.00  0.00     0.186 HD
BRANCH  15  17
HETATM   17  C7  UNL     1       3.654  -0.855  -0.001  1.00  0.00    -0.019 A 
HETATM   18  C8  UNL     1       4.931  -1.413  -0.086  1.00  0.00     0.013 A 
HETATM   19  C9  UNL     1       6.056  -0.635   0.022  1.00  0.00     0.001 A 
HETATM   20  C10 UNL     1       5.988   0.724   0.219  1.00  0.00     0.000 A 
HETATM   21  C11 UNL     1       4.758   1.295   0.306  1.00  0.00     0.001 A 
HETATM   22  C12 UNL     1       3.607   0.501   0.195  1.00  0.00     0.013 A 
ENDBRANCH  15  17
ENDBRANCH   7  14
TORSDOF 5
