REMARK  4 active torsions:
REMARK  status: ('A' for Active; 'I' for Inactive)
REMARK    1  A    between atoms: N1_1  and  C1_5 
REMARK    2  A    between atoms: C1_5  and  C2_6 
REMARK    3  A    between atoms: C6_10  and  C7_11 
REMARK    4  A    between atoms: C7_11  and  N2_12 
ROOT
HETATM    1  C2  UNL     1      -1.681  -0.363   0.422  1.00  0.00     0.017 C 
HETATM    2  C3  UNL     1      -2.441  -1.383  -0.464  1.00  0.00     0.007 C 
HETATM    3  C4  UNL     1      -1.395  -2.416  -0.708  1.00  0.00     0.001 C 
HETATM    4  C5  UNL     1      -0.099  -1.622  -0.800  1.00  0.00     0.007 C 
HETATM    5  C6  UNL     1      -0.487  -0.157  -0.529  1.00  0.00     0.020 C 
ENDROOT
BRANCH   5   6
HETATM    6  C7  UNL     1       0.664   0.543   0.114  1.00  0.00     0.281 C 
BRANCH   6   7
HETATM    7  N2  UNL     1       1.797   0.840  -0.654  1.00  0.00     0.122 N 
HETATM    8  C8  UNL     1       2.676   1.769   0.159  1.00  0.00     0.280 C 
HETATM    9  C9  UNL     1       3.398   0.521   0.592  1.00  0.00     0.100 C 
HETATM   10  C10 UNL     1       2.957   0.067  -0.819  1.00  0.00     0.406 C 
HETATM   11  F1  UNL     1       2.977  -1.262  -1.003  1.00  0.00    -0.216 F 
ENDBRANCH   6   7
ENDBRANCH   5   6
BRANCH   1  12
HETATM   12  C1  UNL     1      -2.554   0.836   0.553  1.00  0.00     0.234 C 
BRANCH  12  13
HETATM   13  N1  UNL     1      -2.059   1.910   1.355  1.00  0.00    -0.079 N 
ATOM     14  H13 UNL     1      -1.818   1.560   2.282  1.00  0.00     0.274 HD
ATOM     15  H12 UNL     1      -1.139   2.193   1.016  1.00  0.00     0.274 HD
ATOM     16  H11 UNL     1      -2.657   2.731   1.445  1.00  0.00     0.274 HD
ENDBRANCH  12  13
ENDBRANCH   1  12
TORSDOF 4
