REMARK  7 active torsions:
REMARK  status: ('A' for Active; 'I' for Inactive)
REMARK    1  A    between atoms: C10_14  and  C11_15 
REMARK    2  A    between atoms: C15_19  and  C16_20 
REMARK    3  A    between atoms: C16_20  and  O2_21 
REMARK    4  A    between atoms: C16_20  and  C17_23 
REMARK    5  A    between atoms: C17_23  and  C18_24 
REMARK    6  A    between atoms: C18_24  and  C19_26 
REMARK    7  A    between atoms: C22_30  and  O5_31 
ROOT
HETATM    1  C1  UNL     1      -3.980  -3.011  -1.113  1.00  0.00     0.015 C 
HETATM    2  C2  UNL     1      -2.888  -2.657  -0.456  1.00  0.00    -0.075 C 
HETATM    3  C3  UNL     1      -2.116  -3.729   0.244  1.00  0.00     0.117 C 
HETATM    4  C4  UNL     1      -0.692  -3.492  -0.113  1.00  0.00     0.116 C 
HETATM    5  N1  UNL     1       0.094  -4.488  -0.446  1.00  0.00    -0.383 N 
ATOM      6  H11 UNL     1       1.071  -4.325  -0.691  1.00  0.00     0.157 HD
ATOM      7  H12 UNL     1      -0.225  -5.456  -0.477  1.00  0.00     0.157 HD
HETATM    8  O1  UNL     1      -0.264  -2.193  -0.071  1.00  0.00    -0.327 OA
HETATM    9  C5  UNL     1      -0.956  -1.090  -0.619  1.00  0.00     0.079 C 
HETATM   10  C6  UNL     1      -0.740  -1.143  -2.114  1.00  0.00     0.048 C 
HETATM   11  C7  UNL     1      -2.462  -1.231  -0.427  1.00  0.00     0.049 C 
HETATM   12  C8  UNL     1      -2.927  -0.684   0.892  1.00  0.00     0.013 C 
HETATM   13  C9  UNL     1      -2.616   0.807   1.010  1.00  0.00     0.010 C 
HETATM   14  C10 UNL     1      -1.577   1.214   0.012  1.00  0.00     0.018 C 
HETATM   15  C15 UNL     1      -0.503   0.140   0.052  1.00  0.00     0.058 C 
ENDROOT
BRANCH  15  16
HETATM   16  C16 UNL     1       0.808   0.698  -0.306  1.00  0.00     0.133 C 
BRANCH  16  17
HETATM   17  O2  UNL     1       1.011   1.055  -1.621  1.00  0.00    -0.395 OA
ATOM     18  H2  UNL     1       1.859   1.416  -1.853  1.00  0.00     0.210 HD
ENDBRANCH  16  17
BRANCH  16  19
HETATM   19  C17 UNL     1       1.992  -0.133   0.145  1.00  0.00     0.116 C 
BRANCH  19  20
HETATM   20  C18 UNL     1       3.251   0.539  -0.275  1.00  0.00     0.166 C 
HETATM   21  O3  UNL     1       3.227   1.630  -0.900  1.00  0.00    -0.292 OA
BRANCH  20  22
HETATM   22  C19 UNL     1       4.555  -0.044   0.022  1.00  0.00     0.070 A 
HETATM   23  C20 UNL     1       4.809  -1.239   0.698  1.00  0.00     0.044 A 
HETATM   24  C21 UNL     1       6.179  -1.384   0.742  1.00  0.00     0.146 A 
HETATM   25  O4  UNL     1       6.741  -0.359   0.140  1.00  0.00    -0.300 OA
HETATM   26  C22 UNL     1       5.786   0.443  -0.292  1.00  0.00     0.197 A 
BRANCH  26  27
HETATM   27  O5  UNL     1       6.008   1.623  -0.974  1.00  0.00    -0.340 OA
ATOM     28  H5  UNL     1       6.868   1.963  -1.193  1.00  0.00     0.220 HD
ENDBRANCH  26  27
ENDBRANCH  20  22
ENDBRANCH  19  20
ENDBRANCH  16  19
ENDBRANCH  15  16
BRANCH  14  29
HETATM   29  C11 UNL     1      -1.071   2.572   0.026  1.00  0.00    -0.020 C 
HETATM   30  C12 UNL     1      -1.215   3.542   0.843  1.00  0.00    -0.091 C 
HETATM   31  C13 UNL     1      -1.992   3.549   2.084  1.00  0.00     0.042 C 
HETATM   32  C14 UNL     1      -0.511   4.861   0.520  1.00  0.00     0.042 C 
ENDBRANCH  14  29
TORSDOF 7
