REMARK  5 active torsions:
REMARK  status: ('A' for Active; 'I' for Inactive)
REMARK    1  A    between atoms: C1_2  and  O2_3 
REMARK       I    between atoms: C1_2  and  N1_11 
REMARK    2  A    between atoms: O2_3  and  C2_4 
REMARK    3  A    between atoms: C2_4  and  C3_5 
REMARK    4  A    between atoms: C13_16  and  C14_17 
REMARK    5  A    between atoms: C16_19  and  C17_20 
ROOT
HETATM    1  O1  UNL     1       1.456  -0.898  -0.841  1.00  0.00    -0.238 OA
HETATM    2  C1  UNL     1       1.170  -0.185   0.187  1.00  0.00     0.363 C 
HETATM    3  N1  UNL     1       0.245  -0.659   1.142  1.00  0.00    -0.318 N 
HETATM    4  C9  UNL     1      -0.082   0.125   2.293  1.00  0.00     0.129 C 
HETATM    5  C10 UNL     1       0.223  -0.674   3.527  1.00  0.00     0.020 C 
HETATM    6  C11 UNL     1      -0.265  -2.084   3.474  1.00  0.00     0.004 C 
HETATM    7  C12 UNL     1      -0.049  -2.776   2.177  1.00  0.00     0.032 C 
HETATM    8  C13 UNL     1      -0.378  -1.935   0.967  1.00  0.00     0.141 C 
ENDROOT
BRANCH   8   9
HETATM    9  C14 UNL     1      -1.836  -1.770   0.811  1.00  0.00     0.050 A 
HETATM   10  C15 UNL     1      -2.471  -0.856   0.035  1.00  0.00     0.055 A 
HETATM   11  C16 UNL     1      -3.831  -1.061   0.190  1.00  0.00     0.032 A 
HETATM   12  N2  UNL     1      -3.986  -2.083   1.049  1.00  0.00    -0.304 N 
HETATM   13  N3  UNL     1      -2.804  -2.500   1.414  1.00  0.00    -0.303 N 
ATOM     14  H2  UNL     1      -4.877  -2.468   1.363  1.00  0.00     0.186 HD
ATOM     15  H3  UNL     1      -2.633  -3.268   2.063  1.00  0.00     0.186 HD
BRANCH  11  16
HETATM   16  C17 UNL     1      -4.956  -0.330  -0.437  1.00  0.00     0.037 C 
HETATM   17  C18 UNL     1      -4.965   1.107   0.022  1.00  0.00     0.011 C 
HETATM   18  C19 UNL     1      -4.290   2.056  -0.929  1.00  0.00     0.001 C 
HETATM   19  C20 UNL     1      -4.757   1.953  -2.342  1.00  0.00     0.000 C 
HETATM   20  C21 UNL     1      -5.693   0.772  -2.476  1.00  0.00     0.001 C 
HETATM   21  C22 UNL     1      -4.921  -0.436  -1.946  1.00  0.00     0.011 C 
ENDBRANCH  11  16
ENDBRANCH   8   9
BRANCH   2  22
HETATM   22  O2  UNL     1       1.814   1.021   0.271  1.00  0.00    -0.304 OA
BRANCH  22  23
HETATM   23  C2  UNL     1       2.745   1.556  -0.634  1.00  0.00     0.185 C 
BRANCH  23  24
HETATM   24  C3  UNL     1       3.990   0.743  -0.809  1.00  0.00     0.010 C 
HETATM   25  C4  UNL     1       4.877   1.468  -1.814  1.00  0.00     0.007 C 
HETATM   26  C5  UNL     1       6.332   1.352  -1.475  1.00  0.00     0.000 C 
HETATM   27  C6  UNL     1       6.684  -0.006  -0.918  1.00  0.00     0.000 C 
HETATM   28  C7  UNL     1       5.897  -0.341   0.306  1.00  0.00     0.000 C 
HETATM   29  C8  UNL     1       4.709   0.566   0.508  1.00  0.00     0.007 C 
ENDBRANCH  23  24
ENDBRANCH  22  23
ENDBRANCH   2  22
TORSDOF 5
