REMARK  6 active torsions:
REMARK  status: ('A' for Active; 'I' for Inactive)
REMARK    1  A    between atoms: C4_4  and  C5_5 
REMARK    2  A    between atoms: C5_5  and  C6_6 
REMARK    3  A    between atoms: C11_11  and  O1_12 
REMARK    4  A    between atoms: O1_12  and  C12_13 
REMARK    5  A    between atoms: C12_13  and  C13_15 
REMARK    6  A    between atoms: C17_19  and  O3_20 
ROOT
HETATM    1  C6  UNL     1      -2.808  -0.701  -0.057  1.00  0.00    -0.021 C 
HETATM    2  C7  UNL     1      -1.606  -0.467   0.657  1.00  0.00     0.012 C 
HETATM    3  C8  UNL     1      -0.790   0.043   1.676  1.00  0.00     0.007 C 
HETATM    4  C9  UNL     1       0.618  -0.536   1.353  1.00  0.00     0.015 C 
HETATM    5  C10 UNL     1       1.533   0.539   0.807  1.00  0.00     0.039 C 
HETATM    6  C11 UNL     1       2.948   0.127   1.237  1.00  0.00     0.136 C 
HETATM    7  C16 UNL     1       2.981  -1.368   1.507  1.00  0.00     0.089 C 
HETATM    8  C17 UNL     1       2.168  -2.165   0.552  1.00  0.00     0.157 C 
HETATM    9 CL1  UNL     1       2.409  -3.891   0.957  1.00  0.00    -0.086 Cl
HETATM   10  C18 UNL     1       0.669  -1.795   0.585  1.00  0.00     0.135 C 
HETATM   11  N1  UNL     1       0.277  -1.927  -0.764  1.00  0.00    -0.392 N 
ATOM     12  H1  UNL     1       1.042  -2.068  -1.424  1.00  0.00     0.159 HD
HETATM   13  C19 UNL     1      -0.916  -1.896  -1.299  1.00  0.00     0.067 C 
HETATM   14  C20 UNL     1      -2.351  -1.756  -1.114  1.00  0.00     0.004 A 
HETATM   15  C21 UNL     1      -3.351  -2.408  -1.949  1.00  0.00     0.021 A 
HETATM   16  C22 UNL     1      -3.013  -3.055  -0.688  1.00  0.00     0.001 A 
HETATM   17  C23 UNL     1      -3.671  -2.837   0.615  1.00  0.00     0.011 C 
HETATM   18  C24 UNL     1      -3.853  -1.352   0.763  1.00  0.00    -0.008 C 
HETATM   19  C25 UNL     1      -5.265  -0.971   0.551  1.00  0.00     0.011 C 
ENDROOT
BRANCH   6  20
HETATM   20  O1  UNL     1       3.844   0.470   0.194  1.00  0.00    -0.316 OA
BRANCH  20  21
HETATM   21  C12 UNL     1       4.873   1.348   0.484  1.00  0.00     0.262 C 
HETATM   22  O2  UNL     1       5.034   1.843   1.631  1.00  0.00    -0.265 OA
BRANCH  21  23
HETATM   23  C13 UNL     1       5.796   1.680  -0.658  1.00  0.00     0.077 C 
HETATM   24  C14 UNL     1       6.829   2.634  -0.140  1.00  0.00     0.020 C 
HETATM   25  C15 UNL     1       6.389   0.383  -1.157  1.00  0.00     0.020 C 
ENDBRANCH  21  23
ENDBRANCH  20  21
ENDBRANCH   6  20
BRANCH   8  26
HETATM   26  O3  UNL     1       2.715  -1.986  -0.711  1.00  0.00    -0.373 OA
ATOM     27  H3  UNL     1       2.195  -2.496  -1.322  1.00  0.00     0.212 HD
ENDBRANCH   8  26
BRANCH   1  28
HETATM   28  C5  UNL     1      -3.274   0.464  -0.894  1.00  0.00     0.038 C 
BRANCH  28  29
HETATM   29  C4  UNL     1      -3.544   1.700  -0.119  1.00  0.00    -0.024 C 
HETATM   30  C2  UNL     1      -2.919   2.833  -0.321  1.00  0.00    -0.091 C 
HETATM   31  C1  UNL     1      -1.882   2.923  -1.370  1.00  0.00     0.042 C 
HETATM   32  C3  UNL     1      -3.240   4.024   0.488  1.00  0.00     0.042 C 
ENDBRANCH  28  29
ENDBRANCH   1  28
TORSDOF 6
