REMARK  11 active torsions:
REMARK  status: ('A' for Active; 'I' for Inactive)
REMARK    1  A    between atoms: C2_2  and  N1_3 
REMARK    2  A    between atoms: C5_8  and  C7_10 
REMARK    3  A    between atoms: C7_10  and  C8_11 
REMARK    4  A    between atoms: C8_11  and  C9_12 
REMARK    5  A    between atoms: C10_14  and  O2_15 
REMARK    6  A    between atoms: C11_17  and  C12_18 
REMARK       I    between atoms: N3_27  and  C19_28 
REMARK    7  A    between atoms: C19_28  and  C20_30 
REMARK    8  A    between atoms: C21_31  and  C22_32 
REMARK    9  A    between atoms: C22_32  and  C23_33 
REMARK   10  A    between atoms: C23_33  and  C24_34 
REMARK   11  A    between atoms: N4_35  and  N5_37 
ROOT
HETATM    1  C12 UNL     1      -0.112   0.366  -0.940  1.00  0.00     0.195 A 
HETATM    2  C13 UNL     1      -0.458   0.493  -2.361  1.00  0.00     0.000 A 
HETATM    3  C14 UNL     1      -1.484   0.989  -3.093  1.00  0.00     0.012 A 
HETATM    4  C15 UNL     1      -1.472   0.888  -4.467  1.00  0.00     0.001 A 
HETATM    5  C16 UNL     1      -0.449   0.297  -5.141  1.00  0.00     0.002 A 
HETATM    6  C17 UNL     1       0.589  -0.204  -4.419  1.00  0.00     0.031 A 
HETATM    7  C18 UNL     1       0.580  -0.105  -3.044  1.00  0.00     0.057 A 
HETATM    8  N2  UNL     1       1.606  -0.543  -2.160  1.00  0.00    -0.294 N 
ATOM      9  H2  UNL     1       2.472  -1.014  -2.420  1.00  0.00     0.187 HD
HETATM   10  N3  UNL     1       1.201  -0.205  -0.873  1.00  0.00    -0.242 N 
HETATM   11  C19 UNL     1       2.006  -0.374   0.270  1.00  0.00     0.262 C 
HETATM   12  O3  UNL     1       1.684  -0.011   1.439  1.00  0.00    -0.267 OA
ENDROOT
BRANCH   1  13
HETATM   13  C11 UNL     1      -1.118  -0.222  -0.032  1.00  0.00     0.051 C 
HETATM   14  N1  UNL     1      -1.773  -1.428  -0.503  1.00  0.00    -0.320 N 
HETATM   15  C3  UNL     1      -3.158  -1.282  -0.882  1.00  0.00     0.239 C 
HETATM   16  O1  UNL     1      -3.541  -1.901  -1.905  1.00  0.00    -0.272 OA
HETATM   17  C4  UNL     1      -4.077  -0.419  -0.063  1.00  0.00     0.161 C 
HETATM   18 BR1  UNL     1      -5.154   0.609  -1.246  1.00  0.00    -0.080 Br
HETATM   19  C5  UNL     1      -3.356   0.330   0.993  1.00  0.00     0.009 C 
HETATM   20  C6  UNL     1      -3.204  -0.579   2.223  1.00  0.00     0.020 C 
HETATM   21  C10 UNL     1      -1.969   0.785   0.619  1.00  0.00     0.176 C 
BRANCH  14  22
HETATM   22  C2  UNL     1      -1.137  -2.688  -0.601  1.00  0.00     0.127 C 
HETATM   23  C1  UNL     1      -1.253  -3.555   0.664  1.00  0.00     0.027 C 
ENDBRANCH  14  22
BRANCH  19  24
HETATM   24  C7  UNL     1      -4.145   1.519   1.492  1.00  0.00     0.014 C 
BRANCH  24  25
HETATM   25  C8  UNL     1      -3.440   2.301   2.575  1.00  0.00     0.012 C 
BRANCH  25  26
HETATM   26  C9  UNL     1      -4.354   3.446   2.963  1.00  0.00     0.085 C 
HETATM   27 BR2  UNL     1      -4.718   4.602   1.457  1.00  0.00    -0.097 Br
ENDBRANCH  25  26
ENDBRANCH  24  25
ENDBRANCH  19  24
BRANCH  21  28
HETATM   28  O2  UNL     1      -2.061   2.020   0.022  1.00  0.00    -0.389 OA
ATOM     29  H2  UNL     1      -1.187   2.307  -0.214  1.00  0.00     0.210 HD
ENDBRANCH  21  28
ENDBRANCH   1  13
BRANCH  11  30
HETATM   30  C20 UNL     1       3.337  -1.014   0.179  1.00  0.00     0.072 C 
HETATM   31  C21 UNL     1       4.115  -1.191   1.210  1.00  0.00    -0.021 C 
BRANCH  31  32
HETATM   32  C22 UNL     1       5.425  -1.831   1.065  1.00  0.00     0.032 C 
BRANCH  32  33
HETATM   33  C23 UNL     1       6.563  -0.932   1.497  1.00  0.00     0.050 C 
BRANCH  33  34
HETATM   34  C24 UNL     1       6.621   0.311   0.712  1.00  0.00     0.081 C 
HETATM   35  N4  UNL     1       7.543   1.167   0.951  1.00  0.00    -0.302 N 
ATOM     36  H4  UNL     1       8.208   0.941   1.691  1.00  0.00     0.187 HD
BRANCH  35  37
HETATM   37  N5  UNL     1       7.716   2.370   0.294  1.00  0.00    -0.250 N 
HETATM   38  N6  UNL     1       7.335   2.498  -0.895  1.00  0.00    -0.331 N 
ATOM     39  H62 UNL     1       6.899   1.703  -1.362  1.00  0.00     0.178 HD
ATOM     40  H61 UNL     1       7.463   3.386  -1.380  1.00  0.00     0.178 HD
ATOM     41  H5  UNL     1       8.154   3.155   0.776  1.00  0.00     0.207 HD
ENDBRANCH  35  37
ENDBRANCH  33  34
ENDBRANCH  32  33
ENDBRANCH  31  32
ENDBRANCH  11  30
TORSDOF 11
