REMARK  10 active torsions:
REMARK  status: ('A' for Active; 'I' for Inactive)
REMARK    1  A    between atoms: N1_1  and  C1_5 
REMARK    2  A    between atoms: C1_5  and  C2_6 
REMARK    3  A    between atoms: C2_6  and  C3_7 
REMARK    4  A    between atoms: C3_7  and  C4_8 
REMARK    5  A    between atoms: C4_8  and  C5_9 
REMARK    6  A    between atoms: C5_9  and  C6_10 
REMARK    7  A    between atoms: C6_10  and  N2_11 
REMARK    8  A    between atoms: C8_13  and  C9_14 
REMARK    9  A    between atoms: C9_14  and  N3_15 
REMARK   10  A    between atoms: C15_23  and  C16_24 
ROOT
HETATM    1  N2  UNL     1       0.078   1.731   1.032  1.00  0.00    -0.340 N 
HETATM    2  C7  UNL     1      -0.390   0.796   1.953  1.00  0.00     0.119 A 
HETATM    3  C8  UNL     1      -1.725   0.604   1.733  1.00  0.00     0.044 A 
HETATM    4  N4  UNL     1      -2.024   1.405   0.717  1.00  0.00    -0.341 N 
ATOM      5  H4  UNL     1      -2.956   1.491   0.312  1.00  0.00     0.167 HD
HETATM    6  C15 UNL     1      -0.924   2.104   0.277  1.00  0.00     0.135 A 
ENDROOT
BRANCH   1   7
HETATM    7  C6  UNL     1       1.460   2.111   0.956  1.00  0.00     0.130 C 
BRANCH   7   8
HETATM    8  C5  UNL     1       2.346   1.116   0.233  1.00  0.00     0.020 C 
BRANCH   8   9
HETATM    9  C4  UNL     1       2.012   0.819  -1.163  1.00  0.00     0.002 C 
BRANCH   9  10
HETATM   10  C3  UNL     1       2.806  -0.160  -1.930  1.00  0.00     0.002 C 
BRANCH  10  11
HETATM   11  C2  UNL     1       2.839  -1.584  -1.610  1.00  0.00     0.027 C 
BRANCH  11  12
HETATM   12  C1  UNL     1       3.291  -2.037  -0.262  1.00  0.00     0.229 C 
BRANCH  12  13
HETATM   13  N1  UNL     1       3.336  -3.530  -0.234  1.00  0.00    -0.079 N 
ATOM     14  H13 UNL     1       2.446  -3.949  -0.505  1.00  0.00     0.274 HD
ATOM     15  H12 UNL     1       3.911  -3.914  -0.984  1.00  0.00     0.274 HD
ATOM     16  H11 UNL     1       3.645  -3.840   0.687  1.00  0.00     0.274 HD
ENDBRANCH  12  13
ENDBRANCH  11  12
ENDBRANCH  10  11
ENDBRANCH   9  10
ENDBRANCH   8   9
ENDBRANCH   7   8
ENDBRANCH   1   7
BRANCH   6  17
HETATM   17  C16 UNL     1      -1.052   3.089  -0.831  1.00  0.00     0.076 A 
HETATM   18  C17 UNL     1      -0.138   3.907  -1.404  1.00  0.00     0.035 A 
HETATM   19  C18 UNL     1      -0.760   4.672  -2.396  1.00  0.00     0.019 A 
HETATM   20  C19 UNL     1      -2.079   4.295  -2.410  1.00  0.00     0.088 A 
HETATM   21  N5  UNL     1      -2.207   3.360  -1.473  1.00  0.00    -0.363 N 
ATOM     22  H5  UNL     1      -3.090   2.895  -1.261  1.00  0.00     0.165 HD
ENDBRANCH   6  17
BRANCH   3  23
HETATM   23  C9  UNL     1      -2.669  -0.300   2.461  1.00  0.00     0.186 C 
BRANCH  23  24
HETATM   24  N3  UNL     1      -2.733  -1.610   1.874  1.00  0.00    -0.361 N 
HETATM   25  C10 UNL     1      -1.883  -2.544   2.312  1.00  0.00     0.090 A 
HETATM   26  C11 UNL     1      -1.904  -3.802   1.788  1.00  0.00     0.017 A 
HETATM   27  C12 UNL     1      -2.800  -4.119   0.805  1.00  0.00     0.003 A 
HETATM   28  C13 UNL     1      -3.675  -3.155   0.355  1.00  0.00     0.017 A 
HETATM   29  C14 UNL     1      -3.614  -1.902   0.916  1.00  0.00     0.090 A 
ENDBRANCH  23  24
ENDBRANCH   3  23
TORSDOF 10
