REMARK  2 active torsions:
REMARK  status: ('A' for Active; 'I' for Inactive)
REMARK    1  A    between atoms: C3_3  and  C4_4 
REMARK    2  A    between atoms: C15_18  and  N1_19 
ROOT
HETATM    1  C1  UNL     1      -0.464   1.901   0.058  1.00  0.00     0.011 C 
HETATM    2  C2  UNL     1      -0.692   0.529  -0.540  1.00  0.00     0.000 C 
HETATM    3  C3  UNL     1      -0.025  -0.574   0.203  1.00  0.00     0.028 C 
HETATM    4  C11 UNL     1      -0.401  -0.430   1.650  1.00  0.00     0.011 C 
HETATM    5  C12 UNL     1      -1.858  -0.710   1.765  1.00  0.00     0.042 C 
HETATM    6  C13 UNL     1      -2.744  -0.272   0.691  1.00  0.00     0.101 C 
HETATM    7  C14 UNL     1      -3.687  -1.435   0.334  1.00  0.00     0.050 C 
HETATM    8  O2  UNL     1      -3.603   0.753   1.117  1.00  0.00    -0.227 OA
HETATM    9  O3  UNL     1      -3.420   1.791   0.378  1.00  0.00    -0.206 OA
HETATM   10  C15 UNL     1      -3.032   1.397  -0.894  1.00  0.00     0.363 C 
HETATM   11  C16 UNL     1      -2.160   0.208  -0.582  1.00  0.00     0.086 C 
ENDROOT
BRANCH   3  12
HETATM   12  C4  UNL     1       1.425  -0.764  -0.005  1.00  0.00     0.080 C 
HETATM   13  C5  UNL     1       1.841  -1.958   0.871  1.00  0.00     0.051 C 
HETATM   14  C6  UNL     1       1.786  -1.116  -1.381  1.00  0.00     0.010 C 
HETATM   15  C7  UNL     1       2.916  -0.492  -1.657  1.00  0.00     0.009 C 
HETATM   16  C8  UNL     1       3.335   0.290  -0.475  1.00  0.00     0.073 C 
HETATM   17  C9  UNL     1       3.646   1.732  -0.837  1.00  0.00     0.050 C 
HETATM   18  C10 UNL     1       4.535  -0.296   0.219  1.00  0.00     0.050 C 
HETATM   19  O1  UNL     1       2.231   0.278   0.397  1.00  0.00    -0.362 OA
ENDBRANCH   3  12
BRANCH  10  20
HETATM   20  N1  UNL     1      -4.237   1.017  -1.605  1.00  0.00    -0.049 N 
ATOM     21  H13 UNL     1      -4.785   0.309  -1.116  1.00  0.00     0.277 HD
ATOM     22  H12 UNL     1      -4.947   1.750  -1.611  1.00  0.00     0.277 HD
ATOM     23  H11 UNL     1      -3.952   0.727  -2.540  1.00  0.00     0.277 HD
ENDBRANCH  10  20
TORSDOF 2
