REMARK  3 active torsions:
REMARK  status: ('A' for Active; 'I' for Inactive)
REMARK    1  A    between atoms: C5_5  and  C7_7 
REMARK    2  A    between atoms: C7_7  and  N1_8 
REMARK    3  A    between atoms: N1_8  and  C8_11 
ROOT
HETATM    1  C1  UNL     1      -3.527   0.865   0.837  1.00  0.00     0.010 C 
HETATM    2  C2  UNL     1      -3.073  -0.463   0.330  1.00  0.00    -0.019 C 
HETATM    3  C3  UNL     1      -2.038  -1.123   1.187  1.00  0.00     0.005 C 
HETATM    4  C4  UNL     1      -0.700  -0.467   1.141  1.00  0.00     0.011 C 
HETATM    5  C5  UNL     1      -0.189  -0.286  -0.265  1.00  0.00    -0.020 C 
HETATM    6  C6  UNL     1       0.178  -1.626  -0.878  1.00  0.00     0.017 C 
HETATM    7  C11 UNL     1      -1.259   0.429  -1.065  1.00  0.00     0.011 C 
HETATM    8  C12 UNL     1      -2.552  -0.325  -1.083  1.00  0.00     0.005 C 
ENDROOT
BRANCH   5   9
HETATM    9  C7  UNL     1       1.016   0.615  -0.245  1.00  0.00     0.241 C 
BRANCH   9  10
HETATM   10  N1  UNL     1       2.077   0.075   0.551  1.00  0.00    -0.070 N 
ATOM     11  H12 UNL     1       1.760  -0.145   1.495  1.00  0.00     0.277 HD
ATOM     12  H11 UNL     1       2.330  -0.865   0.246  1.00  0.00     0.277 HD
BRANCH  10  13
HETATM   13  C8  UNL     1       3.220   0.947   0.570  1.00  0.00     0.186 A 
HETATM   14  C9  UNL     1       3.995   1.304  -0.614  1.00  0.00     0.035 A 
HETATM   15  C10 UNL     1       4.569   0.228   0.237  1.00  0.00     0.035 A 
ENDBRANCH  10  13
ENDBRANCH   9  10
ENDBRANCH   5   9
TORSDOF 3
