REMARK  4 active torsions:
REMARK  status: ('A' for Active; 'I' for Inactive)
REMARK    1  A    between atoms: C3_6  and  C4_7 
REMARK    2  A    between atoms: C4_7  and  C5_8 
REMARK    3  A    between atoms: N4_26  and  C18_27 
REMARK    4  A    between atoms: C18_27  and  C19_28 
ROOT
HETATM    1  O1  UNL     1      -1.832   2.030   1.568  1.00  0.00    -0.247 OA
HETATM    2  C1  UNL     1      -1.485   1.072   0.796  1.00  0.00     0.323 C 
HETATM    3  N1  UNL     1      -0.344   0.286   1.096  1.00  0.00    -0.306 N 
ATOM      4  H1  UNL     1       0.211   0.487   1.928  1.00  0.00     0.171 HD
HETATM    5  C2  UNL     1       0.026  -0.784   0.234  1.00  0.00     0.074 A 
HETATM    6  C3  UNL     1       1.167  -1.503   0.484  1.00  0.00     0.057 A 
HETATM    7  N2  UNL     1       1.486  -2.484  -0.428  1.00  0.00    -0.299 N 
ATOM      8  H2  UNL     1       2.327  -3.041  -0.278  1.00  0.00     0.186 HD
HETATM    9  N3  UNL     1       0.742  -2.728  -1.488  1.00  0.00    -0.266 N 
ATOM     10  H3  UNL     1       1.032  -3.469  -2.126  1.00  0.00     0.190 HD
HETATM   11  C15 UNL     1      -0.371  -2.051  -1.763  1.00  0.00     0.270 A 
HETATM   12  O2  UNL     1      -1.089  -2.288  -2.792  1.00  0.00    -0.266 OA
HETATM   13  C16 UNL     1      -0.764  -1.037  -0.879  1.00  0.00     0.058 A 
HETATM   14  C17 UNL     1      -2.051  -0.397  -1.115  1.00  0.00     0.174 C 
HETATM   15  N4  UNL     1      -2.248   0.802  -0.361  1.00  0.00    -0.325 N 
ENDROOT
BRANCH   6  16
HETATM   16  C4  UNL     1       2.110  -1.245   1.563  1.00  0.00     0.100 C 
BRANCH  16  17
HETATM   17  C5  UNL     1       3.486  -1.165   0.963  1.00  0.00    -0.041 A 
HETATM   18  C6  UNL     1       4.260  -2.324   1.009  1.00  0.00     0.008 A 
HETATM   19  C7  UNL     1       5.509  -2.423   0.460  1.00  0.00     0.001 A 
HETATM   20  C8  UNL     1       6.045  -1.332  -0.178  1.00  0.00     0.012 A 
HETATM   21  C9  UNL     1       5.296  -0.173  -0.237  1.00  0.00    -0.025 A 
HETATM   22  C10 UNL     1       5.793   0.958  -0.852  1.00  0.00     0.012 A 
HETATM   23  C14 UNL     1       4.013  -0.083   0.334  1.00  0.00    -0.019 A 
HETATM   24  C11 UNL     1       5.115   2.151  -0.935  1.00  0.00     0.001 A 
HETATM   25  C12 UNL     1       3.866   2.184  -0.356  1.00  0.00     0.001 A 
HETATM   26  C13 UNL     1       3.310   1.098   0.272  1.00  0.00     0.013 A 
ENDBRANCH  16  17
ENDBRANCH   6  16
BRANCH  15  27
HETATM   27  C18 UNL     1      -3.272   1.728  -0.842  1.00  0.00     0.166 C 
BRANCH  27  28
HETATM   28  C19 UNL     1      -4.632   1.416  -0.369  1.00  0.00    -0.040 A 
HETATM   29  C20 UNL     1      -5.457   0.517  -1.067  1.00  0.00     0.009 A 
HETATM   30  C21 UNL     1      -6.721   0.252  -0.624  1.00  0.00     0.001 A 
HETATM   31  C22 UNL     1      -7.244   0.848   0.522  1.00  0.00     0.000 A 
HETATM   32  C23 UNL     1      -6.422   1.730   1.197  1.00  0.00     0.001 A 
HETATM   33  C24 UNL     1      -5.129   2.013   0.758  1.00  0.00     0.009 A 
ENDBRANCH  27  28
ENDBRANCH  15  27
TORSDOF 4
