REMARK  9 active torsions:
REMARK  status: ('A' for Active; 'I' for Inactive)
REMARK    1  A    between atoms: N1_4  and  C4_5 
REMARK    2  A    between atoms: C4_5  and  C5_6 
REMARK    3  A    between atoms: C6_11  and  N4_12 
REMARK    4  A    between atoms: N4_12  and  C7_14 
REMARK    5  A    between atoms: C10_17  and  N5_18 
REMARK    6  A    between atoms: N7_27  and  C14_28 
REMARK    7  A    between atoms: C14_28  and  C15_29 
REMARK    8  A    between atoms: C15_29  and  C16_30 
REMARK    9  A    between atoms: C16_30  and  N8_31 
ROOT
HETATM    1  C5  UNL     1       1.196   1.203   1.459  1.00  0.00     0.130 A 
HETATM    2  N2  UNL     1       0.442   0.597   2.366  1.00  0.00    -0.273 N 
ATOM      3  H2  UNL     1      -0.477   0.910   2.679  1.00  0.00     0.189 HD
HETATM    4  N3  UNL     1       1.074  -0.475   2.797  1.00  0.00    -0.131 N 
ATOM      5  H3  UNL     1       0.723  -1.128   3.498  1.00  0.00     0.205 HD
HETATM    6  C6  UNL     1       2.255  -0.570   2.165  1.00  0.00     0.698 A 
HETATM    7  N6  UNL     1       2.321   0.483   1.332  1.00  0.00    -0.176 N 
ATOM      8  H6  UNL     1       3.098   0.699   0.707  1.00  0.00     0.185 HD
ENDROOT
BRANCH   1   9
HETATM    9  C4  UNL     1       0.863   2.443   0.724  1.00  0.00     0.206 C 
BRANCH   9  10
HETATM   10  N1  UNL     1       0.115   2.158  -0.468  1.00  0.00    -0.325 N 
HETATM   11  C3  UNL     1       0.656   1.893  -1.784  1.00  0.00     0.153 C 
HETATM   12  C2  UNL     1      -0.230   0.786  -2.257  1.00  0.00     0.102 C 
HETATM   13  C1  UNL     1       0.204  -0.567  -1.750  1.00  0.00     0.034 C 
HETATM   14  N7  UNL     1      -1.545   1.148  -1.725  1.00  0.00    -0.328 N 
HETATM   15  C13 UNL     1      -1.311   2.060  -0.677  1.00  0.00     0.321 C 
HETATM   16  O3  UNL     1      -2.097   2.739   0.035  1.00  0.00    -0.247 OA
BRANCH  14  17
HETATM   17  C14 UNL     1      -2.803   0.635  -2.196  1.00  0.00     0.130 C 
BRANCH  17  18
HETATM   18  C15 UNL     1      -3.262  -0.641  -1.609  1.00  0.00     0.048 C 
BRANCH  18  19
HETATM   19  C16 UNL     1      -3.562  -0.773  -0.186  1.00  0.00     0.237 C 
BRANCH  19  20
HETATM   20  N8  UNL     1      -4.634  -0.096   0.421  1.00  0.00    -0.079 N 
HETATM   21  C17 UNL     1      -5.735  -1.077   0.721  1.00  0.00     0.271 C 
HETATM   22  C18 UNL     1      -5.287   0.961  -0.258  1.00  0.00     0.271 C 
HETATM   23  C19 UNL     1      -4.213   0.403   1.741  1.00  0.00     0.271 C 
ENDBRANCH  19  20
ENDBRANCH  18  19
ENDBRANCH  17  18
ENDBRANCH  14  17
ENDBRANCH   9  10
ENDBRANCH   1   9
BRANCH   6  24
HETATM   24  N4  UNL     1       3.156  -1.490   2.323  1.00  0.00    -0.190 N 
ATOM     25  H4  UNL     1       3.014  -2.254   2.984  1.00  0.00     0.184 HD
BRANCH  24  26
HETATM   26  C7  UNL     1       4.339  -1.407   1.556  1.00  0.00     0.049 A 
HETATM   27  C8  UNL     1       4.544  -2.303   0.526  1.00  0.00     0.032 A 
HETATM   28  C9  UNL     1       5.674  -2.250  -0.232  1.00  0.00     0.038 A 
HETATM   29  C10 UNL     1       6.634  -1.274   0.039  1.00  0.00     0.103 A 
HETATM   30  C11 UNL     1       6.433  -0.378   1.064  1.00  0.00     0.038 A 
HETATM   31  C12 UNL     1       5.276  -0.446   1.829  1.00  0.00     0.032 A 
BRANCH  29  32
HETATM   32  N5  UNL     1       7.802  -1.230  -0.757  1.00  0.00    -0.116 N 
HETATM   33  O1  UNL     1       7.981  -2.043  -1.681  1.00  0.00    -0.532 OA
HETATM   34  O2  UNL     1       8.748  -0.269  -0.495  1.00  0.00    -0.532 OA
ENDBRANCH  29  32
ENDBRANCH  24  26
ENDBRANCH   6  24
TORSDOF 9
