REMARK  11 active torsions:
REMARK  status: ('A' for Active; 'I' for Inactive)
REMARK    1  A    between atoms: N1_2  and  C2_3 
REMARK    2  A    between atoms: N1_2  and  C10_20 
REMARK    3  A    between atoms: C2_3  and  C3_4 
REMARK    4  A    between atoms: C3_4  and  C4_5 
REMARK    5  A    between atoms: C4_5  and  C5_6 
REMARK    6  A    between atoms: C5_6  and  C6_7 
REMARK    7  A    between atoms: C6_7  and  O1_8 
REMARK    8  A    between atoms: O1_8  and  C7_9 
REMARK    9  A    between atoms: C8_10  and  N2_11 
REMARK   10  A    between atoms: C10_20  and  C11_21 
REMARK   11  A    between atoms: C13_28  and  N9_29 
ROOT
HETATM    1  C2  UNL     1       2.052   0.821  -0.382  1.00  0.00     0.058 C 
ENDROOT
BRANCH   1   2
HETATM    2  N1  UNL     1       2.651  -0.433  -0.286  1.00  0.00    -0.391 N 
HETATM    3  C1  UNL     1       2.856  -1.078   0.935  1.00  0.00     0.149 C 
BRANCH   2   4
HETATM    4  C10 UNL     1       3.626  -0.640  -1.318  1.00  0.00     0.198 C 
BRANCH   4   5
HETATM    5  C11 UNL     1       4.987  -0.205  -1.007  1.00  0.00     0.119 A 
HETATM    6  N7  UNL     1       5.387   1.091  -1.088  1.00  0.00    -0.296 N 
HETATM    7  C12 UNL     1       6.639   1.463  -0.804  1.00  0.00     0.340 A 
ATOM      8  H7  UNL     1       4.712   1.801  -1.374  1.00  0.00     0.172 HD
HETATM    9  O2  UNL     1       7.003   2.654  -0.879  1.00  0.00    -0.246 OA
HETATM   10  N8  UNL     1       7.522   0.531  -0.429  1.00  0.00    -0.141 N 
HETATM   11  C13 UNL     1       7.156  -0.774  -0.338  1.00  0.00     0.681 A 
ATOM     12  H8  UNL     1       8.480   0.803  -0.209  1.00  0.00     0.189 HD
HETATM   13  N10 UNL     1       5.899  -1.112  -0.628  1.00  0.00    -0.179 N 
ATOM     14  H10 UNL     1       5.623  -2.091  -0.559  1.00  0.00     0.185 HD
BRANCH  11  15
HETATM   15  N9  UNL     1       7.999  -1.667   0.021  1.00  0.00    -0.234 N 
ATOM     16  H92 UNL     1       8.960  -1.408   0.243  1.00  0.00     0.174 HD
ATOM     17  H91 UNL     1       7.724  -2.647   0.089  1.00  0.00     0.174 HD
ENDBRANCH  11  15
ENDBRANCH   4   5
ENDBRANCH   2   4
ENDBRANCH   1   2
BRANCH   1  18
HETATM   18  C3  UNL     1       0.592   0.895  -0.109  1.00  0.00     0.044 C 
BRANCH  18  19
HETATM   19  C4  UNL     1       0.219   0.462   1.249  1.00  0.00     0.007 C 
BRANCH  19  20
HETATM   20  C5  UNL     1      -1.282   0.680   1.466  1.00  0.00     0.027 C 
BRANCH  20  21
HETATM   21  C6  UNL     1      -2.051  -0.131   0.485  1.00  0.00     0.170 C 
BRANCH  21  22
HETATM   22  O1  UNL     1      -3.414   0.101   0.766  1.00  0.00    -0.366 OA
BRANCH  22  23
HETATM   23  C7  UNL     1      -4.153  -0.655  -0.146  1.00  0.00     0.260 C 
HETATM   24  C8  UNL     1      -4.970   0.322  -0.964  1.00  0.00     0.337 C 
HETATM   25  N3  UNL     1      -6.156   0.662  -0.240  1.00  0.00    -0.091 NA
HETATM   26  N4  UNL     1      -6.016   0.462   1.122  1.00  0.00    -0.020 NA
HETATM   27  N5  UNL     1      -5.862  -0.900   1.456  1.00  0.00    -0.036 NA
HETATM   28  N6  UNL     1      -4.975  -1.553   0.629  1.00  0.00    -0.189 NA
HETATM   29  C9  UNL     1      -5.514  -2.646  -0.109  1.00  0.00     0.136 C 
BRANCH  24  30
HETATM   30  N2  UNL     1      -4.115   1.470  -1.224  1.00  0.00    -0.056 N 
ATOM     31  H23 UNL     1      -3.726   1.882  -0.376  1.00  0.00     0.276 HD
ATOM     32  H22 UNL     1      -3.229   1.220  -1.663  1.00  0.00     0.276 HD
ATOM     33  H21 UNL     1      -4.666   2.128  -1.775  1.00  0.00     0.276 HD
ENDBRANCH  24  30
ENDBRANCH  22  23
ENDBRANCH  21  22
ENDBRANCH  20  21
ENDBRANCH  19  20
ENDBRANCH  18  19
ENDBRANCH   1  18
TORSDOF 11
