REMARK  3 active torsions:
REMARK  status: ('A' for Active; 'I' for Inactive)
REMARK    1  A    between atoms: O1_2  and  C2_3 
REMARK    2  A    between atoms: C2_3  and  C3_4 
REMARK    3  A    between atoms: N1_5  and  C4_7 
ROOT
HETATM    1  C4  UNL     1       0.103  -0.680   0.089  1.00  0.00     0.135 A 
HETATM    2  N2  UNL     1      -0.487  -1.409   1.096  1.00  0.00    -0.330 N 
ATOM      3  H2  UNL     1       0.096  -2.079   1.597  1.00  0.00     0.168 HD
HETATM    4  C5  UNL     1      -1.747  -1.307   1.461  1.00  0.00     0.079 A 
HETATM    5  C6  UNL     1      -2.359  -2.116   2.563  1.00  0.00     0.089 C 
HETATM    6  N3  UNL     1      -2.527  -0.431   0.811  1.00  0.00    -0.344 N 
ATOM      7  H3  UNL     1      -3.507  -0.335   1.076  1.00  0.00     0.167 HD
HETATM    8  C7  UNL     1      -2.027   0.329  -0.195  1.00  0.00     0.071 A 
HETATM    9  C8  UNL     1      -2.623   1.278  -0.992  1.00  0.00    -0.017 A 
HETATM   10  C9  UNL     1      -4.033   1.719  -0.936  1.00  0.00     0.052 C 
HETATM   11  C10 UNL     1      -1.643   1.722  -1.839  1.00  0.00     0.097 A 
HETATM   12  N4  UNL     1      -0.493   1.091  -1.594  1.00  0.00    -0.360 N 
ATOM     13  H4  UNL     1       0.390   1.237  -2.084  1.00  0.00     0.165 HD
HETATM   14  C11 UNL     1      -0.706   0.234  -0.591  1.00  0.00     0.104 A 
ENDROOT
BRANCH   1  15
HETATM   15  N1  UNL     1       1.280  -0.837  -0.186  1.00  0.00    -0.352 N 
HETATM   16  C3  UNL     1       2.349  -0.490  -0.962  1.00  0.00     0.088 C 
ATOM     17  H1  UNL     1       1.622  -1.553   0.455  1.00  0.00     0.166 HD
BRANCH  16  18
HETATM   18  C2  UNL     1       3.060   0.797  -0.613  1.00  0.00     0.211 C 
BRANCH  18  19
HETATM   19  O1  UNL     1       3.575   0.795   0.670  1.00  0.00    -0.391 OA
HETATM   20  C1  UNL     1       4.501  -0.219   0.873  1.00  0.00     0.201 C 
ENDBRANCH  18  19
ENDBRANCH  16  18
ENDBRANCH   1  15
TORSDOF 3
