REMARK  6 active torsions:
REMARK  status: ('A' for Active; 'I' for Inactive)
REMARK    1  A    between atoms: O1_2  and  C2_3 
REMARK    2  A    between atoms: C3_4  and  C4_5 
REMARK    3  A    between atoms: C4_5  and  O2_6 
REMARK    4  A    between atoms: C5_9  and  N1_10 
REMARK    5  A    between atoms: N1_10  and  O4_12 
REMARK    6  A    between atoms: C7_14  and  O5_15 
ROOT
HETATM    1  C2  UNL     1       1.033   0.334   0.430  1.00  0.00     0.185 C 
HETATM    2  C3  UNL     1       0.623  -1.116   0.323  1.00  0.00     0.179 C 
HETATM    3  O3  UNL     1      -0.653  -1.055  -0.176  1.00  0.00    -0.352 OA
HETATM    4  C5  UNL     1      -1.280  -0.113   0.624  1.00  0.00     0.275 C 
HETATM    5  C7  UNL     1      -0.281   0.971   0.870  1.00  0.00     0.200 C 
ENDROOT
BRANCH   4   6
HETATM    6  N1  UNL     1      -2.369   0.430  -0.153  1.00  0.00    -0.269 N 
HETATM    7  C6  UNL     1      -3.464  -0.461  -0.361  1.00  0.00     0.181 C 
BRANCH   6   8
HETATM    8  O4  UNL     1      -2.677   1.695   0.105  1.00  0.00    -0.290 OA
ATOM      9  H4  UNL     1      -3.394   2.052  -0.406  1.00  0.00     0.244 HD
ENDBRANCH   6   8
ENDBRANCH   4   6
BRANCH   5  10
HETATM   10  O5  UNL     1      -0.235   1.265   2.252  1.00  0.00    -0.388 OA
ATOM     11  H5  UNL     1      -1.053   1.662   2.526  1.00  0.00     0.210 HD
ENDBRANCH   5  10
BRANCH   2  12
HETATM   12  C4  UNL     1       1.579  -1.938  -0.479  1.00  0.00     0.198 C 
BRANCH  12  13
HETATM   13  O2  UNL     1       1.740  -1.482  -1.780  1.00  0.00    -0.398 OA
ATOM     14  H2  UNL     1       2.348  -2.005  -2.290  1.00  0.00     0.209 HD
ENDBRANCH  12  13
ENDBRANCH   2  12
BRANCH   1  15
HETATM   15  O1  UNL     1       1.379   0.862  -0.787  1.00  0.00    -0.385 OA
HETATM   16  C1  UNL     1       2.595   1.510  -0.812  1.00  0.00     0.202 C 
ENDBRANCH   1  15
TORSDOF 6
