REMARK  7 active torsions:
REMARK  status: ('A' for Active; 'I' for Inactive)
REMARK       I    between atoms: C1_2  and  N2_4 
REMARK    1  A    between atoms: N2_4  and  N3_6 
REMARK    2  A    between atoms: C2_8  and  C3_9 
REMARK    3  A    between atoms: C2_8  and  C11_23 
REMARK       I    between atoms: C3_9  and  N4_11 
REMARK    4  A    between atoms: N4_11  and  C4_13 
REMARK    5  A    between atoms: C4_13  and  C5_14 
REMARK    6  A    between atoms: C4_13  and  C10_20 
REMARK    7  A    between atoms: C5_14  and  C6_15 
ROOT
HETATM    1  N3  UNL     1       1.141   0.756  -0.160  1.00  0.00    -0.291 N 
ATOM      2  H3  UNL     1       0.147   0.835   0.053  1.00  0.00     0.187 HD
HETATM    3  C2  UNL     1       1.352  -0.456  -0.280  1.00  0.00     0.126 C 
ENDROOT
BRANCH   3   4
HETATM    4  C3  UNL     1       0.168  -1.319  -0.085  1.00  0.00     0.271 C 
HETATM    5  O2  UNL     1       0.133  -2.555  -0.154  1.00  0.00    -0.266 OA
HETATM    6  N4  UNL     1      -1.074  -0.654   0.217  1.00  0.00    -0.341 N 
ATOM      7  H4  UNL     1      -1.105   0.363   0.286  1.00  0.00     0.163 HD
BRANCH   6   8
HETATM    8  C4  UNL     1      -2.273  -1.429   0.421  1.00  0.00     0.190 C 
BRANCH   8   9
HETATM    9  C5  UNL     1      -3.324  -1.027  -0.616  1.00  0.00     0.076 C 
BRANCH   9  10
HETATM   10  C6  UNL     1      -3.663   0.406  -0.501  1.00  0.00    -0.032 A 
HETATM   11  C7  UNL     1      -4.667   0.962   0.294  1.00  0.00     0.033 A 
HETATM   12  C8  UNL     1      -4.624   2.315   0.088  1.00  0.00     0.142 A 
HETATM   13  O3  UNL     1      -3.674   2.607  -0.766  1.00  0.00    -0.334 OA
HETATM   14  C9  UNL     1      -3.085   1.497  -1.135  1.00  0.00     0.148 A 
ENDBRANCH   9  10
ENDBRANCH   8   9
BRANCH   8  15
HETATM   15  C10 UNL     1      -2.800  -1.258   1.795  1.00  0.00     0.197 C 
HETATM   16  O4  UNL     1      -2.191  -0.507   2.594  1.00  0.00    -0.646 OA
HETATM   17  O5  UNL     1      -3.945  -1.913   2.203  1.00  0.00    -0.646 OA
ENDBRANCH   8  15
ENDBRANCH   6   8
ENDBRANCH   3   4
BRANCH   3  18
HETATM   18  C11 UNL     1       2.656  -1.020  -0.589  1.00  0.00    -0.003 A 
HETATM   19  C12 UNL     1       3.765  -0.181  -0.771  1.00  0.00     0.014 A 
HETATM   20  C13 UNL     1       5.031  -0.642  -1.066  1.00  0.00     0.001 A 
HETATM   21  C14 UNL     1       5.268  -1.989  -1.198  1.00  0.00     0.000 A 
HETATM   22  C15 UNL     1       4.212  -2.845  -1.028  1.00  0.00     0.001 A 
HETATM   23  C16 UNL     1       2.929  -2.359  -0.728  1.00  0.00     0.014 A 
ENDBRANCH   3  18
BRANCH   1  24
HETATM   24  N2  UNL     1       1.589   1.987  -0.177  1.00  0.00    -0.253 N 
HETATM   25  C1  UNL     1       1.708   2.735   1.055  1.00  0.00     0.347 C 
HETATM   26  N1  UNL     1       2.185   4.069   1.097  1.00  0.00    -0.038 NA
HETATM   27  O1  UNL     1       1.376   2.183   2.128  1.00  0.00    -0.249 OA
ATOM     28  H2  UNL     1       1.855   2.419  -1.062  1.00  0.00     0.191 HD
ENDBRANCH   1  24
TORSDOF 7
