REMARK  3 active torsions:
REMARK  status: ('A' for Active; 'I' for Inactive)
REMARK    1  A    between atoms: C2_2  and  C3_3 
REMARK    2  A    between atoms: C3_3  and  C4_4 
REMARK    3  A    between atoms: C4_4  and  N1_5 
ROOT
HETATM    1  N1  UNL     1       2.578  -0.619  -0.711  1.00  0.00    -0.335 N 
HETATM    2  C5  UNL     1       2.955  -0.366  -1.977  1.00  0.00     0.080 A 
HETATM    3  C6  UNL     1       4.353  -0.246  -2.498  1.00  0.00     0.089 C 
HETATM    4  N2  UNL     1       1.884  -0.224  -2.783  1.00  0.00    -0.347 N 
ATOM      5  H2  UNL     1       1.903  -0.028  -3.784  1.00  0.00     0.167 HD
HETATM    6  C7  UNL     1       0.801  -0.387  -2.034  1.00  0.00     0.037 A 
HETATM    7  C8  UNL     1       1.227  -0.637  -0.724  1.00  0.00     0.058 A 
HETATM    8  C9  UNL     1       0.445  -0.880   0.478  1.00  0.00     0.035 C 
HETATM    9  C10 UNL     1      -0.789  -1.327   0.514  1.00  0.00    -0.073 C 
HETATM   10  C11 UNL     1      -1.280  -1.456   1.948  1.00  0.00     0.040 C 
HETATM   11  C12 UNL     1      -2.309  -0.359   2.077  1.00  0.00     0.073 C 
HETATM   12  C13 UNL     1      -3.128  -0.123   0.841  1.00  0.00     0.164 C 
HETATM   13  C14 UNL     1      -3.125  -1.191  -0.180  1.00  0.00     0.077 C 
HETATM   14  C15 UNL     1      -1.724  -1.708  -0.534  1.00  0.00     0.020 C 
HETATM   15  C16 UNL     1      -1.391  -1.536  -1.941  1.00  0.00     0.015 C 
HETATM   16  C17 UNL     1      -0.636  -0.340  -2.404  1.00  0.00     0.060 C 
HETATM   17  O1  UNL     1      -4.470  -0.030   1.297  1.00  0.00    -0.355 OA
HETATM   18  C18 UNL     1      -4.845   1.273   1.538  1.00  0.00     0.173 C 
HETATM   19  C19 UNL     1      -4.981   1.938   0.161  1.00  0.00     0.053 C 
HETATM   20  C20 UNL     1      -3.637   1.701  -0.517  1.00  0.00     0.173 C 
HETATM   21  O2  UNL     1      -2.719   1.091   0.298  1.00  0.00    -0.355 OA
ENDROOT
BRANCH   1  22
HETATM   22  C4  UNL     1       3.383  -0.830   0.444  1.00  0.00     0.130 C 
BRANCH  22  23
HETATM   23  C3  UNL     1       3.725   0.376   1.246  1.00  0.00     0.020 C 
BRANCH  23  24
HETATM   24  C2  UNL     1       4.485   1.435   0.515  1.00  0.00    -0.003 C 
HETATM   25  C1  UNL     1       4.770   2.609   1.460  1.00  0.00     0.005 C 
ENDBRANCH  23  24
ENDBRANCH  22  23
ENDBRANCH   1  22
TORSDOF 3
