REMARK  1 active torsions:
REMARK  status: ('A' for Active; 'I' for Inactive)
REMARK    1  A    between atoms: C7_13  and  C8_14 
ROOT
HETATM    1  O1  UNL     1      -1.381   1.095  -1.665  1.00  0.00    -0.292 OA
HETATM    2  C1  UNL     1      -1.924   0.440  -0.820  1.00  0.00     0.189 C 
HETATM    3  C2  UNL     1      -3.120  -0.408  -0.865  1.00  0.00     0.110 C 
HETATM    4  C3  UNL     1      -2.963  -1.265   0.346  1.00  0.00     0.179 C 
HETATM    5  O2  UNL     1      -2.003  -0.755   1.162  1.00  0.00    -0.349 OA
HETATM    6  C4  UNL     1      -1.418   0.362   0.601  1.00  0.00     0.233 C 
HETATM    7  N1  UNL     1      -1.756   1.580   1.242  1.00  0.00    -0.333 N 
ATOM      8  H1  UNL     1      -2.590   2.112   0.993  1.00  0.00     0.164 HD
HETATM    9  C5  UNL     1      -0.866   2.006   2.244  1.00  0.00     0.142 C 
HETATM   10  S1  UNL     1      -1.130   2.996   3.489  1.00  0.00    -0.052 SA
HETATM   11  S2  UNL     1       0.684   1.211   1.864  1.00  0.00    -0.060 SA
HETATM   12  C6  UNL     1       0.053   0.231   0.476  1.00  0.00     0.050 C 
HETATM   13  C7  UNL     1       0.750  -0.431  -0.414  1.00  0.00     0.038 C 
ENDROOT
BRANCH  13  14
HETATM   14  C8  UNL     1       2.212  -0.452  -0.388  1.00  0.00     0.006 A 
HETATM   15  C9  UNL     1       3.084  -0.447  -1.446  1.00  0.00     0.019 A 
HETATM   16  C10 UNL     1       4.398  -0.469  -1.164  1.00  0.00     0.008 A 
HETATM   17  C11 UNL     1       4.755  -0.495   0.160  1.00  0.00     0.050 A 
HETATM   18  S3  UNL     1       3.252  -0.488   0.962  1.00  0.00    -0.102 SA
ENDBRANCH  13  14
TORSDOF 1
