REMARK  2 active torsions:
REMARK  status: ('A' for Active; 'I' for Inactive)
REMARK    1  A    between atoms: N1_1  and  C1_5 
REMARK    2  A    between atoms: C4_8  and  N2_9 
ROOT
HETATM    1  N2  UNL     1       2.438  -1.022   0.192  1.00  0.00    -0.384 N 
ATOM      2  H2  UNL     1       2.573  -1.918   0.661  1.00  0.00     0.160 HD
HETATM    3  C5  UNL     1       3.249  -0.613  -0.703  1.00  0.00     0.166 C 
HETATM    4  S1  UNL     1       4.291   0.089  -1.745  1.00  0.00    -0.075 SA
ENDROOT
BRANCH   1   5
HETATM    5  C4  UNL     1       1.301  -0.150   0.520  1.00  0.00     0.107 C 
HETATM    6  C3  UNL     1       0.346  -0.807   1.449  1.00  0.00     0.030 C 
HETATM    7  C2  UNL     1      -1.049  -0.827   0.862  1.00  0.00     0.064 C 
HETATM    8  C1  UNL     1      -1.383   0.563   0.381  1.00  0.00     0.380 C 
HETATM    9  N3  UNL     1      -0.503   1.019  -0.658  1.00  0.00    -0.044 N 
HETATM   10  C6  UNL     1       0.678   0.222  -0.819  1.00  0.00     0.259 C 
ATOM     11  H32 UNL     1      -1.005   1.096  -1.543  1.00  0.00     0.279 HD
ATOM     12  H31 UNL     1      -0.256   1.998  -0.513  1.00  0.00     0.279 HD
BRANCH   8  13
HETATM   13  N1  UNL     1      -2.770   0.623  -0.073  1.00  0.00    -0.050 N 
ATOM     14  H13 UNL     1      -2.969  -0.083  -0.782  1.00  0.00     0.276 HD
ATOM     15  H12 UNL     1      -3.420   0.303   0.645  1.00  0.00     0.276 HD
ATOM     16  H11 UNL     1      -2.996   1.563  -0.398  1.00  0.00     0.276 HD
ENDBRANCH   8  13
ENDBRANCH   1   5
TORSDOF 2
