REMARK  2 active torsions:
REMARK  status: ('A' for Active; 'I' for Inactive)
REMARK    1  A    between atoms: C2_2  and  S1_3 
REMARK    2  A    between atoms: S1_3  and  C3_4 
ROOT
HETATM    1  C3  UNL     1       0.772   0.029   0.214  1.00  0.00     0.155 C 
HETATM    2  C4  UNL     1       0.940  -1.483  -0.001  1.00  0.00     0.118 C 
HETATM    3  S2  UNL     1       2.660  -1.592   0.665  1.00  0.00    -0.092 SA
HETATM    4  C5  UNL     1       3.089   0.131   0.357  1.00  0.00     0.134 C 
HETATM    5  N1  UNL     1       4.178   0.695   0.681  1.00  0.00    -0.380 N 
ATOM      6  H11 UNL     1       4.421   1.670   0.507  1.00  0.00     0.158 HD
ATOM      7  H12 UNL     1       4.995   0.316   1.159  1.00  0.00     0.158 HD
HETATM    8  N2  UNL     1       1.951   0.659  -0.309  1.00  0.00    -0.357 N 
ATOM      9  H2  UNL     1       1.969   1.370  -1.040  1.00  0.00     0.162 HD
ENDROOT
BRANCH   1  10
HETATM   10  S1  UNL     1      -0.754   0.667  -0.439  1.00  0.00    -0.143 SA
BRANCH  10  11
HETATM   11  C2  UNL     1      -2.134  -0.036   0.511  1.00  0.00     0.071 C 
HETATM   12  C1  UNL     1      -3.470   0.474   0.002  1.00  0.00     0.016 C 
ENDBRANCH  10  11
ENDBRANCH   1  10
TORSDOF 2
