REMARK  15 active torsions:
REMARK  status: ('A' for Active; 'I' for Inactive)
REMARK       I    between atoms: C1_2  and  N1_3 
REMARK    1  A    between atoms: C1_2  and  C3_14 
REMARK    2  A    between atoms: N1_3  and  N2_5 
REMARK    3  A    between atoms: N2_5  and  C2_7 
REMARK    4  A    between atoms: N9_19  and  C4_20 
REMARK    5  A    between atoms: C4_20  and  C5_21 
REMARK    6  A    between atoms: C5_21  and  O2_22 
REMARK    7  A    between atoms: C5_21  and  N10_24 
REMARK    8  A    between atoms: N10_24  and  C6_26 
REMARK    9  A    between atoms: C10_32  and  C11_33 
REMARK   10  A    between atoms: C11_33  and  O3_34 
REMARK   11  A    between atoms: C11_33  and  C12_36 
REMARK   12  A    between atoms: C12_36  and  O4_37 
REMARK   13  A    between atoms: C13_39  and  O5_40 
REMARK   14  A    between atoms: C15_43  and  O6_44 
REMARK   15  A    between atoms: C16_49  and  O8_50 
ROOT
HETATM    1  C5  UNL     1       0.666  -1.525   1.693  1.00  0.00     0.240 C 
ENDROOT
BRANCH   1   2
HETATM    2  C4  UNL     1       1.138  -0.121   1.372  1.00  0.00     0.206 C 
BRANCH   2   3
HETATM    3  N9  UNL     1       2.261  -0.132   0.479  1.00  0.00    -0.250 N 
HETATM    4  N8  UNL     1       2.254  -0.083  -0.834  1.00  0.00    -0.238 N 
HETATM    5  N7  UNL     1       3.490  -0.121  -1.293  1.00  0.00    -0.277 N 
ATOM      6  H8  UNL     1       1.416  -0.024  -1.413  1.00  0.00     0.208 HD
HETATM    7  C3  UNL     1       4.350  -0.199  -0.222  1.00  0.00     0.171 A 
ATOM      8  H7  UNL     1       3.762  -0.097  -2.276  1.00  0.00     0.189 HD
HETATM    9  C16 UNL     1       3.557  -0.204   0.898  1.00  0.00     0.193 A 
BRANCH   7  10
HETATM   10  C1  UNL     1       5.787  -0.279  -0.280  1.00  0.00     0.292 C 
HETATM   11  O1  UNL     1       6.316  -0.276  -1.461  1.00  0.00    -0.264 OA
HETATM   12  N1  UNL     1       6.636  -0.360   0.833  1.00  0.00    -0.262 N 
ATOM     13  H1  UNL     1       6.233  -0.357   1.770  1.00  0.00     0.190 HD
BRANCH  12  14
HETATM   14  N2  UNL     1       8.017  -0.444   0.686  1.00  0.00    -0.266 N 
ATOM     15  H2  UNL     1       8.520  -1.136   1.241  1.00  0.00     0.190 HD
BRANCH  14  16
HETATM   16  C2  UNL     1       8.755   0.373  -0.185  1.00  0.00     0.224 C 
HETATM   17  N3  UNL     1       8.796   1.649  -0.219  1.00  0.00    -0.255 N 
HETATM   18  N4  UNL     1       9.648   2.081  -1.232  1.00  0.00    -0.006 NA
ATOM     19  H3  UNL     1       8.278   2.265   0.408  1.00  0.00     0.187 HD
HETATM   20  N5  UNL     1       9.868   0.990  -2.071  1.00  0.00    -0.006 NA
HETATM   21  N6  UNL     1       9.631  -0.099  -1.233  1.00  0.00    -0.255 N 
ATOM     22  H6  UNL     1      10.003  -1.043  -1.339  1.00  0.00     0.187 HD
ENDBRANCH  14  16
ENDBRANCH  12  14
ENDBRANCH   7  10
BRANCH   9  23
HETATM   23  O8  UNL     1       3.934  -0.270   2.234  1.00  0.00    -0.343 OA
ATOM     24  H8  UNL     1       3.385  -0.273   3.009  1.00  0.00     0.219 HD
ENDBRANCH   9  23
ENDBRANCH   2   3
ENDBRANCH   1   2
BRANCH   1  25
HETATM   25  O2  UNL     1       1.668  -2.268   2.296  1.00  0.00    -0.375 OA
ATOM     26  H2  UNL     1       1.372  -3.148   2.497  1.00  0.00     0.212 HD
ENDBRANCH   1  25
BRANCH   1  27
HETATM   27  N10 UNL     1       0.009  -2.195   0.623  1.00  0.00    -0.327 N 
ATOM     28  H10 UNL     1       0.471  -3.000   0.200  1.00  0.00     0.165 HD
BRANCH  27  29
HETATM   29  C6  UNL     1      -1.250  -1.802   0.116  1.00  0.00     0.246 A 
HETATM   30  N11 UNL     1      -1.998  -0.791   0.548  1.00  0.00    -0.305 N 
HETATM   31  C7  UNL     1      -3.140  -0.669  -0.128  1.00  0.00     0.142 A 
ATOM     32  H11 UNL     1      -1.727  -0.175   1.314  1.00  0.00     0.171 HD
HETATM   33  C8  UNL     1      -4.253   0.250  -0.027  1.00  0.00     0.044 A 
HETATM   34  N12 UNL     1      -3.058  -1.694  -1.035  1.00  0.00    -0.240 N 
HETATM   35  C9  UNL     1      -5.362   0.041  -0.864  1.00  0.00     0.030 A 
HETATM   36  C15 UNL     1      -4.299   1.312   0.839  1.00  0.00     0.082 A 
HETATM   37  C10 UNL     1      -6.448   0.885  -0.799  1.00  0.00     0.007 A 
HETATM   38  C13 UNL     1      -6.494   1.955   0.074  1.00  0.00     0.077 A 
HETATM   39  C14 UNL     1      -5.432   2.159   0.878  1.00  0.00     0.074 A 
HETATM   40  O7  UNL     1      -1.945  -2.339  -0.870  1.00  0.00    -0.199 OA
ATOM     41  H12 UNL     1      -3.766  -1.916  -1.735  1.00  0.00     0.196 HD
BRANCH  37  42
HETATM   42  C11 UNL     1      -7.635   0.664  -1.689  1.00  0.00     0.177 C 
BRANCH  42  43
HETATM   43  O3  UNL     1      -7.659   1.729  -2.609  1.00  0.00    -0.389 OA
ATOM     44  H3  UNL     1      -8.411   1.589  -3.173  1.00  0.00     0.210 HD
ENDBRANCH  42  43
BRANCH  42  45
HETATM   45  C12 UNL     1      -7.537  -0.645  -2.447  1.00  0.00     0.200 C 
BRANCH  45  46
HETATM   46  O4  UNL     1      -7.527  -1.743  -1.608  1.00  0.00    -0.398 OA
ATOM     47  H4  UNL     1      -7.466  -2.563  -2.083  1.00  0.00     0.209 HD
ENDBRANCH  45  46
ENDBRANCH  42  45
ENDBRANCH  37  42
BRANCH  38  48
HETATM   48  O5  UNL     1      -7.639   2.755   0.067  1.00  0.00    -0.360 OA
ATOM     49  H5  UNL     1      -7.671   3.491   0.667  1.00  0.00     0.217 HD
ENDBRANCH  38  48
BRANCH  36  50
HETATM   50  O6  UNL     1      -3.284   1.626   1.706  1.00  0.00    -0.360 OA
ATOM     51  H6  UNL     1      -3.316   2.362   2.306  1.00  0.00     0.217 HD
ENDBRANCH  36  50
ENDBRANCH  27  29
ENDBRANCH   1  27
TORSDOF 15
