REMARK  14 active torsions:
REMARK  status: ('A' for Active; 'I' for Inactive)
REMARK    1  A    between atoms: N1_1  and  C1_4 
REMARK    2  A    between atoms: C2_7  and  C3_8 
REMARK    3  A    between atoms: C3_8  and  O1_9 
REMARK    4  A    between atoms: C4_13  and  N4_14 
REMARK    5  A    between atoms: N4_14  and  N5_16 
REMARK    6  A    between atoms: C5_18  and  C6_19 
REMARK    7  A    between atoms: C6_19  and  S1_20 
REMARK    8  A    between atoms: S1_20  and  S2_21 
REMARK    9  A    between atoms: S2_21  and  C7_22 
REMARK   10  A    between atoms: C9_32  and  N10_33 
REMARK   11  A    between atoms: C10_36  and  O3_37 
REMARK   12  A    between atoms: C10_36  and  C11_39 
REMARK   13  A    between atoms: C11_39  and  O4_40 
REMARK   14  A    between atoms: C12_43  and  O6_44 
ROOT
HETATM    1  C3  UNL     1      -3.160  -0.015   0.094  1.00  0.00     0.300 C 
HETATM    2  N3  UNL     1      -1.847   0.286   0.684  1.00  0.00    -0.314 N 
ATOM      3  H3  UNL     1      -1.682   0.938   1.451  1.00  0.00     0.166 HD
HETATM    4  C4  UNL     1      -0.937  -0.401   0.083  1.00  0.00     0.162 C 
HETATM    5  C10 UNL     1      -1.597  -1.179  -0.981  1.00  0.00     0.250 C 
HETATM    6  O5  UNL     1      -2.845  -0.573  -1.103  1.00  0.00    -0.286 OA
ENDROOT
BRANCH   4   7
HETATM    7  N4  UNL     1       0.477  -0.386   0.374  1.00  0.00    -0.285 N 
ATOM      8  H4  UNL     1       0.782  -0.180   1.325  1.00  0.00     0.188 HD
BRANCH   7   9
HETATM    9  N5  UNL     1       1.437  -0.643  -0.597  1.00  0.00    -0.314 N 
HETATM   10  C5  UNL     1       2.256  -1.605  -0.441  1.00  0.00     0.091 C 
ATOM     11  H5  UNL     1       1.485  -0.062  -1.434  1.00  0.00     0.185 HD
BRANCH  10  12
HETATM   12  C6  UNL     1       2.201  -2.456   0.760  1.00  0.00     0.132 C 
BRANCH  12  13
HETATM   13  S1  UNL     1       3.845  -2.686   1.498  1.00  0.00    -0.086 SA
BRANCH  13  14
HETATM   14  S2  UNL     1       4.558  -0.804   2.253  1.00  0.00    -0.034 SA
BRANCH  14  15
HETATM   15  C7  UNL     1       5.453  -0.029   0.914  1.00  0.00     0.142 A 
HETATM   16  N6  UNL     1       4.811   0.768   0.052  1.00  0.00    -0.246 N 
HETATM   17  N7  UNL     1       5.493   1.328  -0.926  1.00  0.00     0.046 N 
ATOM     18  H6  UNL     1       3.810   0.939   0.151  1.00  0.00     0.191 HD
HETATM   19  O2  UNL     1       5.483   2.104  -1.967  1.00  0.00    -0.104 OA
HETATM   20  C8  UNL     1       6.806   1.136  -1.102  1.00  0.00     0.749 A 
HETATM   21  N8  UNL     1       6.771   1.948  -2.183  1.00  0.00    -0.066 N 
ATOM     22  H8  UNL     1       7.447   2.290  -2.866  1.00  0.00     0.216 HD
HETATM   23  N9  UNL     1       7.482   0.336  -0.249  1.00  0.00    -0.169 N 
HETATM   24  C9  UNL     1       6.821  -0.253   0.762  1.00  0.00     0.151 A 
ATOM     25  H9  UNL     1       8.483   0.181  -0.371  1.00  0.00     0.186 HD
BRANCH  24  26
HETATM   26  N10 UNL     1       7.472  -1.013   1.570  1.00  0.00    -0.383 N 
ATOM     27 2H10 UNL     1       6.970  -1.460   2.337  1.00  0.00     0.157 HD
ATOM     28 1H10 UNL     1       8.473  -1.177   1.459  1.00  0.00     0.157 HD
ENDBRANCH  24  26
ENDBRANCH  14  15
ENDBRANCH  13  14
ENDBRANCH  12  13
ENDBRANCH  10  12
ENDBRANCH   7   9
ENDBRANCH   4   7
BRANCH   5  29
HETATM   29  O3  UNL     1      -0.867  -0.970  -2.200  1.00  0.00    -0.358 OA
ATOM     30  H3  UNL     1      -1.292  -1.471  -2.886  1.00  0.00     0.213 HD
ENDBRANCH   5  29
BRANCH   5  31
HETATM   31  C11 UNL     1      -1.593  -2.646  -0.811  1.00  0.00     0.241 C 
BRANCH  31  32
HETATM   32  O4  UNL     1      -2.197  -3.190   0.271  1.00  0.00    -0.395 OA
ATOM     33  H4  UNL     1      -2.194  -4.134   0.380  1.00  0.00     0.209 HD
ENDBRANCH  31  32
ENDBRANCH   5  31
BRANCH   1  34
HETATM   34  C2  UNL     1      -3.980   1.183   0.130  1.00  0.00     0.149 A 
HETATM   35  N2  UNL     1      -5.087   1.220   0.927  1.00  0.00    -0.185 N 
HETATM   36  C1  UNL     1      -5.908   2.255   1.072  1.00  0.00     0.679 A 
ATOM     37  H2  UNL     1      -5.304   0.377   1.459  1.00  0.00     0.184 HD
HETATM   38  N11 UNL     1      -5.654   3.380   0.388  1.00  0.00    -0.154 N 
HETATM   39  C13 UNL     1      -4.586   3.433  -0.420  1.00  0.00     0.295 A 
ATOM     40  H11 UNL     1      -6.268   4.189   0.482  1.00  0.00     0.187 HD
HETATM   41  C12 UNL     1      -3.734   2.332  -0.560  1.00  0.00     0.166 A 
HETATM   42  O7  UNL     1      -4.334   4.481  -1.068  1.00  0.00    -0.265 OA
BRANCH  36  43
HETATM   43  N1  UNL     1      -6.955   2.201   1.865  1.00  0.00    -0.234 N 
ATOM     44  H12 UNL     1      -7.148   1.345   2.385  1.00  0.00     0.174 HD
ATOM     45  H11 UNL     1      -7.585   2.995   1.976  1.00  0.00     0.174 HD
ENDBRANCH  36  43
BRANCH  41  46
HETATM   46  O6  UNL     1      -2.688   2.470  -1.396  1.00  0.00    -0.354 OA
ATOM     47  H6  UNL     1      -2.516   3.271  -1.877  1.00  0.00     0.218 HD
ENDBRANCH  41  46
ENDBRANCH   1  34
BRANCH   1  48
HETATM   48  O1  UNL     1      -3.798  -0.972   0.942  1.00  0.00    -0.343 OA
ATOM     49  H1  UNL     1      -3.262  -1.756   0.918  1.00  0.00     0.215 HD
ENDBRANCH   1  48
TORSDOF 14
