REMARK  12 active torsions:
REMARK  status: ('A' for Active; 'I' for Inactive)
REMARK    1  A    between atoms: O1_2  and  C2_3 
REMARK    2  A    between atoms: C2_3  and  C3_5 
REMARK    3  A    between atoms: C3_5  and  O3_6 
REMARK    4  A    between atoms: C5_9  and  C6_10 
REMARK    5  A    between atoms: C9_13  and  O4_14 
REMARK    6  A    between atoms: O4_14  and  C10_15 
REMARK    7  A    between atoms: C10_15  and  C11_16 
REMARK    8  A    between atoms: C11_16  and  C12_17 
REMARK    9  A    between atoms: C12_17  and  N1_18 
REMARK   10  A    between atoms: N1_18  and  N2_20 
REMARK   11  A    between atoms: N2_20  and  C13_22 
REMARK   12  A    between atoms: C22_47  and  N10_48 
ROOT
HETATM    1  C10 UNL     1       1.431   0.380   1.553  1.00  0.00     0.177 C 
ENDROOT
BRANCH   1   2
HETATM    2  O4  UNL     1       0.656   0.964   0.592  1.00  0.00    -0.351 OA
BRANCH   2   3
HETATM    3  C9  UNL     1      -0.707   1.041   0.486  1.00  0.00     0.068 A 
HETATM    4  C8  UNL     1      -1.617   0.546   1.373  1.00  0.00     0.037 A 
HETATM    5  C7  UNL     1      -2.977   0.702   1.120  1.00  0.00     0.016 A 
HETATM    6  C6  UNL     1      -3.452   1.343   0.002  1.00  0.00    -0.012 A 
HETATM    7  C21 UNL     1      -2.520   1.833  -0.874  1.00  0.00     0.016 A 
HETATM    8  C20 UNL     1      -1.170   1.702  -0.667  1.00  0.00     0.037 A 
BRANCH   6   9
HETATM    9  C5  UNL     1      -4.885   1.514  -0.273  1.00  0.00     0.039 C 
HETATM   10  C4  UNL     1      -5.918   1.013   0.630  1.00  0.00     0.112 C 
HETATM   11  C3  UNL     1      -7.087   0.489  -0.174  1.00  0.00     0.197 C 
HETATM   12  C22 UNL     1      -7.595   1.547  -1.112  1.00  0.00     0.341 C 
HETATM   13  N9  UNL     1      -6.557   2.340  -1.693  1.00  0.00    -0.303 N 
HETATM   14  N8  UNL     1      -5.235   2.131  -1.352  1.00  0.00    -0.306 N 
ATOM     15  H9  UNL     1      -6.795   3.068  -2.367  1.00  0.00     0.182 HD
ATOM     16  H8  UNL     1      -4.507   2.477  -1.977  1.00  0.00     0.186 HD
BRANCH  11  17
HETATM   17  C2  UNL     1      -6.723  -0.762  -0.906  1.00  0.00     0.297 C 
HETATM   18  O2  UNL     1      -5.793  -0.784  -1.741  1.00  0.00    -0.262 OA
BRANCH  17  19
HETATM   19  O1  UNL     1      -7.421  -1.935  -0.667  1.00  0.00    -0.324 OA
HETATM   20  C1  UNL     1      -7.068  -3.104  -1.363  1.00  0.00     0.213 C 
ENDBRANCH  17  19
ENDBRANCH  11  17
BRANCH  11  21
HETATM   21  O3  UNL     1      -8.172   0.201   0.701  1.00  0.00    -0.376 OA
ATOM     22  H3  UNL     1      -8.403   0.996   1.166  1.00  0.00     0.211 HD
ENDBRANCH  11  21
BRANCH  12  23
HETATM   23  N10 UNL     1      -8.387   0.945  -2.183  1.00  0.00    -0.054 N 
ATOM     24 3H10 UNL     1      -7.868   0.219  -2.676  1.00  0.00     0.277 HD
ATOM     25 2H10 UNL     1      -9.144   0.368  -1.816  1.00  0.00     0.277 HD
ATOM     26 1H10 UNL     1      -8.732   1.663  -2.820  1.00  0.00     0.277 HD
ENDBRANCH  12  23
ENDBRANCH   6   9
ENDBRANCH   2   3
ENDBRANCH   1   2
BRANCH   1  27
HETATM   27  C11 UNL     1       1.318  -1.104   1.719  1.00  0.00     0.048 C 
BRANCH  27  28
HETATM   28  C12 UNL     1       2.239  -1.604   2.832  1.00  0.00     0.142 C 
BRANCH  28  29
HETATM   29  N1  UNL     1       3.607  -1.261   2.478  1.00  0.00    -0.322 N 
ATOM     30  H1  UNL     1       4.168  -0.664   3.085  1.00  0.00     0.180 HD
BRANCH  29  31
HETATM   31  N2  UNL     1       4.131  -1.763   1.298  1.00  0.00    -0.136 N 
ATOM     32  H2  UNL     1       3.689  -2.583   0.882  1.00  0.00     0.205 HD
BRANCH  31  33
HETATM   33  C13 UNL     1       5.144  -1.250   0.701  1.00  0.00     0.698 A 
HETATM   34  N3  UNL     1       5.798  -0.178   1.154  1.00  0.00    -0.175 N 
HETATM   35  C14 UNL     1       6.865   0.343   0.503  1.00  0.00     0.129 A 
ATOM     36  H3  UNL     1       5.484   0.263   2.018  1.00  0.00     0.186 HD
HETATM   37  N4  UNL     1       7.474   1.380   0.969  1.00  0.00    -0.384 N 
HETATM   38  C15 UNL     1       7.299  -0.230  -0.650  1.00  0.00     0.065 A 
ATOM     39  H42 UNL     1       7.148   1.810   1.835  1.00  0.00     0.157 HD
ATOM     40  H41 UNL     1       8.278   1.772   0.479  1.00  0.00     0.157 HD
HETATM   41  C16 UNL     1       8.383   0.277  -1.336  1.00  0.00     0.038 A 
HETATM   42  C19 UNL     1       6.613  -1.354  -1.126  1.00  0.00     0.134 A 
HETATM   43  C17 UNL     1       9.129   1.442  -0.881  1.00  0.00     0.071 C 
HETATM   44  N5  UNL     1       8.718  -0.396  -2.488  1.00  0.00    -0.301 N 
HETATM   45  N6  UNL     1       8.072  -1.444  -2.924  1.00  0.00    -0.264 N 
ATOM     46  H5  UNL     1       9.513  -0.059  -3.031  1.00  0.00     0.186 HD
HETATM   47  C18 UNL     1       7.017  -1.977  -2.300  1.00  0.00     0.288 A 
ATOM     48  H6  UNL     1       8.390  -1.880  -3.789  1.00  0.00     0.190 HD
HETATM   49  O5  UNL     1       6.399  -2.969  -2.706  1.00  0.00    -0.264 OA
HETATM   50  N7  UNL     1       5.563  -1.829  -0.443  1.00  0.00    -0.184 N 
ATOM     51  H7  UNL     1       5.069  -2.648  -0.796  1.00  0.00     0.184 HD
ENDBRANCH  31  33
ENDBRANCH  29  31
ENDBRANCH  28  29
ENDBRANCH  27  28
ENDBRANCH   1  27
TORSDOF 12
