REMARK  14 active torsions:
REMARK  status: ('A' for Active; 'I' for Inactive)
REMARK    1  A    between atoms: O1_2  and  C2_3 
REMARK    2  A    between atoms: C2_3  and  C3_4 
REMARK    3  A    between atoms: C3_4  and  N1_5 
REMARK    4  A    between atoms: N1_5  and  C5_7 
REMARK    5  A    between atoms: C6_10  and  N3_11 
REMARK    6  A    between atoms: C7_16  and  N5_17 
REMARK    7  A    between atoms: C8_20  and  O2_21 
REMARK    8  A    between atoms: O2_21  and  C9_22 
REMARK    9  A    between atoms: C9_22  and  C11_24 
REMARK   10  A    between atoms: C11_24  and  O3_25 
REMARK   11  A    between atoms: C11_24  and  C12_27 
REMARK   12  A    between atoms: C12_27  and  O4_28 
REMARK   13  A    between atoms: C12_27  and  C13_30 
REMARK   14  A    between atoms: C16_35  and  N7_36 
ROOT
HETATM    1  C5  UNL     1       2.391  -0.586   1.040  1.00  0.00     0.156 A 
HETATM    2  N2  UNL     1       3.346  -1.294   1.708  1.00  0.00    -0.174 N 
ATOM      3  H2  UNL     1       4.310  -1.223   1.382  1.00  0.00     0.186 HD
HETATM    4  C6  UNL     1       3.096  -2.078   2.766  1.00  0.00     0.679 A 
HETATM    5  N4  UNL     1       1.813  -2.154   3.175  1.00  0.00    -0.174 N 
ATOM      6  H4  UNL     1       1.601  -2.745   3.979  1.00  0.00     0.186 HD
HETATM    7  C7  UNL     1       0.806  -1.506   2.594  1.00  0.00     0.152 A 
HETATM    8  C8  UNL     1       1.075  -0.694   1.492  1.00  0.00     0.158 A 
ENDROOT
BRANCH   8   9
HETATM    9  O2  UNL     1       0.082  -0.006   0.836  1.00  0.00    -0.337 OA
BRANCH   9  10
HETATM   10  C9  UNL     1      -0.822  -0.539  -0.126  1.00  0.00     0.157 C 
HETATM   11  C10 UNL     1      -0.277  -0.535  -1.537  1.00  0.00     0.042 C 
BRANCH  10  12
HETATM   12  C11 UNL     1      -2.116   0.183  -0.058  1.00  0.00     0.181 C 
BRANCH  12  13
HETATM   13  O3  UNL     1      -2.049   1.548  -0.342  1.00  0.00    -0.390 OA
ATOM     14  H3  UNL     1      -2.878   2.010  -0.298  1.00  0.00     0.210 HD
ENDBRANCH  12  13
BRANCH  12  15
HETATM   15  C12 UNL     1      -3.236  -0.477  -0.778  1.00  0.00     0.200 C 
BRANCH  15  16
HETATM   16  O4  UNL     1      -3.167  -0.320  -2.149  1.00  0.00    -0.387 OA
ATOM     17  H4  UNL     1      -3.883  -0.742  -2.609  1.00  0.00     0.210 HD
ENDBRANCH  15  16
BRANCH  15  18
HETATM   18  C13 UNL     1      -4.550   0.147  -0.365  1.00  0.00     0.058 A 
HETATM   19  C14 UNL     1      -5.679  -0.095  -1.098  1.00  0.00     0.115 A 
HETATM   20  N6  UNL     1      -6.867   0.447  -0.751  1.00  0.00    -0.370 N 
HETATM   21  C15 UNL     1      -6.927   1.227   0.322  1.00  0.00     0.142 A 
ATOM     22  H6  UNL     1      -7.704   0.260  -1.304  1.00  0.00     0.164 HD
HETATM   23  C16 UNL     1      -5.805   1.487   1.078  1.00  0.00     0.189 A 
HETATM   24  N8  UNL     1      -4.625   0.937   0.718  1.00  0.00    -0.336 N 
ATOM     25  H8  UNL     1      -3.788   1.122   1.271  1.00  0.00     0.167 HD
BRANCH  23  26
HETATM   26  N7  UNL     1      -5.896   2.321   2.216  1.00  0.00    -0.096 N 
HETATM   27  O5  UNL     1      -4.909   2.586   2.939  1.00  0.00    -0.530 OA
HETATM   28  O6  UNL     1      -7.110   2.875   2.568  1.00  0.00    -0.530 OA
ENDBRANCH  23  26
ENDBRANCH  15  18
ENDBRANCH  12  15
ENDBRANCH  10  12
ENDBRANCH   9  10
ENDBRANCH   8   9
BRANCH   1  29
HETATM   29  N1  UNL     1       2.785   0.271  -0.023  1.00  0.00    -0.367 N 
HETATM   30  C4  UNL     1       2.407   1.661   0.022  1.00  0.00     0.151 C 
BRANCH  29  31
HETATM   31  C3  UNL     1       3.572  -0.190  -1.138  1.00  0.00     0.150 C 
BRANCH  31  32
HETATM   32  C2  UNL     1       4.961   0.418  -1.091  1.00  0.00     0.186 C 
BRANCH  32  33
HETATM   33  O1  UNL     1       5.783   0.029  -2.123  1.00  0.00    -0.394 OA
HETATM   34  C1  UNL     1       5.355   0.334  -3.387  1.00  0.00     0.201 C 
ENDBRANCH  32  33
ENDBRANCH  31  32
ENDBRANCH  29  31
ENDBRANCH   1  29
BRANCH   7  35
HETATM   35  N5  UNL     1      -0.403  -1.596   3.017  1.00  0.00    -0.383 N 
ATOM     36  H52 UNL     1      -0.600  -2.190   3.823  1.00  0.00     0.157 HD
ATOM     37  H51 UNL     1      -1.175  -1.099   2.572  1.00  0.00     0.157 HD
ENDBRANCH   7  35
BRANCH   4  38
HETATM   38  N3  UNL     1       4.013  -2.745   3.390  1.00  0.00    -0.234 N 
ATOM     39  H32 UNL     1       4.983  -2.688   3.081  1.00  0.00     0.174 HD
ATOM     40  H31 UNL     1       3.823  -3.342   4.195  1.00  0.00     0.174 HD
ENDBRANCH   4  38
TORSDOF 14
