REMARK  15 active torsions:
REMARK  status: ('A' for Active; 'I' for Inactive)
REMARK    1  A    between atoms: O1_2  and  C2_3 
REMARK    2  A    between atoms: C3_4  and  O2_5 
REMARK    3  A    between atoms: C6_9  and  O3_10 
REMARK    4  A    between atoms: C8_12  and  O4_13 
REMARK    5  A    between atoms: C12_17  and  O5_18 
REMARK    6  A    between atoms: O5_18  and  C13_19 
REMARK    7  A    between atoms: C13_19  and  C14_20 
REMARK    8  A    between atoms: C14_20  and  O6_21 
REMARK    9  A    between atoms: C14_20  and  C15_23 
REMARK   10  A    between atoms: C15_23  and  O7_24 
REMARK   11  A    between atoms: C15_23  and  C16_26 
REMARK   12  A    between atoms: C16_26  and  O8_27 
REMARK   13  A    between atoms: C17_29  and  O9_30 
REMARK   14  A    between atoms: C17_29  and  C18_32 
REMARK   15  A    between atoms: C18_32  and  O10_33 
ROOT
HETATM    1  C2  UNL     1      -3.702  -1.128   0.583  1.00  0.00     0.140 A 
HETATM    2  C3  UNL     1      -2.447  -1.526   0.133  1.00  0.00     0.136 A 
HETATM    3  C4  UNL     1      -1.506  -0.584  -0.222  1.00  0.00     0.118 A 
HETATM    4  C5  UNL     1      -1.856   0.770  -0.115  1.00  0.00     0.018 A 
HETATM    5  C6  UNL     1      -3.100   1.139   0.331  1.00  0.00     0.113 A 
HETATM    6  C8  UNL     1      -4.036   0.203   0.685  1.00  0.00     0.138 A 
HETATM    7  C10 UNL     1      -1.013   1.952  -0.438  1.00  0.00     0.074 C 
HETATM    8  C11 UNL     1       0.432   1.656  -0.173  1.00  0.00     0.016 C 
HETATM    9  C12 UNL     1       1.173   0.627  -0.578  1.00  0.00     0.107 C 
HETATM   10  C17 UNL     1       0.667  -0.484  -1.421  1.00  0.00     0.239 C 
HETATM   11  O11 UNL     1      -0.316  -1.167  -0.646  1.00  0.00    -0.302 OA
ENDROOT
BRANCH   9  12
HETATM   12  O5  UNL     1       2.477   0.642  -0.164  1.00  0.00    -0.347 OA
BRANCH  12  13
HETATM   13  C13 UNL     1       2.922   0.073   1.054  1.00  0.00     0.209 C 
BRANCH  13  14
HETATM   14  C14 UNL     1       4.404   0.243   1.238  1.00  0.00     0.173 C 
BRANCH  14  15
HETATM   15  O6  UNL     1       4.825  -0.318   2.429  1.00  0.00    -0.391 OA
ATOM     16  H6  UNL     1       5.762  -0.211   2.545  1.00  0.00     0.210 HD
ENDBRANCH  14  15
BRANCH  14  17
HETATM   17  C15 UNL     1       5.203  -0.295   0.098  1.00  0.00     0.172 C 
BRANCH  17  18
HETATM   18  O7  UNL     1       5.086  -1.678  -0.028  1.00  0.00    -0.391 OA
ATOM     19  H7  UNL     1       5.595  -2.020  -0.754  1.00  0.00     0.210 HD
ENDBRANCH  17  18
BRANCH  17  20
HETATM   20  C16 UNL     1       6.666   0.008   0.348  1.00  0.00     0.198 C 
BRANCH  20  21
HETATM   21  O8  UNL     1       7.375  -0.480  -0.767  1.00  0.00    -0.398 OA
ATOM     22  H8  UNL     1       8.293  -0.290  -0.610  1.00  0.00     0.209 HD
ENDBRANCH  20  21
ENDBRANCH  17  20
ENDBRANCH  14  17
ENDBRANCH  13  14
ENDBRANCH  12  13
ENDBRANCH   9  12
BRANCH  10  23
HETATM   23  O9  UNL     1       0.081   0.110  -2.549  1.00  0.00    -0.358 OA
ATOM     24  H9  UNL     1      -0.243  -0.601  -3.089  1.00  0.00     0.213 HD
ENDBRANCH  10  23
BRANCH  10  25
HETATM   25  C18 UNL     1       1.758  -1.402  -1.872  1.00  0.00     0.240 C 
BRANCH  25  26
HETATM   26  O10 UNL     1       2.696  -0.649  -2.567  1.00  0.00    -0.395 OA
ATOM     27  H10 UNL     1       3.389  -1.232  -2.854  1.00  0.00     0.209 HD
ENDBRANCH  25  26
ENDBRANCH  10  25
BRANCH   5  28
HETATM   28  O3  UNL     1      -3.423   2.476   0.429  1.00  0.00    -0.352 OA
HETATM   29  C7  UNL     1      -4.013   3.109  -0.714  1.00  0.00     0.210 C 
ENDBRANCH   5  28
BRANCH   2  30
HETATM   30  O2  UNL     1      -2.097  -2.860   0.025  1.00  0.00    -0.356 OA
ATOM     31  H2  UNL     1      -1.240  -3.132  -0.282  1.00  0.00     0.218 HD
ENDBRANCH   2  30
BRANCH   6  32
HETATM   32  O4  UNL     1      -5.260   0.590   1.123  1.00  0.00    -0.351 OA
HETATM   33  C9  UNL     1      -6.403   0.818   0.365  1.00  0.00     0.210 C 
ENDBRANCH   6  32
BRANCH   1  34
HETATM   34  O1  UNL     1      -4.635  -2.074   0.936  1.00  0.00    -0.350 OA
HETATM   35  C1  UNL     1      -4.763  -2.597   2.250  1.00  0.00     0.210 C 
ENDBRANCH   1  34
TORSDOF 15
