REMARK  9 active torsions:
REMARK  status: ('A' for Active; 'I' for Inactive)
REMARK    1  A    between atoms: C6_6  and  C7_7 
REMARK       I    between atoms: C7_7  and  N1_9 
REMARK    2  A    between atoms: N1_9  and  C8_10 
REMARK    3  A    between atoms: C8_10  and  C9_11 
REMARK    4  A    between atoms: C9_11  and  C10_12 
REMARK    5  A    between atoms: C13_15  and  N2_16 
REMARK    6  A    between atoms: N2_16  and  S1_18 
REMARK    7  A    between atoms: S1_18  and  C14_21 
REMARK    8  A    between atoms: C22_30  and  O4_31 
REMARK    9  A    between atoms: C23_33  and  O5_34 
ROOT
HETATM    1  C7  UNL     1      -0.781  -1.006   1.264  1.00  0.00     0.295 C 
HETATM    2  O1  UNL     1      -1.003  -2.128   1.814  1.00  0.00    -0.257 OA
HETATM    3  N1  UNL     1       0.389  -0.564   0.658  1.00  0.00    -0.387 NA
ENDROOT
BRANCH   1   4
HETATM    4  C6  UNL     1      -1.970  -0.078   1.303  1.00  0.00     0.097 C 
HETATM    5  C5  UNL     1      -2.712  -0.068  -0.001  1.00  0.00     0.004 C 
HETATM    6  C4  UNL     1      -2.999   1.329  -0.464  1.00  0.00     0.007 C 
HETATM    7  C19 UNL     1      -3.942  -0.867   0.316  1.00  0.00    -0.005 C 
HETATM    8  C3  UNL     1      -4.439   1.721  -0.464  1.00  0.00     0.012 C 
HETATM    9  C2  UNL     1      -5.377   0.707  -1.008  1.00  0.00    -0.011 C 
HETATM   10  C1  UNL     1      -5.380   0.872  -2.534  1.00  0.00     0.018 C 
HETATM   11  C20 UNL     1      -5.080  -0.698  -0.616  1.00  0.00     0.003 C 
HETATM   12  C23 UNL     1      -6.782   1.039  -0.552  1.00  0.00     0.155 C 
HETATM   13  C21 UNL     1      -6.349  -1.288  -0.046  1.00  0.00     0.040 C 
HETATM   14  C22 UNL     1      -7.266  -0.143   0.250  1.00  0.00     0.148 C 
HETATM   15  C18 UNL     1      -4.274  -0.635   1.757  1.00  0.00     0.006 C 
HETATM   16  C17 UNL     1      -2.904  -0.433   2.407  1.00  0.00     0.016 C 
BRANCH  14  17
HETATM   17  O4  UNL     1      -8.591  -0.398  -0.121  1.00  0.00    -0.393 OA
ATOM     18  H4  UNL     1      -9.173   0.329   0.067  1.00  0.00     0.210 HD
ENDBRANCH  14  17
BRANCH  12  19
HETATM   19  O5  UNL     1      -6.820   2.158   0.292  1.00  0.00    -0.392 OA
ATOM     20  H5  UNL     1      -7.702   2.366   0.578  1.00  0.00     0.210 HD
ENDBRANCH  12  19
ENDBRANCH   1   4
BRANCH   3  21
HETATM   21  C8  UNL     1       1.528  -0.135   0.067  1.00  0.00     0.159 C 
BRANCH  21  22
HETATM   22  C9  UNL     1       2.725  -0.126   1.006  1.00  0.00     0.064 C 
BRANCH  22  23
HETATM   23  C10 UNL     1       3.955   0.361   0.287  1.00  0.00    -0.009 C 
HETATM   24  C11 UNL     1       5.068   0.319   1.326  1.00  0.00     0.007 C 
HETATM   25  C12 UNL     1       6.034  -0.832   0.983  1.00  0.00     0.026 C 
HETATM   26  C13 UNL     1       6.647  -0.444  -0.329  1.00  0.00     0.092 C 
HETATM   27  C15 UNL     1       5.629  -0.519  -1.401  1.00  0.00     0.026 C 
HETATM   28  C16 UNL     1       4.252  -0.595  -0.845  1.00  0.00     0.007 C 
BRANCH  26  29
HETATM   29  N2  UNL     1       7.888  -1.115  -0.609  1.00  0.00    -0.314 N 
ATOM     30  H2  UNL     1       7.953  -2.117  -0.791  1.00  0.00     0.172 HD
BRANCH  29  31
HETATM   31  S1  UNL     1       9.246  -0.073  -0.608  1.00  0.00     0.239 S 
HETATM   32  O2  UNL     1      10.495  -0.829  -0.938  1.00  0.00    -0.205 OA
HETATM   33  O3  UNL     1       9.431   0.667   0.656  1.00  0.00    -0.205 OA
BRANCH  31  34
HETATM   34  C14 UNL     1       8.990   1.138  -1.901  1.00  0.00     0.277 C 
HETATM   35 CL1  UNL     1       8.847   0.294  -3.474  1.00  0.00    -0.113 Cl
ENDBRANCH  31  34
ENDBRANCH  29  31
ENDBRANCH  26  29
ENDBRANCH  22  23
ENDBRANCH  21  22
ENDBRANCH   3  21
TORSDOF 9
