REMARK  6 active torsions:
REMARK  status: ('A' for Active; 'I' for Inactive)
REMARK    1  A    between atoms: C3_5  and  N2_6 
REMARK    2  A    between atoms: N2_6  and  C4_8 
REMARK    3  A    between atoms: C4_8  and  C5_9 
REMARK    4  A    between atoms: C5_9  and  C6_10 
REMARK    5  A    between atoms: C6_10  and  N3_11 
REMARK    6  A    between atoms: C6_10  and  N4_15 
ROOT
HETATM    1  N2  UNL     1      -0.034  -0.848   0.899  1.00  0.00    -0.225 N 
ATOM      2  H2  UNL     1      -0.168  -0.597   1.879  1.00  0.00     0.177 HD
ENDROOT
BRANCH   1   3
HETATM    3  C3  UNL     1       1.107  -0.593   0.366  1.00  0.00     0.694 A 
HETATM    4  N1  UNL     1       2.136  -0.018   1.013  1.00  0.00    -0.179 N 
HETATM    5  C2  UNL     1       3.176   0.107   0.171  1.00  0.00     0.108 A 
ATOM      6  H1  UNL     1       2.128   0.277   1.989  1.00  0.00     0.185 HD
HETATM    7  C1  UNL     1       4.522   0.696   0.485  1.00  0.00     0.091 C 
HETATM    8  N6  UNL     1       2.756  -0.404  -1.000  1.00  0.00    -0.275 N 
HETATM    9  N5  UNL     1       1.505  -0.831  -0.897  1.00  0.00    -0.131 N 
ATOM     10  H6  UNL     1       3.320  -0.456  -1.848  1.00  0.00     0.189 HD
ATOM     11  H5  UNL     1       0.949  -1.260  -1.637  1.00  0.00     0.205 HD
ENDBRANCH   1   3
BRANCH   1  12
HETATM   12  C4  UNL     1      -1.128  -1.459   0.212  1.00  0.00     0.142 C 
BRANCH  12  13
HETATM   13  C5  UNL     1      -1.810  -0.401  -0.634  1.00  0.00     0.082 C 
BRANCH  13  14
HETATM   14  C6  UNL     1      -2.295   0.686   0.294  1.00  0.00     0.379 C 
BRANCH  14  15
HETATM   15  N3  UNL     1      -3.230   0.126   1.248  1.00  0.00    -0.050 N 
ATOM     16  H33 UNL     1      -4.000  -0.363   0.791  1.00  0.00     0.276 HD
ATOM     17  H32 UNL     1      -2.835  -0.666   1.755  1.00  0.00     0.276 HD
ATOM     18  H31 UNL     1      -3.558   0.861   1.875  1.00  0.00     0.276 HD
ENDBRANCH  14  15
BRANCH  14  19
HETATM   19  N4  UNL     1      -2.983   1.687  -0.471  1.00  0.00    -0.050 N 
ATOM     20  H43 UNL     1      -2.411   2.054  -1.232  1.00  0.00     0.276 HD
ATOM     21  H42 UNL     1      -3.737   1.294  -1.034  1.00  0.00     0.276 HD
ATOM     22  H41 UNL     1      -3.311   2.422   0.156  1.00  0.00     0.276 HD
ENDBRANCH  14  19
ENDBRANCH  13  14
ENDBRANCH  12  13
ENDBRANCH   1  12
TORSDOF 6
