REMARK  7 active torsions:
REMARK  status: ('A' for Active; 'I' for Inactive)
REMARK       I    between atoms: C2_2  and  N1_4 
REMARK    1  A    between atoms: C6_12  and  N4_13 
REMARK    2  A    between atoms: C7_18  and  N6_19 
REMARK    3  A    between atoms: N6_19  and  C8_21 
REMARK    4  A    between atoms: N8_26  and  C11_27 
REMARK    5  A    between atoms: C11_27  and  C12_28 
REMARK    6  A    between atoms: C12_28  and  N9_29 
REMARK    7  A    between atoms: C12_28  and  O2_33 
ROOT
HETATM    1  C1  UNL     1       5.042   0.569  -1.647  1.00  0.00     0.118 C 
HETATM    2  C2  UNL     1       4.400  -0.272  -0.611  1.00  0.00     0.226 C 
HETATM    3  O1  UNL     1       5.046  -1.217  -0.104  1.00  0.00    -0.273 OA
HETATM    4  N1  UNL     1       3.088  -0.010  -0.209  1.00  0.00    -0.262 N 
HETATM    5  C3  UNL     1       2.232   1.031  -0.699  1.00  0.00     0.193 A 
HETATM    6  N2  UNL     1       1.081   0.982  -0.105  1.00  0.00    -0.346 N 
ATOM      7  H2  UNL     1       0.294   1.610  -0.271  1.00  0.00     0.167 HD
HETATM    8  C4  UNL     1       1.106  -0.097   0.817  1.00  0.00     0.124 A 
HETATM    9  C5  UNL     1       2.343  -0.725   0.768  1.00  0.00     0.161 A 
HETATM   10  N3  UNL     1       2.549  -1.775   1.579  1.00  0.00    -0.174 N 
ATOM     11  H3  UNL     1       3.452  -2.248   1.556  1.00  0.00     0.186 HD
HETATM   12  C6  UNL     1       1.593  -2.225   2.427  1.00  0.00     0.679 A 
HETATM   13  N5  UNL     1       0.392  -1.597   2.459  1.00  0.00    -0.174 N 
ATOM     14  H5  UNL     1      -0.328  -1.935   3.097  1.00  0.00     0.186 HD
HETATM   15  C7  UNL     1       0.125  -0.540   1.672  1.00  0.00     0.167 A 
ENDROOT
BRANCH  15  16
HETATM   16  N6  UNL     1      -1.000   0.026   1.722  1.00  0.00    -0.173 N 
ATOM     17  H6  UNL     1      -1.657  -0.379   2.389  1.00  0.00     0.186 HD
BRANCH  16  18
HETATM   18  C8  UNL     1      -1.485   1.119   1.008  1.00  0.00     0.685 A 
HETATM   19  N7  UNL     1      -1.372   2.402   1.357  1.00  0.00    -0.200 N 
HETATM   20  C9  UNL     1      -1.952   3.198   0.446  1.00  0.00     0.124 A 
ATOM     21  H7  UNL     1      -0.907   2.733   2.203  1.00  0.00     0.183 HD
HETATM   22  C10 UNL     1      -2.443   2.335  -0.509  1.00  0.00     0.126 A 
HETATM   23  N8  UNL     1      -2.150   1.071  -0.153  1.00  0.00    -0.188 N 
BRANCH  23  24
HETATM   24  C11 UNL     1      -2.525  -0.095  -0.940  1.00  0.00     0.207 C 
BRANCH  24  25
HETATM   25  C12 UNL     1      -3.890  -0.585  -0.506  1.00  0.00     0.335 C 
BRANCH  25  26
HETATM   26  N9  UNL     1      -4.895   0.430  -0.690  1.00  0.00    -0.051 N 
ATOM     27  H93 UNL     1      -4.641   1.297  -0.217  1.00  0.00     0.277 HD
ATOM     28  H92 UNL     1      -4.909   0.773  -1.651  1.00  0.00     0.277 HD
ATOM     29  H91 UNL     1      -5.815   0.100  -0.398  1.00  0.00     0.277 HD
ENDBRANCH  25  26
BRANCH  25  30
HETATM   30  O2  UNL     1      -4.208  -1.708  -1.250  1.00  0.00    -0.369 OA
ATOM     31  H2  UNL     1      -5.065  -2.015  -0.978  1.00  0.00     0.212 HD
ENDBRANCH  25  30
ENDBRANCH  24  25
ENDBRANCH  23  24
ENDBRANCH  16  18
ENDBRANCH  15  16
BRANCH  12  32
HETATM   32  N4  UNL     1       1.838  -3.237   3.185  1.00  0.00    -0.234 N 
ATOM     33  H42 UNL     1       2.742  -3.710   3.161  1.00  0.00     0.174 HD
ATOM     34  H41 UNL     1       1.118  -3.576   3.823  1.00  0.00     0.174 HD
ENDBRANCH  12  32
TORSDOF 7
