REMARK  8 active torsions:
REMARK  status: ('A' for Active; 'I' for Inactive)
REMARK    1  A    between atoms: O1_2  and  C2_3 
REMARK    2  A    between atoms: C2_3  and  C3_4 
REMARK    3  A    between atoms: C3_4  and  C4_5 
REMARK    4  A    between atoms: C4_5  and  O2_6 
REMARK    5  A    between atoms: N1_10  and  O3_11 
REMARK    6  A    between atoms: C9_16  and  N3_17 
REMARK    7  A    between atoms: C10_23  and  N5_24 
REMARK       I    between atoms: N5_24  and  C11_26 
REMARK    8  A    between atoms: C12_31  and  O4_32 
ROOT
HETATM    1  C3  UNL     1      -0.318   0.078  -0.035  1.00  0.00     0.120 C 
HETATM    2  N2  UNL     1       0.045   0.019   1.320  1.00  0.00    -0.364 N 
ATOM      3  H2  UNL     1      -0.284   0.753   1.947  1.00  0.00     0.158 HD
HETATM    4  C9  UNL     1       0.834  -0.998   1.841  1.00  0.00     0.380 C 
HETATM    5  N4  UNL     1       1.564  -1.764   0.905  1.00  0.00    -0.357 N 
ATOM      6  H4  UNL     1       1.837  -2.730   1.088  1.00  0.00     0.159 HD
HETATM    7  C10 UNL     1       1.896  -1.093  -0.322  1.00  0.00     0.214 C 
HETATM    8  C12 UNL     1       0.663  -0.594  -0.983  1.00  0.00     0.194 C 
ENDROOT
BRANCH   1   9
HETATM    9  C2  UNL     1      -0.396   1.533  -0.425  1.00  0.00     0.204 C 
BRANCH   9  10
HETATM   10  O1  UNL     1      -1.287   2.279   0.321  1.00  0.00    -0.393 OA
HETATM   11  C1  UNL     1      -1.257   3.587  -0.141  1.00  0.00     0.201 C 
ENDBRANCH   9  10
ENDBRANCH   1   9
BRANCH   1  12
HETATM   12  C4  UNL     1      -1.694  -0.522  -0.206  1.00  0.00     0.143 A 
HETATM   13  C6  UNL     1      -2.727  -0.000   0.694  1.00  0.00     0.039 A 
HETATM   14  C7  UNL     1      -3.212  -1.012   1.432  1.00  0.00     0.121 A 
HETATM   15  N1  UNL     1      -2.544  -2.177   1.054  1.00  0.00    -0.248 N 
HETATM   16  C8  UNL     1      -1.681  -1.974   0.140  1.00  0.00     0.140 A 
BRANCH  12  17
HETATM   17  O2  UNL     1      -2.078  -0.430  -1.569  1.00  0.00    -0.373 OA
HETATM   18  C5  UNL     1      -3.326  -0.964  -1.776  1.00  0.00     0.203 C 
ENDBRANCH  12  17
BRANCH  15  19
HETATM   19  O3  UNL     1      -2.817  -3.418   1.635  1.00  0.00    -0.284 OA
ATOM     20  H3  UNL     1      -2.362  -4.211   1.378  1.00  0.00     0.245 HD
ENDBRANCH  15  19
ENDBRANCH   1  12
BRANCH   8  21
HETATM   21  O4  UNL     1       0.982   0.144  -2.092  1.00  0.00    -0.389 OA
ATOM     22  H4  UNL     1       1.595  -0.276  -2.684  1.00  0.00     0.210 HD
ENDBRANCH   8  21
BRANCH   4  23
HETATM   23  N3  UNL     1       1.677  -0.455   2.913  1.00  0.00    -0.041 N 
ATOM     24  H33 UNL     1       2.230   0.344   2.603  1.00  0.00     0.278 HD
ATOM     25  H32 UNL     1       1.131   0.018   3.633  1.00  0.00     0.278 HD
ATOM     26  H31 UNL     1       2.257  -1.202   3.296  1.00  0.00     0.278 HD
ENDBRANCH   4  23
BRANCH   7  27
HETATM   27  N5  UNL     1       2.948  -0.129  -0.124  1.00  0.00    -0.341 N 
HETATM   28  C11 UNL     1       3.622   0.553  -1.147  1.00  0.00     0.183 C 
HETATM   29  N6  UNL     1       3.940   1.783  -1.005  1.00  0.00    -0.374 N 
HETATM   30  N7  UNL     1       3.969  -0.090  -2.353  1.00  0.00    -0.064 NA
ATOM     31  H62 UNL     1       3.689   2.248  -0.133  1.00  0.00     0.158 HD
ATOM     32  H61 UNL     1       4.430   2.279  -1.749  1.00  0.00     0.158 HD
ATOM     33  H5  UNL     1       3.225   0.074   0.837  1.00  0.00     0.164 HD
ENDBRANCH   7  27
TORSDOF 8
