REMARK  9 active torsions:
REMARK  status: ('A' for Active; 'I' for Inactive)
REMARK    1  A    between atoms: O1_2  and  C2_3 
REMARK    2  A    between atoms: C2_3  and  C3_5 
REMARK    3  A    between atoms: C3_5  and  O3_6 
REMARK    4  A    between atoms: C3_5  and  C4_8 
REMARK    5  A    between atoms: N1_10  and  N2_12 
REMARK       I    between atoms: N2_12  and  C6_14 
REMARK       I    between atoms: C6_14  and  N3_16 
REMARK    6  A    between atoms: N3_16  and  N4_18 
REMARK    7  A    between atoms: N5_22  and  N6_23 
REMARK    8  A    between atoms: C8_26  and  N7_27 
REMARK    9  A    between atoms: N7_27  and  O5_29 
ROOT
HETATM    1  N2  UNL     1      -0.730   0.890   0.964  1.00  0.00    -0.250 N 
ATOM      2  H2  UNL     1      -0.834   1.543   1.741  1.00  0.00     0.192 HD
HETATM    3  C6  UNL     1       0.576   0.709   0.359  1.00  0.00     0.354 C 
HETATM    4  O4  UNL     1       0.612  -0.094  -0.569  1.00  0.00    -0.244 OA
HETATM    5  N3  UNL     1       1.638   1.434   0.862  1.00  0.00    -0.223 N 
ATOM      6  H3  UNL     1       1.384   2.046   1.638  1.00  0.00     0.193 HD
ENDROOT
BRANCH   1   7
HETATM    7  N1  UNL     1      -1.832   0.199   0.512  1.00  0.00    -0.302 N 
HETATM    8  C4  UNL     1      -2.017  -1.066   0.639  1.00  0.00     0.038 C 
HETATM    9  C5  UNL     1      -1.055  -1.979   1.304  1.00  0.00     0.068 C 
ATOM     10  H1  UNL     1      -2.560   0.734   0.038  1.00  0.00     0.186 HD
BRANCH   8  11
HETATM   11  C3  UNL     1      -3.264  -1.653   0.093  1.00  0.00     0.264 C 
BRANCH  11  12
HETATM   12  C2  UNL     1      -4.124  -0.634  -0.536  1.00  0.00     0.293 C 
HETATM   13  O2  UNL     1      -3.670   0.054  -1.482  1.00  0.00    -0.262 OA
BRANCH  12  14
HETATM   14  O1  UNL     1      -5.420  -0.426  -0.102  1.00  0.00    -0.324 OA
HETATM   15  C1  UNL     1      -6.290   0.531  -0.660  1.00  0.00     0.213 C 
ENDBRANCH  12  14
ENDBRANCH  11  12
BRANCH  11  16
HETATM   16  O3  UNL     1      -3.963  -2.300   1.120  1.00  0.00    -0.380 OA
ATOM     17  H3  UNL     1      -3.409  -2.957   1.525  1.00  0.00     0.211 HD
ENDBRANCH  11  16
ENDBRANCH   8  11
ENDBRANCH   1   7
BRANCH   5  18
HETATM   18  N4  UNL     1       2.988   1.496   0.520  1.00  0.00    -0.043 N 
HETATM   19  S1  UNL     1       4.119   2.514   1.335  1.00  0.00     0.061 SA
HETATM   20  C7  UNL     1       5.509   2.114   0.455  1.00  0.00     0.200 A 
HETATM   21  S2  UNL     1       7.051   2.690   0.640  1.00  0.00    -0.048 SA
HETATM   22  N5  UNL     1       5.045   1.229  -0.413  1.00  0.00    -0.069 N 
HETATM   23  C8  UNL     1       3.771   0.913  -0.385  1.00  0.00     0.752 A 
BRANCH  22  24
HETATM   24  N6  UNL     1       5.974   0.658  -1.349  1.00  0.00    -0.322 N 
ATOM     25  H62 UNL     1       6.964   0.904  -1.371  1.00  0.00     0.178 HD
ATOM     26  H61 UNL     1       5.616  -0.024  -2.018  1.00  0.00     0.178 HD
ENDBRANCH  22  24
BRANCH  23  27
HETATM   27  N7  UNL     1       3.228   0.039  -1.216  1.00  0.00    -0.094 N 
ATOM     28  H7  UNL     1       2.233  -0.176  -1.158  1.00  0.00     0.213 HD
BRANCH  27  29
HETATM   29  O5  UNL     1       4.002  -0.565  -2.141  1.00  0.00    -0.276 OA
ATOM     30  H5  UNL     1       3.612  -1.193  -2.738  1.00  0.00     0.245 HD
ENDBRANCH  27  29
ENDBRANCH  23  27
ENDBRANCH   5  18
TORSDOF 9
