REMARK  4 active torsions:
REMARK  status: ('A' for Active; 'I' for Inactive)
REMARK       I    between atoms: N1_1  and  C1_5 
REMARK       I    between atoms: C1_5  and  N2_6 
REMARK       I    between atoms: C1_5  and  N3_10 
REMARK    1  A    between atoms: N3_10  and  N4_11 
REMARK       I    between atoms: N4_11  and  C2_13 
REMARK    2  A    between atoms: C2_13  and  C3_15 
REMARK    3  A    between atoms: C5_18  and  C6_19 
REMARK    4  A    between atoms: C9_26  and  C10_27 
ROOT
HETATM    1  C3  UNL     1      -0.901  -0.537  -0.395  1.00  0.00     0.190 A 
HETATM    2  S1  UNL     1      -1.663  -0.605  -2.081  1.00  0.00    -0.100 SA
HETATM    3  C4  UNL     1      -1.560   1.196  -2.302  1.00  0.00     0.078 C 
HETATM    4  C5  UNL     1      -1.548   1.672  -1.082  1.00  0.00     0.098 C 
HETATM    5  N5  UNL     1      -1.647   0.754  -0.044  1.00  0.00    -0.221 NA
HETATM    6  C7  UNL     1      -1.553  -0.406   0.804  1.00  0.00     0.139 A 
HETATM    7  S2  UNL     1      -0.763  -0.299   2.365  1.00  0.00    -0.106 SA
HETATM    8  C8  UNL     1      -2.390  -0.966   2.585  1.00  0.00     0.055 A 
HETATM    9  C9  UNL     1      -2.790  -0.958   1.321  1.00  0.00    -0.008 A 
ENDROOT
BRANCH   1  10
HETATM   10  C2  UNL     1       0.559  -0.226  -0.503  1.00  0.00     0.271 C 
HETATM   11  N4  UNL     1       1.505  -1.236  -0.828  1.00  0.00    -0.268 N 
ATOM     12  H4  UNL     1       1.187  -2.191  -0.992  1.00  0.00     0.185 HD
HETATM   13  O1  UNL     1       1.000   0.935  -0.311  1.00  0.00    -0.269 OA
BRANCH  11  14
HETATM   14  N3  UNL     1       2.842  -0.939  -0.924  1.00  0.00    -0.078 NA
HETATM   15  C1  UNL     1       3.595  -1.253   0.284  1.00  0.00     0.490 C 
HETATM   16  N1  UNL     1       4.970  -0.890   0.021  1.00  0.00    -0.035 N 
HETATM   17  N2  UNL     1       3.061  -0.480   1.404  1.00  0.00    -0.035 N 
ATOM     18  H13 UNL     1       5.074   0.114  -0.129  1.00  0.00     0.278 HD
ATOM     19  H12 UNL     1       5.551  -0.981   0.854  1.00  0.00     0.278 HD
ATOM     20  H11 UNL     1       5.343  -1.429  -0.760  1.00  0.00     0.278 HD
ATOM     21  H23 UNL     1       3.642  -0.571   2.237  1.00  0.00     0.278 HD
ATOM     22  H22 UNL     1       3.165   0.524   1.254  1.00  0.00     0.278 HD
ATOM     23  H21 UNL     1       2.091  -0.736   1.589  1.00  0.00     0.278 HD
ENDBRANCH  11  14
ENDBRANCH   1  10
BRANCH   4  24
HETATM   24  C6  UNL     1      -1.465   3.132  -0.827  1.00  0.00     0.221 C 
HETATM   25  O2  UNL     1      -1.452   3.615   0.336  1.00  0.00    -0.643 OA
HETATM   26  O3  UNL     1      -1.397   4.051  -1.867  1.00  0.00    -0.643 OA
ENDBRANCH   4  24
BRANCH   9  27
HETATM   27  C10 UNL     1      -4.054  -1.371   0.676  1.00  0.00     0.260 C 
HETATM   28  F1  UNL     1      -3.767  -2.361  -0.231  1.00  0.00    -0.251 F 
ENDBRANCH   9  27
TORSDOF 4
