REMARK  2 active torsions:
REMARK  status: ('A' for Active; 'I' for Inactive)
REMARK    1  A    between atoms: O1_2  and  N1_3 
REMARK       I    between atoms: N1_3  and  C2_5 
REMARK       I    between atoms: C2_5  and  N2_7 
REMARK    2  A    between atoms: C5_10  and  C6_11 
ROOT
HETATM    1  N1  UNL     1       4.580  -0.286  -0.455  1.00  0.00    -0.217 N 
ATOM      2  H1  UNL     1       4.314  -1.153  -0.921  1.00  0.00     0.199 HD
HETATM    3  C2  UNL     1       3.574   0.567   0.049  1.00  0.00     0.342 C 
HETATM    4  O2  UNL     1       3.977   1.640   0.620  1.00  0.00    -0.245 OA
HETATM    5  N2  UNL     1       2.196   0.277  -0.060  1.00  0.00    -0.322 N 
HETATM    6  C3  UNL     1       1.751  -0.942  -0.676  1.00  0.00     0.129 C 
HETATM    7  C4  UNL     1       0.276  -1.130  -0.629  1.00  0.00     0.036 C 
HETATM    8  C5  UNL     1      -0.465   0.141  -0.189  1.00  0.00     0.035 C 
HETATM    9  C12 UNL     1       0.081   0.485   1.157  1.00  0.00     0.047 C 
HETATM   10  C13 UNL     1       1.225   1.198   0.429  1.00  0.00     0.163 C 
HETATM   11  C14 UNL     1       0.211   1.345  -0.734  1.00  0.00     0.272 C 
HETATM   12  F1  UNL     1      -0.406   2.546  -0.723  1.00  0.00    -0.203 F 
HETATM   13  F2  UNL     1       0.761   1.028  -1.975  1.00  0.00    -0.203 F 
ENDROOT
BRANCH   1  14
HETATM   14  O1  UNL     1       5.866   0.020  -0.333  1.00  0.00    -0.281 OA
HETATM   15  C1  UNL     1       6.259  -0.144   1.003  1.00  0.00     0.237 C 
ENDBRANCH   1  14
BRANCH   8  16
HETATM   16  C6  UNL     1      -1.931   0.054  -0.384  1.00  0.00     0.000 C 
HETATM   17  C7  UNL     1      -2.731   1.241   0.026  1.00  0.00     0.005 C 
HETATM   18  C8  UNL     1      -4.228   1.009   0.020  1.00  0.00     0.000 C 
HETATM   19  C9  UNL     1      -4.667  -0.294   0.584  1.00  0.00     0.000 C 
HETATM   20  C10 UNL     1      -3.925  -1.378  -0.156  1.00  0.00     0.000 C 
HETATM   21  C11 UNL     1      -2.478  -1.246   0.230  1.00  0.00     0.005 C 
ENDBRANCH   8  16
TORSDOF 2
