REMARK  9 active torsions:
REMARK  status: ('A' for Active; 'I' for Inactive)
REMARK    1  A    between atoms: C3_5  and  C4_6 
REMARK    2  A    between atoms: C4_6  and  O1_7 
REMARK    3  A    between atoms: C4_6  and  C12_18 
REMARK    4  A    between atoms: O1_7  and  C5_8 
REMARK    5  A    between atoms: C5_8  and  C6_10 
REMARK    6  A    between atoms: C12_18  and  O3_19 
REMARK    7  A    between atoms: N2_21  and  C13_23 
REMARK    8  A    between atoms: C14_28  and  C15_29 
REMARK    9  A    between atoms: C15_29  and  C16_30 
ROOT
HETATM    1  C4  UNL     1      -0.577   0.370   0.148  1.00  0.00     0.281 C 
ENDROOT
BRANCH   1   2
HETATM    2  C3  UNL     1      -0.653  -1.085   0.542  1.00  0.00     0.163 A 
HETATM    3  N1  UNL     1      -1.160  -2.086  -0.194  1.00  0.00    -0.338 N 
HETATM    4  C2  UNL     1      -1.048  -3.218   0.499  1.00  0.00     0.053 A 
ATOM      5  H1  UNL     1      -1.563  -1.995  -1.127  1.00  0.00     0.167 HD
HETATM    6  C1  UNL     1      -1.457  -4.603   0.129  1.00  0.00     0.072 C 
HETATM    7  C17 UNL     1      -0.452  -2.885   1.695  1.00  0.00     0.169 A 
HETATM    8  O6  UNL     1      -0.237  -1.597   1.665  1.00  0.00    -0.280 OA
HETATM    9 CL3  UNL     1      -0.056  -4.003   3.012  1.00  0.00    -0.054 Cl
ENDBRANCH   1   2
BRANCH   1  10
HETATM   10  O1  UNL     1      -1.939   0.736  -0.206  1.00  0.00    -0.295 OA
BRANCH  10  11
HETATM   11  C5  UNL     1      -2.470   1.797   0.558  1.00  0.00     0.296 C 
HETATM   12  O2  UNL     1      -1.774   2.341   1.457  1.00  0.00    -0.259 OA
BRANCH  11  13
HETATM   13  C6  UNL     1      -3.815   2.278   0.323  1.00  0.00     0.061 A 
HETATM   14  C7  UNL     1      -4.234   2.735  -0.898  1.00  0.00     0.021 A 
HETATM   15  C8  UNL     1      -5.540   3.197  -1.049  1.00  0.00     0.025 A 
HETATM   16  C9  UNL     1      -6.431   3.206   0.004  1.00  0.00     0.035 A 
HETATM   17 CL1  UNL     1      -8.069   3.795  -0.175  1.00  0.00    -0.084 Cl
HETATM   18  C10 UNL     1      -5.949   2.730   1.213  1.00  0.00     0.048 A 
HETATM   19  C11 UNL     1      -4.691   2.273   1.407  1.00  0.00     0.051 A 
HETATM   20 CL2  UNL     1      -4.138   1.682   2.956  1.00  0.00    -0.083 Cl
ENDBRANCH  11  13
ENDBRANCH  10  11
ENDBRANCH   1  10
BRANCH   1  21
HETATM   21  C12 UNL     1       0.232   0.572  -1.073  1.00  0.00     0.156 C 
HETATM   22  N2  UNL     1       1.531   0.629  -1.173  1.00  0.00    -0.317 N 
ATOM     23  H2  UNL     1       1.705   1.224  -1.983  1.00  0.00     0.170 HD
BRANCH  21  24
HETATM   24  O3  UNL     1      -0.450   0.720  -2.205  1.00  0.00    -0.347 OA
ATOM     25  H3  UNL     1       0.070   0.850  -2.990  1.00  0.00     0.219 HD
ENDBRANCH  21  24
BRANCH  22  26
HETATM   26  C13 UNL     1       2.649   0.315  -0.767  1.00  0.00     0.167 A 
HETATM   27  N3  UNL     1       3.107  -0.431   0.234  1.00  0.00    -0.279 N 
HETATM   28  N4  UNL     1       4.350  -0.568   0.427  1.00  0.00    -0.295 N 
ATOM     29  H3  UNL     1       2.447  -0.899   0.855  1.00  0.00     0.189 HD
HETATM   30  C14 UNL     1       5.219   0.030  -0.367  1.00  0.00     0.079 A 
ATOM     31  H4  UNL     1       4.683  -1.144   1.200  1.00  0.00     0.187 HD
HETATM   32  S1  UNL     1       4.195   0.838  -1.458  1.00  0.00    -0.037 SA
BRANCH  30  33
HETATM   33  C15 UNL     1       6.725   0.008  -0.303  1.00  0.00     0.179 C 
BRANCH  33  34
HETATM   34  C16 UNL     1       7.223  -1.091  -1.124  1.00  0.00     0.178 C 
HETATM   35  O4  UNL     1       6.516  -1.903  -1.784  1.00  0.00    -0.648 OA
HETATM   36  O5  UNL     1       8.628  -1.243  -1.170  1.00  0.00    -0.648 OA
ENDBRANCH  33  34
ENDBRANCH  30  33
ENDBRANCH  22  26
ENDBRANCH   1  21
TORSDOF 9
