REMARK  6 active torsions:
REMARK  status: ('A' for Active; 'I' for Inactive)
REMARK    1  A    between atoms: C6_8  and  N2_9 
REMARK    2  A    between atoms: N2_9  and  C7_11 
REMARK    3  A    between atoms: C7_11  and  C8_12 
REMARK    4  A    between atoms: C8_12  and  C9_13 
REMARK    5  A    between atoms: C9_13  and  O1_15 
REMARK    6  A    between atoms: C9_13  and  C11_17 
ROOT
HETATM    1  C7  UNL     1      -0.706  -0.604  -0.600  1.00  0.00     0.124 C 
ENDROOT
BRANCH   1   2
HETATM    2  N2  UNL     1       0.352  -1.602  -0.458  1.00  0.00    -0.376 N 
ATOM      3  H2  UNL     1       0.130  -2.585  -0.613  1.00  0.00     0.161 HD
BRANCH   2   4
HETATM    4  C6  UNL     1       1.544  -1.279  -0.146  1.00  0.00     0.102 A 
HETATM    5  N1  UNL     1       2.469  -2.242  -0.031  1.00  0.00    -0.352 N 
HETATM    6  C5  UNL     1       3.744  -2.053   0.287  1.00  0.00     0.102 A 
ATOM      7  H1  UNL     1       2.168  -3.201  -0.202  1.00  0.00     0.166 HD
HETATM    8  C4  UNL     1       4.244  -0.764   0.539  1.00  0.00    -0.003 A 
HETATM    9  C3  UNL     1       5.499  -0.422   0.868  1.00  0.00     0.028 A 
HETATM   10  C18 UNL     1       3.329   0.250   0.431  1.00  0.00     0.020 A 
HETATM   11  C2  UNL     1       5.765   0.908   1.069  1.00  0.00    -0.020 A 
HETATM   12  C1  UNL     1       7.087   1.535   1.444  1.00  0.00     0.056 C 
HETATM   13  S1  UNL     1       4.250   1.641   0.792  1.00  0.00    -0.094 SA
HETATM   14  C17 UNL     1       1.990   0.001   0.093  1.00  0.00     0.068 A 
ENDBRANCH   2   4
ENDBRANCH   1   2
BRANCH   1  15
HETATM   15  C8  UNL     1      -1.846  -1.175  -1.398  1.00  0.00     0.062 C 
BRANCH  15  16
HETATM   16  C9  UNL     1      -2.986  -0.228  -1.595  1.00  0.00     0.086 C 
HETATM   17  C10 UNL     1      -2.481   0.989  -2.332  1.00  0.00     0.051 C 
BRANCH  16  18
HETATM   18  O1  UNL     1      -3.945  -0.882  -2.401  1.00  0.00    -0.385 OA
ATOM     19  H1  UNL     1      -4.669  -0.280  -2.526  1.00  0.00     0.211 HD
ENDBRANCH  16  18
BRANCH  16  20
HETATM   20  C11 UNL     1      -3.631   0.202  -0.332  1.00  0.00     0.014 A 
HETATM   21  C12 UNL     1      -3.672   1.527   0.018  1.00  0.00     0.016 A 
HETATM   22  C13 UNL     1      -4.273   1.962   1.204  1.00  0.00     0.043 A 
HETATM   23  C14 UNL     1      -4.843   1.056   2.055  1.00  0.00     0.119 A 
HETATM   24  F1  UNL     1      -5.427   1.478   3.207  1.00  0.00    -0.206 F 
HETATM   25  C15 UNL     1      -4.819  -0.278   1.734  1.00  0.00     0.085 A 
HETATM   26  C16 UNL     1      -4.213  -0.695   0.542  1.00  0.00     0.128 A 
HETATM   27  F2  UNL     1      -4.222  -2.012   0.281  1.00  0.00    -0.205 F 
ENDBRANCH  16  20
ENDBRANCH  15  16
ENDBRANCH   1  15
TORSDOF 6
