REMARK  5 active torsions:
REMARK  status: ('A' for Active; 'I' for Inactive)
REMARK    1  A    between atoms: C4_9  and  N3_10 
REMARK    2  A    between atoms: C4_9  and  C18_26 
REMARK    3  A    between atoms: N3_10  and  C5_12 
REMARK    4  A    between atoms: C5_12  and  C6_13 
REMARK    5  A    between atoms: C10_17  and  C11_18 
ROOT
HETATM    1  N3  UNL     1       2.544  -0.270   0.921  1.00  0.00    -0.364 N 
ATOM      2  H3  UNL     1       2.500  -1.077   1.543  1.00  0.00     0.161 HD
ENDROOT
BRANCH   1   3
HETATM    3  C4  UNL     1       3.779   0.382   0.689  1.00  0.00     0.216 C 
HETATM    4  N1  UNL     1       4.232   0.302  -0.634  1.00  0.00    -0.332 N 
HETATM    5  C1  UNL     1       3.846  -0.730  -1.615  1.00  0.00     0.154 C 
HETATM    6  C2  UNL     1       5.163   1.305  -1.052  1.00  0.00     0.138 C 
HETATM    7  N2  UNL     1       5.877   1.328  -2.131  1.00  0.00    -0.380 N 
HETATM    8  S1  UNL     1       5.147   2.521   0.257  1.00  0.00    -0.090 SA
ATOM      9  H22 UNL     1       5.886   0.634  -2.878  1.00  0.00     0.158 HD
ATOM     10  H21 UNL     1       6.541   2.043  -2.429  1.00  0.00     0.158 HD
HETATM   11  C3  UNL     1       3.749   1.817   1.187  1.00  0.00     0.146 C 
BRANCH   3  12
HETATM   12  C18 UNL     1       4.820  -0.376   1.544  1.00  0.00     0.432 C 
HETATM   13  F1  UNL     1       4.925  -1.700   1.140  1.00  0.00    -0.166 F 
HETATM   14  F2  UNL     1       6.068   0.194   1.438  1.00  0.00    -0.166 F 
HETATM   15  F3  UNL     1       4.367  -0.437   2.863  1.00  0.00    -0.166 F 
ENDBRANCH   3  12
ENDBRANCH   1   3
BRANCH   1  16
HETATM   16  C5  UNL     1       1.379   0.200   0.290  1.00  0.00     0.097 C 
BRANCH  16  17
HETATM   17  C6  UNL     1       0.129  -0.493   0.745  1.00  0.00    -0.021 A 
HETATM   18  C7  UNL     1       0.212  -1.418   1.752  1.00  0.00     0.013 A 
HETATM   19  C8  UNL     1      -0.990  -2.009   2.162  1.00  0.00     0.001 A 
HETATM   20  C9  UNL     1      -2.177  -1.649   1.561  1.00  0.00     0.008 A 
HETATM   21  C10 UNL     1      -2.260  -0.707   0.544  1.00  0.00    -0.049 A 
HETATM   22  C17 UNL     1      -1.050  -0.134   0.147  1.00  0.00     0.020 A 
BRANCH  21  23
HETATM   23  C11 UNL     1      -3.534  -0.273  -0.089  1.00  0.00    -0.013 C 
HETATM   24  C12 UNL     1      -4.685  -0.933   0.645  1.00  0.00     0.020 C 
HETATM   25  C13 UNL     1      -3.712   1.223   0.053  1.00  0.00     0.040 C 
HETATM   26  C14 UNL     1      -3.958   1.922  -1.241  1.00  0.00     0.168 C 
HETATM   27  O1  UNL     1      -4.962   1.363  -1.991  1.00  0.00    -0.391 OA
HETATM   28  C15 UNL     1      -4.840   0.004  -2.167  1.00  0.00     0.168 C 
HETATM   29  C16 UNL     1      -3.617  -0.608  -1.554  1.00  0.00     0.040 C 
ENDBRANCH  21  23
ENDBRANCH  16  17
ENDBRANCH   1  16
TORSDOF 5
