REMARK  5 active torsions:
REMARK  status: ('A' for Active; 'I' for Inactive)
REMARK    1  A    between atoms: C2_2  and  O1_3 
REMARK    2  A    between atoms: O1_3  and  N1_4 
REMARK       I    between atoms: N1_4  and  C3_5 
REMARK       I    between atoms: C3_5  and  N2_6 
REMARK       I    between atoms: C3_5  and  N4_20 
REMARK    3  A    between atoms: N2_6  and  C4_8 
REMARK    4  A    between atoms: C7_12  and  C8_13 
REMARK    5  A    between atoms: C8_13  and  N3_14 
ROOT
HETATM    1  N1  UNL     1      -1.616   1.464  -0.404  1.00  0.00    -0.242 NA
HETATM    2  C3  UNL     1      -1.136   0.594   0.130  1.00  0.00     0.298 C 
HETATM    3  N2  UNL     1      -0.117   0.569   1.103  1.00  0.00    -0.306 N 
ATOM      4  H2  UNL     1      -0.371   0.783   2.067  1.00  0.00     0.170 HD
HETATM    5  N4  UNL     1      -1.665  -0.781  -0.066  1.00  0.00    -0.279 N 
HETATM    6  C12 UNL     1      -2.733  -1.114  -0.912  1.00  0.00     0.141 C 
HETATM    7  C13 UNL     1      -2.653  -2.625  -1.162  1.00  0.00     0.022 C 
HETATM    8  C14 UNL     1      -3.152  -3.372   0.044  1.00  0.00     0.013 C 
HETATM    9  C15 UNL     1      -2.189  -3.304   1.223  1.00  0.00     0.098 C 
HETATM   10  S2  UNL     1      -0.899  -2.082   0.866  1.00  0.00    -0.050 SA
ENDROOT
BRANCH   3  11
HETATM   11  C4  UNL     1       1.235   0.266   0.825  1.00  0.00     0.098 A 
HETATM   12  S1  UNL     1       2.306  -0.510   1.969  1.00  0.00    -0.075 SA
HETATM   13  C5  UNL     1       3.752  -0.424   1.107  1.00  0.00    -0.007 A 
HETATM   14  C6  UNL     1       3.411   0.216  -0.039  1.00  0.00    -0.023 A 
HETATM   15  C11 UNL     1       5.203  -0.866   1.016  1.00  0.00     0.047 C 
HETATM   16  C7  UNL     1       2.094   0.581  -0.219  1.00  0.00     0.067 A 
HETATM   17  C9  UNL     1       4.720   0.701  -0.697  1.00  0.00     0.041 C 
HETATM   18  C10 UNL     1       5.808   0.254   0.238  1.00  0.00     0.010 C 
BRANCH  16  19
HETATM   19  C8  UNL     1       1.574   1.143  -1.469  1.00  0.00    -0.034 C 
BRANCH  19  20
HETATM   20  N3  UNL     1       1.180   1.602  -2.508  1.00  0.00    -0.365 N 
ATOM     21  H32 UNL     1       2.152   1.338  -2.349  1.00  0.00     0.165 HD
ATOM     22  H31 UNL     1       0.818   1.993  -3.378  1.00  0.00     0.165 HD
ENDBRANCH  19  20
ENDBRANCH  16  19
ENDBRANCH   3  11
BRANCH   1  23
HETATM   23  O1  UNL     1      -2.002   2.638  -0.870  1.00  0.00    -0.206 OA
BRANCH  23  24
HETATM   24  C2  UNL     1      -2.375   3.513   0.292  1.00  0.00     0.213 C 
HETATM   25  C1  UNL     1      -3.841   3.781  -0.118  1.00  0.00     0.037 C 
ENDBRANCH  23  24
ENDBRANCH   1  23
TORSDOF 5
