REMARK  15 active torsions:
REMARK  status: ('A' for Active; 'I' for Inactive)
REMARK    1  A    between atoms: C3_3  and  C4_4 
REMARK    2  A    between atoms: C5_5  and  C6_6 
REMARK    3  A    between atoms: C7_7  and  C8_8 
REMARK    4  A    between atoms: C8_8  and  C9_9 
REMARK       I    between atoms: C9_9  and  N1_11 
REMARK       I    between atoms: N1_11  and  C10_13 
REMARK    5  A    between atoms: C10_13  and  C11_15 
REMARK    6  A    between atoms: C11_15  and  N2_16 
REMARK    7  A    between atoms: C15_20  and  C16_21 
REMARK    8  A    between atoms: C16_21  and  C17_22 
REMARK    9  A    between atoms: C16_21  and  N3_29 
REMARK   10  A    between atoms: C17_22  and  C18_23 
REMARK       I    between atoms: N3_29  and  C24_31 
REMARK   11  A    between atoms: C24_31  and  C25_33 
REMARK   12  A    between atoms: C25_33  and  N4_36 
REMARK   13  A    between atoms: C28_41  and  C29_42 
REMARK   14  A    between atoms: C29_42  and  O5_43 
REMARK   15  A    between atoms: C30_45  and  O6_46 
ROOT
HETATM    1  C1  UNL     1       2.172  -6.281   0.513  1.00  0.00     0.112 C 
HETATM    2  C2  UNL     1       3.025  -5.131   0.234  1.00  0.00    -0.106 C 
HETATM    3  C3  UNL     1       3.741  -4.170  -0.016  1.00  0.00    -0.079 C 
ENDROOT
BRANCH   3   4
HETATM    4  C4  UNL     1       4.606  -3.062  -0.318  1.00  0.00     0.061 C 
HETATM    5  C5  UNL     1       4.536  -1.923   0.338  1.00  0.00    -0.008 C 
BRANCH   5   6
HETATM    6  C6  UNL     1       5.331  -0.730   0.147  1.00  0.00     0.075 C 
HETATM    7  C7  UNL     1       4.597   0.552  -0.059  1.00  0.00     0.141 C 
HETATM    8  O4  UNL     1       4.519   0.871  -1.415  1.00  0.00    -0.374 OA
HETATM    9  C28 UNL     1       5.787   1.386  -1.771  1.00  0.00     0.177 C 
HETATM   10  C30 UNL     1       6.900   0.594  -1.123  1.00  0.00     0.183 C 
HETATM   11  C31 UNL     1       6.373  -0.852  -0.991  1.00  0.00     0.211 C 
HETATM   12  F1  UNL     1       5.803  -1.130  -2.192  1.00  0.00    -0.246 F 
BRANCH   7  13
HETATM   13  C8  UNL     1       3.243   0.649   0.614  1.00  0.00     0.136 C 
BRANCH  13  14
HETATM   14  C9  UNL     1       3.359   0.539   2.092  1.00  0.00     0.226 C 
HETATM   15  O1  UNL     1       4.547   0.429   2.603  1.00  0.00    -0.273 OA
HETATM   16  N1  UNL     1       2.328   0.539   3.025  1.00  0.00    -0.296 N 
HETATM   17  C10 UNL     1       0.951   0.672   2.819  1.00  0.00     0.252 C 
ATOM     18  H1  UNL     1       2.617   0.426   3.997  1.00  0.00     0.171 HD
HETATM   19  O2  UNL     1       0.159   0.711   3.837  1.00  0.00    -0.271 OA
BRANCH  17  20
HETATM   20  C11 UNL     1       0.319   0.778   1.506  1.00  0.00     0.376 C 
BRANCH  20  21
HETATM   21  N2  UNL     1      -1.158   1.015   1.700  1.00  0.00     0.107 N 
HETATM   22  C12 UNL     1      -1.274   2.360   2.256  1.00  0.00     0.274 C 
HETATM   23  C13 UNL     1      -2.248   3.099   1.405  1.00  0.00     0.033 C 
HETATM   24  C14 UNL     1      -2.155   2.416   0.060  1.00  0.00     0.043 C 
HETATM   25  C15 UNL     1      -1.759   0.986   0.387  1.00  0.00     0.269 C 
BRANCH  25  26
HETATM   26  C16 UNL     1      -2.942   0.075   0.402  1.00  0.00     0.023 C 
BRANCH  26  27
HETATM   27  C17 UNL     1      -3.710  -0.083  -0.862  1.00  0.00     0.059 C 
BRANCH  27  28
HETATM   28  C18 UNL     1      -3.036  -0.666  -2.059  1.00  0.00    -0.009 C 
HETATM   29  C19 UNL     1      -1.883   0.001  -2.678  1.00  0.00     0.005 C 
HETATM   30  C20 UNL     1      -1.872  -0.197  -4.210  1.00  0.00     0.000 C 
HETATM   31  C21 UNL     1      -3.131   0.430  -4.789  1.00  0.00     0.000 C 
HETATM   32  C22 UNL     1      -4.368  -0.151  -4.144  1.00  0.00     0.000 C 
HETATM   33  C23 UNL     1      -4.055  -1.154  -3.089  1.00  0.00     0.005 C 
ENDBRANCH  27  28
ENDBRANCH  26  27
BRANCH  26  34
HETATM   34  N3  UNL     1      -3.739   0.208   1.602  1.00  0.00    -0.330 N 
HETATM   35  C24 UNL     1      -4.992  -0.168   1.979  1.00  0.00     0.257 C 
HETATM   36  O3  UNL     1      -5.822  -0.771   1.259  1.00  0.00    -0.270 OA
ATOM     37  H3  UNL     1      -3.243   0.702   2.344  1.00  0.00     0.168 HD
BRANCH  35  38
HETATM   38  C25 UNL     1      -5.499   0.130   3.370  1.00  0.00     0.196 C 
HETATM   39  C26 UNL     1      -4.961   1.427   3.914  1.00  0.00     0.056 C 
HETATM   40  C27 UNL     1      -5.068  -1.008   4.306  1.00  0.00     0.056 C 
BRANCH  38  41
HETATM   41  N4  UNL     1      -6.935   0.163   3.441  1.00  0.00    -0.062 N 
ATOM     42  H43 UNL     1      -7.320   0.820   2.762  1.00  0.00     0.275 HD
ATOM     43  H42 UNL     1      -7.339  -0.702   3.081  1.00  0.00     0.275 HD
ATOM     44  H41 UNL     1      -7.277   0.364   4.380  1.00  0.00     0.275 HD
ENDBRANCH  38  41
ENDBRANCH  35  38
ENDBRANCH  26  34
ENDBRANCH  25  26
ENDBRANCH  20  21
ENDBRANCH  17  20
ENDBRANCH  13  14
ENDBRANCH   7  13
BRANCH   9  45
HETATM   45  C29 UNL     1       5.930   1.548  -3.251  1.00  0.00     0.198 C 
BRANCH  45  46
HETATM   46  O5  UNL     1       7.208   2.067  -3.503  1.00  0.00    -0.398 OA
ATOM     47  H5  UNL     1       7.299   2.170  -4.443  1.00  0.00     0.209 HD
ENDBRANCH  45  46
ENDBRANCH   9  45
BRANCH  10  48
HETATM   48  O6  UNL     1       8.063   0.551  -1.850  1.00  0.00    -0.390 OA
ATOM     49  H6  UNL     1       8.762   0.053  -1.443  1.00  0.00     0.210 HD
ENDBRANCH  10  48
ENDBRANCH   5   6
ENDBRANCH   3   4
TORSDOF 15
