REMARK  5 active torsions:
REMARK  status: ('A' for Active; 'I' for Inactive)
REMARK    1  A    between atoms: S1_2  and  C2_3 
REMARK    2  A    between atoms: C2_3  and  C3_4 
REMARK    3  A    between atoms: C3_4  and  C4_5 
REMARK    4  A    between atoms: C10_11  and  N1_12 
REMARK       I    between atoms: N1_12  and  C11_14 
REMARK    5  A    between atoms: C11_14  and  C12_16 
ROOT
HETATM    1  C4  UNL     1       3.388   0.050  -1.272  1.00  0.00    -0.005 C 
HETATM    2  C5  UNL     1       2.514   1.243  -1.191  1.00  0.00    -0.008 C 
HETATM    3  C6  UNL     1       1.800   1.142  -2.546  1.00  0.00     0.005 C 
HETATM    4  C7  UNL     1       1.668  -0.346  -2.797  1.00  0.00     0.005 C 
HETATM    5  C8  UNL     1       2.400  -1.024  -1.637  1.00  0.00    -0.008 C 
HETATM    6  C9  UNL     1       1.390  -1.292  -0.573  1.00  0.00     0.030 C 
HETATM    7  C10 UNL     1       0.817  -0.109   0.104  1.00  0.00     0.085 C 
HETATM    8  C18 UNL     1       1.456   1.203  -0.141  1.00  0.00     0.030 C 
ENDROOT
BRANCH   7   9
HETATM    9  N1  UNL     1      -0.629  -0.100  -0.152  1.00  0.00    -0.356 N 
HETATM   10  C11 UNL     1      -1.608  -0.300   0.830  1.00  0.00     0.223 C 
HETATM   11  O1  UNL     1      -1.269  -0.500   2.005  1.00  0.00    -0.273 OA
ATOM     12  H1  UNL     1      -0.942   0.063  -1.109  1.00  0.00     0.162 HD
BRANCH  10  13
HETATM   13  C12 UNL     1      -3.035  -0.275   0.484  1.00  0.00     0.095 C 
HETATM   14  C13 UNL     1      -3.825  -0.513   1.751  1.00  0.00     0.015 C 
HETATM   15  C14 UNL     1      -5.124  -1.227   1.497  1.00  0.00     0.002 C 
HETATM   16  C15 UNL     1      -6.088  -0.198   0.918  1.00  0.00     0.019 C 
HETATM   17  C16 UNL     1      -5.534   0.148  -0.468  1.00  0.00     0.113 C 
HETATM   18  N2  UNL     1      -4.697   1.299  -0.440  1.00  0.00    -0.420 N 
HETATM   19  C17 UNL     1      -3.343   1.092  -0.079  1.00  0.00     0.127 C 
ATOM     20  H2  UNL     1      -5.054   2.227  -0.668  1.00  0.00     0.153 HD
ENDBRANCH  10  13
ENDBRANCH   7   9
BRANCH   1  21
HETATM   21  C3  UNL     1       4.227  -0.242  -0.092  1.00  0.00     0.015 C 
BRANCH  21  22
HETATM   22  C2  UNL     1       5.143   0.929   0.158  1.00  0.00     0.073 C 
BRANCH  22  23
HETATM   23  S1  UNL     1       6.206   0.625   1.605  1.00  0.00    -0.173 SA
HETATM   24  C1  UNL     1       5.261   0.542   3.126  1.00  0.00     0.089 C 
ENDBRANCH  22  23
ENDBRANCH  21  22
ENDBRANCH   1  21
TORSDOF 5
