REMARK  15 active torsions:
REMARK  status: ('A' for Active; 'I' for Inactive)
REMARK    1  A    between atoms: N2_3  and  C2_5 
REMARK    2  A    between atoms: C4_7  and  N3_8 
REMARK    3  A    between atoms: C5_12  and  O1_13 
REMARK    4  A    between atoms: C6_15  and  N4_16 
REMARK    5  A    between atoms: C7_20  and  O2_21 
REMARK    6  A    between atoms: O2_21  and  C8_22 
REMARK    7  A    between atoms: C9_24  and  O4_25 
REMARK    8  A    between atoms: O4_25  and  C10_26 
REMARK    9  A    between atoms: C11_27  and  N5_28 
REMARK   10  A    between atoms: C12_32  and  O5_33 
REMARK   11  A    between atoms: C13_35  and  N6_36 
REMARK   12  A    between atoms: N6_36  and  C14_38 
REMARK   13  A    between atoms: C15_40  and  N7_41 
REMARK   14  A    between atoms: C16_45  and  N8_46 
REMARK   15  A    between atoms: C18_51  and  N9_52 
ROOT
HETATM    1  C8  UNL     1      -0.759  -0.067   1.265  1.00  0.00     0.293 C 
HETATM    2  O3  UNL     1       0.466   0.297   0.751  1.00  0.00    -0.327 OA
HETATM    3  C9  UNL     1       0.908  -0.915  -0.222  1.00  0.00     0.293 C 
HETATM    4  C16 UNL     1       1.372  -1.969   1.060  1.00  0.00     0.240 C 
HETATM    5  C17 UNL     1       0.113  -2.328   1.759  1.00  0.00     0.075 C 
HETATM    6  C18 UNL     1      -0.445  -1.059   2.349  1.00  0.00     0.240 C 
ENDROOT
BRANCH   1   7
HETATM    7  O2  UNL     1      -1.597  -0.415   0.280  1.00  0.00    -0.350 OA
BRANCH   7   8
HETATM    8  C7  UNL     1      -2.714   0.277  -0.007  1.00  0.00     0.180 C 
HETATM    9  C2  UNL     1      -3.943  -0.601  -0.069  1.00  0.00     0.115 C 
HETATM   10  C3  UNL     1      -5.166   0.312   0.002  1.00  0.00     0.063 C 
HETATM   11  C4  UNL     1      -5.193   1.042  -1.335  1.00  0.00     0.216 C 
HETATM   12  C5  UNL     1      -3.897   1.804  -1.487  1.00  0.00     0.181 C 
HETATM   13  C6  UNL     1      -2.689   0.892  -1.422  1.00  0.00     0.244 C 
BRANCH   9  14
HETATM   14  N2  UNL     1      -4.031  -1.635   0.881  1.00  0.00    -0.381 N 
HETATM   15  C1  UNL     1      -4.003  -2.868   0.539  1.00  0.00     0.185 C 
HETATM   16  N1  UNL     1      -3.877  -3.196  -0.860  1.00  0.00    -0.097 NA
ATOM     17  H2  UNL     1      -4.119  -1.396   1.869  1.00  0.00     0.160 HD
ENDBRANCH   9  14
BRANCH  11  18
HETATM   18  N3  UNL     1      -6.257   2.019  -1.263  1.00  0.00    -0.072 N 
ATOM     19  H33 UNL     1      -7.158   1.612  -1.010  1.00  0.00     0.274 HD
ATOM     20  H32 UNL     1      -6.170   2.648  -0.465  1.00  0.00     0.274 HD
ATOM     21  H31 UNL     1      -6.275   2.508  -2.158  1.00  0.00     0.274 HD
ENDBRANCH  11  18
BRANCH  12  22
HETATM   22  O1  UNL     1      -3.930   2.535  -2.664  1.00  0.00    -0.391 OA
ATOM     23  H1  UNL     1      -3.115   3.014  -2.760  1.00  0.00     0.210 HD
ENDBRANCH  12  22
BRANCH  13  24
HETATM   24  N4  UNL     1      -1.526   1.723  -1.606  1.00  0.00    -0.070 N 
ATOM     25  H43 UNL     1      -1.562   2.281  -2.459  1.00  0.00     0.274 HD
ATOM     26  H42 UNL     1      -1.479   2.499  -0.946  1.00  0.00     0.274 HD
ATOM     27  H41 UNL     1      -0.713   1.109  -1.562  1.00  0.00     0.274 HD
ENDBRANCH  13  24
ENDBRANCH   7   8
ENDBRANCH   1   7
BRANCH   6  28
HETATM   28  N9  UNL     1      -1.415  -1.224   3.367  1.00  0.00    -0.070 N 
ATOM     29  H93 UNL     1      -1.628  -0.318   3.785  1.00  0.00     0.274 HD
ATOM     30  H92 UNL     1      -2.315  -1.453   2.946  1.00  0.00     0.274 HD
ATOM     31  H91 UNL     1      -1.202  -1.897   4.103  1.00  0.00     0.274 HD
ENDBRANCH   6  28
BRANCH   3  32
HETATM   32  O4  UNL     1       2.080  -0.420  -0.322  1.00  0.00    -0.349 OA
BRANCH  32  33
HETATM   33  C10 UNL     1       2.755   0.357   0.548  1.00  0.00     0.190 C 
HETATM   34  C11 UNL     1       3.020   1.759   0.012  1.00  0.00     0.245 C 
HETATM   35  C12 UNL     1       4.456   1.873  -0.358  1.00  0.00     0.176 C 
HETATM   36  C13 UNL     1       5.033   0.476  -0.242  1.00  0.00     0.147 C 
HETATM   37  C15 UNL     1       4.167  -0.122   0.855  1.00  0.00     0.239 C 
BRANCH  34  38
HETATM   38  N5  UNL     1       2.120   2.060  -1.087  1.00  0.00    -0.070 N 
ATOM     39  H53 UNL     1       2.171   1.356  -1.823  1.00  0.00     0.274 HD
ATOM     40  H52 UNL     1       1.143   1.933  -0.823  1.00  0.00     0.274 HD
ATOM     41  H51 UNL     1       2.297   2.998  -1.446  1.00  0.00     0.274 HD
ENDBRANCH  34  38
BRANCH  35  42
HETATM   42  O5  UNL     1       4.718   2.404  -1.596  1.00  0.00    -0.391 OA
ATOM     43  H5  UNL     1       5.635   2.477  -1.832  1.00  0.00     0.210 HD
ENDBRANCH  35  42
BRANCH  36  44
HETATM   44  N6  UNL     1       6.394   0.463   0.215  1.00  0.00    -0.359 N 
ATOM     45  H6  UNL     1       6.600   0.918   1.104  1.00  0.00     0.162 HD
BRANCH  44  46
HETATM   46  C14 UNL     1       7.456  -0.130  -0.473  1.00  0.00     0.348 C 
HETATM   47  O6  UNL     1       7.246  -0.700  -1.569  1.00  0.00    -0.284 OA
ENDBRANCH  44  46
ENDBRANCH  36  44
BRANCH  37  48
HETATM   48  N7  UNL     1       4.574   0.409   2.148  1.00  0.00    -0.070 N 
ATOM     49  H73 UNL     1       4.488   1.424   2.196  1.00  0.00     0.274 HD
ATOM     50  H72 UNL     1       3.914   0.175   2.890  1.00  0.00     0.274 HD
ATOM     51  H71 UNL     1       5.520   0.088   2.354  1.00  0.00     0.274 HD
ENDBRANCH  37  48
ENDBRANCH  32  33
ENDBRANCH   3  32
BRANCH   4  52
HETATM   52  N8  UNL     1       1.919  -3.031   0.289  1.00  0.00    -0.070 N 
ATOM     53  H83 UNL     1       1.310  -3.430  -0.425  1.00  0.00     0.274 HD
ATOM     54  H82 UNL     1       2.652  -2.776  -0.373  1.00  0.00     0.274 HD
ATOM     55  H81 UNL     1       2.194  -3.655   1.048  1.00  0.00     0.274 HD
ENDBRANCH   4  52
TORSDOF 15
