REMARK  8 active torsions:
REMARK  status: ('A' for Active; 'I' for Inactive)
REMARK    1  A    between atoms: C2_2  and  O2_4 
REMARK    2  A    between atoms: O2_4  and  C3_5 
REMARK    3  A    between atoms: C13_16  and  O4_17 
REMARK    4  A    between atoms: O4_17  and  C14_18 
REMARK    5  A    between atoms: C17_22  and  O6_23 
REMARK    6  A    between atoms: C19_26  and  O7_27 
REMARK    7  A    between atoms: O7_27  and  C20_28 
REMARK    8  A    between atoms: C22_31  and  O9_33 
ROOT
HETATM    1  C3  UNL     1      -1.709   0.703   0.585  1.00  0.00     0.166 C 
HETATM    2  C4  UNL     1      -2.391   1.148  -0.628  1.00  0.00     0.078 C 
HETATM    3  C5  UNL     1      -3.100   0.193  -1.483  1.00  0.00     0.092 A 
HETATM    4  C6  UNL     1      -4.611   0.534  -1.600  1.00  0.00     0.049 C 
HETATM    5  O3  UNL     1      -2.677   0.181  -2.934  1.00  0.00    -0.364 OA
HETATM    6  C7  UNL     1      -2.700  -0.990  -1.979  1.00  0.00     0.089 A 
HETATM    7  C8  UNL     1      -3.805  -1.997  -2.394  1.00  0.00     0.049 C 
HETATM    8  C9  UNL     1      -1.392  -1.623  -2.061  1.00  0.00     0.045 C 
HETATM    9  C10 UNL     1      -0.182  -0.908  -1.555  1.00  0.00     0.041 C 
HETATM   10  C11 UNL     1      -0.008  -1.000  -0.046  1.00  0.00    -0.036 C 
HETATM   11  C12 UNL     1      -0.242   0.359   0.569  1.00  0.00    -0.015 C 
HETATM   12  C13 UNL     1       0.708   1.434   0.297  1.00  0.00     0.170 C 
HETATM   13  C16 UNL     1       2.066   0.768   0.129  1.00  0.00     0.058 A 
HETATM   14  C17 UNL     1       3.247   1.049   0.888  1.00  0.00     0.132 A 
HETATM   15  C18 UNL     1       2.271   0.123   1.478  1.00  0.00     0.057 A 
HETATM   16  C19 UNL     1       2.222  -1.348   1.217  1.00  0.00     0.177 C 
HETATM   17  C22 UNL     1       1.063  -1.851   0.440  1.00  0.00     0.105 C 
HETATM   18  C23 UNL     1       1.670  -2.691  -0.707  1.00  0.00     0.053 C 
ENDROOT
BRANCH   1  19
HETATM   19  O2  UNL     1      -1.971   1.522   1.720  1.00  0.00    -0.312 OA
BRANCH  19  20
HETATM   20  C2  UNL     1      -2.662   1.147   2.832  1.00  0.00     0.255 C 
HETATM   21  C1  UNL     1      -2.892   2.056   3.969  1.00  0.00     0.126 C 
HETATM   22  O1  UNL     1      -3.117  -0.017   2.882  1.00  0.00    -0.266 OA
ENDBRANCH  19  20
ENDBRANCH   1  19
BRANCH  12  23
HETATM   23  O4  UNL     1       0.590   2.259  -0.784  1.00  0.00    -0.311 OA
BRANCH  23  24
HETATM   24  C14 UNL     1       0.660   3.630  -0.660  1.00  0.00     0.255 C 
HETATM   25  C15 UNL     1       0.533   4.534  -1.836  1.00  0.00     0.126 C 
HETATM   26  O5  UNL     1       0.838   4.089   0.495  1.00  0.00    -0.266 OA
ENDBRANCH  23  24
ENDBRANCH  12  23
BRANCH  17  27
HETATM   27  O9  UNL     1       0.550  -2.929   1.237  1.00  0.00    -0.383 OA
ATOM     28  H9  UNL     1       1.251  -3.486   1.555  1.00  0.00     0.211 HD
ENDBRANCH  17  27
BRANCH  16  29
HETATM   29  O7  UNL     1       3.486  -1.654   0.600  1.00  0.00    -0.312 OA
BRANCH  29  30
HETATM   30  C20 UNL     1       4.494  -2.356   1.220  1.00  0.00     0.255 C 
HETATM   31  C21 UNL     1       5.789  -2.682   0.619  1.00  0.00     0.126 C 
HETATM   32  O8  UNL     1       4.280  -2.750   2.407  1.00  0.00    -0.266 OA
ENDBRANCH  29  30
ENDBRANCH  16  29
BRANCH  14  33
HETATM   33  O6  UNL     1       3.500   2.255   1.535  1.00  0.00    -0.395 OA
ATOM     34  H6  UNL     1       4.284   2.441   2.039  1.00  0.00     0.210 HD
ENDBRANCH  14  33
TORSDOF 8
