REMARK  6 active torsions:
REMARK  status: ('A' for Active; 'I' for Inactive)
REMARK    1  A    between atoms: C3_4  and  N2_5 
REMARK    2  A    between atoms: N2_5  and  O1_6 
REMARK    3  A    between atoms: N2_5  and  C4_8 
REMARK    4  A    between atoms: C4_8  and  C5_9 
REMARK    5  A    between atoms: C13_17  and  O2_19 
REMARK    6  A    between atoms: C23_30  and  O3_31 
ROOT
HETATM    1  C5  UNL     1       0.251  -0.225  -0.184  1.00  0.00     0.030 C 
HETATM    2  C6  UNL     1      -0.360   0.418  -1.402  1.00  0.00     0.019 C 
HETATM    3  C7  UNL     1      -1.832   0.277  -1.553  1.00  0.00     0.014 C 
HETATM    4  C8  UNL     1      -2.501   1.021  -0.422  1.00  0.00    -0.009 C 
HETATM    5  C9  UNL     1      -2.501   2.512  -0.773  1.00  0.00     0.018 C 
HETATM    6  C10 UNL     1      -1.774   0.843   0.872  1.00  0.00     0.002 C 
HETATM    7  C11 UNL     1      -2.895   0.725   1.861  1.00  0.00     0.009 C 
HETATM    8  C12 UNL     1      -4.102   0.171   1.167  1.00  0.00     0.038 C 
HETATM    9  C13 UNL     1      -3.919   0.603  -0.262  1.00  0.00     0.062 C 
HETATM   10  C14 UNL     1      -4.901   1.736  -0.524  1.00  0.00     0.046 C 
HETATM   11  C15 UNL     1      -0.838  -0.312   0.927  1.00  0.00     0.007 C 
HETATM   12  C16 UNL     1      -1.483  -1.639   1.051  1.00  0.00     0.007 C 
HETATM   13  C17 UNL     1      -0.498  -2.728   1.337  1.00  0.00     0.008 C 
HETATM   14  C18 UNL     1       0.906  -2.343   0.839  1.00  0.00     0.026 C 
HETATM   15  C19 UNL     1       1.669  -3.615   0.767  1.00  0.00     0.058 C 
HETATM   16  C20 UNL     1       1.812  -4.141  -0.613  1.00  0.00     0.008 C 
HETATM   17 CL1  UNL     1       1.874  -5.870  -0.869  1.00  0.00    -0.089 Cl
HETATM   18  C21 UNL     1       1.893  -3.334  -1.634  1.00  0.00    -0.004 C 
HETATM   19  C22 UNL     1       1.839  -1.843  -1.380  1.00  0.00     0.068 C 
HETATM   20  C23 UNL     1       0.698  -1.621  -0.471  1.00  0.00     0.078 C 
ENDROOT
BRANCH   1  21
HETATM   21  C4  UNL     1       1.286   0.681   0.424  1.00  0.00     0.111 C 
BRANCH  21  22
HETATM   22  N2  UNL     1       2.367   1.133  -0.346  1.00  0.00    -0.220 N 
BRANCH  22  23
HETATM   23  C3  UNL     1       3.512   1.694   0.290  1.00  0.00     0.165 A 
HETATM   24  C2  UNL     1       4.678   2.190  -0.306  1.00  0.00     0.163 A 
HETATM   25  N1  UNL     1       5.504   2.623   0.652  1.00  0.00    -0.290 N 
HETATM   26  C1  UNL     1       6.798   3.201   0.451  1.00  0.00     0.178 C 
HETATM   27  N4  UNL     1       4.901   2.416   1.797  1.00  0.00    -0.240 N 
HETATM   28  N3  UNL     1       3.719   1.866   1.611  1.00  0.00    -0.268 N 
ATOM     29  H4  UNL     1       5.294   2.649   2.709  1.00  0.00     0.208 HD
ATOM     30  H3  UNL     1       3.064   1.611   2.350  1.00  0.00     0.190 HD
ENDBRANCH  22  23
BRANCH  22  31
HETATM   31  O1  UNL     1       2.378   1.126  -1.575  1.00  0.00    -0.282 OA
ATOM     32  H1  UNL     1       1.615   0.752  -1.999  1.00  0.00     0.245 HD
ENDBRANCH  22  31
ENDBRANCH  21  22
ENDBRANCH   1  21
BRANCH  20  33
HETATM   33  O3  UNL     1      -0.392  -2.260  -1.168  1.00  0.00    -0.388 OA
ATOM     34  H3  UNL     1      -0.108  -3.148  -1.351  1.00  0.00     0.210 HD
ENDBRANCH  20  33
BRANCH   9  35
HETATM   35  O2  UNL     1      -4.304  -0.432  -1.124  1.00  0.00    -0.389 OA
ATOM     36  H2  UNL     1      -5.210  -0.699  -1.022  1.00  0.00     0.210 HD
ENDBRANCH   9  35
TORSDOF 6
