REMARK  3 active torsions:
REMARK  status: ('A' for Active; 'I' for Inactive)
REMARK    1  A    between atoms: C2_2  and  C3_3 
REMARK    2  A    between atoms: C3_3  and  O1_4 
REMARK    3  A    between atoms: O1_4  and  C4_5 
ROOT
HETATM    1  C4  UNL     1      -0.589   0.635  -0.702  1.00  0.00     0.159 A 
HETATM    2  C5  UNL     1      -1.814   1.250  -1.001  1.00  0.00     0.145 A 
HETATM    3  N1  UNL     1      -2.586   0.383  -1.647  1.00  0.00    -0.358 N 
ATOM      4  H1  UNL     1      -3.531   0.564  -1.985  1.00  0.00     0.166 HD
HETATM    5  C6  UNL     1      -1.919  -0.764  -1.780  1.00  0.00     0.182 A 
HETATM    6  N2  UNL     1      -0.716  -0.604  -1.208  1.00  0.00    -0.332 N 
ATOM      7  H2  UNL     1       0.004  -1.325  -1.163  1.00  0.00     0.168 HD
ENDROOT
BRANCH   1   8
HETATM    8  O1  UNL     1       0.478   1.211  -0.036  1.00  0.00    -0.331 OA
BRANCH   8   9
HETATM    9  C3  UNL     1       1.640   0.454   0.186  1.00  0.00     0.204 C 
BRANCH   9  10
HETATM   10  C2  UNL     1       1.422  -0.767   0.995  1.00  0.00    -0.011 C 
HETATM   11  C1  UNL     1       2.070  -0.889   2.125  1.00  0.00     0.009 C 
ENDBRANCH   9  10
ENDBRANCH   8   9
ENDBRANCH   1   8
TORSDOF 3
