REMARK  3 active torsions:
REMARK  status: ('A' for Active; 'I' for Inactive)
REMARK    1  A    between atoms: S1_2  and  C2_4 
REMARK    2  A    between atoms: C2_4  and  C3_5 
REMARK    3  A    between atoms: C3_5  and  C4_6 
ROOT
HETATM    1  C4  UNL     1       0.396   0.149   0.390  1.00  0.00     0.186 C 
HETATM    2  C5  UNL     1       1.635   0.512   1.177  1.00  0.00     0.033 C 
HETATM    3  C6  UNL     1       2.909   0.022   0.641  1.00  0.00     0.004 C 
HETATM    4  C7  UNL     1       2.880  -0.986  -0.437  1.00  0.00     0.027 C 
HETATM    5  C8  UNL     1       1.553  -1.264  -1.051  1.00  0.00     0.232 C 
HETATM    6  N1  UNL     1       0.642  -0.161  -0.974  1.00  0.00    -0.071 N 
ATOM      7  H11 UNL     1       0.969   0.648  -1.502  1.00  0.00     0.277 HD
ATOM      8  H12 UNL     1      -0.219  -0.334  -1.493  1.00  0.00     0.277 HD
ENDROOT
BRANCH   1   9
HETATM    9  C3  UNL     1      -0.596   1.252   0.632  1.00  0.00     0.045 C 
BRANCH   9  10
HETATM   10  C2  UNL     1      -1.902   1.146  -0.047  1.00  0.00     0.110 C 
BRANCH  10  11
HETATM   11  S1  UNL     1      -2.788  -0.312   0.412  1.00  0.00     0.010 S 
HETATM   12  C1  UNL     1      -4.360  -0.277  -0.481  1.00  0.00     0.127 C 
HETATM   13  O1  UNL     1      -1.960  -1.667  -0.183  1.00  0.00    -0.258 OA
ENDBRANCH  10  11
ENDBRANCH   9  10
ENDBRANCH   1   9
TORSDOF 3
