REMARK  3 active torsions:
REMARK  status: ('A' for Active; 'I' for Inactive)
REMARK    1  A    between atoms: C4_5  and  C5_6 
REMARK    2  A    between atoms: C5_6  and  N1_7 
REMARK    3  A    between atoms: N1_7  and  C6_9 
ROOT
HETATM    1  C5  UNL     1      -0.057  -1.039  -0.245  1.00  0.00     0.118 C 
ENDROOT
BRANCH   1   2
HETATM    2  C4  UNL     1      -1.216  -0.066  -0.322  1.00  0.00     0.006 C 
HETATM    3  C3  UNL     1      -2.178  -0.581  -1.368  1.00  0.00     0.009 C 
HETATM    4  C2  UNL     1      -3.516  -0.073  -0.866  1.00  0.00     0.037 C 
HETATM    5  C1  UNL     1      -3.422  -0.334   0.617  1.00  0.00     0.170 C 
HETATM    6  F1  UNL     1      -4.339   0.433   1.276  1.00  0.00    -0.249 F 
HETATM    7  C11 UNL     1      -1.986  -0.012   0.970  1.00  0.00     0.043 C 
ENDBRANCH   1   2
BRANCH   1   8
HETATM    8  N1  UNL     1       0.927  -0.646   0.721  1.00  0.00    -0.416 N 
ATOM      9  H1  UNL     1       1.085  -1.170   1.581  1.00  0.00     0.153 HD
BRANCH   8  10
HETATM   10  C6  UNL     1       1.662   0.515   0.401  1.00  0.00     0.084 C 
HETATM   11  C7  UNL     1       2.548   0.495  -0.794  1.00  0.00     0.009 C 
HETATM   12  C8  UNL     1       3.282   1.618  -0.090  1.00  0.00     0.013 C 
HETATM   13  C10 UNL     1       3.451  -0.416  -0.015  1.00  0.00     0.013 C 
HETATM   14  C9  UNL     1       3.005   0.611   1.000  1.00  0.00     0.009 C 
ENDBRANCH   8  10
ENDBRANCH   1   8
TORSDOF 3
