REMARK  8 active torsions:
REMARK  status: ('A' for Active; 'I' for Inactive)
REMARK    1  A    between atoms: C5_5  and  C6_6 
REMARK       I    between atoms: C6_6  and  N1_8 
REMARK    2  A    between atoms: N1_8  and  C7_10 
REMARK    3  A    between atoms: C7_10  and  C8_11 
REMARK    4  A    between atoms: C8_11  and  C9_12 
REMARK    5  A    between atoms: C9_12  and  C10_13 
REMARK    6  A    between atoms: C10_13  and  N2_14 
REMARK    7  A    between atoms: C23_27  and  O2_28 
REMARK    8  A    between atoms: C23_27  and  C24_30 
ROOT
HETATM    1  N2  UNL     1      -1.849   1.493  -0.549  1.00  0.00     0.093 N 
HETATM    2  C11 UNL     1      -2.522   2.641  -0.081  1.00  0.00     0.273 C 
HETATM    3  C12 UNL     1      -3.128   2.519   1.274  1.00  0.00     0.031 C 
HETATM    4  C13 UNL     1      -3.125   1.156   1.844  1.00  0.00     0.009 C 
HETATM    5  C14 UNL     1      -3.194   0.009   0.864  1.00  0.00     0.024 C 
HETATM    6  C15 UNL     1      -2.612   0.265  -0.476  1.00  0.00     0.227 C 
HETATM    7  C16 UNL     1      -3.561   0.150  -1.636  1.00  0.00     0.037 C 
HETATM    8  C17 UNL     1      -4.990   0.417  -1.351  1.00  0.00     0.015 C 
HETATM    9  C18 UNL     1      -5.534  -0.181  -0.121  1.00  0.00    -0.004 C 
HETATM   10  C19 UNL     1      -6.394   0.884   0.585  1.00  0.00     0.019 C 
HETATM   11  C20 UNL     1      -4.541  -0.658   0.868  1.00  0.00     0.003 C 
HETATM   12  C21 UNL     1      -4.328  -2.138   0.589  1.00  0.00     0.009 C 
HETATM   13  C22 UNL     1      -5.500  -2.587  -0.227  1.00  0.00     0.045 C 
HETATM   14  C23 UNL     1      -6.416  -1.382  -0.283  1.00  0.00     0.124 C 
ENDROOT
BRANCH   1  15
HETATM   15  C10 UNL     1      -0.514   1.296  -0.039  1.00  0.00     0.273 C 
BRANCH  15  16
HETATM   16  C9  UNL     1       0.462   2.309  -0.524  1.00  0.00     0.032 C 
BRANCH  16  17
HETATM   17  C8  UNL     1       1.836   2.079   0.047  1.00  0.00     0.021 C 
BRANCH  17  18
HETATM   18  C7  UNL     1       2.356   0.718  -0.351  1.00  0.00     0.122 C 
BRANCH  18  19
HETATM   19  N1  UNL     1       3.697   0.587   0.240  1.00  0.00    -0.361 N 
HETATM   20  C6  UNL     1       4.458  -0.593   0.046  1.00  0.00     0.221 C 
HETATM   21  O1  UNL     1       3.964  -1.519  -0.640  1.00  0.00    -0.273 OA
ATOM     22  H1  UNL     1       4.082   1.352   0.794  1.00  0.00     0.162 HD
BRANCH  20  23
HETATM   23  C5  UNL     1       5.807  -0.740   0.633  1.00  0.00     0.078 C 
HETATM   24  C4  UNL     1       6.385  -2.076   0.295  1.00  0.00     0.014 C 
HETATM   25  C3  UNL     1       7.870  -2.170   0.488  1.00  0.00     0.005 C 
HETATM   26  C2  UNL     1       8.546  -1.032  -0.234  1.00  0.00    -0.019 C 
HETATM   27  C1  UNL     1      10.037  -1.148  -0.228  1.00  0.00     0.010 C 
HETATM   28  C26 UNL     1       8.108   0.253   0.475  1.00  0.00     0.005 C 
HETATM   29  C25 UNL     1       6.641   0.420   0.154  1.00  0.00     0.014 C 
ENDBRANCH  20  23
ENDBRANCH  18  19
ENDBRANCH  17  18
ENDBRANCH  16  17
ENDBRANCH  15  16
ENDBRANCH   1  15
BRANCH  14  30
HETATM   30  O2  UNL     1      -7.295  -1.517   0.793  1.00  0.00    -0.383 OA
ATOM     31  H2  UNL     1      -7.854  -2.278   0.690  1.00  0.00     0.210 HD
ENDBRANCH  14  30
BRANCH  14  32
HETATM   32  C24 UNL     1      -7.215  -1.477  -1.527  1.00  0.00     0.388 C 
HETATM   33  F1  UNL     1      -7.940  -2.680  -1.410  1.00  0.00    -0.211 F 
HETATM   34  F2  UNL     1      -8.155  -0.497  -1.695  1.00  0.00    -0.211 F 
ENDBRANCH  14  32
TORSDOF 8
