REMARK  14 active torsions:
REMARK  status: ('A' for Active; 'I' for Inactive)
REMARK    1  A    between atoms: C2_2  and  N1_3 
REMARK       I    between atoms: N1_3  and  C3_5 
REMARK    2  A    between atoms: C3_5  and  C4_7 
REMARK    3  A    between atoms: C6_11  and  C7_12 
REMARK    4  A    between atoms: C7_12  and  O2_13 
REMARK    5  A    between atoms: C7_12  and  N3_15 
REMARK    6  A    between atoms: N3_15  and  C8_17 
REMARK    7  A    between atoms: C8_17  and  C9_18 
REMARK    8  A    between atoms: C9_18  and  N4_19 
REMARK    9  A    between atoms: N5_22  and  C12_23 
REMARK   10  A    between atoms: C14_26  and  N6_27 
REMARK   11  A    between atoms: N6_27  and  C16_29 
REMARK   12  A    between atoms: C16_29  and  C17_30 
REMARK   13  A    between atoms: C24_39  and  N8_40 
REMARK   14  A    between atoms: N8_40  and  C26_42 
ROOT
HETATM    1  C7  UNL     1      -1.085   1.941  -1.670  1.00  0.00     0.164 C 
ENDROOT
BRANCH   1   2
HETATM    2  C6  UNL     1      -2.294   1.726  -0.957  1.00  0.00     0.091 A 
HETATM    3  N2  UNL     1      -2.557   2.588   0.057  1.00  0.00    -0.361 N 
HETATM    4  C5  UNL     1      -3.625   2.571   0.824  1.00  0.00     0.108 A 
ATOM      5  H2  UNL     1      -1.865   3.314   0.241  1.00  0.00     0.165 HD
HETATM    6  C4  UNL     1      -4.610   1.580   0.600  1.00  0.00     0.074 A 
HETATM    7  C24 UNL     1      -4.412   0.680  -0.401  1.00  0.00     0.056 A 
HETATM    8  C22 UNL     1      -3.252   0.775  -1.164  1.00  0.00    -0.003 A 
HETATM    9  C23 UNL     1      -3.083  -0.161  -2.277  1.00  0.00     0.053 C 
BRANCH   6  10
HETATM   10  C3  UNL     1      -5.757   1.728   1.464  1.00  0.00     0.255 C 
HETATM   11  N1  UNL     1      -7.118   1.819   1.162  1.00  0.00    -0.357 N 
ATOM     12  H1  UNL     1      -7.422   1.787   0.189  1.00  0.00     0.162 HD
HETATM   13  O1  UNL     1      -5.454   1.795   2.720  1.00  0.00    -0.268 OA
BRANCH  11  14
HETATM   14  C2  UNL     1      -8.122   1.962   2.239  1.00  0.00     0.118 C 
HETATM   15  C1  UNL     1      -7.823   3.226   3.006  1.00  0.00     0.026 C 
ENDBRANCH  11  14
ENDBRANCH   6  10
BRANCH   7  16
HETATM   16  N8  UNL     1      -5.326  -0.369  -0.639  1.00  0.00    -0.379 N 
HETATM   17  C25 UNL     1      -6.394  -0.178  -1.596  1.00  0.00     0.150 C 
BRANCH  16  18
HETATM   18  C26 UNL     1      -5.259  -1.643   0.052  1.00  0.00     0.088 C 
HETATM   19  C27 UNL     1      -5.109  -2.860  -0.781  1.00  0.00     0.051 C 
HETATM   20  C28 UNL     1      -6.382  -3.458  -1.319  1.00  0.00     0.169 C 
HETATM   21  O3  UNL     1      -7.500  -3.179  -0.575  1.00  0.00    -0.391 OA
HETATM   22  C29 UNL     1      -7.119  -3.198   0.760  1.00  0.00     0.169 C 
HETATM   23  C30 UNL     1      -6.360  -1.889   1.036  1.00  0.00     0.051 C 
ENDBRANCH  16  18
ENDBRANCH   7  16
ENDBRANCH   1   2
BRANCH   1  24
HETATM   24  O2  UNL     1      -0.623   3.161  -1.598  1.00  0.00    -0.345 OA
ATOM     25  H2  UNL     1       0.186   3.305  -2.075  1.00  0.00     0.219 HD
ENDBRANCH   1  24
BRANCH   1  26
HETATM   26  N3  UNL     1      -0.271   1.107  -2.438  1.00  0.00    -0.368 N 
ATOM     27  H3  UNL     1      -0.559   0.135  -2.546  1.00  0.00     0.161 HD
BRANCH  26  28
HETATM   28  C8  UNL     1       0.952   1.520  -3.093  1.00  0.00     0.142 C 
BRANCH  28  29
HETATM   29  C9  UNL     1       2.032   1.992  -2.153  1.00  0.00     0.146 C 
BRANCH  29  30
HETATM   30  N4  UNL     1       2.368   0.938  -1.269  1.00  0.00    -0.369 N 
HETATM   31  C10 UNL     1       3.034  -0.197  -1.723  1.00  0.00     0.083 C 
HETATM   32  C11 UNL     1       4.388  -0.256  -1.025  1.00  0.00     0.169 C 
HETATM   33  N5  UNL     1       4.174  -0.269   0.408  1.00  0.00    -0.357 N 
HETATM   34  C20 UNL     1       2.964   0.217   0.981  1.00  0.00     0.169 C 
HETATM   35  C21 UNL     1       2.417   1.317   0.078  1.00  0.00     0.083 C 
BRANCH  33  36
HETATM   36  C12 UNL     1       5.204  -0.767   1.303  1.00  0.00     0.112 A 
HETATM   37  C13 UNL     1       4.952  -1.037   2.625  1.00  0.00     0.101 A 
HETATM   38  S1  UNL     1       6.484  -1.560   3.173  1.00  0.00    -0.062 SA
HETATM   39  C14 UNL     1       7.345  -1.406   1.708  1.00  0.00     0.147 A 
HETATM   40  N7  UNL     1       6.416  -0.965   0.881  1.00  0.00    -0.323 N 
ATOM     41  H7  UNL     1       6.651  -0.779  -0.094  1.00  0.00     0.169 HD
BRANCH  39  42
HETATM   42  N6  UNL     1       8.737  -1.683   1.414  1.00  0.00    -0.365 N 
HETATM   43  C15 UNL     1       9.066  -2.973   0.854  1.00  0.00     0.151 C 
BRANCH  42  44
HETATM   44  C16 UNL     1       9.717  -0.680   1.692  1.00  0.00     0.129 C 
BRANCH  44  45
HETATM   45  C17 UNL     1      10.367  -0.081   0.481  1.00  0.00     0.004 A 
HETATM   46  C18 UNL     1       9.578   0.622  -0.545  1.00  0.00     0.007 A 
HETATM   47  C19 UNL     1      10.392   1.401   0.432  1.00  0.00     0.007 A 
ENDBRANCH  44  45
ENDBRANCH  42  44
ENDBRANCH  39  42
ENDBRANCH  33  36
ENDBRANCH  29  30
ENDBRANCH  28  29
ENDBRANCH  26  28
ENDBRANCH   1  26
TORSDOF 14
