REMARK  13 active torsions:
REMARK  status: ('A' for Active; 'I' for Inactive)
REMARK    1  A    between atoms: C2_2  and  N1_3 
REMARK    2  A    between atoms: N1_3  and  C3_4 
REMARK       I    between atoms: N1_3  and  C27_39 
REMARK    3  A    between atoms: C3_4  and  C4_5 
REMARK    4  A    between atoms: C7_8  and  C8_9 
REMARK       I    between atoms: C8_9  and  N2_11 
REMARK    5  A    between atoms: N3_14  and  C11_15 
REMARK    6  A    between atoms: C13_19  and  N5_20 
REMARK       I    between atoms: N5_20  and  C14_22 
REMARK    7  A    between atoms: C14_22  and  C15_24 
REMARK    8  A    between atoms: C15_24  and  C16_25 
REMARK    9  A    between atoms: C16_25  and  N6_26 
REMARK   10  A    between atoms: N6_26  and  C18_28 
REMARK   11  A    between atoms: C18_28  and  C19_29 
REMARK   12  A    between atoms: C19_29  and  O3_30 
REMARK   13  A    between atoms: C27_39  and  C28_41 
ROOT
HETATM    1  C8  UNL     1      -1.841   1.521   0.694  1.00  0.00     0.224 C 
HETATM    2  O1  UNL     1      -2.117   2.698   1.116  1.00  0.00    -0.273 OA
HETATM    3  N2  UNL     1      -0.621   0.956   1.053  1.00  0.00    -0.349 N 
HETATM    4  C9  UNL     1      -0.220  -0.339   0.573  1.00  0.00     0.145 C 
HETATM    5  C10 UNL     1       0.955  -0.050  -0.383  1.00  0.00     0.144 C 
HETATM    6  N3  UNL     1       1.953   0.649   0.373  1.00  0.00    -0.364 N 
HETATM    7  C23 UNL     1       1.674   1.653   1.384  1.00  0.00     0.144 C 
HETATM    8  C24 UNL     1       0.290   1.641   1.931  1.00  0.00     0.145 C 
ENDROOT
BRANCH   1   9
HETATM    9  C7  UNL     1      -2.893   0.900  -0.142  1.00  0.00     0.078 C 
HETATM   10  C6  UNL     1      -3.726  -0.085   0.614  1.00  0.00     0.014 C 
HETATM   11  C5  UNL     1      -4.727  -0.724  -0.288  1.00  0.00     0.007 C 
HETATM   12  C4  UNL     1      -5.528   0.190  -1.135  1.00  0.00     0.004 C 
HETATM   13  C26 UNL     1      -4.645   1.239  -1.819  1.00  0.00     0.007 C 
HETATM   14  C25 UNL     1      -3.760   1.919  -0.793  1.00  0.00     0.014 C 
BRANCH  12  15
HETATM   15  C3  UNL     1      -6.659   0.910  -0.521  1.00  0.00     0.130 C 
BRANCH  15  16
HETATM   16  N1  UNL     1      -7.722   0.123   0.055  1.00  0.00    -0.347 N 
HETATM   17  C27 UNL     1      -8.825  -0.333  -0.699  1.00  0.00     0.273 C 
HETATM   18  O4  UNL     1      -8.767  -0.054  -1.949  1.00  0.00    -0.266 OA
BRANCH  16  19
HETATM   19  C2  UNL     1      -7.656  -0.154   1.469  1.00  0.00     0.121 C 
HETATM   20  C1  UNL     1      -8.380   0.942   2.250  1.00  0.00     0.026 C 
ENDBRANCH  16  19
BRANCH  17  21
HETATM   21  C28 UNL     1      -9.981  -1.056  -0.229  1.00  0.00     0.132 A 
HETATM   22  N7  UNL     1     -10.363  -1.497   0.980  1.00  0.00    -0.334 N 
HETATM   23  C29 UNL     1     -11.547  -2.120   0.922  1.00  0.00     0.120 A 
ATOM     24  H7  UNL     1      -9.820  -1.373   1.835  1.00  0.00     0.168 HD
HETATM   25  C30 UNL     1     -12.319  -2.746   2.016  1.00  0.00     0.098 C 
HETATM   26  O5  UNL     1     -11.927  -2.080  -0.328  1.00  0.00    -0.300 OA
HETATM   27  C31 UNL     1     -11.040  -1.463  -1.056  1.00  0.00     0.083 A 
HETATM   28  C32 UNL     1     -11.168  -1.250  -2.512  1.00  0.00     0.079 C 
ENDBRANCH  17  21
ENDBRANCH  15  16
ENDBRANCH  12  15
ENDBRANCH   1   9
BRANCH   6  29
HETATM   29  C11 UNL     1       3.348   0.398   0.153  1.00  0.00     0.109 A 
HETATM   30  N4  UNL     1       4.165  -0.155   1.059  1.00  0.00    -0.350 N 
HETATM   31  C12 UNL     1       5.482  -0.365   0.794  1.00  0.00     0.119 A 
ATOM     32  H4  UNL     1       3.791  -0.425   1.969  1.00  0.00     0.166 HD
HETATM   33  C13 UNL     1       6.056  -0.032  -0.397  1.00  0.00     0.050 A 
HETATM   34  C20 UNL     1       5.210   0.554  -1.372  1.00  0.00     0.041 A 
HETATM   35  C21 UNL     1       3.887   0.746  -1.061  1.00  0.00    -0.016 A 
HETATM   36  C22 UNL     1       2.992   1.376  -2.076  1.00  0.00     0.052 C 
BRANCH  33  37
HETATM   37  N5  UNL     1       7.411  -0.181  -0.756  1.00  0.00    -0.326 N 
HETATM   38  C14 UNL     1       8.441  -0.380   0.176  1.00  0.00     0.226 C 
HETATM   39  O2  UNL     1       8.283  -0.443   1.394  1.00  0.00    -0.273 OA
ATOM     40  H5  UNL     1       7.656  -0.142  -1.745  1.00  0.00     0.169 HD
BRANCH  38  41
HETATM   41  C15 UNL     1       9.881  -0.535  -0.321  1.00  0.00     0.148 C 
BRANCH  41  42
HETATM   42  C16 UNL     1      10.751  -0.725   0.870  1.00  0.00     0.072 C 
BRANCH  42  43
HETATM   43  N6  UNL     1      12.113  -0.889   0.731  1.00  0.00    -0.376 N 
HETATM   44  C17 UNL     1      12.774  -1.095   1.992  1.00  0.00     0.154 C 
BRANCH  43  45
HETATM   45  C18 UNL     1      12.765  -1.490  -0.329  1.00  0.00     0.088 C 
BRANCH  45  46
HETATM   46  C19 UNL     1      12.821  -0.803  -1.653  1.00  0.00     0.208 C 
BRANCH  46  47
HETATM   47  O3  UNL     1      13.530  -1.559  -2.601  1.00  0.00    -0.396 OA
ATOM     48  H3  UNL     1      13.566  -1.122  -3.444  1.00  0.00     0.209 HD
ENDBRANCH  46  47
ENDBRANCH  45  46
ENDBRANCH  43  45
ENDBRANCH  42  43
ENDBRANCH  41  42
ENDBRANCH  38  41
ENDBRANCH  33  37
ENDBRANCH   6  29
TORSDOF 13
