REMARK  14 active torsions:
REMARK  status: ('A' for Active; 'I' for Inactive)
REMARK    1  A    between atoms: C2_2  and  C3_3 
REMARK    2  A    between atoms: C6_6  and  C7_7 
REMARK    3  A    between atoms: N1_9  and  C8_10 
REMARK    4  A    between atoms: C8_10  and  N2_11 
REMARK    5  A    between atoms: N3_14  and  C11_15 
REMARK    6  A    between atoms: C11_15  and  C12_16 
REMARK    7  A    between atoms: C12_16  and  O2_17 
REMARK    8  A    between atoms: C19_27  and  N5_28 
REMARK    9  A    between atoms: N5_28  and  C20_30 
REMARK   10  A    between atoms: C23_33  and  O3_34 
REMARK   11  A    between atoms: O3_34  and  C24_35 
REMARK   12  A    between atoms: C24_35  and  C25_36 
REMARK   13  A    between atoms: C25_36  and  C26_37 
REMARK   14  A    between atoms: C26_37  and  N6_38 
ROOT
HETATM    1  C20 UNL     1       3.158  -0.608  -0.086  1.00  0.00     0.050 A 
HETATM    2  C21 UNL     1       3.977   0.305   0.525  1.00  0.00     0.033 A 
HETATM    3  C22 UNL     1       5.326   0.029   0.676  1.00  0.00     0.040 A 
HETATM    4  C23 UNL     1       5.912  -1.144   0.236  1.00  0.00     0.089 A 
HETATM    5  C31 UNL     1       5.053  -2.078  -0.394  1.00  0.00     0.080 A 
HETATM    6  C32 UNL     1       5.650  -3.319  -0.851  1.00  0.00     0.102 C 
HETATM    7  N7  UNL     1       6.114  -4.315  -1.208  1.00  0.00    -0.191 NA
HETATM    8  C33 UNL     1       3.734  -1.790  -0.534  1.00  0.00     0.055 A 
ENDROOT
BRANCH   4   9
HETATM    9  O3  UNL     1       7.167  -1.417   0.375  1.00  0.00    -0.350 OA
BRANCH   9  10
HETATM   10  C24 UNL     1       8.421  -1.680   0.519  1.00  0.00     0.177 C 
BRANCH  10  11
HETATM   11  C25 UNL     1       9.499  -0.807  -0.102  1.00  0.00     0.057 C 
BRANCH  11  12
HETATM   12  C26 UNL     1       9.486   0.600   0.384  1.00  0.00     0.274 C 
BRANCH  12  13
HETATM   13  N6  UNL     1      10.539   1.398  -0.199  1.00  0.00     0.088 N 
HETATM   14  C27 UNL     1      10.421   1.666  -1.584  1.00  0.00     0.272 C 
HETATM   15  C28 UNL     1      10.168   3.146  -1.749  1.00  0.00     0.032 C 
HETATM   16  C29 UNL     1      10.525   3.757  -0.432  1.00  0.00     0.032 C 
HETATM   17  C30 UNL     1      10.707   2.603   0.523  1.00  0.00     0.272 C 
ENDBRANCH  12  13
ENDBRANCH  11  12
ENDBRANCH  10  11
ENDBRANCH   9  10
ENDBRANCH   4   9
BRANCH   1  18
HETATM   18  N5  UNL     1       1.764  -0.473  -0.290  1.00  0.00    -0.192 N 
ATOM     19  H5  UNL     1       1.430   0.183  -0.995  1.00  0.00     0.184 HD
BRANCH  18  20
HETATM   20  C19 UNL     1       0.880  -1.171   0.405  1.00  0.00     0.683 A 
HETATM   21  N4  UNL     1       1.282  -2.045   1.347  1.00  0.00    -0.201 N 
HETATM   22  C18 UNL     1       0.443  -2.819   2.047  1.00  0.00     0.115 A 
ATOM     23  H4  UNL     1       2.281  -2.122   1.538  1.00  0.00     0.183 HD
HETATM   24  C17 UNL     1      -0.935  -2.729   1.799  1.00  0.00    -0.014 A 
HETATM   25  C16 UNL     1      -1.872  -3.542   2.590  1.00  0.00     0.047 C 
HETATM   26  C34 UNL     1      -1.309  -1.822   0.825  1.00  0.00     0.069 A 
HETATM   27  C15 UNL     1      -3.228  -3.622   2.033  1.00  0.00     0.047 C 
HETATM   28  C5  UNL     1      -3.606  -2.605   1.046  1.00  0.00    -0.013 A 
HETATM   29  C4  UNL     1      -2.724  -1.772   0.450  1.00  0.00     0.024 A 
HETATM   30  C6  UNL     1      -4.874  -2.325   0.513  1.00  0.00     0.085 A 
HETATM   31  C3  UNL     1      -3.463  -0.990  -0.440  1.00  0.00     0.030 A 
HETATM   32  N1  UNL     1      -4.766  -1.343  -0.386  1.00  0.00    -0.307 N 
HETATM   33  N8  UNL     1      -0.432  -1.062   0.147  1.00  0.00    -0.190 N 
ATOM     34  H8  UNL     1      -0.762  -0.406  -0.560  1.00  0.00     0.184 HD
BRANCH  31  35
HETATM   35  C2  UNL     1      -2.850   0.077  -1.274  1.00  0.00     0.054 C 
HETATM   36  C1  UNL     1      -2.639   1.278  -0.351  1.00  0.00     0.011 C 
ENDBRANCH  31  35
BRANCH  32  37
HETATM   37  C8  UNL     1      -5.793  -0.781  -1.180  1.00  0.00     0.186 C 
BRANCH  37  38
HETATM   38  N2  UNL     1      -6.483   0.365  -0.718  1.00  0.00    -0.373 N 
HETATM   39  C9  UNL     1      -7.487   0.836  -1.652  1.00  0.00     0.143 C 
HETATM   40  C10 UNL     1      -8.862   0.940  -1.093  1.00  0.00     0.141 C 
HETATM   41  N3  UNL     1      -8.947   1.563   0.175  1.00  0.00    -0.388 N 
HETATM   42  C13 UNL     1      -7.689   1.729   0.840  1.00  0.00     0.141 C 
HETATM   43  C14 UNL     1      -6.836   0.446   0.648  1.00  0.00     0.143 C 
BRANCH  41  44
HETATM   44  C11 UNL     1      -9.980   2.451   0.449  1.00  0.00     0.084 C 
BRANCH  44  45
HETATM   45  C12 UNL     1     -10.004   3.766  -0.267  1.00  0.00     0.208 C 
BRANCH  45  46
HETATM   46  O2  UNL     1     -11.139   4.469   0.186  1.00  0.00    -0.396 OA
ATOM     47  H2  UNL     1     -11.154   5.303  -0.268  1.00  0.00     0.209 HD
ENDBRANCH  45  46
ENDBRANCH  44  45
ENDBRANCH  41  44
ENDBRANCH  37  38
ENDBRANCH  32  37
BRANCH  30  48
HETATM   48  C7  UNL     1      -6.084  -3.061   0.909  1.00  0.00     0.289 C 
HETATM   49  O1  UNL     1      -6.095  -3.983   1.732  1.00  0.00    -0.300 OA
ENDBRANCH  30  48
ENDBRANCH  18  20
ENDBRANCH   1  18
TORSDOF 14
