REMARK  10 active torsions:
REMARK  status: ('A' for Active; 'I' for Inactive)
REMARK    1  A    between atoms: C1_2  and  C2_4 
REMARK    2  A    between atoms: N6_15  and  C5_16 
REMARK    3  A    between atoms: C5_16  and  C6_17 
REMARK       I    between atoms: C6_17  and  N7_19 
REMARK    4  A    between atoms: N7_19  and  C7_21 
REMARK    5  A    between atoms: C7_21  and  C8_22 
REMARK    6  A    between atoms: C7_21  and  C10_26 
REMARK    7  A    between atoms: C8_22  and  C9_23 
REMARK       I    between atoms: C10_26  and  N8_28 
REMARK    8  A    between atoms: N8_28  and  C11_30 
REMARK    9  A    between atoms: C11_30  and  C12_31 
REMARK       I    between atoms: C12_31  and  N9_33 
REMARK   10  A    between atoms: N9_33  and  S1_35 
ROOT
HETATM    1  C6  UNL     1      -0.256  -0.331   1.642  1.00  0.00     0.238 C 
HETATM    2  O2  UNL     1      -1.412  -0.005   2.066  1.00  0.00    -0.272 OA
HETATM    3  N7  UNL     1      -0.057  -0.947   0.388  1.00  0.00    -0.346 N 
ATOM      4  H7  UNL     1       0.887  -1.200   0.097  1.00  0.00     0.163 HD
ENDROOT
BRANCH   1   5
HETATM    5  C5  UNL     1       0.853  -0.014   2.565  1.00  0.00     0.256 C 
BRANCH   5   6
HETATM    6  N6  UNL     1       2.106  -0.264   1.857  1.00  0.00    -0.232 N 
HETATM    7  N5  UNL     1       2.709  -1.423   1.860  1.00  0.00    -0.237 N 
HETATM    8  N4  UNL     1       3.843  -1.661   1.221  1.00  0.00    -0.287 N 
ATOM      9  H5  UNL     1       2.282  -2.187   2.384  1.00  0.00     0.208 HD
HETATM   10  C4  UNL     1       4.457  -0.678   0.503  1.00  0.00     0.066 A 
ATOM     11  H4  UNL     1       4.262  -2.590   1.266  1.00  0.00     0.188 HD
HETATM   12  C3  UNL     1       3.839   0.545   0.488  1.00  0.00     0.142 A 
HETATM   13  C14 UNL     1       5.721  -0.940  -0.217  1.00  0.00     0.125 A 
HETATM   14  N3  UNL     1       4.410   1.634  -0.235  1.00  0.00    -0.294 N 
HETATM   15  C13 UNL     1       2.654   0.772   1.164  1.00  0.00     0.293 A 
HETATM   16  N2  UNL     1       5.603   1.410  -0.915  1.00  0.00    -0.299 N 
ATOM     17  H3  UNL     1       3.958   2.548  -0.253  1.00  0.00     0.187 HD
HETATM   18  C2  UNL     1       6.204   0.260  -0.915  1.00  0.00     0.096 A 
ATOM     19  H2  UNL     1       6.022   2.181  -1.435  1.00  0.00     0.186 HD
HETATM   20  O10 UNL     1       2.059   1.884   1.172  1.00  0.00    -0.264 OA
BRANCH  18  21
HETATM   21  C1  UNL     1       7.445   0.185  -1.676  1.00  0.00     0.279 C 
HETATM   22  N1  UNL     1       7.937   1.343  -2.370  1.00  0.00    -0.056 NA
HETATM   23  O1  UNL     1       8.066  -0.891  -1.715  1.00  0.00    -0.270 OA
ENDBRANCH  18  21
ENDBRANCH   5   6
ENDBRANCH   1   5
BRANCH   3  24
HETATM   24  C7  UNL     1      -1.203  -1.234  -0.517  1.00  0.00     0.186 C 
BRANCH  24  25
HETATM   25  C8  UNL     1      -1.838  -2.471  -0.069  1.00  0.00     0.147 C 
BRANCH  25  26
HETATM   26  C9  UNL     1      -2.933  -3.031  -0.854  1.00  0.00     0.175 C 
HETATM   27  O3  UNL     1      -3.288  -2.689  -2.010  1.00  0.00    -0.648 OA
HETATM   28  O4  UNL     1      -3.688  -4.058  -0.291  1.00  0.00    -0.648 OA
ENDBRANCH  25  26
ENDBRANCH  24  25
BRANCH  24  29
HETATM   29  C10 UNL     1      -2.003  -0.006  -0.602  1.00  0.00     0.241 C 
HETATM   30  O5  UNL     1      -1.354   1.072  -0.773  1.00  0.00    -0.271 OA
HETATM   31  N8  UNL     1      -3.384   0.067  -0.507  1.00  0.00    -0.350 N 
ATOM     32  H8  UNL     1      -3.943  -0.774  -0.361  1.00  0.00     0.163 HD
BRANCH  31  33
HETATM   33  C11 UNL     1      -4.030   1.398  -0.623  1.00  0.00     0.226 C 
BRANCH  33  34
HETATM   34  C12 UNL     1      -5.492   1.213  -0.487  1.00  0.00     0.250 C 
HETATM   35  O6  UNL     1      -6.010   0.072  -0.302  1.00  0.00    -0.271 OA
HETATM   36  N9  UNL     1      -6.345   2.359  -0.565  1.00  0.00    -0.234 N 
ATOM     37  H9  UNL     1      -5.947   3.287  -0.713  1.00  0.00     0.184 HD
BRANCH  36  38
HETATM   38  S1  UNL     1      -8.048   2.160  -0.407  1.00  0.00     0.211 S 
HETATM   39  O7  UNL     1      -8.390   1.107   0.613  1.00  0.00    -0.578 OA
HETATM   40  O8  UNL     1      -8.659   1.736  -1.725  1.00  0.00    -0.578 OA
HETATM   41  O9  UNL     1      -8.774   3.611   0.106  1.00  0.00    -0.578 OA
ENDBRANCH  36  38
ENDBRANCH  33  34
ENDBRANCH  31  33
ENDBRANCH  24  29
ENDBRANCH   3  24
TORSDOF 10
