REMARK  4 active torsions:
REMARK  status: ('A' for Active; 'I' for Inactive)
REMARK    1  A    between atoms: C1_2  and  C2_3 
REMARK    2  A    between atoms: C1_2  and  C14_22 
REMARK    3  A    between atoms: C5_6  and  N1_7 
REMARK       I    between atoms: N1_7  and  C6_9 
REMARK    4  A    between atoms: C6_9  and  C7_11 
ROOT
HETATM    1  N1  UNL     1       0.728   1.091  -0.114  1.00  0.00    -0.318 N 
ATOM      2  H1  UNL     1       0.408   2.034  -0.336  1.00  0.00     0.169 HD
HETATM    3  C6  UNL     1      -0.214   0.090   0.217  1.00  0.00     0.265 C 
HETATM    4  O2  UNL     1       0.120  -1.093   0.501  1.00  0.00    -0.269 OA
ENDROOT
BRANCH   1   5
HETATM    5  C5  UNL     1       2.141   0.788  -0.140  1.00  0.00     0.077 A 
HETATM    6  C4  UNL     1       3.170   1.634  -0.437  1.00  0.00     0.039 A 
HETATM    7  C3  UNL     1       4.414   1.132  -0.398  1.00  0.00     0.026 A 
HETATM    8  C2  UNL     1       4.545  -0.191  -0.063  1.00  0.00     0.062 A 
HETATM    9  S1  UNL     1       2.936  -0.686   0.186  1.00  0.00    -0.069 SA
BRANCH   8  10
HETATM   10  C1  UNL     1       5.804  -0.965   0.046  1.00  0.00     0.272 C 
HETATM   11  O1  UNL     1       5.706  -2.167   0.367  1.00  0.00    -0.282 OA
BRANCH  10  12
HETATM   12  C14 UNL     1       7.100  -0.343  -0.213  1.00  0.00     0.456 C 
HETATM   13  F2  UNL     1       8.155  -1.215  -0.063  1.00  0.00    -0.163 F 
HETATM   14  F3  UNL     1       7.161   0.147  -1.516  1.00  0.00    -0.163 F 
HETATM   15  F4  UNL     1       7.310   0.690   0.703  1.00  0.00    -0.163 F 
ENDBRANCH  10  12
ENDBRANCH   8  10
ENDBRANCH   1   5
BRANCH   3  16
HETATM   16  C7  UNL     1      -1.634   0.435   0.233  1.00  0.00     0.216 C 
HETATM   17  F1  UNL     1      -2.120   0.878  -0.959  1.00  0.00    -0.230 F 
HETATM   18  C8  UNL     1      -1.946   1.522   1.269  1.00  0.00     0.086 C 
HETATM   19  C9  UNL     1      -3.446   1.333   1.406  1.00  0.00     0.279 C 
HETATM   20  N2  UNL     1      -3.727  -0.044   1.156  1.00  0.00     0.119 N 
HETATM   21  C10 UNL     1      -4.784  -0.232   0.194  1.00  0.00     0.441 C 
HETATM   22  C13 UNL     1      -2.512  -0.689   0.737  1.00  0.00     0.276 C 
HETATM   23  O3  UNL     1      -5.096  -1.562   0.046  1.00  0.00    -0.362 OA
HETATM   24  C11 UNL     1      -4.047  -2.365  -0.323  1.00  0.00     0.172 C 
HETATM   25  C12 UNL     1      -2.720  -1.677  -0.369  1.00  0.00     0.066 C 
ENDBRANCH   3  16
TORSDOF 4
