REMARK  9 active torsions:
REMARK  status: ('A' for Active; 'I' for Inactive)
REMARK    1  A    between atoms: O1_2  and  C2_3 
REMARK    2  A    between atoms: C4_8  and  N2_9 
REMARK    3  A    between atoms: C8_13  and  C9_14 
REMARK    4  A    between atoms: C9_14  and  N3_15 
REMARK    5  A    between atoms: C14_20  and  C15_21 
REMARK    6  A    between atoms: C16_22  and  C17_23 
REMARK    7  A    between atoms: C17_23  and  O3_25 
REMARK    8  A    between atoms: C19_27  and  O4_28 
REMARK    9  A    between atoms: C20_30  and  O5_31 
ROOT
HETATM    1  C2  UNL     1       2.479   3.176  -0.328  1.00  0.00     0.254 C 
HETATM    2  N1  UNL     1       1.221   2.935  -0.994  1.00  0.00    -0.327 N 
ATOM      3  H1  UNL     1       0.600   3.744  -0.985  1.00  0.00     0.165 HD
HETATM    4  C3  UNL     1       0.673   1.824  -1.650  1.00  0.00     0.270 C 
HETATM    5  O2  UNL     1      -0.184   2.105  -2.517  1.00  0.00    -0.266 OA
HETATM    6  C4  UNL     1       0.937   0.394  -1.485  1.00  0.00     0.108 C 
HETATM    7  C14 UNL     1       1.886  -0.046  -0.426  1.00  0.00     0.005 C 
HETATM    8  C19 UNL     1       2.229   0.924   0.640  1.00  0.00     0.186 C 
HETATM    9  C20 UNL     1       3.212   1.922   0.028  1.00  0.00     0.200 C 
ENDROOT
BRANCH   6  10
HETATM   10  N2  UNL     1      -0.068  -0.522  -1.871  1.00  0.00    -0.369 N 
HETATM   11  C5  UNL     1      -0.235  -0.598  -3.311  1.00  0.00     0.123 C 
HETATM   12  C6  UNL     1      -1.658  -0.381  -3.623  1.00  0.00     0.022 C 
HETATM   13  C7  UNL     1      -2.323  -0.232  -2.309  1.00  0.00     0.028 C 
HETATM   14  C8  UNL     1      -1.287  -0.648  -1.280  1.00  0.00     0.113 C 
BRANCH  14  15
HETATM   15  C9  UNL     1      -1.702  -0.012  -0.017  1.00  0.00     0.297 C 
BRANCH  15  16
HETATM   16  N3  UNL     1      -3.079  -0.375   0.255  1.00  0.00     0.090 N 
HETATM   17  C10 UNL     1      -3.254  -1.774   0.584  1.00  0.00     0.272 C 
HETATM   18  C11 UNL     1      -4.674  -1.828   1.160  1.00  0.00     0.032 C 
HETATM   19  C12 UNL     1      -4.789  -0.507   1.878  1.00  0.00     0.032 C 
HETATM   20  C13 UNL     1      -3.550   0.261   1.468  1.00  0.00     0.272 C 
ENDBRANCH  15  16
ENDBRANCH  14  15
ENDBRANCH   6  10
BRANCH   7  21
HETATM   21  C15 UNL     1       1.613  -1.392   0.083  1.00  0.00     0.011 C 
HETATM   22  C16 UNL     1       1.643  -1.771   1.310  1.00  0.00     0.005 C 
BRANCH  22  23
HETATM   23  C17 UNL     1       1.336  -3.213   1.699  1.00  0.00     0.137 C 
HETATM   24  C18 UNL     1       2.612  -3.791   2.259  1.00  0.00     0.043 C 
BRANCH  23  25
HETATM   25  O3  UNL     1       1.018  -3.940   0.545  1.00  0.00    -0.392 OA
ATOM     26  H3  UNL     1       0.827  -4.838   0.787  1.00  0.00     0.210 HD
ENDBRANCH  23  25
ENDBRANCH  22  23
ENDBRANCH   7  21
BRANCH   8  27
HETATM   27  O4  UNL     1       1.227   1.543   1.316  1.00  0.00    -0.388 OA
ATOM     28  H4  UNL     1       1.447   2.165   2.000  1.00  0.00     0.210 HD
ENDBRANCH   8  27
BRANCH   1  29
HETATM   29  O1  UNL     1       2.169   3.826   0.875  1.00  0.00    -0.369 OA
HETATM   30  C1  UNL     1       2.671   5.100   0.929  1.00  0.00     0.204 C 
ENDBRANCH   1  29
BRANCH   9  31
HETATM   31  O5  UNL     1       4.221   2.189   0.953  1.00  0.00    -0.388 OA
ATOM     32  H5  UNL     1       4.687   1.392   1.179  1.00  0.00     0.210 HD
ENDBRANCH   9  31
TORSDOF 9
