REMARK  11 active torsions:
REMARK  status: ('A' for Active; 'I' for Inactive)
REMARK    1  A    between atoms: C2_2  and  N1_5 
REMARK    2  A    between atoms: N1_5  and  C5_7 
REMARK    3  A    between atoms: C5_7  and  O1_9 
REMARK    4  A    between atoms: O1_9  and  C6_10 
REMARK    5  A    between atoms: C6_10  and  C7_12 
REMARK    6  A    between atoms: C7_12  and  C8_13 
REMARK    7  A    between atoms: C9_15  and  C10_16 
REMARK       I    between atoms: C10_16  and  N2_18 
REMARK    8  A    between atoms: N2_18  and  C11_20 
REMARK    9  A    between atoms: C11_20  and  C12_21 
REMARK   10  A    between atoms: C17_27  and  O6_28 
REMARK   11  A    between atoms: C18_30  and  O7_31 
ROOT
HETATM    1  C8  UNL     1       0.330   0.372   0.206  1.00  0.00     0.163 C 
HETATM    2  O3  UNL     1      -0.984   0.361   0.646  1.00  0.00    -0.365 OA
HETATM    3  C9  UNL     1      -1.357   1.667   0.876  1.00  0.00     0.245 C 
HETATM    4  C17 UNL     1      -0.589   2.539  -0.077  1.00  0.00     0.187 C 
HETATM    5  C18 UNL     1       0.541   1.657  -0.546  1.00  0.00     0.179 C 
ENDROOT
BRANCH   1   6
HETATM    6  C7  UNL     1       1.241   0.296   1.392  1.00  0.00     0.146 C 
BRANCH   6   7
HETATM    7  C6  UNL     1       2.650   0.321   0.916  1.00  0.00     0.268 C 
HETATM    8  O2  UNL     1       3.551   0.942   1.579  1.00  0.00    -0.265 OA
BRANCH   7   9
HETATM    9  O1  UNL     1       3.084  -0.300  -0.240  1.00  0.00    -0.251 OA
BRANCH   9  10
HETATM   10  C5  UNL     1       4.431  -0.212  -0.616  1.00  0.00     0.218 C 
HETATM   11  S1  UNL     1       4.788   1.058  -1.597  1.00  0.00    -0.033 SA
BRANCH  10  12
HETATM   12  N1  UNL     1       5.420  -1.119  -0.207  1.00  0.00    -0.353 N 
ATOM     13  H1  UNL     1       5.134  -1.888   0.399  1.00  0.00     0.163 HD
BRANCH  12  14
HETATM   14  C2  UNL     1       6.802  -1.044  -0.578  1.00  0.00     0.022 C 
HETATM   15  C1  UNL     1       7.020  -1.111  -2.067  1.00  0.00     0.037 C 
HETATM   16  C3  UNL     1       7.568  -2.220   0.039  1.00  0.00     0.037 C 
HETATM   17  C4  UNL     1       7.431   0.267  -0.095  1.00  0.00     0.037 C 
ENDBRANCH  12  14
ENDBRANCH  10  12
ENDBRANCH   9  10
ENDBRANCH   7   9
ENDBRANCH   6   7
ENDBRANCH   1   6
BRANCH   5  18
HETATM   18  O7  UNL     1       0.528   1.444  -1.911  1.00  0.00    -0.390 OA
ATOM     19  H7  UNL     1       0.661   2.256  -2.386  1.00  0.00     0.210 HD
ENDBRANCH   5  18
BRANCH   3  20
HETATM   20  C10 UNL     1      -2.800   1.835   0.821  1.00  0.00     0.249 C 
HETATM   21  O4  UNL     1      -3.290   2.996   0.993  1.00  0.00    -0.271 OA
HETATM   22  N2  UNL     1      -3.675   0.769   0.586  1.00  0.00    -0.358 N 
ATOM     23  H2  UNL     1      -3.296  -0.167   0.446  1.00  0.00     0.162 HD
BRANCH  22  24
HETATM   24  C11 UNL     1      -5.104   0.968   0.538  1.00  0.00     0.129 C 
BRANCH  24  25
HETATM   25  C12 UNL     1      -5.825  -0.334   0.285  1.00  0.00     0.027 C 
HETATM   26  C13 UNL     1      -5.400  -0.953  -1.043  1.00  0.00     0.010 C 
HETATM   27  C14 UNL     1      -6.004  -2.363  -1.024  1.00  0.00     0.027 C 
HETATM   28  C15 UNL     1      -7.368  -2.302  -0.378  1.00  0.00     0.167 C 
HETATM   29  O5  UNL     1      -7.975  -1.077  -0.501  1.00  0.00    -0.391 OA
HETATM   30  C16 UNL     1      -7.322  -0.036   0.112  1.00  0.00     0.173 C 
ENDBRANCH  24  25
ENDBRANCH  22  24
ENDBRANCH   3  20
BRANCH   4  31
HETATM   31  O6  UNL     1      -0.140   3.715   0.526  1.00  0.00    -0.390 OA
ATOM     32  H6  UNL     1       0.345   4.266  -0.076  1.00  0.00     0.210 HD
ENDBRANCH   4  31
TORSDOF 11
