REMARK  8 active torsions:
REMARK  status: ('A' for Active; 'I' for Inactive)
REMARK    1  A    between atoms: C3_3  and  C8_14 
REMARK    2  A    between atoms: N1_4  and  N2_6 
REMARK       I    between atoms: N2_6  and  C4_8 
REMARK    3  A    between atoms: C4_8  and  O2_10 
REMARK    4  A    between atoms: O2_10  and  C5_11 
REMARK    5  A    between atoms: C5_11  and  C6_12 
REMARK       I    between atoms: C8_14  and  N3_16 
REMARK    6  A    between atoms: N3_16  and  N4_18 
REMARK       I    between atoms: N4_18  and  C9_20 
REMARK       I    between atoms: C9_20  and  N5_22 
REMARK    7  A    between atoms: N5_22  and  C10_24 
REMARK    8  A    between atoms: C10_24  and  C11_26 
ROOT
HETATM    1  C1  UNL     1       4.208  -1.214   0.933  1.00  0.00     0.019 C 
HETATM    2  C2  UNL     1       3.747  -0.879  -0.117  1.00  0.00    -0.053 C 
HETATM    3  C3  UNL     1       3.167  -0.485  -1.374  1.00  0.00     0.170 C 
HETATM    4  N1  UNL     1       3.885  -0.607  -2.431  1.00  0.00    -0.283 N 
ATOM      5  H1  UNL     1       3.483  -0.329  -3.326  1.00  0.00     0.188 HD
ENDROOT
BRANCH   3   6
HETATM    6  C8  UNL     1       1.803   0.007  -1.400  1.00  0.00     0.296 C 
HETATM    7  O3  UNL     1       1.303   0.327  -2.501  1.00  0.00    -0.263 OA
HETATM    8  N3  UNL     1       1.048   0.125  -0.215  1.00  0.00    -0.260 N 
ATOM      9  H3  UNL     1       1.453  -0.127   0.687  1.00  0.00     0.190 HD
BRANCH   8  10
HETATM   10  N4  UNL     1      -0.273   0.597  -0.301  1.00  0.00    -0.248 N 
HETATM   11  C9  UNL     1      -1.305   0.143   0.538  1.00  0.00     0.339 C 
HETATM   12  O4  UNL     1      -1.041  -0.709   1.416  1.00  0.00    -0.245 OA
HETATM   13  N5  UNL     1      -2.631   0.627   0.406  1.00  0.00    -0.301 N 
ATOM     14  H5  UNL     1      -2.825   1.320  -0.317  1.00  0.00     0.171 HD
ATOM     15  H4  UNL     1      -0.493   1.302  -1.005  1.00  0.00     0.192 HD
BRANCH  13  16
HETATM   16  C10 UNL     1      -3.693   0.197   1.224  1.00  0.00     0.085 C 
HETATM   17  S1  UNL     1      -3.422  -0.897   2.387  1.00  0.00    -0.065 SA
BRANCH  16  18
HETATM   18  C11 UNL     1      -5.058   0.726   1.024  1.00  0.00     0.047 C 
HETATM   19  C12 UNL     1      -6.024   0.180   2.054  1.00  0.00     0.011 C 
HETATM   20  C13 UNL     1      -7.399   0.701   1.664  1.00  0.00     0.001 C 
HETATM   21  C14 UNL     1      -7.852  -0.122   0.484  1.00  0.00     0.000 C 
HETATM   22  C15 UNL     1      -6.712  -0.529  -0.408  1.00  0.00     0.001 C 
HETATM   23  C16 UNL     1      -5.555   0.430  -0.370  1.00  0.00     0.011 C 
ENDBRANCH  16  18
ENDBRANCH  13  16
ENDBRANCH   8  10
ENDBRANCH   3   6
BRANCH   4  24
HETATM   24  N2  UNL     1       5.166  -1.093  -2.415  1.00  0.00    -0.244 N 
HETATM   25  C4  UNL     1       6.239  -0.315  -1.912  1.00  0.00     0.379 C 
HETATM   26  O1  UNL     1       6.025   0.842  -1.464  1.00  0.00    -0.237 OA
ATOM     27  H2  UNL     1       5.351  -2.031  -2.771  1.00  0.00     0.192 HD
BRANCH  25  28
HETATM   28  O2  UNL     1       7.542  -0.777  -1.890  1.00  0.00    -0.299 OA
BRANCH  28  29
HETATM   29  C5  UNL     1       8.664  -0.081  -1.410  1.00  0.00     0.207 C 
BRANCH  29  30
HETATM   30  C6  UNL     1       8.472   0.207   0.033  1.00  0.00    -0.011 C 
HETATM   31  C7  UNL     1       9.316  -0.253   0.933  1.00  0.00     0.009 C 
ENDBRANCH  29  30
ENDBRANCH  28  29
ENDBRANCH  25  28
ENDBRANCH   4  24
TORSDOF 8
