REMARK  4 active torsions:
REMARK  status: ('A' for Active; 'I' for Inactive)
REMARK    1  A    between atoms: C2_2  and  C3_3 
REMARK    2  A    between atoms: C10_10  and  C11_11 
REMARK    3  A    between atoms: C11_11  and  N1_12 
REMARK    4  A    between atoms: N2_21  and  O4_23 
ROOT
HETATM    1  C3  UNL     1       1.786   0.533  -0.522  1.00  0.00     0.046 C 
HETATM    2  C4  UNL     1       1.406   0.473  -1.929  1.00  0.00     0.026 C 
HETATM    3  C5  UNL     1       2.094  -0.806   0.127  1.00  0.00     0.039 C 
HETATM    4  C6  UNL     1       3.419  -1.351  -0.267  1.00  0.00     0.025 C 
HETATM    5  C7  UNL     1       0.988  -1.756  -0.186  1.00  0.00     0.019 C 
HETATM    6  C8  UNL     1      -0.386  -1.147  -0.165  1.00  0.00     0.012 C 
HETATM    7  C9  UNL     1      -0.440   0.114   0.619  1.00  0.00     0.066 C 
HETATM    8  C10 UNL     1      -1.595   1.009   0.323  1.00  0.00     0.123 C 
HETATM    9  C14 UNL     1      -0.986   2.201  -0.317  1.00  0.00     0.268 C 
HETATM   10  O1  UNL     1      -1.562   2.935  -1.179  1.00  0.00    -0.265 OA
HETATM   11  O2  UNL     1       0.286   2.310   0.222  1.00  0.00    -0.281 OA
HETATM   12  C15 UNL     1       0.744   1.015   0.453  1.00  0.00     0.196 C 
HETATM   13  O3  UNL     1       1.514   0.904   1.657  1.00  0.00    -0.297 OA
HETATM   14  C16 UNL     1       2.069  -0.370   1.574  1.00  0.00     0.150 C 
HETATM   15  N2  UNL     1       2.498  -1.075   2.578  1.00  0.00    -0.250 N 
ATOM     16  H2  UNL     1       2.890  -2.003   2.416  1.00  0.00     0.196 HD
ENDROOT
BRANCH   8  17
HETATM   17  C11 UNL     1      -2.709   0.426  -0.460  1.00  0.00     0.286 C 
BRANCH  17  18
HETATM   18  N1  UNL     1      -3.301  -0.695   0.198  1.00  0.00     0.080 N 
HETATM   19  C12 UNL     1      -4.026  -0.390   1.400  1.00  0.00     0.309 C 
HETATM   20  C13 UNL     1      -4.219  -1.317  -0.741  1.00  0.00     0.309 C 
ENDBRANCH  17  18
ENDBRANCH   8  17
BRANCH   1  21
HETATM   21  C2  UNL     1       2.987   1.395  -0.336  1.00  0.00    -0.021 C 
HETATM   22  C1  UNL     1       3.013   2.653  -0.753  1.00  0.00     0.008 C 
ENDBRANCH   1  21
BRANCH  15  23
HETATM   23  O4  UNL     1       2.426  -0.582   3.841  1.00  0.00    -0.288 OA
ATOM     24  H4  UNL     1       2.740  -1.097   4.575  1.00  0.00     0.244 HD
ENDBRANCH  15  23
TORSDOF 4
