REMARK  5 active torsions:
REMARK  status: ('A' for Active; 'I' for Inactive)
REMARK    1  A    between atoms: C2_2  and  N1_3 
REMARK    2  A    between atoms: C2_2  and  C3_7 
REMARK       I    between atoms: C3_7  and  N2_9 
REMARK       I    between atoms: N2_9  and  C4_11 
REMARK    3  A    between atoms: C4_11  and  C5_13 
REMARK    4  A    between atoms: C7_20  and  C8_21 
REMARK    5  A    between atoms: N5_22  and  N6_24 
ROOT
HETATM    1  C5  UNL     1       0.079   0.363   1.062  1.00  0.00     0.133 A 
HETATM    2  N3  UNL     1       0.357   1.667   1.202  1.00  0.00    -0.302 N 
ATOM      3  H3  UNL     1       1.273   2.046   1.444  1.00  0.00     0.171 HD
HETATM    4  C6  UNL     1      -0.744   2.401   0.978  1.00  0.00     0.325 A 
HETATM    5  O3  UNL     1      -0.864   3.653   1.017  1.00  0.00    -0.247 OA
HETATM    6  N4  UNL     1      -1.772   1.549   0.685  1.00  0.00    -0.305 N 
ATOM      7  H4  UNL     1      -2.731   1.821   0.471  1.00  0.00     0.171 HD
HETATM    8  C7  UNL     1      -1.302   0.296   0.728  1.00  0.00     0.086 A 
ENDROOT
BRANCH   1   9
HETATM    9  C4  UNL     1       0.926  -0.801   1.155  1.00  0.00     0.277 C 
HETATM   10  N2  UNL     1       2.192  -0.945   0.607  1.00  0.00    -0.290 N 
HETATM   11  C3  UNL     1       2.901  -0.111  -0.256  1.00  0.00     0.254 C 
ATOM     12  H2  UNL     1       2.682  -1.797   0.879  1.00  0.00     0.172 HD
HETATM   13  O1  UNL     1       2.505   0.971  -0.705  1.00  0.00    -0.271 OA
HETATM   14  O2  UNL     1       0.481  -1.823   1.807  1.00  0.00    -0.266 OA
BRANCH  11  15
HETATM   15  C2  UNL     1       4.282  -0.517  -0.716  1.00  0.00     0.271 C 
HETATM   16  C1  UNL     1       5.216   0.589  -0.250  1.00  0.00     0.050 C 
BRANCH  15  17
HETATM   17  N1  UNL     1       4.600  -1.778  -0.116  1.00  0.00    -0.067 N 
ATOM     18  H13 UNL     1       5.576  -2.027  -0.275  1.00  0.00     0.275 HD
ATOM     19  H12 UNL     1       4.614  -1.710   0.902  1.00  0.00     0.275 HD
ATOM     20  H11 UNL     1       3.974  -2.520  -0.429  1.00  0.00     0.275 HD
ENDBRANCH  15  17
ENDBRANCH  11  15
ENDBRANCH   1   9
BRANCH   8  21
HETATM   21  C8  UNL     1      -2.016  -0.941   0.470  1.00  0.00     0.139 C 
HETATM   22  N5  UNL     1      -3.239  -1.015   0.183  1.00  0.00    -0.308 N 
ATOM     23  H5  UNL     1      -3.569  -1.968   0.033  1.00  0.00     0.186 HD
BRANCH  22  24
HETATM   24  N6  UNL     1      -4.195  -0.080   0.036  1.00  0.00    -0.276 N 
HETATM   25  C9  UNL     1      -5.162  -0.136  -0.824  1.00  0.00     0.215 C 
HETATM   26  N7  UNL     1      -6.105   0.906  -0.885  1.00  0.00    -0.065 NA
HETATM   27  N8  UNL     1      -5.206  -1.273  -1.668  1.00  0.00    -0.065 NA
ATOM     28  H6  UNL     1      -4.155   0.735   0.648  1.00  0.00     0.189 HD
ENDBRANCH  22  24
ENDBRANCH   8  21
TORSDOF 5
