REMARK  3 active torsions:
REMARK  status: ('A' for Active; 'I' for Inactive)
REMARK    1  A    between atoms: N1_2  and  C2_5 
REMARK    2  A    between atoms: C5_8  and  N2_9 
REMARK    3  A    between atoms: N2_9  and  C6_12 
ROOT
HETATM    1  C6  UNL     1       3.498   0.018   0.368  1.00  0.00     0.355 C 
HETATM    2  C7  UNL     1       4.441   0.648  -0.594  1.00  0.00     0.086 C 
HETATM    3  N3  UNL     1       5.197   1.126  -1.342  1.00  0.00    -0.196 NA
ENDROOT
BRANCH   1   4
HETATM    4  N2  UNL     1       2.201   0.011  -0.282  1.00  0.00    -0.059 N 
ATOM      5  H22 UNL     1       2.275  -0.373  -1.224  1.00  0.00     0.278 HD
ATOM      6  H21 UNL     1       1.908   0.962  -0.506  1.00  0.00     0.278 HD
BRANCH   4   7
HETATM    7  C5  UNL     1       1.181  -0.668   0.460  1.00  0.00     0.187 C 
HETATM    8  C4  UNL     1       0.167  -1.235  -0.529  1.00  0.00     0.035 C 
HETATM    9  C3  UNL     1      -0.723  -0.126  -1.058  1.00  0.00     0.035 C 
HETATM   10  C2  UNL     1      -1.549   0.466   0.048  1.00  0.00     0.185 C 
HETATM   11  C9  UNL     1      -0.949   0.110   1.396  1.00  0.00     0.035 C 
HETATM   12  C8  UNL     1       0.554   0.249   1.442  1.00  0.00     0.035 C 
BRANCH  10  13
HETATM   13  N1  UNL     1      -2.887  -0.089   0.101  1.00  0.00    -0.075 N 
HETATM   14  C1  UNL     1      -3.646   0.176  -1.102  1.00  0.00     0.267 C 
ATOM     15  H12 UNL     1      -3.386   0.236   0.929  1.00  0.00     0.277 HD
ATOM     16  H11 UNL     1      -2.862  -1.088   0.306  1.00  0.00     0.277 HD
ENDBRANCH  10  13
ENDBRANCH   4   7
ENDBRANCH   1   4
TORSDOF 3
