REMARK  7 active torsions:
REMARK  status: ('A' for Active; 'I' for Inactive)
REMARK    1  A    between atoms: C3_7  and  C4_8 
REMARK       I    between atoms: C4_8  and  N3_10 
REMARK    2  A    between atoms: N3_10  and  C5_12 
REMARK    3  A    between atoms: C8_15  and  C9_16 
REMARK    4  A    between atoms: C9_16  and  C10_17 
REMARK    5  A    between atoms: C19_30  and  N6_31 
REMARK    6  A    between atoms: N6_31  and  C20_32 
REMARK    7  A    between atoms: C23_35  and  C24_36 
ROOT
HETATM    1  C4  UNL     1      -1.145   0.105   0.035  1.00  0.00     0.273 C 
HETATM    2  O1  UNL     1      -1.814   0.542   0.972  1.00  0.00    -0.266 OA
HETATM    3  N3  UNL     1       0.261   0.040   0.219  1.00  0.00    -0.351 N 
ATOM      4  H3  UNL     1       0.786  -0.324  -0.576  1.00  0.00     0.163 HD
ENDROOT
BRANCH   1   5
HETATM    5  C3  UNL     1      -1.788  -0.322  -1.208  1.00  0.00     0.157 A 
HETATM    6  N2  UNL     1      -0.999  -0.792  -2.203  1.00  0.00    -0.293 N 
HETATM    7  N1  UNL     1      -1.534  -1.181  -3.321  1.00  0.00    -0.304 N 
ATOM      8  H2  UNL     1       0.012  -0.840  -2.075  1.00  0.00     0.187 HD
HETATM    9  C2  UNL     1      -2.857  -1.127  -3.512  1.00  0.00     0.031 A 
ATOM     10  H1  UNL     1      -0.934  -1.534  -4.067  1.00  0.00     0.186 HD
HETATM   11  C1  UNL     1      -3.419  -1.592  -4.829  1.00  0.00     0.070 C 
HETATM   12  C27 UNL     1      -3.697  -0.652  -2.511  1.00  0.00     0.004 A 
HETATM   13  C19 UNL     1      -3.166  -0.219  -1.284  1.00  0.00     0.142 A 
HETATM   14  C28 UNL     1      -5.130  -0.641  -2.837  1.00  0.00     0.054 C 
BRANCH  13  15
HETATM   15  N6  UNL     1      -3.887   0.193  -0.415  1.00  0.00    -0.440 NA
BRANCH  15  16
HETATM   16  C20 UNL     1      -4.854   0.609   0.402  1.00  0.00     0.163 C 
HETATM   17  C21 UNL     1      -5.579   1.908   0.057  1.00  0.00     0.040 C 
HETATM   18  C22 UNL     1      -6.729   2.161   1.010  1.00  0.00     0.016 C 
HETATM   19  C23 UNL     1      -7.805   1.135   0.825  1.00  0.00     0.093 C 
HETATM   20  C25 UNL     1      -7.265  -0.170   0.355  1.00  0.00     0.016 C 
HETATM   21  C26 UNL     1      -5.869  -0.486   0.749  1.00  0.00     0.040 C 
BRANCH  19  22
HETATM   22  C24 UNL     1      -8.670   1.046   2.060  1.00  0.00     0.391 C 
HETATM   23  F2  UNL     1      -9.236   2.282   2.269  1.00  0.00    -0.171 F 
HETATM   24  F3  UNL     1      -9.734   0.159   1.848  1.00  0.00    -0.171 F 
HETATM   25  F4  UNL     1      -7.994   0.631   3.170  1.00  0.00    -0.171 F 
ENDBRANCH  19  22
ENDBRANCH  15  16
ENDBRANCH  13  15
ENDBRANCH   1   5
BRANCH   3  26
HETATM   26  C5  UNL     1       1.040   0.403   1.335  1.00  0.00     0.084 C 
HETATM   27  C6  UNL     1       1.882  -0.744   1.880  1.00  0.00     0.025 C 
HETATM   28  C7  UNL     1       3.297  -0.678   1.273  1.00  0.00     0.006 C 
HETATM   29  C8  UNL     1       4.070   0.455   1.865  1.00  0.00    -0.014 C 
HETATM   30  C17 UNL     1       3.002   1.526   2.207  1.00  0.00     0.006 C 
HETATM   31  C18 UNL     1       2.003   1.535   1.077  1.00  0.00     0.025 C 
BRANCH  29  32
HETATM   32  C9  UNL     1       5.047   1.111   0.994  1.00  0.00     0.011 C 
BRANCH  32  33
HETATM   33  C10 UNL     1       6.183   0.383   0.415  1.00  0.00     0.007 C 
HETATM   34  C11 UNL     1       5.805  -0.736  -0.490  1.00  0.00     0.051 C 
HETATM   35  C12 UNL     1       6.982  -1.141  -1.379  1.00  0.00     0.238 C 
HETATM   36  F1  UNL     1       6.685  -2.401  -1.861  1.00  0.00    -0.241 F 
HETATM   37  C13 UNL     1       8.203  -1.111  -0.545  1.00  0.00     0.117 A 
HETATM   38  N4  UNL     1       9.445  -1.515  -0.949  1.00  0.00    -0.352 N 
HETATM   39  N5  UNL     1       8.277  -0.687   0.713  1.00  0.00    -0.343 N 
HETATM   40  C14 UNL     1      10.313  -1.355   0.035  1.00  0.00     0.106 A 
ATOM     41  H4  UNL     1       9.669  -1.885  -1.873  1.00  0.00     0.166 HD
HETATM   42  C15 UNL     1       9.569  -0.826   1.097  1.00  0.00     0.109 A 
HETATM   43  C16 UNL     1       7.132  -0.188   1.457  1.00  0.00     0.134 C 
ENDBRANCH  32  33
ENDBRANCH  29  32
ENDBRANCH   3  26
TORSDOF 7
