REMARK  7 active torsions:
REMARK  status: ('A' for Active; 'I' for Inactive)
REMARK    1  A    between atoms: C4_5  and  N1_6 
REMARK    2  A    between atoms: C5_7  and  C6_8 
REMARK    3  A    between atoms: C6_8  and  N2_9 
REMARK    4  A    between atoms: C6_8  and  C7_13 
REMARK    5  A    between atoms: C10_16  and  C11_17 
REMARK       I    between atoms: C11_17  and  N3_19 
REMARK    6  A    between atoms: N3_19  and  C12_21 
REMARK    7  A    between atoms: C19_29  and  C20_30 
ROOT
HETATM    1  N1  UNL     1      -1.573  -0.338  -0.535  1.00  0.00    -0.304 N 
HETATM    2  C5  UNL     1      -0.590   0.320   0.091  1.00  0.00     0.064 A 
HETATM    3  C10 UNL     1       0.645   0.017  -0.572  1.00  0.00     0.065 A 
HETATM    4  C17 UNL     1       0.299  -0.833  -1.587  1.00  0.00    -0.012 A 
HETATM    5  C18 UNL     1       1.273  -1.404  -2.584  1.00  0.00     0.052 C 
HETATM    6  C19 UNL     1      -1.055  -1.062  -1.575  1.00  0.00     0.131 A 
ENDROOT
BRANCH   1   7
HETATM    7  C4  UNL     1      -2.959  -0.402  -0.280  1.00  0.00     0.086 A 
HETATM    8  C3  UNL     1      -3.436  -1.257   0.735  1.00  0.00     0.151 A 
HETATM    9  C2  UNL     1      -4.750  -1.413   1.040  1.00  0.00     0.002 A 
HETATM   10  F1  UNL     1      -2.494  -1.960   1.423  1.00  0.00    -0.203 F 
HETATM   11  C1  UNL     1      -5.120  -2.346   2.134  1.00  0.00     0.053 C 
HETATM   12  C24 UNL     1      -5.701  -0.726   0.356  1.00  0.00     0.065 A 
HETATM   13  C23 UNL     1      -5.299   0.116  -0.639  1.00  0.00     0.064 A 
HETATM   14 CL2  UNL     1      -7.392  -0.932   0.756  1.00  0.00    -0.082 Cl
HETATM   15  C21 UNL     1      -3.944   0.281  -0.958  1.00  0.00    -0.008 A 
HETATM   16 CL1  UNL     1      -6.509   1.003  -1.530  1.00  0.00    -0.082 Cl
HETATM   17  C22 UNL     1      -3.629   1.201  -2.082  1.00  0.00     0.052 C 
ENDBRANCH   1   7
BRANCH   2  18
HETATM   18  C6  UNL     1      -0.560   1.099   1.320  1.00  0.00     0.237 C 
BRANCH  18  19
HETATM   19  N2  UNL     1      -0.046   0.367   2.456  1.00  0.00    -0.069 N 
ATOM     20  H23 UNL     1      -0.566  -0.500   2.591  1.00  0.00     0.275 HD
ATOM     21  H22 UNL     1       0.876  -0.018   2.250  1.00  0.00     0.275 HD
ATOM     22  H21 UNL     1      -0.025   0.913   3.317  1.00  0.00     0.275 HD
ENDBRANCH  18  19
BRANCH  18  23
HETATM   23  C7  UNL     1      -1.720   1.882   1.799  1.00  0.00     0.014 C 
HETATM   24  C8  UNL     1      -2.085   3.024   0.857  1.00  0.00     0.012 C 
HETATM   25  C9  UNL     1      -1.311   2.548   3.124  1.00  0.00     0.012 C 
ENDBRANCH  18  23
ENDBRANCH   2  18
BRANCH   6  26
HETATM   26  C20 UNL     1      -1.688  -1.967  -2.548  1.00  0.00     0.433 C 
HETATM   27  F2  UNL     1      -2.996  -2.245  -2.374  1.00  0.00    -0.165 F 
HETATM   28  F3  UNL     1      -0.979  -3.152  -2.575  1.00  0.00    -0.165 F 
HETATM   29  F4  UNL     1      -1.565  -1.419  -3.848  1.00  0.00    -0.165 F 
ENDBRANCH   6  26
BRANCH   3  30
HETATM   30  C11 UNL     1       1.966   0.561  -0.260  1.00  0.00     0.254 C 
HETATM   31  O1  UNL     1       2.190   1.722   0.169  1.00  0.00    -0.268 OA
HETATM   32  N3  UNL     1       3.130  -0.239  -0.431  1.00  0.00    -0.350 N 
ATOM     33  H3  UNL     1       3.012  -1.197  -0.761  1.00  0.00     0.163 HD
BRANCH  32  34
HETATM   34  C12 UNL     1       4.476   0.231  -0.162  1.00  0.00     0.108 C 
HETATM   35  C13 UNL     1       5.371   0.070  -1.367  1.00  0.00     0.029 C 
HETATM   36  C14 UNL     1       6.806   0.121  -0.978  1.00  0.00     0.028 C 
HETATM   37  C15 UNL     1       7.094  -1.065  -0.069  1.00  0.00     0.167 C 
HETATM   38  O2  UNL     1       5.895  -1.571   0.443  1.00  0.00    -0.389 OA
HETATM   39  C16 UNL     1       5.110  -0.534   0.982  1.00  0.00     0.192 C 
ENDBRANCH  32  34
ENDBRANCH   3  30
TORSDOF 7
