REMARK  13 active torsions:
REMARK  status: ('A' for Active; 'I' for Inactive)
REMARK    1  A    between atoms: C2_5  and  C3_6 
REMARK       I    between atoms: C3_6  and  N3_8 
REMARK    2  A    between atoms: N3_8  and  N4_10 
REMARK    3  A    between atoms: C5_14  and  N5_15 
REMARK    4  A    between atoms: N5_15  and  C6_17 
REMARK    5  A    between atoms: C6_17  and  C7_18 
REMARK    6  A    between atoms: C7_18  and  O2_19 
REMARK    7  A    between atoms: C7_18  and  C8_21 
REMARK    8  A    between atoms: C8_21  and  O3_22 
REMARK    9  A    between atoms: C9_26  and  N7_27 
REMARK   10  A    between atoms: N7_27  and  N8_29 
REMARK   11  A    between atoms: N8_29  and  C10_30 
REMARK   12  A    between atoms: C10_30  and  C11_31 
REMARK   13  A    between atoms: N10_37  and  N11_38 
ROOT
HETATM    1  C1  UNL     1       1.270   2.602   3.017  1.00  0.00     0.179 C 
HETATM    2  N1  UNL     1       0.223   2.450   2.007  1.00  0.00    -0.279 N 
HETATM    3  N2  UNL     1      -0.516   3.367   1.446  1.00  0.00    -0.291 N 
ATOM      4  H2  UNL     1      -0.451   4.363   1.655  1.00  0.00     0.187 HD
HETATM    5  C2  UNL     1      -1.390   2.825   0.541  1.00  0.00     0.135 A 
HETATM    6  C4  UNL     1      -1.159   1.482   0.560  1.00  0.00     0.088 A 
HETATM    7  C5  UNL     1      -1.685   0.377  -0.095  1.00  0.00     0.133 A 
HETATM    8  N6  UNL     1      -1.202  -0.839   0.184  1.00  0.00    -0.174 N 
ATOM      9  H6  UNL     1      -1.601  -1.640  -0.306  1.00  0.00     0.186 HD
HETATM   10  C9  UNL     1      -0.225  -1.064   1.070  1.00  0.00     0.710 A 
HETATM   11  N13 UNL     1       0.283  -0.000   1.702  1.00  0.00    -0.172 N 
ATOM     12  H13 UNL     1       1.029  -0.157   2.380  1.00  0.00     0.186 HD
HETATM   13  C14 UNL     1      -0.128   1.261   1.499  1.00  0.00     0.154 A 
ENDROOT
BRANCH  10  14
HETATM   14  N7  UNL     1       0.215  -2.274   1.296  1.00  0.00    -0.065 N 
ATOM     15  H7  UNL     1      -0.222  -3.028   0.766  1.00  0.00     0.221 HD
BRANCH  14  16
HETATM   16  N8  UNL     1       1.142  -2.607   2.119  1.00  0.00    -0.322 NA
BRANCH  16  17
HETATM   17  C10 UNL     1       2.110  -2.925   2.744  1.00  0.00     0.232 C 
BRANCH  17  18
HETATM   18  C11 UNL     1       3.437  -3.169   2.110  1.00  0.00     0.082 A 
HETATM   19  S1  UNL     1       4.904  -3.597   2.893  1.00  0.00    -0.047 SA
HETATM   20  C12 UNL     1       5.906  -3.666   1.519  1.00  0.00     0.165 A 
HETATM   21  N9  UNL     1       7.190  -3.951   1.435  1.00  0.00    -0.378 N 
HETATM   22  N10 UNL     1       5.081  -3.360   0.520  1.00  0.00    -0.225 N 
ATOM     23  H92 UNL     1       7.822  -4.185   2.200  1.00  0.00     0.158 HD
ATOM     24  H91 UNL     1       7.791  -3.992   0.612  1.00  0.00     0.158 HD
HETATM   25  C13 UNL     1       3.818  -3.105   0.807  1.00  0.00     0.159 A 
HETATM   26  N12 UNL     1       2.859  -2.771  -0.243  1.00  0.00    -0.079 NA
BRANCH  22  27
HETATM   27  N11 UNL     1       5.602  -3.318  -0.823  1.00  0.00    -0.335 N 
ATOM     28 2H11 UNL     1       6.578  -3.515  -1.045  1.00  0.00     0.177 HD
ATOM     29 1H11 UNL     1       4.970  -3.084  -1.588  1.00  0.00     0.177 HD
ENDBRANCH  22  27
ENDBRANCH  17  18
ENDBRANCH  16  17
ENDBRANCH  14  16
ENDBRANCH  10  14
BRANCH   7  30
HETATM   30  N5  UNL     1      -2.624   0.559  -0.949  1.00  0.00    -0.372 N 
ATOM     31  H5  UNL     1      -2.978   1.495  -1.146  1.00  0.00     0.161 HD
BRANCH  30  32
HETATM   32  C6  UNL     1      -3.168  -0.597  -1.626  1.00  0.00     0.155 C 
BRANCH  32  33
HETATM   33  C7  UNL     1      -4.254  -0.261  -2.594  1.00  0.00     0.159 C 
BRANCH  33  34
HETATM   34  O2  UNL     1      -5.346   0.362  -2.043  1.00  0.00    -0.392 OA
ATOM     35  H2  UNL     1      -6.037   0.576  -2.659  1.00  0.00     0.210 HD
ENDBRANCH  33  34
BRANCH  33  36
HETATM   36  C8  UNL     1      -3.783   0.518  -3.788  1.00  0.00     0.197 C 
BRANCH  36  37
HETATM   37  O3  UNL     1      -2.665  -0.081  -4.388  1.00  0.00    -0.398 OA
ATOM     38  H3  UNL     1      -2.367   0.412  -5.143  1.00  0.00     0.209 HD
ENDBRANCH  36  37
ENDBRANCH  33  36
ENDBRANCH  32  33
ENDBRANCH  30  32
ENDBRANCH   7  30
BRANCH   5  39
HETATM   39  C3  UNL     1      -2.337   3.582  -0.240  1.00  0.00     0.288 C 
HETATM   40  O1  UNL     1      -3.094   3.126  -1.089  1.00  0.00    -0.264 OA
HETATM   41  N3  UNL     1      -2.436   5.017  -0.036  1.00  0.00    -0.271 N 
ATOM     42  H3  UNL     1      -1.849   5.490   0.651  1.00  0.00     0.189 HD
BRANCH  41  43
HETATM   43  N4  UNL     1      -3.347   5.724  -0.799  1.00  0.00    -0.342 N 
ATOM     44  H42 UNL     1      -3.926   5.236  -1.482  1.00  0.00     0.176 HD
ATOM     45  H41 UNL     1      -3.417   6.731  -0.656  1.00  0.00     0.176 HD
ENDBRANCH  41  43
ENDBRANCH   5  39
TORSDOF 13
