REMARK  6 active torsions:
REMARK  status: ('A' for Active; 'I' for Inactive)
REMARK    1  A    between atoms: O1_2  and  C2_3 
REMARK    2  A    between atoms: C2_3  and  C3_5 
REMARK    3  A    between atoms: C4_6  and  C5_7 
REMARK    4  A    between atoms: C8_11  and  C9_12 
REMARK    5  A    between atoms: C9_12  and  N2_16 
REMARK    6  A    between atoms: N2_16  and  O3_18 
ROOT
HETATM    1  C5  UNL     1       0.053   0.341  -0.008  1.00  0.00     0.113 A 
HETATM    2  S1  UNL     1       0.215   1.231   1.456  1.00  0.00    -0.120 SA
HETATM    3  C6  UNL     1      -1.460   0.956   1.199  1.00  0.00    -0.013 A 
HETATM    4  C7  UNL     1      -2.723   1.355   2.012  1.00  0.00     0.056 C 
HETATM    5  C8  UNL     1      -1.382   0.318   0.125  1.00  0.00     0.017 A 
ENDROOT
BRANCH   5   6
HETATM    6  C9  UNL     1      -2.417  -0.303  -0.790  1.00  0.00     0.127 C 
HETATM    7  N1  UNL     1      -2.058  -0.916  -1.854  1.00  0.00    -0.384 N 
ATOM      8  H12 UNL     1      -1.062  -0.975  -2.067  1.00  0.00     0.157 HD
ATOM      9  H11 UNL     1      -2.755  -1.334  -2.470  1.00  0.00     0.157 HD
BRANCH   6  10
HETATM   10  N2  UNL     1      -3.788  -0.222  -0.497  1.00  0.00    -0.253 N 
ATOM     11  H2  UNL     1      -4.208   0.704  -0.419  1.00  0.00     0.196 HD
BRANCH  10  12
HETATM   12  O3  UNL     1      -4.574  -1.284  -0.315  1.00  0.00    -0.288 OA
ATOM     13  H3  UNL     1      -5.501  -1.229  -0.117  1.00  0.00     0.244 HD
ENDBRANCH  10  12
ENDBRANCH   6  10
ENDBRANCH   5   6
BRANCH   1  14
HETATM   14  C4  UNL     1       0.695  -1.017   0.083  1.00  0.00    -0.000 C 
HETATM   15  C3  UNL     1       1.951  -1.221  -0.027  1.00  0.00     0.079 C 
BRANCH  15  16
HETATM   16  C2  UNL     1       2.965  -0.240  -0.250  1.00  0.00     0.282 C 
HETATM   17  O2  UNL     1       2.685   0.971  -0.363  1.00  0.00    -0.260 OA
BRANCH  16  18
HETATM   18  O1  UNL     1       4.325  -0.570  -0.357  1.00  0.00    -0.323 OA
HETATM   19  C1  UNL     1       5.266   0.459  -0.578  1.00  0.00     0.213 C 
ENDBRANCH  16  18
ENDBRANCH  15  16
ENDBRANCH   1  14
TORSDOF 6
