REMARK  1 active torsions:
REMARK  status: ('A' for Active; 'I' for Inactive)
REMARK    1  A    between atoms: N3_4  and  C2_6 
ROOT
HETATM    1  C2  UNL     1       0.091  -0.530   0.552  1.00  0.00     0.108 C 
HETATM    2  C3  UNL     1       0.916  -1.465  -0.018  1.00  0.00     0.109 C 
HETATM    3  C4  UNL     1       2.209  -1.285  -0.492  1.00  0.00     0.251 C 
HETATM    4  O1  UNL     1       2.766  -2.284  -1.016  1.00  0.00    -0.268 OA
HETATM    5  N4  UNL     1       2.954  -0.140  -0.457  1.00  0.00    -0.275 N 
ATOM      6  H4  UNL     1       3.950  -0.237  -0.655  1.00  0.00     0.173 HD
HETATM    7  C5  UNL     1       2.509   1.108  -0.187  1.00  0.00     0.330 C 
HETATM    8  O2  UNL     1       3.224   2.050  -0.635  1.00  0.00    -0.246 OA
HETATM    9  N5  UNL     1       1.430   1.557   0.480  1.00  0.00    -0.274 N 
ATOM     10  H5  UNL     1       1.363   2.558   0.663  1.00  0.00     0.173 HD
HETATM   11  C6  UNL     1       0.418   0.753   0.928  1.00  0.00     0.276 C 
HETATM   12  O3  UNL     1      -0.284   1.313   1.808  1.00  0.00    -0.266 OA
ENDROOT
BRANCH   1  13
HETATM   13  N3  UNL     1      -1.222  -0.928   0.769  1.00  0.00    -0.328 N 
HETATM   14  C1  UNL     1      -2.301  -0.338   0.396  1.00  0.00     0.201 C 
HETATM   15  N1  UNL     1      -2.338   0.876  -0.336  1.00  0.00    -0.066 NA
HETATM   16  N2  UNL     1      -3.532  -0.958   0.748  1.00  0.00    -0.066 NA
ATOM     17  H3  UNL     1      -1.345  -1.797   1.289  1.00  0.00     0.168 HD
ENDBRANCH   1  13
TORSDOF 1
