REMARK  7 active torsions:
REMARK  status: ('A' for Active; 'I' for Inactive)
REMARK    1  A    between atoms: C5_5  and  O1_6 
REMARK    2  A    between atoms: C9_11  and  C10_12 
REMARK    3  A    between atoms: C10_12  and  S1_13 
REMARK    4  A    between atoms: S1_13  and  C11_14 
REMARK    5  A    between atoms: C11_14  and  C12_15 
REMARK    6  A    between atoms: C12_15  and  O2_16 
REMARK    7  A    between atoms: N1_18  and  O3_20 
ROOT
HETATM    1  C1  UNL     1      -0.522   1.288  -1.403  1.00  0.00     0.016 C 
HETATM    2  C2  UNL     1      -1.183   0.277  -0.497  1.00  0.00    -0.034 C 
HETATM    3  C3  UNL     1      -2.361  -0.398  -1.145  1.00  0.00     0.012 C 
HETATM    4  C4  UNL     1      -3.524  -0.234  -0.193  1.00  0.00     0.033 C 
HETATM    5  C5  UNL     1      -3.201   1.001   0.590  1.00  0.00     0.123 C 
HETATM    6  C6  UNL     1      -1.702   1.001   0.718  1.00  0.00     0.023 C 
HETATM    7  C7  UNL     1      -1.245   0.183   1.879  1.00  0.00     0.008 C 
HETATM    8  C8  UNL     1       0.092  -0.431   1.424  1.00  0.00     0.007 C 
HETATM    9  C9  UNL     1      -0.195  -0.759   0.000  1.00  0.00     0.003 C 
ENDROOT
BRANCH   9  10
HETATM   10  C10 UNL     1       0.964  -0.939  -0.905  1.00  0.00     0.079 C 
BRANCH  10  11
HETATM   11  S1  UNL     1       2.190  -2.130  -0.421  1.00  0.00    -0.161 SA
BRANCH  11  12
HETATM   12  C11 UNL     1       3.143  -1.617   1.013  1.00  0.00     0.159 C 
BRANCH  12  13
HETATM   13  C12 UNL     1       3.981  -0.457   0.650  1.00  0.00     0.144 C 
HETATM   14  N1  UNL     1       3.877   0.635   1.300  1.00  0.00    -0.250 N 
ATOM     15  H1  UNL     1       3.212   0.701   2.071  1.00  0.00     0.196 HD
BRANCH  13  16
HETATM   16  O2  UNL     1       4.868  -0.585  -0.397  1.00  0.00    -0.348 OA
ATOM     17  H2  UNL     1       5.407   0.161  -0.631  1.00  0.00     0.219 HD
ENDBRANCH  13  16
BRANCH  14  18
HETATM   18  O3  UNL     1       4.659   1.736   0.971  1.00  0.00    -0.288 OA
ATOM     19  H3  UNL     1       4.582   2.550   1.455  1.00  0.00     0.244 HD
ENDBRANCH  14  18
ENDBRANCH  12  13
ENDBRANCH  11  12
ENDBRANCH  10  11
ENDBRANCH   9  10
BRANCH   5  20
HETATM   20  O1  UNL     1      -3.652   2.120  -0.078  1.00  0.00    -0.395 OA
ATOM     21  H1  UNL     1      -3.447   2.903   0.419  1.00  0.00     0.210 HD
ENDBRANCH   5  20
TORSDOF 7
