REMARK  6 active torsions:
REMARK  status: ('A' for Active; 'I' for Inactive)
REMARK    1  A    between atoms: C1_2  and  C2_4 
REMARK    2  A    between atoms: C2_4  and  C15_20 
REMARK    3  A    between atoms: N1_11  and  C9_12 
REMARK    4  A    between atoms: C9_12  and  C10_13 
REMARK    5  A    between atoms: C10_13  and  N2_14 
REMARK    6  A    between atoms: C18_23  and  C19_24 
ROOT
HETATM    1  C2  UNL     1       1.350   0.142  -1.608  1.00  0.00     0.045 C 
HETATM    2  C3  UNL     1       0.562   1.054  -1.208  1.00  0.00     0.020 C 
HETATM    3  C4  UNL     1       0.336   2.340  -1.996  1.00  0.00     0.057 C 
HETATM    4  C5  UNL     1      -0.212   3.407  -1.019  1.00  0.00     0.006 C 
HETATM    5  C6  UNL     1       0.734   3.586   0.124  1.00  0.00     0.002 C 
HETATM    6  C7  UNL     1       0.577   2.682   1.277  1.00  0.00     0.020 C 
HETATM    7  C8  UNL     1      -0.406   1.555   1.169  1.00  0.00     0.123 C 
HETATM    8  N1  UNL     1      -0.278   0.824  -0.076  1.00  0.00    -0.382 N 
ENDROOT
BRANCH   1   9
HETATM    9  C1  UNL     1       2.020   0.376  -2.940  1.00  0.00     0.207 C 
HETATM   10  O1  UNL     1       2.822  -0.519  -3.411  1.00  0.00    -0.644 OA
HETATM   11  O2  UNL     1       1.886   1.448  -3.749  1.00  0.00    -0.644 OA
ENDBRANCH   1   9
BRANCH   1  12
HETATM   12  C15 UNL     1       1.954  -1.047  -0.980  1.00  0.00     0.027 C 
HETATM   13  C16 UNL     1       1.610  -1.591   0.318  1.00  0.00     0.010 C 
HETATM   14  C17 UNL     1       2.685  -2.635   0.744  1.00  0.00     0.014 C 
HETATM   15  C18 UNL     1       3.862  -1.858   1.230  1.00  0.00     0.093 C 
HETATM   16  C20 UNL     1       3.971  -0.550   0.475  1.00  0.00     0.014 C 
HETATM   17  C21 UNL     1       3.498  -0.801  -0.979  1.00  0.00     0.010 C 
BRANCH  15  18
HETATM   18  C19 UNL     1       3.947  -1.617   2.689  1.00  0.00     0.391 C 
HETATM   19  F1  UNL     1       3.997  -2.823   3.404  1.00  0.00    -0.171 F 
HETATM   20  F2  UNL     1       5.122  -0.930   3.016  1.00  0.00    -0.171 F 
HETATM   21  F3  UNL     1       2.918  -0.841   3.152  1.00  0.00    -0.171 F 
ENDBRANCH  15  18
ENDBRANCH   1  12
BRANCH   8  22
HETATM   22  C9  UNL     1      -1.226  -0.274  -0.207  1.00  0.00     0.153 C 
BRANCH  22  23
HETATM   23  C10 UNL     1      -2.638   0.303  -0.362  1.00  0.00     0.292 C 
BRANCH  23  24
HETATM   24  N2  UNL     1      -3.593  -0.781  -0.509  1.00  0.00     0.094 N 
HETATM   25  C11 UNL     1      -4.893  -0.168  -0.683  1.00  0.00     0.298 C 
HETATM   26  C12 UNL     1      -5.798  -0.635   0.414  1.00  0.00     0.198 C 
HETATM   27  O3  UNL     1      -5.931  -2.020   0.450  1.00  0.00    -0.388 OA
HETATM   28  C13 UNL     1      -4.709  -2.656   0.465  1.00  0.00     0.198 C 
HETATM   29  C14 UNL     1      -3.572  -1.670   0.636  1.00  0.00     0.298 C 
ENDBRANCH  23  24
ENDBRANCH  22  23
ENDBRANCH   8  22
TORSDOF 6
