REMARK  13 active torsions:
REMARK  status: ('A' for Active; 'I' for Inactive)
REMARK    1  A    between atoms: N1_2  and  S1_4 
REMARK    2  A    between atoms: S1_4  and  N2_5 
REMARK    3  A    between atoms: S1_4  and  C2_9 
REMARK    4  A    between atoms: C6_13  and  N3_14 
REMARK    5  A    between atoms: N3_14  and  C7_16 
REMARK    6  A    between atoms: C11_23  and  N5_24 
REMARK    7  A    between atoms: N5_24  and  C12_26 
REMARK    8  A    between atoms: C12_26  and  C13_27 
REMARK    9  A    between atoms: C13_27  and  C14_28 
REMARK   10  A    between atoms: C14_28  and  C15_29 
REMARK   11  A    between atoms: C15_29  and  C16_30 
REMARK   12  A    between atoms: C16_30  and  C17_31 
REMARK   13  A    between atoms: C17_31  and  N6_32 
ROOT
HETATM    1  C7  UNL     1      -0.541   0.116  -0.185  1.00  0.00     0.684 A 
HETATM    2  N4  UNL     1      -1.103  -0.281  -1.340  1.00  0.00    -0.194 N 
ATOM      3  H4  UNL     1      -1.995  -0.775  -1.306  1.00  0.00     0.184 HD
HETATM    4  C8  UNL     1      -0.542  -0.055  -2.527  1.00  0.00     0.043 A 
HETATM    5  C9  UNL     1      -1.238  -0.531  -3.755  1.00  0.00     0.070 C 
HETATM    6  C10 UNL     1       0.662   0.609  -2.604  1.00  0.00     0.077 A 
HETATM    7 BR1  UNL     1       1.498   0.954  -4.255  1.00  0.00    -0.045 Br
HETATM    8  C11 UNL     1       1.271   1.034  -1.417  1.00  0.00     0.136 A 
HETATM    9  N7  UNL     1       0.644   0.768  -0.271  1.00  0.00    -0.175 N 
ATOM     10  H7  UNL     1       1.084   1.075   0.596  1.00  0.00     0.186 HD
ENDROOT
BRANCH   1  11
HETATM   11  N3  UNL     1      -1.096  -0.109   0.966  1.00  0.00    -0.192 N 
ATOM     12  H3  UNL     1      -0.663   0.195   1.838  1.00  0.00     0.184 HD
BRANCH  11  13
HETATM   13  C6  UNL     1      -2.339  -0.801   0.950  1.00  0.00     0.050 A 
HETATM   14  C5  UNL     1      -2.422  -2.170   1.099  1.00  0.00     0.030 A 
HETATM   15  C4  UNL     1      -3.629  -2.836   1.083  1.00  0.00     0.004 A 
HETATM   16  C3  UNL     1      -4.805  -2.094   0.909  1.00  0.00     0.024 A 
HETATM   17  C2  UNL     1      -4.765  -0.725   0.758  1.00  0.00     0.060 A 
HETATM   18  C18 UNL     1      -3.539  -0.100   0.780  1.00  0.00     0.053 A 
BRANCH  17  19
HETATM   19  S1  UNL     1      -6.255   0.161   0.544  1.00  0.00     0.132 S 
HETATM   20  O1  UNL     1      -5.996   1.563   1.080  1.00  0.00    -0.224 OA
BRANCH  19  21
HETATM   21  N1  UNL     1      -7.393  -0.428   1.415  1.00  0.00    -0.337 N 
HETATM   22  C1  UNL     1      -8.422   0.501   1.846  1.00  0.00     0.158 C 
ATOM     23  H1  UNL     1      -7.418  -1.415   1.672  1.00  0.00     0.170 HD
ENDBRANCH  19  21
BRANCH  19  24
HETATM   24  N2  UNL     1      -6.690   0.312  -1.102  1.00  0.00    -0.341 N 
ATOM     25  H22 UNL     1      -7.606   0.039  -1.458  1.00  0.00     0.167 HD
ATOM     26  H21 UNL     1      -5.941   0.700  -1.675  1.00  0.00     0.167 HD
ENDBRANCH  19  24
ENDBRANCH  17  19
ENDBRANCH  11  13
ENDBRANCH   1  11
BRANCH   8  27
HETATM   27  N5  UNL     1       2.396   1.653  -1.507  1.00  0.00    -0.375 N 
ATOM     28  H5  UNL     1       2.760   1.787  -2.450  1.00  0.00     0.161 HD
BRANCH  27  29
HETATM   29  C12 UNL     1       3.190   2.171  -0.451  1.00  0.00     0.121 C 
BRANCH  29  30
HETATM   30  C13 UNL     1       4.531   1.466  -0.477  1.00  0.00     0.020 C 
BRANCH  30  31
HETATM   31  C14 UNL     1       4.374  -0.026  -0.295  1.00  0.00     0.002 C 
BRANCH  31  32
HETATM   32  C15 UNL     1       5.737  -0.651  -0.333  1.00  0.00     0.002 C 
BRANCH  32  33
HETATM   33  C16 UNL     1       6.659  -0.155   0.730  1.00  0.00     0.027 C 
BRANCH  33  34
HETATM   34  C17 UNL     1       6.130  -0.419   2.128  1.00  0.00     0.229 C 
BRANCH  34  35
HETATM   35  N6  UNL     1       7.061   0.080   3.122  1.00  0.00    -0.079 N 
ATOM     36  H63 UNL     1       7.998  -0.302   2.991  1.00  0.00     0.274 HD
ATOM     37  H62 UNL     1       7.279   1.066   2.978  1.00  0.00     0.274 HD
ATOM     38  H61 UNL     1       6.706  -0.097   4.061  1.00  0.00     0.274 HD
ENDBRANCH  34  35
ENDBRANCH  33  34
ENDBRANCH  32  33
ENDBRANCH  31  32
ENDBRANCH  30  31
ENDBRANCH  29  30
ENDBRANCH  27  29
ENDBRANCH   8  27
TORSDOF 13
