REMARK  9 active torsions:
REMARK  status: ('A' for Active; 'I' for Inactive)
REMARK    1  A    between atoms: C1_2  and  C2_4 
REMARK    2  A    between atoms: C2_4  and  C3_5 
REMARK    3  A    between atoms: C2_4  and  N3_13 
REMARK    4  A    between atoms: C3_5  and  C4_6 
REMARK    5  A    between atoms: N3_13  and  S1_15 
REMARK    6  A    between atoms: S1_15  and  C7_18 
REMARK    7  A    between atoms: C11_22  and  C12_23 
REMARK    8  A    between atoms: C12_23  and  O5_24 
REMARK    9  A    between atoms: C12_23  and  C13_26 
ROOT
HETATM    1  S1  UNL     1      -1.029  -1.790   2.375  1.00  0.00     0.259 S 
HETATM    2  O3  UNL     1      -1.632  -3.133   2.643  1.00  0.00    -0.201 OA
HETATM    3  O4  UNL     1      -0.391  -1.327   3.670  1.00  0.00    -0.201 OA
ENDROOT
BRANCH   1   4
HETATM    4  N3  UNL     1      -2.192  -0.614   1.935  1.00  0.00    -0.300 N 
ATOM      5  H3  UNL     1      -2.366   0.221   2.495  1.00  0.00     0.173 HD
BRANCH   4   6
HETATM    6  C2  UNL     1      -2.898  -0.887   0.732  1.00  0.00     0.199 C 
BRANCH   6   7
HETATM    7  C1  UNL     1      -4.354  -1.014   0.899  1.00  0.00     0.197 C 
HETATM    8  O1  UNL     1      -4.855  -0.868   2.042  1.00  0.00    -0.646 OA
HETATM    9  O2  UNL     1      -5.219  -1.291  -0.143  1.00  0.00    -0.646 OA
ENDBRANCH   6   7
BRANCH   6  10
HETATM   10  C3  UNL     1      -2.578   0.152  -0.323  1.00  0.00     0.095 C 
BRANCH  10  11
HETATM   11  C4  UNL     1      -3.080   1.494  -0.021  1.00  0.00     0.028 A 
HETATM   12  C5  UNL     1      -4.300   2.001  -0.378  1.00  0.00     0.114 A 
HETATM   13  N1  UNL     1      -4.410   3.256   0.069  1.00  0.00    -0.360 N 
HETATM   14  C6  UNL     1      -3.247   3.509   0.701  1.00  0.00     0.180 A 
ATOM     15  H1  UNL     1      -5.204   3.887  -0.044  1.00  0.00     0.166 HD
HETATM   16  N2  UNL     1      -2.444   2.454   0.651  1.00  0.00    -0.354 N 
ATOM     17  H2  UNL     1      -1.509   2.389   1.054  1.00  0.00     0.166 HD
ENDBRANCH  10  11
ENDBRANCH   6  10
ENDBRANCH   4   6
ENDBRANCH   1   4
BRANCH   1  18
HETATM   18  C7  UNL     1       0.244  -1.986   1.216  1.00  0.00     0.080 A 
HETATM   19  C8  UNL     1       0.117  -2.914   0.210  1.00  0.00     0.025 A 
HETATM   20  C9  UNL     1       1.120  -3.101  -0.743  1.00  0.00     0.002 A 
HETATM   21  C10 UNL     1       2.271  -2.344  -0.687  1.00  0.00     0.010 A 
HETATM   22  C11 UNL     1       2.397  -1.414   0.322  1.00  0.00    -0.024 A 
HETATM   23  C19 UNL     1       1.394  -1.230   1.273  1.00  0.00     0.035 A 
BRANCH  22  24
HETATM   24  C12 UNL     1       3.621  -0.604   0.388  1.00  0.00     0.184 C 
BRANCH  24  25
HETATM   25  O5  UNL     1       4.738  -1.427   0.197  1.00  0.00    -0.386 OA
ATOM     26  H5  UNL     1       5.529  -0.903   0.240  1.00  0.00     0.210 HD
ENDBRANCH  24  25
BRANCH  24  27
HETATM   27  C13 UNL     1       3.680   0.440  -0.663  1.00  0.00    -0.024 A 
HETATM   28  C14 UNL     1       4.889   1.052  -0.903  1.00  0.00     0.010 A 
HETATM   29  C15 UNL     1       5.016   2.045  -1.879  1.00  0.00     0.002 A 
HETATM   30  C16 UNL     1       3.915   2.421  -2.618  1.00  0.00     0.019 A 
HETATM   31  C17 UNL     1       2.687   1.810  -2.386  1.00  0.00     0.011 A 
HETATM   32 BR1  UNL     1       1.186   2.349  -3.422  1.00  0.00    -0.051 Br
HETATM   33  C18 UNL     1       2.590   0.829  -1.412  1.00  0.00     0.029 A 
ENDBRANCH  24  27
ENDBRANCH  22  24
ENDBRANCH   1  18
TORSDOF 9
