REMARK  6 active torsions:
REMARK  status: ('A' for Active; 'I' for Inactive)
REMARK    1  A    between atoms: N1_2  and  C2_5 
REMARK    2  A    between atoms: C2_5  and  C4_7 
REMARK       I    between atoms: C4_7  and  N2_9 
REMARK    3  A    between atoms: C8_13  and  N3_14 
REMARK    4  A    between atoms: N3_14  and  C9_16 
REMARK    5  A    between atoms: C9_16  and  C10_17 
REMARK    6  A    between atoms: C9_16  and  C13_20 
ROOT
HETATM    1  C4  UNL     1       3.131   0.961   0.083  1.00  0.00     0.250 C 
HETATM    2  O1  UNL     1       2.855   2.200   0.142  1.00  0.00    -0.271 OA
HETATM    3  N2  UNL     1       2.128   0.008   0.502  1.00  0.00    -0.348 N 
HETATM    4  C5  UNL     1       2.375  -1.404   0.415  1.00  0.00     0.126 C 
HETATM    5  C6  UNL     1       1.147  -2.198   0.076  1.00  0.00     0.022 C 
HETATM    6  C7  UNL     1       0.022  -1.719   0.973  1.00  0.00     0.028 C 
HETATM    7  C8  UNL     1      -0.305  -0.328   0.509  1.00  0.00     0.095 C 
HETATM    8  C17 UNL     1       0.866   0.530   1.039  1.00  0.00     0.150 C 
ENDROOT
BRANCH   7   9
HETATM    9  N3  UNL     1      -1.520   0.235   0.632  1.00  0.00    -0.410 N 
ATOM     10  H3  UNL     1      -1.541   0.929   1.379  1.00  0.00     0.154 HD
BRANCH   9  11
HETATM   11  C9  UNL     1      -2.753   0.116   0.005  1.00  0.00     0.088 C 
BRANCH  11  12
HETATM   12  C10 UNL     1      -3.318  -1.239   0.011  1.00  0.00     0.000 C 
HETATM   13  C11 UNL     1      -4.740  -1.428  -0.491  1.00  0.00     0.011 C 
HETATM   14  C12 UNL     1      -2.565  -2.071  -1.116  1.00  0.00     0.011 C 
ENDBRANCH  11  12
BRANCH  11  15
HETATM   15  C13 UNL     1      -3.682   1.262   0.395  1.00  0.00    -0.024 A 
HETATM   16  C14 UNL     1      -5.023   1.367  -0.245  1.00  0.00     0.017 C 
HETATM   17  C15 UNL     1      -3.502   1.884   1.752  1.00  0.00     0.012 A 
HETATM   18  C16 UNL     1      -2.949   2.583   0.602  1.00  0.00     0.012 A 
ENDBRANCH  11  15
ENDBRANCH   9  11
ENDBRANCH   7   9
BRANCH   1  19
HETATM   19  C2  UNL     1       4.423   0.450  -0.391  1.00  0.00     0.272 C 
HETATM   20  C3  UNL     1       5.168  -0.122   0.804  1.00  0.00     0.050 C 
BRANCH  19  21
HETATM   21  N1  UNL     1       5.196   1.631  -0.808  1.00  0.00    -0.067 N 
HETATM   22  C1  UNL     1       6.527   1.236  -1.232  1.00  0.00     0.267 C 
ATOM     23  H12 UNL     1       5.224   2.344  -0.079  1.00  0.00     0.277 HD
ATOM     24  H11 UNL     1       4.711   2.169  -1.526  1.00  0.00     0.277 HD
ENDBRANCH  19  21
ENDBRANCH   1  19
TORSDOF 6
