REMARK  7 active torsions:
REMARK  status: ('A' for Active; 'I' for Inactive)
REMARK    1  A    between atoms: C2_2  and  O1_3 
REMARK    2  A    between atoms: O1_3  and  C3_4 
REMARK    3  A    between atoms: C3_4  and  C4_6 
REMARK    4  A    between atoms: C5_9  and  N2_10 
REMARK    5  A    between atoms: N2_10  and  N3_12 
REMARK    6  A    between atoms: C7_22  and  S1_23 
REMARK    7  A    between atoms: S1_23  and  N7_26 
REMARK       I    between atoms: N7_26  and  C8_28 
ROOT
HETATM    1  C4  UNL     1      -0.952   0.773  -0.492  1.00  0.00     0.141 A 
HETATM    2  N1  UNL     1      -1.762   1.848  -0.824  1.00  0.00    -0.183 N 
ATOM      3  H1  UNL     1      -2.663   1.945  -0.356  1.00  0.00     0.184 HD
HETATM    4  C5  UNL     1      -1.411   2.755  -1.726  1.00  0.00     0.698 A 
HETATM    5  N4  UNL     1      -0.241   2.681  -2.375  1.00  0.00    -0.173 N 
ATOM      6  H4  UNL     1       0.014   3.388  -3.065  1.00  0.00     0.186 HD
HETATM    7  C6  UNL     1       0.587   1.668  -2.106  1.00  0.00     0.151 A 
HETATM    8  N5  UNL     1       1.765   1.362  -2.627  1.00  0.00    -0.283 N 
ATOM      9  H5  UNL     1       2.266   1.894  -3.338  1.00  0.00     0.188 HD
HETATM   10  N6  UNL     1       2.166   0.259  -2.066  1.00  0.00    -0.286 N 
ATOM     11  H6  UNL     1       3.049  -0.204  -2.283  1.00  0.00     0.188 HD
HETATM   12  C7  UNL     1       1.256  -0.208  -1.145  1.00  0.00     0.180 A 
HETATM   13  C10 UNL     1       0.234   0.715  -1.171  1.00  0.00     0.085 A 
ENDROOT
BRANCH  12  14
HETATM   14  S1  UNL     1       1.530  -1.684  -0.332  1.00  0.00     0.283 S 
HETATM   15  O3  UNL     1       0.543  -2.798  -0.495  1.00  0.00    -0.199 OA
HETATM   16  O4  UNL     1       2.649  -2.372  -1.224  1.00  0.00    -0.199 OA
BRANCH  14  17
HETATM   17  N7  UNL     1       2.339  -1.591   1.170  1.00  0.00    -0.249 N 
HETATM   18  C8  UNL     1       3.684  -1.984   1.399  1.00  0.00     0.227 C 
HETATM   19  C9  UNL     1       4.361  -1.897   2.712  1.00  0.00     0.118 C 
HETATM   20  O5  UNL     1       4.340  -2.433   0.438  1.00  0.00    -0.273 OA
ATOM     21  H7  UNL     1       1.815  -1.224   1.964  1.00  0.00     0.182 HD
ENDBRANCH  14  17
ENDBRANCH  12  14
BRANCH   1  22
HETATM   22  C3  UNL     1      -1.373  -0.137   0.504  1.00  0.00     0.311 C 
HETATM   23  O2  UNL     1      -0.893  -1.057   1.064  1.00  0.00    -0.258 OA
BRANCH  22  24
HETATM   24  O1  UNL     1      -2.712   0.078   0.965  1.00  0.00    -0.317 OA
BRANCH  24  25
HETATM   25  C2  UNL     1      -3.312  -0.737   1.952  1.00  0.00     0.175 C 
HETATM   26  C1  UNL     1      -3.379  -2.191   1.485  1.00  0.00     0.034 C 
ENDBRANCH  24  25
ENDBRANCH  22  24
ENDBRANCH   1  22
BRANCH   4  27
HETATM   27  N2  UNL     1      -2.172   3.758  -2.039  1.00  0.00    -0.138 N 
ATOM     28  H2  UNL     1      -3.075   3.853  -1.575  1.00  0.00     0.205 HD
BRANCH  27  29
HETATM   29  N3  UNL     1      -1.803   4.704  -2.980  1.00  0.00    -0.331 N 
ATOM     30  H32 UNL     1      -0.897   4.594  -3.434  1.00  0.00     0.177 HD
ATOM     31  H31 UNL     1      -2.401   5.493  -3.226  1.00  0.00     0.177 HD
ENDBRANCH  27  29
ENDBRANCH   4  27
TORSDOF 7
