REMARK  6 active torsions:
REMARK  status: ('A' for Active; 'I' for Inactive)
REMARK    1  A    between atoms: C6_7  and  N2_8 
REMARK    2  A    between atoms: N2_8  and  C7_10 
REMARK    3  A    between atoms: C11_14  and  S1_15 
REMARK    4  A    between atoms: S1_15  and  N3_18 
REMARK    5  A    between atoms: N3_18  and  C12_20 
REMARK    6  A    between atoms: C17_25  and  C18_26 
ROOT
HETATM    1  N1  UNL     1      -7.466   2.617   4.107  1.00  0.00    -0.191 NA
HETATM    2  C1  UNL     1      -6.657   2.011   3.543  1.00  0.00     0.099 C 
HETATM    3  C2  UNL     1      -5.651   1.261   2.864  1.00  0.00     0.046 A 
HETATM    4  C3  UNL     1      -4.304   1.435   3.178  1.00  0.00     0.024 A 
HETATM    5  C4  UNL     1      -3.319   0.729   2.544  1.00  0.00     0.019 A 
HETATM    6  C5  UNL     1      -3.623  -0.180   1.571  1.00  0.00     0.035 A 
HETATM    7  C6  UNL     1      -2.645  -0.903   0.919  1.00  0.00     0.120 A 
HETATM    8  N5  UNL     1      -3.041  -1.767  -0.016  1.00  0.00    -0.318 N 
ATOM      9  H5  UNL     1      -2.333  -2.310  -0.510  1.00  0.00     0.170 HD
HETATM   10  C20 UNL     1      -4.339  -1.954  -0.338  1.00  0.00     0.177 A 
HETATM   11  S2  UNL     1      -4.766  -3.030  -1.496  1.00  0.00    -0.040 SA
HETATM   12  N6  UNL     1      -5.307  -1.240   0.306  1.00  0.00    -0.332 N 
ATOM     13  H6  UNL     1      -6.291  -1.373   0.071  1.00  0.00     0.168 HD
HETATM   14  C21 UNL     1      -4.948  -0.364   1.249  1.00  0.00     0.049 A 
HETATM   15  C22 UNL     1      -5.957   0.345   1.885  1.00  0.00     0.053 A 
ENDROOT
BRANCH   7  16
HETATM   16  N2  UNL     1      -1.393  -0.718   1.235  1.00  0.00    -0.342 N 
ATOM     17  H2  UNL     1      -1.117  -0.050   1.955  1.00  0.00     0.167 HD
BRANCH  16  18
HETATM   18  C7  UNL     1      -0.416  -1.503   0.518  1.00  0.00     0.035 A 
HETATM   19  C8  UNL     1      -0.142  -2.794   0.915  1.00  0.00     0.029 A 
HETATM   20  C9  UNL     1       0.791  -3.541   0.230  1.00  0.00     0.004 A 
HETATM   21  C10 UNL     1       1.447  -2.987  -0.857  1.00  0.00     0.025 A 
HETATM   22  C11 UNL     1       1.201  -1.701  -1.284  1.00  0.00     0.082 A 
HETATM   23  C19 UNL     1       0.248  -0.968  -0.567  1.00  0.00     0.054 A 
BRANCH  22  24
HETATM   24  S1  UNL     1       2.018  -1.034  -2.665  1.00  0.00     0.263 S 
HETATM   25  O1  UNL     1       2.170  -2.070  -3.763  1.00  0.00    -0.200 OA
HETATM   26  O2  UNL     1       1.213   0.138  -3.180  1.00  0.00    -0.200 OA
BRANCH  24  27
HETATM   27  N3  UNL     1       3.568  -0.436  -2.226  1.00  0.00    -0.280 N 
ATOM     28  H3  UNL     1       4.376  -0.867  -2.676  1.00  0.00     0.179 HD
BRANCH  27  29
HETATM   29  C12 UNL     1       3.825   0.595  -1.301  1.00  0.00     0.058 A 
HETATM   30  C13 UNL     1       3.561   0.419   0.038  1.00  0.00     0.031 A 
HETATM   31  C14 UNL     1       3.849   1.432   0.927  1.00  0.00     0.002 A 
HETATM   32  C15 UNL     1       4.399   2.636   0.535  1.00  0.00     0.001 A 
HETATM   33  C16 UNL     1       4.645   2.768  -0.812  1.00  0.00     0.019 A 
HETATM   34  C17 UNL     1       4.370   1.773  -1.742  1.00  0.00     0.056 A 
BRANCH  34  35
HETATM   35  C18 UNL     1       4.661   2.021  -3.167  1.00  0.00     0.267 C 
HETATM   36  N4  UNL     1       5.230   3.235  -3.607  1.00  0.00    -0.057 NA
HETATM   37  O3  UNL     1       4.405   1.150  -4.000  1.00  0.00    -0.271 OA
ENDBRANCH  34  35
ENDBRANCH  27  29
ENDBRANCH  24  27
ENDBRANCH  22  24
ENDBRANCH  16  18
ENDBRANCH   7  16
TORSDOF 6
