REMARK  7 active torsions:
REMARK  status: ('A' for Active; 'I' for Inactive)
REMARK    1  A    between atoms: C1_2  and  C2_4 
REMARK    2  A    between atoms: C5_7  and  N2_8 
REMARK       I    between atoms: N2_8  and  C6_10 
REMARK    3  A    between atoms: C6_10  and  C7_12 
REMARK    4  A    between atoms: C8_16  and  C9_17 
REMARK    5  A    between atoms: C12_23  and  C13_24 
REMARK    6  A    between atoms: C16_27  and  C17_28 
REMARK    7  A    between atoms: C18_29  and  C19_30 
ROOT
HETATM    1  C2  UNL     1      -2.755   0.540   2.195  1.00  0.00     0.040 A 
HETATM    2  C3  UNL     1      -4.058   0.861   1.738  1.00  0.00     0.020 A 
HETATM    3  C4  UNL     1      -4.302   1.180   0.438  1.00  0.00     0.030 A 
HETATM    4  C5  UNL     1      -3.252   1.192  -0.460  1.00  0.00     0.035 A 
HETATM    5  C11 UNL     1      -2.004   0.878  -0.005  1.00  0.00     0.043 A 
HETATM    6  C12 UNL     1      -1.720   0.544   1.329  1.00  0.00    -0.008 A 
ENDROOT
BRANCH   4   7
HETATM    7  N2  UNL     1      -3.544   1.572  -1.784  1.00  0.00    -0.322 N 
HETATM    8  C6  UNL     1      -3.260   0.711  -2.871  1.00  0.00     0.266 C 
HETATM    9  O2  UNL     1      -2.751  -0.426  -2.777  1.00  0.00    -0.267 OA
ATOM     10  H2  UNL     1      -3.967   2.483  -1.963  1.00  0.00     0.169 HD
BRANCH   8  11
HETATM   11  C7  UNL     1      -3.605   1.224  -4.226  1.00  0.00     0.116 A 
HETATM   12  S1  UNL     1      -4.260   2.732  -4.663  1.00  0.00    -0.007 SA
HETATM   13  N3  UNL     1      -4.341   2.510  -6.317  1.00  0.00    -0.320 N 
HETATM   14  C8  UNL     1      -3.865   1.272  -6.522  1.00  0.00     0.130 A 
ATOM     15  H3  UNL     1      -4.678   3.170  -7.017  1.00  0.00     0.174 HD
HETATM   16  C10 UNL     1      -3.473   0.587  -5.416  1.00  0.00     0.102 A 
HETATM   17  N5  UNL     1      -2.936  -0.771  -5.476  1.00  0.00    -0.098 NA
BRANCH  14  18
HETATM   18  C9  UNL     1      -3.846   0.747  -7.903  1.00  0.00     0.283 C 
HETATM   19  N4  UNL     1      -4.274   1.508  -9.013  1.00  0.00    -0.056 NA
HETATM   20  O3  UNL     1      -3.425  -0.433  -8.075  1.00  0.00    -0.269 OA
ENDBRANCH  14  18
ENDBRANCH   8  11
ENDBRANCH   4   7
BRANCH   6  21
HETATM   21  C13 UNL     1      -0.372   0.178   1.683  1.00  0.00    -0.025 A 
HETATM   22  C14 UNL     1      -0.043  -1.134   2.022  1.00  0.00     0.014 A 
HETATM   23  C15 UNL     1       1.245  -1.414   2.375  1.00  0.00     0.021 A 
HETATM   24  C16 UNL     1       2.203  -0.407   2.394  1.00  0.00     0.018 A 
HETATM   25  C25 UNL     1       1.895   0.893   2.063  1.00  0.00     0.021 A 
HETATM   26  C26 UNL     1       0.595   1.189   1.703  1.00  0.00     0.014 A 
BRANCH  24  27
HETATM   27  C17 UNL     1       3.555  -0.676   2.781  1.00  0.00    -0.061 C 
HETATM   28  C18 UNL     1       4.690  -0.916   3.087  1.00  0.00    -0.061 C 
BRANCH  28  29
HETATM   29  C19 UNL     1       6.049  -1.203   3.422  1.00  0.00     0.018 A 
HETATM   30  C20 UNL     1       6.889  -1.878   2.538  1.00  0.00     0.020 A 
HETATM   31  C21 UNL     1       8.193  -2.139   2.897  1.00  0.00     0.001 A 
HETATM   32  C22 UNL     1       8.724  -1.756   4.120  1.00  0.00     0.000 A 
HETATM   33  C23 UNL     1       7.902  -1.093   4.988  1.00  0.00     0.001 A 
HETATM   34  C24 UNL     1       6.572  -0.820   4.634  1.00  0.00     0.020 A 
ENDBRANCH  28  29
ENDBRANCH  24  27
ENDBRANCH   6  21
BRANCH   1  35
HETATM   35  C1  UNL     1      -2.645   0.238   3.590  1.00  0.00     0.265 C 
HETATM   36  N1  UNL     1      -1.457   0.358   4.328  1.00  0.00    -0.057 NA
HETATM   37  O1  UNL     1      -3.659  -0.151   4.224  1.00  0.00    -0.271 OA
ENDBRANCH   1  35
TORSDOF 7
