REMARK  4 active torsions:
REMARK  status: ('A' for Active; 'I' for Inactive)
REMARK    1  A    between atoms: C12_15  and  C13_16 
REMARK    2  A    between atoms: C14_17  and  C15_18 
REMARK    3  A    between atoms: C15_18  and  N3_19 
REMARK       I    between atoms: N3_19  and  C16_20 
REMARK       I    between atoms: C16_20  and  N4_22 
REMARK    4  A    between atoms: N4_22  and  C17_24 
ROOT
HETATM    1  C1  UNL     1      -4.159  -3.388   0.673  1.00  0.00     0.157 C 
HETATM    2  N1  UNL     1      -4.566  -2.031   0.494  1.00  0.00    -0.345 N 
HETATM    3  C2  UNL     1      -5.878  -1.664   0.460  1.00  0.00     0.183 A 
HETATM    4  N2  UNL     1      -5.987  -0.357   0.278  1.00  0.00    -0.350 N 
ATOM      5  H2  UNL     1      -6.859   0.169   0.216  1.00  0.00     0.166 HD
HETATM    6  C3  UNL     1      -4.738   0.159   0.189  1.00  0.00     0.072 A 
HETATM    7  C4  UNL     1      -4.302   1.445  -0.003  1.00  0.00     0.004 A 
HETATM    8  C5  UNL     1      -5.234   2.467  -0.132  1.00  0.00     0.014 A 
HETATM    9  C6  UNL     1      -4.801   3.744  -0.319  1.00  0.00     0.001 A 
HETATM   10  C7  UNL     1      -3.439   4.015  -0.381  1.00  0.00     0.001 A 
HETATM   11  C8  UNL     1      -2.502   3.013  -0.256  1.00  0.00     0.013 A 
HETATM   12  C9  UNL     1      -2.939   1.721  -0.066  1.00  0.00    -0.012 A 
HETATM   13  C10 UNL     1      -2.087   0.651   0.074  1.00  0.00    -0.011 A 
HETATM   14  C11 UNL     1      -0.720   0.865   0.013  1.00  0.00     0.034 A 
HETATM   15  C12 UNL     1       0.223  -0.162   0.139  1.00  0.00     0.019 A 
HETATM   16  C18 UNL     1      -0.249  -1.412   0.329  1.00  0.00     0.021 A 
HETATM   17  C19 UNL     1      -1.620  -1.689   0.399  1.00  0.00     0.016 A 
HETATM   18  C20 UNL     1      -2.508  -0.666   0.271  1.00  0.00     0.004 A 
HETATM   19  C21 UNL     1      -3.866  -0.923   0.330  1.00  0.00     0.074 A 
ENDROOT
BRANCH  15  20
HETATM   20  C13 UNL     1       1.608   0.182   0.036  1.00  0.00    -0.060 C 
HETATM   21  C14 UNL     1       2.768   0.475  -0.081  1.00  0.00    -0.041 C 
BRANCH  21  22
HETATM   22  C15 UNL     1       4.194   0.839  -0.265  1.00  0.00     0.252 C 
BRANCH  22  23
HETATM   23  N3  UNL     1       5.064  -0.215   0.017  1.00  0.00    -0.355 NA
HETATM   24  C16 UNL     1       5.887  -1.213   0.284  1.00  0.00     0.412 C 
HETATM   25  O1  UNL     1       6.083  -1.838   1.353  1.00  0.00    -0.229 OA
HETATM   26  N4  UNL     1       6.748  -1.731  -0.801  1.00  0.00    -0.126 N 
ATOM     27  H4  UNL     1       6.534  -2.627  -1.238  1.00  0.00     0.190 HD
BRANCH  26  28
HETATM   28  C17 UNL     1       7.759  -1.055  -1.190  1.00  0.00     0.730 A 
HETATM   29  N5  UNL     1       8.275   0.122  -0.817  1.00  0.00    -0.069 N 
HETATM   30  O2  UNL     1       9.205  -0.037  -1.708  1.00  0.00    -0.127 OA
ATOM     31  H5  UNL     1       8.039   0.837  -0.129  1.00  0.00     0.215 HD
HETATM   32  N6  UNL     1       8.737  -1.183  -2.099  1.00  0.00    -0.069 N 
ATOM     33  H6  UNL     1       9.000  -1.880  -2.796  1.00  0.00     0.215 HD
ENDBRANCH  26  28
ENDBRANCH  22  23
ENDBRANCH  21  22
ENDBRANCH  15  20
TORSDOF 4
