REMARK  9 active torsions:
REMARK  status: ('A' for Active; 'I' for Inactive)
REMARK    1  A    between atoms: C2_2  and  C4_4 
REMARK    2  A    between atoms: C4_4  and  C5_5 
REMARK    3  A    between atoms: C4_4  and  C7_7 
REMARK    4  A    between atoms: C7_7  and  N1_8 
REMARK    5  A    between atoms: C15_16  and  C16_17 
REMARK    6  A    between atoms: C16_17  and  C17_18 
REMARK    7  A    between atoms: C17_18  and  C18_19 
REMARK       I    between atoms: C18_19  and  N2_21 
REMARK    8  A    between atoms: C23_28  and  O4_29 
REMARK    9  A    between atoms: C25_31  and  O5_32 
ROOT
HETATM    1  N1  UNL     1      -2.126  -0.717  -0.053  1.00  0.00     0.131 N 
HETATM    2  C8  UNL     1      -2.257  -0.759   1.370  1.00  0.00     0.278 C 
HETATM    3  C9  UNL     1      -1.852   0.568   1.936  1.00  0.00     0.048 C 
HETATM    4  C10 UNL     1      -1.117   1.278   0.799  1.00  0.00     0.054 C 
HETATM    5  C11 UNL     1       0.314   1.457   1.321  1.00  0.00     0.026 C 
HETATM    6  C12 UNL     1       1.258   1.562   0.176  1.00  0.00     0.042 C 
HETATM    7  C13 UNL     1       2.653   1.911   0.588  1.00  0.00     0.012 C 
HETATM    8  C14 UNL     1       3.464   0.793   1.145  1.00  0.00     0.032 C 
HETATM    9  C15 UNL     1       3.308  -0.408   0.233  1.00  0.00     0.125 C 
HETATM   10  O2  UNL     1       1.937  -0.708   0.236  1.00  0.00    -0.356 OA
HETATM   11  C21 UNL     1       1.198   0.226  -0.537  1.00  0.00     0.267 C 
HETATM   12  O3  UNL     1      -0.013  -0.294  -0.697  1.00  0.00    -0.318 OA
HETATM   13  C22 UNL     1      -1.161   0.357  -0.374  1.00  0.00     0.302 C 
HETATM   14  C23 UNL     1      -1.653   0.999  -1.637  1.00  0.00     0.219 C 
HETATM   15  C25 UNL     1      -2.761   2.008  -1.403  1.00  0.00     0.183 C 
HETATM   16  C26 UNL     1      -2.030   3.147  -0.675  1.00  0.00     0.186 C 
HETATM   17  O6  UNL     1      -2.902   4.209  -0.416  1.00  0.00    -0.345 OA
HETATM   18  C27 UNL     1      -3.327   4.049   0.893  1.00  0.00     0.158 C 
HETATM   19  C28 UNL     1      -4.860   4.076   0.884  1.00  0.00     0.078 C 
HETATM   20  C29 UNL     1      -2.848   5.134   1.817  1.00  0.00     0.078 C 
HETATM   21  O7  UNL     1      -2.954   2.789   1.314  1.00  0.00    -0.347 OA
HETATM   22  C30 UNL     1      -1.701   2.627   0.673  1.00  0.00     0.170 C 
ENDROOT
BRANCH   1  23
HETATM   23  C7  UNL     1      -1.653  -1.990  -0.498  1.00  0.00     0.311 C 
BRANCH  23  24
HETATM   24  C4  UNL     1      -2.532  -3.153  -0.397  1.00  0.00    -0.047 C 
BRANCH  24  25
HETATM   25  C2  UNL     1      -3.819  -3.097  -1.133  1.00  0.00    -0.067 C 
HETATM   26  C1  UNL     1      -5.012  -3.140  -0.567  1.00  0.00     0.018 C 
HETATM   27  C3  UNL     1      -3.811  -3.010  -2.643  1.00  0.00     0.047 C 
ENDBRANCH  24  25
BRANCH  24  28
HETATM   28  C5  UNL     1      -2.648  -3.830   0.945  1.00  0.00     0.032 C 
HETATM   29  C6  UNL     1      -3.104  -5.259   0.740  1.00  0.00     0.010 C 
ENDBRANCH  24  28
ENDBRANCH  23  24
ENDBRANCH   1  23
BRANCH  14  30
HETATM   30  O4  UNL     1      -1.954   0.114  -2.630  1.00  0.00    -0.383 OA
HETATM   31  C24 UNL     1      -1.163   0.252  -3.763  1.00  0.00     0.202 C 
ENDBRANCH  14  30
BRANCH  15  32
HETATM   32  O5  UNL     1      -3.773   1.540  -0.600  1.00  0.00    -0.390 OA
ATOM     33  H5  UNL     1      -4.467   2.172  -0.453  1.00  0.00     0.210 HD
ENDBRANCH  15  32
BRANCH   9  34
HETATM   34  C16 UNL     1       3.986  -1.593   0.831  1.00  0.00     0.041 C 
BRANCH  34  35
HETATM   35  C17 UNL     1       5.445  -1.351   1.027  1.00  0.00     0.105 C 
BRANCH  35  36
HETATM   36  C18 UNL     1       6.216  -1.095  -0.196  1.00  0.00     0.219 C 
HETATM   37  O1  UNL     1       5.679  -1.166  -1.317  1.00  0.00    -0.273 OA
HETATM   38  N2  UNL     1       7.585  -0.766  -0.104  1.00  0.00    -0.361 N 
HETATM   39  C19 UNL     1       8.272  -0.671   1.156  1.00  0.00     0.152 C 
HETATM   40  C20 UNL     1       8.357  -0.507  -1.324  1.00  0.00     0.152 C 
ENDBRANCH  35  36
ENDBRANCH  34  35
ENDBRANCH   9  34
TORSDOF 9
