REMARK  9 active torsions:
REMARK  status: ('A' for Active; 'I' for Inactive)
REMARK    1  A    between atoms: C3_3  and  O1_4 
REMARK    2  A    between atoms: C5_6  and  C6_7 
REMARK    3  A    between atoms: C6_7  and  O2_8 
REMARK    4  A    between atoms: C11_17  and  C12_18 
REMARK    5  A    between atoms: C12_18  and  O4_19 
REMARK    6  A    between atoms: C12_18  and  C13_21 
REMARK    7  A    between atoms: C13_21  and  O5_24 
REMARK    8  A    between atoms: C16_26  and  O6_27 
REMARK    9  A    between atoms: C17_29  and  O7_30 
ROOT
HETATM    1  C1  UNL     1      -2.588  -0.775  -2.570  1.00  0.00     0.100 C 
HETATM    2  C2  UNL     1      -2.213  -0.151  -1.590  1.00  0.00    -0.147 C 
HETATM    3  C3  UNL     1      -1.752   0.614  -0.450  1.00  0.00     0.148 C 
HETATM    4  C5  UNL     1      -2.099   0.112   0.883  1.00  0.00     0.094 C 
HETATM    5  C7  UNL     1      -1.071  -0.663   1.653  1.00  0.00     0.098 A 
HETATM    6  N1  UNL     1      -1.511  -1.049   2.933  1.00  0.00    -0.382 N 
ATOM      7  H1  UNL     1      -1.781  -0.482   3.737  1.00  0.00     0.160 HD
HETATM    8  C8  UNL     1      -1.472  -2.351   2.788  1.00  0.00     0.095 A 
HETATM    9  C9  UNL     1      -1.000  -2.131   1.440  1.00  0.00     0.010 A 
HETATM   10  C10 UNL     1      -0.556  -2.465   0.246  1.00  0.00     0.147 C 
HETATM   11  O3  UNL     1      -0.245  -1.362  -0.560  1.00  0.00    -0.343 OA
HETATM   12  C11 UNL     1       0.514  -0.238  -0.065  1.00  0.00     0.153 C 
HETATM   13  C16 UNL     1      -0.260   0.970  -0.594  1.00  0.00     0.205 C 
HETATM   14  C17 UNL     1       0.328  -0.180   1.418  1.00  0.00     0.192 C 
ENDROOT
BRANCH   3  15
HETATM   15  O1  UNL     1      -2.385   1.885  -0.600  1.00  0.00    -0.370 OA
HETATM   16  C4  UNL     1      -2.055   2.499  -1.792  1.00  0.00     0.204 C 
ENDBRANCH   3  15
BRANCH   4  17
HETATM   17  C6  UNL     1      -3.444  -0.511   0.910  1.00  0.00     0.175 C 
BRANCH  17  18
HETATM   18  O2  UNL     1      -3.677  -1.588   0.116  1.00  0.00    -0.400 OA
ATOM     19  H2  UNL     1      -4.539  -1.987   0.133  1.00  0.00     0.209 HD
ENDBRANCH  17  18
ENDBRANCH   4  17
BRANCH  13  20
HETATM   20  O6  UNL     1      -0.092   2.090   0.218  1.00  0.00    -0.388 OA
ATOM     21  H6  UNL     1       0.828   2.310   0.129  1.00  0.00     0.210 HD
ENDBRANCH  13  20
BRANCH  12  22
HETATM   22  C12 UNL     1       1.859  -0.427  -0.592  1.00  0.00     0.192 C 
BRANCH  22  23
HETATM   23  O4  UNL     1       2.349  -1.641  -0.110  1.00  0.00    -0.389 OA
ATOM     24  H4  UNL     1       3.226  -1.764  -0.454  1.00  0.00     0.210 HD
ENDBRANCH  22  23
BRANCH  22  25
HETATM   25  C13 UNL     1       2.879   0.615  -0.507  1.00  0.00     0.079 C 
HETATM   26  C14 UNL     1       4.022   0.195  -1.455  1.00  0.00     0.048 C 
HETATM   27  C15 UNL     1       3.532   0.816   0.833  1.00  0.00     0.048 C 
BRANCH  25  28
HETATM   28  O5  UNL     1       2.508   1.861  -0.965  1.00  0.00    -0.388 OA
ATOM     29  H5  UNL     1       3.171   2.539  -0.910  1.00  0.00     0.210 HD
ENDBRANCH  25  28
ENDBRANCH  22  25
ENDBRANCH  12  22
BRANCH  14  30
HETATM   30  O7  UNL     1       1.270  -0.864   2.143  1.00  0.00    -0.389 OA
ATOM     31  H7  UNL     1       2.157  -0.558   1.994  1.00  0.00     0.210 HD
ENDBRANCH  14  30
TORSDOF 9
