REMARK  6 active torsions:
REMARK  status: ('A' for Active; 'I' for Inactive)
REMARK    1  A    between atoms: C5_5  and  O1_7 
REMARK    2  A    between atoms: C7_9  and  C8_10 
REMARK    3  A    between atoms: C8_10  and  C9_11 
REMARK    4  A    between atoms: C9_11  and  C10_12 
REMARK    5  A    between atoms: C12_16  and  C13_17 
REMARK    6  A    between atoms: C17_23  and  O2_25 
ROOT
HETATM    1  C1  UNL     1      -4.701   0.850  -0.266  1.00  0.00     0.013 C 
HETATM    2  C2  UNL     1      -3.497   1.312   0.508  1.00  0.00     0.016 C 
HETATM    3  C3  UNL     1      -3.542   0.817   1.917  1.00  0.00     0.010 C 
HETATM    4  C4  UNL     1      -2.439  -0.159   2.236  1.00  0.00     0.038 C 
HETATM    5  C5  UNL     1      -2.194  -1.142   1.145  1.00  0.00     0.061 C 
HETATM    6  C6  UNL     1      -3.366  -2.038   0.866  1.00  0.00     0.046 C 
HETATM    7  C7  UNL     1      -1.714  -0.405  -0.080  1.00  0.00     0.054 C 
HETATM    8  C17 UNL     1      -2.199   0.982  -0.204  1.00  0.00     0.064 C 
HETATM    9  C18 UNL     1      -2.306   1.337  -1.668  1.00  0.00     0.046 C 
ENDROOT
BRANCH   7  10
HETATM   10  C8  UNL     1      -0.216  -0.511  -0.081  1.00  0.00     0.017 C 
BRANCH  10  11
HETATM   11  C9  UNL     1       0.497   0.105  -1.233  1.00  0.00     0.059 C 
BRANCH  11  12
HETATM   12  C10 UNL     1       1.964  -0.127  -1.003  1.00  0.00     0.024 A 
HETATM   13  C11 UNL     1       2.683   0.808  -0.302  1.00  0.00     0.113 A 
HETATM   14  N1  UNL     1       4.005   0.618  -0.083  1.00  0.00    -0.366 N 
HETATM   15  C12 UNL     1       4.651  -0.474  -0.536  1.00  0.00     0.028 A 
ATOM     16  H1  UNL     1       4.527   1.321   0.440  1.00  0.00     0.165 HD
HETATM   17  C16 UNL     1       3.907  -1.403  -1.240  1.00  0.00     0.113 A 
HETATM   18  N2  UNL     1       2.584  -1.216  -1.461  1.00  0.00    -0.366 N 
ATOM     19  H2  UNL     1       2.056  -1.915  -1.983  1.00  0.00     0.165 HD
BRANCH  15  20
HETATM   20  C13 UNL     1       6.115  -0.673  -0.288  1.00  0.00     0.037 A 
HETATM   21  C14 UNL     1       6.939   0.540  -0.325  1.00  0.00     0.011 A 
HETATM   22  C15 UNL     1       6.723  -0.178   0.978  1.00  0.00     0.011 A 
ENDBRANCH  15  20
ENDBRANCH  11  12
ENDBRANCH  10  11
ENDBRANCH   7  10
BRANCH   5  23
HETATM   23  O1  UNL     1      -1.142  -1.951   1.572  1.00  0.00    -0.390 OA
ATOM     24  H1  UNL     1      -0.986  -2.578   0.876  1.00  0.00     0.210 HD
ENDBRANCH   5  23
BRANCH   8  25
HETATM   25  O2  UNL     1      -1.202   1.820   0.324  1.00  0.00    -0.389 OA
ATOM     26  H2  UNL     1      -0.389   1.613  -0.122  1.00  0.00     0.210 HD
ENDBRANCH   8  25
TORSDOF 6
