REMARK  13 active torsions:
REMARK  status: ('A' for Active; 'I' for Inactive)
REMARK    1  A    between atoms: C2_2  and  O1_3 
REMARK    2  A    between atoms: O1_3  and  C3_4 
REMARK    3  A    between atoms: C3_4  and  C4_6 
REMARK    4  A    between atoms: C4_6  and  O3_7 
REMARK    5  A    between atoms: O3_7  and  C5_8 
REMARK    6  A    between atoms: C5_8  and  O4_9 
REMARK    7  A    between atoms: C5_8  and  C7_13 
REMARK    8  A    between atoms: O4_9  and  C6_10 
REMARK    9  A    between atoms: C6_10  and  O5_11 
REMARK   10  A    between atoms: C18_25  and  O7_26 
REMARK   11  A    between atoms: C23_33  and  C24_34 
REMARK   12  A    between atoms: C24_34  and  C25_35 
REMARK   13  A    between atoms: C25_35  and  O9_36 
ROOT
HETATM    1  C7  UNL     1       0.006  -0.068   0.727  1.00  0.00     0.120 C 
HETATM    2  C8  UNL     1      -1.133  -0.452  -0.106  1.00  0.00     0.122 C 
HETATM    3  C9  UNL     1      -0.686  -1.164  -1.296  1.00  0.00     0.017 C 
HETATM    4  C10 UNL     1      -1.163  -2.222  -1.922  1.00  0.00    -0.085 C 
HETATM    5  C11 UNL     1      -0.367  -2.606  -3.116  1.00  0.00     0.043 C 
HETATM    6  C12 UNL     1      -2.323  -3.062  -1.656  1.00  0.00     0.034 C 
HETATM    7  C13 UNL     1      -3.500  -2.426  -1.024  1.00  0.00     0.015 C 
HETATM    8  C14 UNL     1      -3.325  -1.163  -0.296  1.00  0.00     0.057 C 
HETATM    9  C15 UNL     1      -3.130   0.106  -1.011  1.00  0.00     0.062 C 
HETATM   10  C16 UNL     1      -4.182   1.116  -0.505  1.00  0.00     0.046 C 
HETATM   11  C17 UNL     1      -3.335   0.105  -2.505  1.00  0.00     0.046 C 
HETATM   12  O6  UNL     1      -1.902   0.616  -0.612  1.00  0.00    -0.362 OA
HETATM   13  C18 UNL     1      -2.176  -1.156   0.710  1.00  0.00     0.100 C 
HETATM   14  C19 UNL     1      -2.570  -0.512   1.955  1.00  0.00     0.045 C 
HETATM   15  C20 UNL     1      -1.744   0.431   2.701  1.00  0.00     0.044 C 
HETATM   16  C21 UNL     1      -1.162   1.619   1.984  1.00  0.00     0.090 A 
HETATM   17  C22 UNL     1      -1.808   2.970   2.277  1.00  0.00     0.049 C 
HETATM   18  O8  UNL     1       0.289   1.772   2.386  1.00  0.00    -0.363 OA
HETATM   19  C23 UNL     1      -0.035   1.409   1.092  1.00  0.00     0.106 A 
ENDROOT
BRANCH   1  20
HETATM   20  C5  UNL     1       1.350  -0.685   0.565  1.00  0.00     0.273 C 
BRANCH  20  21
HETATM   21  O3  UNL     1       2.201  -0.055   1.447  1.00  0.00    -0.351 OA
BRANCH  21  22
HETATM   22  C4  UNL     1       3.495   0.045   1.349  1.00  0.00     0.282 C 
BRANCH  22  23
HETATM   23  C3  UNL     1       4.103   0.506   0.093  1.00  0.00     0.282 C 
HETATM   24  O2  UNL     1       3.510   0.708  -0.984  1.00  0.00    -0.263 OA
BRANCH  23  25
HETATM   25  O1  UNL     1       5.495   0.762   0.038  1.00  0.00    -0.320 OA
BRANCH  25  26
HETATM   26  C2  UNL     1       6.079   1.202  -1.161  1.00  0.00     0.174 C 
HETATM   27  C1  UNL     1       7.567   1.384  -0.894  1.00  0.00     0.034 C 
ENDBRANCH  25  26
ENDBRANCH  23  25
ENDBRANCH  22  23
ENDBRANCH  21  22
ENDBRANCH  20  21
BRANCH  20  28
HETATM   28  O4  UNL     1       1.229  -1.981   1.238  1.00  0.00    -0.337 OA
BRANCH  28  29
HETATM   29  C6  UNL     1       1.762  -3.019   0.586  1.00  0.00     0.337 C 
BRANCH  29  30
HETATM   30  O5  UNL     1       3.124  -2.983   0.293  1.00  0.00    -0.377 OA
ATOM     31  H5  UNL     1       3.503  -3.721  -0.170  1.00  0.00     0.212 HD
ENDBRANCH  29  30
ENDBRANCH  28  29
ENDBRANCH  20  28
ENDBRANCH   1  20
BRANCH  19  32
HETATM   32  C24 UNL     1       0.324   2.376   0.039  1.00  0.00     0.068 C 
BRANCH  32  33
HETATM   33  C25 UNL     1       0.359   3.829   0.353  1.00  0.00     0.167 C 
BRANCH  33  34
HETATM   34  O9  UNL     1       1.257   4.184   1.355  1.00  0.00    -0.401 OA
ATOM     35  H9  UNL     1       1.279   5.112   1.556  1.00  0.00     0.209 HD
ENDBRANCH  33  34
ENDBRANCH  32  33
ENDBRANCH  19  32
BRANCH  13  36
HETATM   36  O7  UNL     1      -1.802  -2.484   0.864  1.00  0.00    -0.386 OA
ATOM     37  H7  UNL     1      -2.463  -2.930   1.381  1.00  0.00     0.210 HD
ENDBRANCH  13  36
TORSDOF 13
