REMARK  3 active torsions:
REMARK  status: ('A' for Active; 'I' for Inactive)
REMARK    1  A    between atoms: S1_2  and  N1_5 
REMARK       I    between atoms: N1_5  and  C2_7 
REMARK    2  A    between atoms: C2_7  and  C3_9 
REMARK    3  A    between atoms: C4_10  and  O4_11 
ROOT
HETATM    1  C3  UNL     1       0.922   0.082   0.015  1.00  0.00     0.151 A 
HETATM    2  C4  UNL     1       1.607  -1.129  -0.186  1.00  0.00     0.165 A 
HETATM    3  N2  UNL     1       2.943  -1.071  -0.268  1.00  0.00    -0.288 N 
ATOM      4  H2  UNL     1       3.456  -1.941  -0.414  1.00  0.00     0.172 HD
HETATM    5  C5  UNL     1       3.645   0.074  -0.168  1.00  0.00     0.329 A 
HETATM    6  O5  UNL     1       4.921   0.047  -0.257  1.00  0.00    -0.247 OA
HETATM    7  N3  UNL     1       3.027   1.249   0.024  1.00  0.00    -0.274 N 
ATOM      8  H3  UNL     1       3.550   2.121   0.101  1.00  0.00     0.173 HD
HETATM    9  C6  UNL     1       1.670   1.222   0.111  1.00  0.00     0.269 A 
HETATM   10  O6  UNL     1       1.103   2.326   0.291  1.00  0.00    -0.267 OA
ENDROOT
BRANCH   1  11
HETATM   11  C2  UNL     1      -0.518   0.064   0.108  1.00  0.00     0.274 C 
HETATM   12  N1  UNL     1      -1.407   1.125   0.304  1.00  0.00    -0.250 N 
ATOM     13  H1  UNL     1      -1.057   2.078   0.405  1.00  0.00     0.181 HD
HETATM   14  O3  UNL     1      -1.036  -1.122  -0.009  1.00  0.00    -0.266 OA
BRANCH  12  15
HETATM   15  S1  UNL     1      -3.103   0.807   0.374  1.00  0.00     0.229 S 
HETATM   16  C1  UNL     1      -3.510  -0.503  -0.747  1.00  0.00     0.186 C 
HETATM   17  O1  UNL     1      -3.894   2.038   0.015  1.00  0.00    -0.206 OA
HETATM   18  O2  UNL     1      -3.524   0.374   1.745  1.00  0.00    -0.206 OA
ENDBRANCH  12  15
ENDBRANCH   1  11
BRANCH   2  19
HETATM   19  O4  UNL     1       0.933  -2.341  -0.296  1.00  0.00    -0.345 OA
ATOM     20  H4  UNL     1       1.396  -3.159  -0.432  1.00  0.00     0.219 HD
ENDBRANCH   2  19
TORSDOF 3
