REMARK  18 active torsions:
REMARK  status: ('A' for Active; 'I' for Inactive)
REMARK    1  A    between atoms: C2_2  and  S1_6 
REMARK    2  A    between atoms: S1_6  and  C3_7 
REMARK    3  A    between atoms: C3_7  and  C4_8 
REMARK    4  A    between atoms: C5_10  and  C6_11 
REMARK    5  A    between atoms: C6_11  and  O2_12 
REMARK    6  A    between atoms: C7_14  and  O3_15 
REMARK    7  A    between atoms: C8_17  and  O4_18 
REMARK    8  A    between atoms: O4_18  and  C9_19 
REMARK    9  A    between atoms: C10_21  and  N2_22 
REMARK   10  A    between atoms: N2_22  and  O6_23 
REMARK   11  A    between atoms: C11_28  and  N4_29 
REMARK   12  A    between atoms: N4_29  and  C12_31 
REMARK   13  A    between atoms: C14_33  and  N5_34 
REMARK   14  A    between atoms: C15_38  and  O7_39 
REMARK   15  A    between atoms: C16_41  and  O8_42 
REMARK   16  A    between atoms: C17_44  and  C18_45 
REMARK   17  A    between atoms: C18_45  and  O9_46 
REMARK   18  A    between atoms: C19_48  and  O10_49 
ROOT
HETATM    1  C9  UNL     1      -0.326   1.202   0.618  1.00  0.00     0.314 C 
HETATM    2  O5  UNL     1      -0.460   2.422   1.230  1.00  0.00    -0.311 OA
HETATM    3  C10 UNL     1      -1.260   3.168   0.393  1.00  0.00     0.449 C 
HETATM    4  N3  UNL     1      -2.223   2.234  -0.115  1.00  0.00    -0.007 N 
ATOM      5  H31 UNL     1      -2.787   2.578  -0.892  1.00  0.00     0.284 HD
ATOM      6  H32 UNL     1      -3.012   2.049   0.505  1.00  0.00     0.284 HD
HETATM    7  C11 UNL     1      -1.372   1.037  -0.431  1.00  0.00     0.340 C 
ENDROOT
BRANCH   1   8
HETATM    8  O4  UNL     1       0.939   1.193  -0.063  1.00  0.00    -0.347 OA
BRANCH   8   9
HETATM    9  C8  UNL     1       1.827   0.243   0.350  1.00  0.00     0.187 C 
HETATM   10  C7  UNL     1       1.753  -0.886  -0.677  1.00  0.00     0.180 C 
HETATM   11  C5  UNL     1       3.160  -1.288  -1.048  1.00  0.00     0.176 C 
HETATM   12  O1  UNL     1       3.733  -0.141  -1.574  1.00  0.00    -0.372 OA
HETATM   13  C4  UNL     1       4.163   0.677  -0.556  1.00  0.00     0.163 C 
HETATM   14  C19 UNL     1       3.200   0.703   0.611  1.00  0.00     0.179 C 
BRANCH  10  15
HETATM   15  O3  UNL     1       1.218  -0.378  -1.887  1.00  0.00    -0.390 OA
ATOM     16  H3  UNL     1       0.333  -0.125  -1.654  1.00  0.00     0.210 HD
ENDBRANCH  10  15
BRANCH  11  17
HETATM   17  C6  UNL     1       3.125  -2.296  -2.207  1.00  0.00     0.198 C 
BRANCH  17  18
HETATM   18  O2  UNL     1       4.468  -2.494  -2.593  1.00  0.00    -0.398 OA
ATOM     19  H2  UNL     1       4.446  -3.117  -3.310  1.00  0.00     0.209 HD
ENDBRANCH  17  18
ENDBRANCH  11  17
BRANCH  13  20
HETATM   20  C3  UNL     1       5.542   0.157  -0.175  1.00  0.00     0.115 C 
BRANCH  20  21
HETATM   21  S1  UNL     1       6.377   1.101   1.077  1.00  0.00    -0.115 SA
BRANCH  21  22
HETATM   22  C2  UNL     1       7.946   0.280   1.463  1.00  0.00     0.036 C 
HETATM   23  C1  UNL     1       8.159  -1.154   1.205  1.00  0.00     0.076 C 
HETATM   24  N1  UNL     1       8.844   1.051   1.946  1.00  0.00    -0.397 N 
ATOM     25  H12 UNL     1       9.727   0.589   2.163  1.00  0.00     0.156 HD
ATOM     26  H11 UNL     1       8.696   2.044   2.125  1.00  0.00     0.156 HD
ENDBRANCH  21  22
ENDBRANCH  20  21
ENDBRANCH  13  20
BRANCH  14  27
HETATM   27  O10 UNL     1       3.810   0.021   1.673  1.00  0.00    -0.390 OA
ATOM     28  H10 UNL     1       3.205   0.037   2.406  1.00  0.00     0.210 HD
ENDBRANCH  14  27
ENDBRANCH   8   9
ENDBRANCH   1   8
BRANCH   7  29
HETATM   29  N4  UNL     1      -2.229  -0.085  -0.436  1.00  0.00    -0.387 N 
ATOM     30  H4  UNL     1      -2.019  -0.911  -0.996  1.00  0.00     0.155 HD
BRANCH  29  31
HETATM   31  C12 UNL     1      -3.417  -0.014   0.386  1.00  0.00     0.089 C 
HETATM   32  C13 UNL     1      -3.669  -1.090   1.364  1.00  0.00     0.060 C 
HETATM   33  C14 UNL     1      -4.980  -0.872   2.094  1.00  0.00     0.216 C 
HETATM   34  C15 UNL     1      -5.981  -0.046   1.338  1.00  0.00     0.177 C 
HETATM   35  C16 UNL     1      -5.887  -0.277  -0.157  1.00  0.00     0.157 C 
HETATM   36  C17 UNL     1      -4.540  -0.073  -0.690  1.00  0.00     0.063 C 
BRANCH  33  37
HETATM   37  N5  UNL     1      -5.573  -2.141   2.478  1.00  0.00    -0.072 N 
ATOM     38  H53 UNL     1      -5.686  -2.763   1.677  1.00  0.00     0.274 HD
ATOM     39  H52 UNL     1      -4.926  -2.710   3.025  1.00  0.00     0.274 HD
ATOM     40  H51 UNL     1      -6.455  -1.994   2.969  1.00  0.00     0.274 HD
ENDBRANCH  33  37
BRANCH  34  41
HETATM   41  O7  UNL     1      -5.966   1.300   1.656  1.00  0.00    -0.391 OA
ATOM     42  H7  UNL     1      -6.599   1.822   1.178  1.00  0.00     0.210 HD
ENDBRANCH  34  41
BRANCH  35  43
HETATM   43  O8  UNL     1      -6.404  -1.563  -0.431  1.00  0.00    -0.392 OA
ATOM     44  H8  UNL     1      -6.345  -1.708  -1.368  1.00  0.00     0.210 HD
ENDBRANCH  35  43
BRANCH  36  45
HETATM   45  C18 UNL     1      -4.163  -1.208  -1.643  1.00  0.00     0.173 C 
BRANCH  45  46
HETATM   46  O9  UNL     1      -5.121  -1.305  -2.620  1.00  0.00    -0.400 OA
ATOM     47  H9  UNL     1      -4.887  -2.010  -3.212  1.00  0.00     0.209 HD
ENDBRANCH  45  46
ENDBRANCH  36  45
ENDBRANCH  29  31
ENDBRANCH   7  29
BRANCH   3  48
HETATM   48  N2  UNL     1      -0.458   3.625  -0.738  1.00  0.00    -0.041 NA
BRANCH  48  49
HETATM   49  O6  UNL     1      -1.258   4.354  -1.592  1.00  0.00    -0.292 OA
ATOM     50  H6  UNL     1      -0.736   4.651  -2.328  1.00  0.00     0.238 HD
ENDBRANCH  48  49
ENDBRANCH   3  48
TORSDOF 18
