REMARK  10 active torsions:
REMARK  status: ('A' for Active; 'I' for Inactive)
REMARK    1  A    between atoms: C2_7  and  N4_8 
REMARK       I    between atoms: N4_8  and  C3_10 
REMARK       I    between atoms: C3_10  and  N9_18 
REMARK    2  A    between atoms: N5_11  and  N6_13 
REMARK    3  A    between atoms: N9_18  and  C5_20 
REMARK    4  A    between atoms: C5_20  and  C6_21 
REMARK    5  A    between atoms: C5_20  and  C9_30 
REMARK    6  A    between atoms: C8_24  and  N10_25 
REMARK    7  A    between atoms: C10_34  and  C11_35 
REMARK    8  A    between atoms: C11_35  and  O2_36 
REMARK    9  A    between atoms: C11_35  and  O3_38 
REMARK   10  A    between atoms: C12_42  and  N14_43 
ROOT
HETATM    1  C5  UNL     1       0.675  -0.270   0.305  1.00  0.00     0.206 C 
ENDROOT
BRANCH   1   2
HETATM    2  N9  UNL     1      -0.181   0.816  -0.092  1.00  0.00    -0.209 N 
HETATM    3  C3  UNL     1      -1.448   0.966   0.511  1.00  0.00     0.708 C 
HETATM    4  N4  UNL     1      -1.938   0.154   1.551  1.00  0.00    -0.018 N 
HETATM    5  N5  UNL     1      -2.233   1.915   0.089  1.00  0.00    -0.130 N 
ATOM      6  H4  UNL     1      -1.586   0.327   2.492  1.00  0.00     0.203 HD
ATOM      7  H5  UNL     1      -3.148   2.017   0.528  1.00  0.00     0.205 HD
ATOM      8  H9  UNL     1       0.127   1.475  -0.807  1.00  0.00     0.179 HD
BRANCH   4   9
HETATM    9  C2  UNL     1      -2.794  -0.787   1.401  1.00  0.00     0.728 A 
HETATM   10  N3  UNL     1      -3.236  -1.543   2.433  1.00  0.00    -0.114 N 
HETATM   11  N2  UNL     1      -4.106  -2.429   1.996  1.00  0.00    -0.211 N 
ATOM     12  H3  UNL     1      -2.939  -1.441   3.404  1.00  0.00     0.207 HD
HETATM   13  N1  UNL     1      -4.201  -2.221   0.692  1.00  0.00    -0.209 N 
ATOM     14  H2  UNL     1      -4.603  -3.129   2.547  1.00  0.00     0.210 HD
HETATM   15  C1  UNL     1      -5.078  -3.019  -0.153  1.00  0.00     0.202 C 
HETATM   16  N15 UNL     1      -3.418  -1.234   0.309  1.00  0.00    -0.113 N 
ATOM     17  H15 UNL     1      -3.309  -0.879  -0.641  1.00  0.00     0.207 HD
ENDBRANCH   4   9
BRANCH   5  18
HETATM   18  N6  UNL     1      -1.893   2.787  -0.918  1.00  0.00    -0.262 N 
HETATM   19  C4  UNL     1      -2.589   3.843  -1.109  1.00  0.00     0.216 C 
HETATM   20  N7  UNL     1      -2.188   4.710  -2.169  1.00  0.00    -0.065 NA
HETATM   21  N8  UNL     1      -3.706   4.122  -0.292  1.00  0.00    -0.065 NA
ATOM     22  H6  UNL     1      -1.087   2.592  -1.512  1.00  0.00     0.190 HD
ENDBRANCH   5  18
ENDBRANCH   1   2
BRANCH   1  23
HETATM   23  C6  UNL     1       1.003  -0.180   1.783  1.00  0.00     0.047 A 
HETATM   24  C7  UNL     1       1.158   1.025   2.401  1.00  0.00     0.080 A 
HETATM   25  S1  UNL     1       1.524   0.572   4.010  1.00  0.00    -0.064 SA
HETATM   26  C8  UNL     1       1.457  -1.114   3.802  1.00  0.00     0.142 A 
HETATM   27  N11 UNL     1       1.160  -1.263   2.518  1.00  0.00    -0.338 N 
ATOM     28  H11 UNL     1       1.056  -2.192   2.110  1.00  0.00     0.168 HD
BRANCH  26  29
HETATM   29  N10 UNL     1       1.656  -2.044   4.711  1.00  0.00    -0.380 N 
ATOM     30 2H10 UNL     1       1.884  -1.929   5.698  1.00  0.00     0.158 HD
ATOM     31 1H10 UNL     1       1.616  -3.056   4.586  1.00  0.00     0.158 HD
ENDBRANCH  26  29
ENDBRANCH   1  23
BRANCH   1  32
HETATM   32  C9  UNL     1       1.826  -0.533  -0.549  1.00  0.00     0.105 A 
HETATM   33  N12 UNL     1       2.053  -1.777  -1.083  1.00  0.00    -0.257 N 
HETATM   34  O1  UNL     1       3.030  -2.094  -1.828  1.00  0.00    -0.219 OA
ATOM     35  H12 UNL     1       1.378  -2.509  -0.862  1.00  0.00     0.195 HD
HETATM   36  C10 UNL     1       3.930  -1.199  -2.147  1.00  0.00     0.203 A 
HETATM   37  N13 UNL     1       3.809   0.048  -1.682  1.00  0.00    -0.319 N 
HETATM   38  C12 UNL     1       2.773   0.409  -0.884  1.00  0.00     0.128 A 
ATOM     39  H13 UNL     1       4.511   0.744  -1.933  1.00  0.00     0.169 HD
BRANCH  36  40
HETATM   40  C11 UNL     1       5.088  -1.535  -3.018  1.00  0.00     0.333 C 
BRANCH  40  41
HETATM   41  O2  UNL     1       5.676  -2.752  -2.648  1.00  0.00    -0.364 OA
ATOM     42  H2  UNL     1       6.416  -2.967  -3.204  1.00  0.00     0.213 HD
ENDBRANCH  40  41
BRANCH  40  43
HETATM   43  O3  UNL     1       6.011  -0.500  -2.997  1.00  0.00    -0.364 OA
ATOM     44  H3  UNL     1       6.751  -0.715  -3.553  1.00  0.00     0.213 HD
ENDBRANCH  40  43
ENDBRANCH  36  40
BRANCH  38  45
HETATM   45  N14 UNL     1       2.695   1.606  -0.472  1.00  0.00    -0.384 N 
ATOM     46 2H14 UNL     1       1.916   1.877   0.128  1.00  0.00     0.157 HD
ATOM     47 1H14 UNL     1       3.396   2.304  -0.720  1.00  0.00     0.157 HD
ENDBRANCH  38  45
ENDBRANCH   1  32
TORSDOF 10
