REMARK  1 active torsions:
REMARK  status: ('A' for Active; 'I' for Inactive)
REMARK    1  A    between atoms: O1_2  and  C2_3 
ROOT
HETATM    1  C2  UNL     1       0.814  -0.185   0.174  1.00  0.00     0.262 C 
HETATM    2  C3  UNL     1      -0.231  -1.217   0.008  1.00  0.00     0.072 C 
HETATM    3  C4  UNL     1      -1.451  -0.816  -0.742  1.00  0.00     0.005 C 
HETATM    4  C5  UNL     1      -2.524  -0.173   0.102  1.00  0.00     0.002 C 
HETATM    5  C6  UNL     1      -2.032   0.925   0.983  1.00  0.00     0.030 C 
HETATM    6  C7  UNL     1      -0.847   1.573   0.320  1.00  0.00     0.276 C 
HETATM    7  N1  UNL     1       0.406   1.061   0.713  1.00  0.00     0.123 N 
HETATM    8  C8  UNL     1       1.470   1.673  -0.068  1.00  0.00     0.281 C 
HETATM    9  C9  UNL     1       1.307   0.525  -1.049  1.00  0.00     0.102 C 
ENDROOT
BRANCH   1  10
HETATM   10  O1  UNL     1       1.897  -0.672   0.906  1.00  0.00    -0.357 OA
HETATM   11  C1  UNL     1       2.534  -1.742   0.362  1.00  0.00     0.204 C 
ENDBRANCH   1  10
TORSDOF 1
