REMARK  9 active torsions:
REMARK  status: ('A' for Active; 'I' for Inactive)
REMARK    1  A    between atoms: C2_2  and  C4_4 
REMARK    2  A    between atoms: C4_4  and  C5_5 
REMARK    3  A    between atoms: C7_10  and  C8_11 
REMARK    4  A    between atoms: C8_11  and  C9_12 
REMARK    5  A    between atoms: C13_19  and  C14_20 
REMARK    6  A    between atoms: C14_20  and  C16_22 
REMARK    7  A    between atoms: C19_26  and  O3_27 
REMARK    8  A    between atoms: C21_31  and  C22_32 
REMARK    9  A    between atoms: C22_32  and  N5_33 
ROOT
HETATM    1  C5  UNL     1      -0.886   2.226   0.527  1.00  0.00     0.180 C 
HETATM    2  N1  UNL     1       0.460   2.797   0.589  1.00  0.00    -0.346 N 
ATOM      3  H1  UNL     1       0.536   3.799   0.414  1.00  0.00     0.163 HD
HETATM    4  C6  UNL     1       1.653   2.121   0.861  1.00  0.00     0.241 C 
HETATM    5  O1  UNL     1       2.493   2.748   1.612  1.00  0.00    -0.271 OA
HETATM    6  C7  UNL     1       2.085   0.795   0.415  1.00  0.00     0.177 C 
HETATM    7  N2  UNL     1       2.015  -0.077   1.605  1.00  0.00    -0.346 N 
ATOM      8  H2  UNL     1       2.726   0.044   2.326  1.00  0.00     0.163 HD
HETATM    9  C12 UNL     1       1.033  -1.064   1.810  1.00  0.00     0.241 C 
HETATM   10  O2  UNL     1       0.509  -1.137   2.946  1.00  0.00    -0.271 OA
HETATM   11  C13 UNL     1       0.554  -2.037   0.795  1.00  0.00     0.183 C 
HETATM   12  N3  UNL     1      -0.734  -2.557   1.109  1.00  0.00    -0.338 N 
HETATM   13  C18 UNL     1      -0.897  -4.002   1.396  1.00  0.00     0.154 C 
HETATM   14  C19 UNL     1      -1.957  -1.803   1.187  1.00  0.00     0.219 C 
HETATM   15  N4  UNL     1      -2.496  -0.882   0.266  1.00  0.00    -0.329 N 
HETATM   16  C20 UNL     1      -3.640  -0.103   0.787  1.00  0.00     0.155 C 
HETATM   17  C21 UNL     1      -2.129  -0.611  -1.077  1.00  0.00     0.207 C 
HETATM   18  N8  UNL     1      -1.396   0.551  -1.408  1.00  0.00    -0.336 N 
ATOM     19  H8  UNL     1      -0.855   0.436  -2.265  1.00  0.00     0.164 HD
HETATM   20  C24 UNL     1      -1.235   1.800  -0.854  1.00  0.00     0.242 C 
HETATM   21  O4  UNL     1      -1.409   2.809  -1.643  1.00  0.00    -0.271 OA
ENDROOT
BRANCH  17  22
HETATM   22  C22 UNL     1      -3.408  -0.703  -1.941  1.00  0.00     0.169 C 
BRANCH  22  23
HETATM   23  N5  UNL     1      -3.108  -0.438  -3.324  1.00  0.00    -0.363 N 
HETATM   24  C23 UNL     1      -4.105  -0.435  -4.142  1.00  0.00     0.197 C 
HETATM   25  N6  UNL     1      -5.450  -0.674  -3.748  1.00  0.00    -0.067 NA
HETATM   26  N7  UNL     1      -3.845  -0.178  -5.508  1.00  0.00    -0.067 NA
ATOM     27  H5  UNL     1      -2.155  -0.261  -3.641  1.00  0.00     0.161 HD
ENDBRANCH  22  23
ENDBRANCH  17  22
BRANCH  14  28
HETATM   28  O3  UNL     1      -2.604  -2.064   2.293  1.00  0.00    -0.332 OA
ATOM     29  H3  UNL     1      -3.411  -1.566   2.344  1.00  0.00     0.220 HD
ENDBRANCH  14  28
BRANCH   1  30
HETATM   30  C4  UNL     1      -1.839   3.340   0.927  1.00  0.00     0.067 C 
BRANCH  30  31
HETATM   31  C2  UNL     1      -1.612   3.801   2.288  1.00  0.00    -0.091 C 
HETATM   32  C1  UNL     1      -0.873   3.211   3.175  1.00  0.00     0.014 C 
HETATM   33  C3  UNL     1      -2.269   5.106   2.695  1.00  0.00     0.042 C 
ENDBRANCH  30  31
ENDBRANCH   1  30
BRANCH  11  34
HETATM   34  C14 UNL     1       1.673  -2.992   0.554  1.00  0.00     0.013 C 
HETATM   35  C15 UNL     1       1.390  -4.085  -0.444  1.00  0.00     0.012 C 
BRANCH  34  36
HETATM   36  C16 UNL     1       2.482  -3.391   1.738  1.00  0.00     0.002 C 
HETATM   37  C17 UNL     1       3.592  -4.375   1.365  1.00  0.00     0.005 C 
ENDBRANCH  34  36
ENDBRANCH  11  34
BRANCH   6  38
HETATM   38  C8  UNL     1       3.499   0.686  -0.076  1.00  0.00     0.038 C 
BRANCH  38  39
HETATM   39  C9  UNL     1       3.885   1.484  -1.256  1.00  0.00    -0.020 C 
HETATM   40  C10 UNL     1       3.788   2.957  -1.172  1.00  0.00     0.009 C 
HETATM   41  C11 UNL     1       5.353   1.139  -1.586  1.00  0.00     0.009 C 
ENDBRANCH  38  39
ENDBRANCH   6  38
TORSDOF 9
