REMARK  10 active torsions:
REMARK  status: ('A' for Active; 'I' for Inactive)
REMARK    1  A    between atoms: N1_1  and  C1_4 
REMARK    2  A    between atoms: C3_8  and  O1_9 
REMARK    3  A    between atoms: N3_11  and  C4_12 
REMARK    4  A    between atoms: C4_12  and  N4_13 
REMARK    5  A    between atoms: N4_13  and  S1_15 
REMARK    6  A    between atoms: S1_15  and  N5_18 
REMARK       I    between atoms: N5_18  and  C5_20 
REMARK    7  A    between atoms: C5_20  and  C6_22 
REMARK    8  A    between atoms: C6_22  and  N6_23 
REMARK    9  A    between atoms: C6_22  and  C7_27 
REMARK   10  A    between atoms: C7_27  and  O5_28 
ROOT
HETATM    1  C1  UNL     1       5.142   1.772   0.353  1.00  0.00     0.169 C 
HETATM    2  N2  UNL     1       3.828   1.589   0.639  1.00  0.00    -0.334 N 
ATOM      3  H2  UNL     1       3.342   2.388   1.046  1.00  0.00     0.168 HD
HETATM    4  C2  UNL     1       3.088   0.481   0.451  1.00  0.00     0.102 A 
HETATM    5  C3  UNL     1       1.697   0.431   0.435  1.00  0.00     0.172 A 
HETATM    6  N3  UNL     1       1.385  -0.846   0.238  1.00  0.00    -0.318 N 
HETATM    7  C8  UNL     1       2.512  -1.598   0.128  1.00  0.00     0.114 A 
HETATM    8  C9  UNL     1       3.605  -0.780   0.260  1.00  0.00     0.079 A 
HETATM    9  C10 UNL     1       4.928  -1.234   0.208  1.00  0.00     0.262 C 
HETATM   10  O6  UNL     1       5.090  -2.469   0.079  1.00  0.00    -0.267 OA
HETATM   11  N7  UNL     1       6.062  -0.523   0.283  1.00  0.00    -0.287 N 
ATOM     12  H7  UNL     1       6.936  -1.043   0.365  1.00  0.00     0.172 HD
HETATM   13  C11 UNL     1       6.143   0.830   0.259  1.00  0.00     0.292 C 
HETATM   14  O7  UNL     1       7.321   1.250   0.127  1.00  0.00    -0.264 OA
ENDROOT
BRANCH   6  15
HETATM   15  C4  UNL     1       0.031  -1.401   0.172  1.00  0.00     0.266 C 
BRANCH  15  16
HETATM   16  N4  UNL     1      -0.392  -1.330  -1.164  1.00  0.00    -0.285 N 
ATOM     17  H4  UNL     1       0.222  -0.898  -1.855  1.00  0.00     0.175 HD
BRANCH  16  18
HETATM   18  S1  UNL     1      -1.868  -1.930  -1.658  1.00  0.00     0.322 S 
HETATM   19  O2  UNL     1      -2.052  -3.384  -1.190  1.00  0.00    -0.182 OA
HETATM   20  O3  UNL     1      -1.810  -2.114  -3.209  1.00  0.00    -0.182 OA
BRANCH  18  21
HETATM   21  N5  UNL     1      -3.233  -0.975  -1.319  1.00  0.00    -0.235 N 
HETATM   22  C5  UNL     1      -3.785  -0.737  -0.069  1.00  0.00     0.265 C 
HETATM   23  O4  UNL     1      -3.258  -1.234   0.962  1.00  0.00    -0.270 OA
ATOM     24  H5  UNL     1      -3.692  -0.532  -2.115  1.00  0.00     0.183 HD
BRANCH  22  25
HETATM   25  C6  UNL     1      -4.992   0.086   0.180  1.00  0.00     0.298 C 
BRANCH  25  26
HETATM   26  N6  UNL     1      -5.091   0.634   1.490  1.00  0.00    -0.064 N 
ATOM     27  H63 UNL     1      -5.022  -0.107   2.187  1.00  0.00     0.275 HD
ATOM     28  H62 UNL     1      -4.250   1.167   1.712  1.00  0.00     0.275 HD
ATOM     29  H61 UNL     1      -5.922   1.200   1.661  1.00  0.00     0.275 HD
ENDBRANCH  25  26
BRANCH  25  30
HETATM   30  C7  UNL     1      -5.360   1.075  -0.856  1.00  0.00     0.206 C 
BRANCH  30  31
HETATM   31  O5  UNL     1      -6.720   1.429  -0.600  1.00  0.00    -0.398 OA
ATOM     32  H5  UNL     1      -6.956   2.064  -1.266  1.00  0.00     0.209 HD
ENDBRANCH  30  31
ENDBRANCH  25  30
ENDBRANCH  22  25
ENDBRANCH  18  21
ENDBRANCH  16  18
ENDBRANCH  15  16
ENDBRANCH   6  15
BRANCH   5  33
HETATM   33  O1  UNL     1       0.853   1.534   0.597  1.00  0.00    -0.344 OA
ATOM     34  H1  UNL     1      -0.096   1.500   0.586  1.00  0.00     0.219 HD
ENDBRANCH   5  33
BRANCH   1  35
HETATM   35  N1  UNL     1       5.463   3.001   0.144  1.00  0.00    -0.381 N 
ATOM     36  H12 UNL     1       4.722   3.698   0.214  1.00  0.00     0.157 HD
ATOM     37  H11 UNL     1       6.451   3.139  -0.071  1.00  0.00     0.157 HD
ENDBRANCH   1  35
TORSDOF 10
