REMARK  5 active torsions:
REMARK  status: ('A' for Active; 'I' for Inactive)
REMARK       I    between atoms: C2_5  and  N3_6 
REMARK       I    between atoms: C2_5  and  N4_11 
REMARK    1  A    between atoms: N3_6  and  C3_8 
REMARK    2  A    between atoms: C3_8  and  C4_9 
REMARK    3  A    between atoms: N4_11  and  C5_13 
REMARK    4  A    between atoms: C5_13  and  C6_14 
REMARK    5  A    between atoms: C13_23  and  O1_24 
ROOT
HETATM    1  N1  UNL     1       4.634   2.970  -0.026  1.00  0.00    -0.171 NA
HETATM    2  C1  UNL     1       3.690   2.289  -0.074  1.00  0.00     0.196 C 
HETATM    3  N2  UNL     1       2.579   1.526  -0.147  1.00  0.00    -0.126 N 
ATOM      4  H2  UNL     1       1.796   1.976  -0.622  1.00  0.00     0.197 HD
HETATM    5  C2  UNL     1       2.333   0.372   0.259  1.00  0.00     0.682 C 
HETATM    6  N3  UNL     1       3.173  -0.541   0.947  1.00  0.00    -0.225 N 
ATOM      7  H3  UNL     1       2.712  -1.238   1.533  1.00  0.00     0.177 HD
HETATM    8  N4  UNL     1       0.977  -0.081   0.004  1.00  0.00    -0.225 N 
ATOM      9  H4  UNL     1       0.771  -1.071  -0.130  1.00  0.00     0.177 HD
ENDROOT
BRANCH   6  10
HETATM   10  C3  UNL     1       4.588  -0.581   0.901  1.00  0.00     0.153 C 
BRANCH  10  11
HETATM   11  C4  UNL     1       5.214  -1.002  -0.391  1.00  0.00     0.135 C 
HETATM   12 CL1  UNL     1       7.007  -0.973  -0.256  1.00  0.00    -0.129 Cl
ENDBRANCH  10  11
ENDBRANCH   6  10
BRANCH   8  13
HETATM   13  C5  UNL     1      -0.048   0.887  -0.053  1.00  0.00     0.150 C 
BRANCH  13  14
HETATM   14  C6  UNL     1      -1.425   0.361  -0.199  1.00  0.00     0.010 C 
HETATM   15  C7  UNL     1      -1.680  -0.462  -1.440  1.00  0.00     0.039 C 
HETATM   16  C8  UNL     1      -2.937  -1.202  -0.951  1.00  0.00     0.078 C 
HETATM   17  C9  UNL     1      -2.348  -1.793   0.340  1.00  0.00     0.030 C 
HETATM   18  N5  UNL     1      -3.993  -0.282  -0.668  1.00  0.00    -0.410 N 
HETATM   19  C10 UNL     1      -1.856  -0.503   0.973  1.00  0.00     0.002 C 
HETATM   20  C11 UNL     1      -3.103   0.167   1.543  1.00  0.00     0.033 C 
HETATM   21  C12 UNL     1      -3.669   0.763   0.255  1.00  0.00     0.106 C 
HETATM   22  C13 UNL     1      -2.439   1.498  -0.256  1.00  0.00     0.151 C 
ATOM     23  H5  UNL     1      -4.916  -0.364  -1.095  1.00  0.00     0.154 HD
BRANCH  22  24
HETATM   24  O1  UNL     1      -2.087   2.584   0.501  1.00  0.00    -0.393 OA
ATOM     25  H1  UNL     1      -2.719   3.293   0.465  1.00  0.00     0.210 HD
ENDBRANCH  22  24
ENDBRANCH  13  14
ENDBRANCH   8  13
TORSDOF 5
