REMARK  7 active torsions:
REMARK  status: ('A' for Active; 'I' for Inactive)
REMARK    1  A    between atoms: C2_2  and  C4_4 
REMARK    2  A    between atoms: C8_8  and  C9_9 
REMARK    3  A    between atoms: C9_9  and  O2_11 
REMARK    4  A    between atoms: O2_11  and  C10_12 
REMARK    5  A    between atoms: C10_12  and  C11_13 
REMARK    6  A    between atoms: C11_13  and  C12_14 
REMARK    7  A    between atoms: C12_14  and  O3_15 
ROOT
HETATM    1  C4  UNL     1       4.209   0.047  -0.525  1.00  0.00     0.044 C 
HETATM    2  C5  UNL     1       3.577   0.949  -1.493  1.00  0.00    -0.020 C 
HETATM    3  C6  UNL     1       2.364   1.309  -1.091  1.00  0.00    -0.024 C 
HETATM    4  C7  UNL     1       1.995   0.715   0.192  1.00  0.00     0.030 C 
HETATM    5  C8  UNL     1       0.868  -0.251   0.189  1.00  0.00     0.094 C 
HETATM    6  C18 UNL     1       1.214  -1.549  -0.514  1.00  0.00     0.015 C 
HETATM    7  C19 UNL     1       2.373  -2.241   0.178  1.00  0.00     0.002 C 
HETATM    8  C20 UNL     1       3.028  -1.330   1.195  1.00  0.00     0.011 C 
HETATM    9  C21 UNL     1       3.291   0.058   0.653  1.00  0.00    -0.026 C 
HETATM   10  C22 UNL     1       3.840   0.895   1.778  1.00  0.00     0.017 C 
ENDROOT
BRANCH   5  11
HETATM   11  C9  UNL     1      -0.370   0.284  -0.412  1.00  0.00     0.263 C 
HETATM   12  O1  UNL     1      -0.400   1.486  -0.761  1.00  0.00    -0.265 OA
BRANCH  11  13
HETATM   13  O2  UNL     1      -1.501  -0.460  -0.613  1.00  0.00    -0.320 OA
BRANCH  13  14
HETATM   14  C10 UNL     1      -2.729  -0.207  -1.094  1.00  0.00     0.190 C 
BRANCH  14  15
HETATM   15  C11 UNL     1      -3.822   0.430  -0.329  1.00  0.00     0.003 C 
HETATM   16  C13 UNL     1      -4.264  -0.495   0.837  1.00  0.00     0.014 C 
HETATM   17  C14 UNL     1      -5.722  -0.355   1.140  1.00  0.00     0.001 C 
HETATM   18  C15 UNL     1      -6.496  -1.095   0.054  1.00  0.00     0.000 C 
HETATM   19  C16 UNL     1      -5.791  -0.807  -1.258  1.00  0.00     0.001 C 
HETATM   20  C17 UNL     1      -5.095   0.532  -1.208  1.00  0.00     0.014 C 
BRANCH  15  21
HETATM   21  C12 UNL     1      -3.651   1.769   0.275  1.00  0.00     0.175 C 
BRANCH  21  22
HETATM   22  O3  UNL     1      -2.686   1.820   1.245  1.00  0.00    -0.400 OA
ATOM     23  H3  UNL     1      -2.576   2.680   1.633  1.00  0.00     0.209 HD
ENDBRANCH  21  22
ENDBRANCH  15  21
ENDBRANCH  14  15
ENDBRANCH  13  14
ENDBRANCH  11  13
ENDBRANCH   5  11
BRANCH   1  24
HETATM   24  C2  UNL     1       5.623   0.392  -0.210  1.00  0.00    -0.085 C 
HETATM   25  C1  UNL     1       6.151   1.460  -0.784  1.00  0.00     0.014 C 
HETATM   26  C3  UNL     1       6.440  -0.436   0.702  1.00  0.00     0.043 C 
ENDBRANCH   1  24
TORSDOF 7
