REMARK  4 active torsions:
REMARK  status: ('A' for Active; 'I' for Inactive)
REMARK    1  A    between atoms: N1_2  and  C3_5 
REMARK    2  A    between atoms: C3_5  and  C4_6 
REMARK    3  A    between atoms: C4_6  and  N2_7 
REMARK       I    between atoms: N2_7  and  C5_9 
REMARK       I    between atoms: C5_9  and  N4_13 
REMARK    4  A    between atoms: N4_13  and  C6_15 
ROOT
HETATM    1  N2  UNL     1      -1.117  -0.786   1.109  1.00  0.00    -0.221 N 
ATOM      2  H2  UNL     1      -1.645  -0.470   1.923  1.00  0.00     0.178 HD
HETATM    3  C5  UNL     1       0.295  -0.823   1.139  1.00  0.00     0.669 C 
HETATM    4  N3  UNL     1       0.884  -1.722   1.829  1.00  0.00    -0.235 N 
ATOM      5  H31 UNL     1       1.903  -1.749   1.851  1.00  0.00     0.174 HD
ATOM      6  H32 UNL     1       0.326  -2.400   2.348  1.00  0.00     0.174 HD
HETATM    7  N4  UNL     1       1.067   0.115   0.421  1.00  0.00    -0.196 N 
ATOM      8  H4  UNL     1       0.725   1.074   0.358  1.00  0.00     0.180 HD
ENDROOT
BRANCH   1   9
HETATM    9  C4  UNL     1      -1.800  -1.203  -0.091  1.00  0.00     0.199 C 
BRANCH   9  10
HETATM   10  C3  UNL     1      -3.284  -1.119   0.003  1.00  0.00     0.265 C 
BRANCH  10  11
HETATM   11  N1  UNL     1      -3.842   0.149   0.256  1.00  0.00     0.026 N 
HETATM   12  C1  UNL     1      -5.244   0.115  -0.192  1.00  0.00     0.362 C 
HETATM   13  C2  UNL     1      -3.226   1.268  -0.353  1.00  0.00     0.362 C 
HETATM   14  O1  UNL     1      -3.914   0.326   1.616  1.00  0.00    -0.061 OA
ENDBRANCH  10  11
ENDBRANCH   9  10
ENDBRANCH   1   9
BRANCH   7  15
HETATM   15  C6  UNL     1       2.317  -0.209  -0.231  1.00  0.00     0.325 C 
HETATM   16  C7  UNL     1       2.866   1.021  -0.898  1.00  0.00     0.287 C 
HETATM   17  N5  UNL     1       3.560   1.823   0.122  1.00  0.00    -0.070 N 
HETATM   18  C8  UNL     1       4.794   1.144   0.425  1.00  0.00     0.260 C 
ATOM     19  H52 UNL     1       3.696   2.795  -0.157  1.00  0.00     0.277 HD
ATOM     20  H51 UNL     1       2.988   2.003   0.948  1.00  0.00     0.277 HD
HETATM   21  C9  UNL     1       4.593  -0.335   0.526  1.00  0.00     0.262 C 
HETATM   22  N6  UNL     1       3.227  -0.733   0.772  1.00  0.00    -0.051 N 
ATOM     23  H62 UNL     1       2.930  -0.473   1.713  1.00  0.00     0.279 HD
ATOM     24  H61 UNL     1       3.146  -1.747   0.851  1.00  0.00     0.279 HD
ENDBRANCH   7  15
TORSDOF 4
