REMARK  3 active torsions:
REMARK  status: ('A' for Active; 'I' for Inactive)
REMARK    1  A    between atoms: C8_8  and  N1_9 
REMARK    2  A    between atoms: N1_9  and  C9_11 
REMARK    3  A    between atoms: C9_11  and  C11_13 
ROOT
HETATM    1  N1  UNL     1       0.109  -0.190   0.424  1.00  0.00    -0.408 N 
ATOM      2  H1  UNL     1       0.471   0.413   1.163  1.00  0.00     0.154 HD
ENDROOT
BRANCH   1   3
HETATM    3  C8  UNL     1      -1.276  -0.234   0.218  1.00  0.00     0.028 C 
HETATM    4  C7  UNL     1      -2.017  -1.494   0.399  1.00  0.00     0.039 C 
HETATM    5  C5  UNL     1      -3.519  -1.227   0.208  1.00  0.00    -0.040 C 
HETATM    6  C4  UNL     1      -3.821  -0.767  -1.201  1.00  0.00     0.018 C 
HETATM    7  C6  UNL     1      -4.287  -2.524   0.462  1.00  0.00     0.015 C 
HETATM    8  C25 UNL     1      -4.001  -0.252   1.260  1.00  0.00     0.023 C 
HETATM    9  C3  UNL     1      -3.059   0.546  -1.402  1.00  0.00     0.017 C 
HETATM   10  C2  UNL     1      -3.572   1.460  -0.360  1.00  0.00    -0.077 C 
HETATM   11  C21 UNL     1      -1.578   0.289  -1.189  1.00  0.00     0.039 C 
HETATM   12  C1  UNL     1      -4.228   2.542  -0.663  1.00  0.00     0.015 C 
HETATM   13  C23 UNL     1      -3.289   1.065   1.036  1.00  0.00    -0.018 C 
HETATM   14  C22 UNL     1      -1.821   0.842   1.181  1.00  0.00     0.044 C 
HETATM   15  C24 UNL     1      -3.718   2.076   2.058  1.00  0.00     0.020 C 
ENDBRANCH   1   3
BRANCH   1  16
HETATM   16  C9  UNL     1       1.020  -0.933  -0.334  1.00  0.00     0.082 C 
HETATM   17  C10 UNL     1       0.872  -2.394  -0.115  1.00  0.00     0.032 C 
BRANCH  16  18
HETATM   18  C11 UNL     1       2.412  -0.377  -0.206  1.00  0.00    -0.020 C 
HETATM   19  C12 UNL     1       3.412  -1.167  -1.027  1.00  0.00     0.016 C 
HETATM   20  C13 UNL     1       4.780  -0.526  -0.982  1.00  0.00    -0.013 C 
HETATM   21  C14 UNL     1       5.247  -0.408   0.448  1.00  0.00     0.009 C 
HETATM   22  C18 UNL     1       4.748   0.824  -1.617  1.00  0.00     0.009 C 
HETATM   23  C15 UNL     1       4.261   0.475   1.171  1.00  0.00    -0.013 C 
HETATM   24  C16 UNL     1       4.187   1.852   0.578  1.00  0.00     0.009 C 
HETATM   25  C20 UNL     1       2.922  -0.244   1.185  1.00  0.00     0.016 C 
HETATM   26  C17 UNL     1       3.733   1.669  -0.871  1.00  0.00    -0.013 C 
HETATM   27  C19 UNL     1       2.382   1.040  -0.810  1.00  0.00     0.016 C 
ENDBRANCH  16  18
ENDBRANCH   1  16
TORSDOF 3
