REMARK  6 active torsions:
REMARK  status: ('A' for Active; 'I' for Inactive)
REMARK    1  A    between atoms: C3_3  and  C4_4 
REMARK    2  A    between atoms: C6_6  and  O1_7 
REMARK    3  A    between atoms: C12_14  and  C13_15 
REMARK    4  A    between atoms: C13_15  and  C15_17 
REMARK    5  A    between atoms: C15_17  and  C16_18 
REMARK    6  A    between atoms: C17_19  and  C18_20 
ROOT
HETATM    1  C1  UNL     1      -4.579   4.017  -1.281  1.00  0.00     0.112 C 
HETATM    2  C2  UNL     1      -4.064   2.793  -0.653  1.00  0.00    -0.110 C 
HETATM    3  C3  UNL     1      -3.635   1.804  -0.142  1.00  0.00    -0.096 C 
ENDROOT
BRANCH   3   4
HETATM    4  C4  UNL     1      -3.114   0.617   0.478  1.00  0.00     0.030 C 
HETATM    5  C5  UNL     1      -3.616   0.422   1.893  1.00  0.00     0.054 C 
HETATM    6  C6  UNL     1      -4.944  -0.242   1.704  1.00  0.00     0.120 C 
HETATM    7  C7  UNL     1      -4.869  -1.025   0.435  1.00  0.00     0.038 C 
HETATM    8  C8  UNL     1      -3.542  -0.658  -0.234  1.00  0.00     0.013 C 
HETATM    9  C9  UNL     1      -2.439  -1.535   0.117  1.00  0.00    -0.000 C 
HETATM   10  C10 UNL     1      -2.099  -2.701  -0.693  1.00  0.00     0.006 C 
HETATM   11  C22 UNL     1      -1.229  -0.637  -0.234  1.00  0.00    -0.035 C 
HETATM   12  C11 UNL     1      -0.628  -2.878  -0.361  1.00  0.00     0.006 C 
HETATM   13  C12 UNL     1      -0.161  -1.536   0.254  1.00  0.00    -0.002 C 
HETATM   14  C23 UNL     1      -1.086  -0.475  -1.716  1.00  0.00     0.016 C 
HETATM   15  C24 UNL     1      -1.580   0.575   0.505  1.00  0.00     0.033 C 
BRANCH   6  16
HETATM   16  O1  UNL     1      -5.906   0.783   1.605  1.00  0.00    -0.396 OA
ATOM     17  H1  UNL     1      -6.749   0.362   1.485  1.00  0.00     0.210 HD
ENDBRANCH   6  16
BRANCH  13  18
HETATM   18  C13 UNL     1       1.221  -1.210  -0.231  1.00  0.00    -0.011 C 
HETATM   19  C14 UNL     1       2.216  -2.293   0.152  1.00  0.00     0.010 C 
BRANCH  18  20
HETATM   20  C15 UNL     1       1.660   0.095   0.390  1.00  0.00     0.031 C 
BRANCH  20  21
HETATM   21  C16 UNL     1       3.039   0.468  -0.051  1.00  0.00    -0.029 C 
HETATM   22  C17 UNL     1       4.012   0.616   0.839  1.00  0.00    -0.022 C 
BRANCH  22  23
HETATM   23  C18 UNL     1       5.377   0.981   0.439  1.00  0.00    -0.034 C 
HETATM   24  C19 UNL     1       6.367   0.070   1.141  1.00  0.00     0.018 C 
HETATM   25  C20 UNL     1       5.627   0.846  -1.046  1.00  0.00     0.018 C 
HETATM   26  C21 UNL     1       5.656   2.388   0.889  1.00  0.00     0.018 C 
ENDBRANCH  22  23
ENDBRANCH  20  21
ENDBRANCH  18  20
ENDBRANCH  13  18
ENDBRANCH   3   4
TORSDOF 6
