REMARK  4 active torsions:
REMARK  status: ('A' for Active; 'I' for Inactive)
REMARK    1  A    between atoms: C5_7  and  C6_8 
REMARK    2  A    between atoms: C6_8  and  N2_10 
REMARK    3  A    between atoms: N2_10  and  N3_12 
REMARK    4  A    between atoms: N3_12  and  C7_13 
ROOT
HETATM    1  C6  UNL     1       0.403  -0.914  -0.119  1.00  0.00     0.131 C 
HETATM    2  S1  UNL     1       0.031  -2.481   0.094  1.00  0.00    -0.058 SA
ENDROOT
BRANCH   1   3
HETATM    3  C5  UNL     1       1.758  -0.484   0.258  1.00  0.00     0.067 A 
HETATM    4  C3  UNL     1       2.951  -0.827  -0.328  1.00  0.00     0.026 A 
HETATM    5  N1  UNL     1       4.039  -0.317   0.183  1.00  0.00    -0.357 N 
HETATM    6  C4  UNL     1       3.012  -1.765  -1.525  1.00  0.00     0.070 C 
HETATM    7  C2  UNL     1       3.961   0.493   1.220  1.00  0.00     0.048 A 
ATOM      8  H1  UNL     1       4.948  -0.545  -0.220  1.00  0.00     0.166 HD
HETATM    9  C1  UNL     1       5.035   1.201   1.983  1.00  0.00     0.076 C 
HETATM   10  S2  UNL     1       2.285   0.557   1.511  1.00  0.00    -0.072 SA
ENDBRANCH   1   3
BRANCH   1  11
HETATM   11  N2  UNL     1      -0.573  -0.042  -0.649  1.00  0.00    -0.292 N 
ATOM     12  H2  UNL     1      -0.341   0.942  -0.783  1.00  0.00     0.183 HD
BRANCH  11  13
HETATM   13  N3  UNL     1      -1.832  -0.489  -0.989  1.00  0.00    -0.131 NA
BRANCH  13  14
HETATM   14  C7  UNL     1      -2.898   0.227  -0.350  1.00  0.00     0.040 C 
HETATM   15  C8  UNL     1      -4.218  -0.359  -0.805  1.00  0.00     0.035 C 
HETATM   16  C9  UNL     1      -2.911   1.696  -0.701  1.00  0.00     0.035 C 
HETATM   17  C10 UNL     1      -2.776   0.086   1.159  1.00  0.00     0.035 C 
ENDBRANCH  13  14
ENDBRANCH  11  13
ENDBRANCH   1  11
TORSDOF 4
