REMARK  10 active torsions:
REMARK  status: ('A' for Active; 'I' for Inactive)
REMARK    1  A    between atoms: C2_2  and  C4_4 
REMARK    2  A    between atoms: C4_4  and  C5_5 
REMARK    3  A    between atoms: C5_5  and  O1_6 
REMARK    4  A    between atoms: C5_5  and  C6_8 
REMARK    5  A    between atoms: C6_8  and  N1_9 
REMARK    6  A    between atoms: N1_9  and  C7_11 
REMARK    7  A    between atoms: C7_11  and  C8_12 
REMARK    8  A    between atoms: C8_12  and  N2_15 
REMARK    9  A    between atoms: C16_21  and  N3_22 
REMARK       I    between atoms: N3_22  and  C17_24 
REMARK   10  A    between atoms: C17_24  and  C18_26 
ROOT
HETATM    1  N2  UNL     1      -1.048   1.468  -0.808  1.00  0.00    -0.355 N 
HETATM    2  C11 UNL     1      -1.232   2.823  -1.141  1.00  0.00     0.097 C 
HETATM    3  C12 UNL     1      -2.514   3.457  -0.687  1.00  0.00     0.261 C 
HETATM    4  C13 UNL     1      -2.362   3.976   0.729  1.00  0.00     0.043 C 
HETATM    5  C14 UNL     1      -2.651   2.748   1.564  1.00  0.00     0.042 C 
HETATM    6  C15 UNL     1      -3.061   1.714   0.580  1.00  0.00     0.265 C 
HETATM    7  C16 UNL     1      -1.900   0.847   0.107  1.00  0.00     0.220 C 
HETATM    8  N4  UNL     1      -3.555   2.427  -0.559  1.00  0.00     0.102 N 
HETATM    9  C22 UNL     1      -4.792   3.128  -0.301  1.00  0.00     0.311 C 
ENDROOT
BRANCH   1  10
HETATM   10  C8  UNL     1       0.345   1.142  -0.800  1.00  0.00     0.058 C 
HETATM   11  C9  UNL     1       1.137   1.915   0.218  1.00  0.00     0.044 C 
HETATM   12  C10 UNL     1       0.882   1.645  -2.163  1.00  0.00     0.044 C 
BRANCH  10  13
HETATM   13  C7  UNL     1       0.661  -0.300  -0.774  1.00  0.00     0.086 C 
BRANCH  13  14
HETATM   14  N1  UNL     1       1.950  -0.764  -1.065  1.00  0.00    -0.397 N 
ATOM     15  H1  UNL     1       2.093  -1.288  -1.929  1.00  0.00     0.158 HD
BRANCH  14  16
HETATM   16  C6  UNL     1       3.052  -0.545  -0.230  1.00  0.00     0.150 C 
BRANCH  16  17
HETATM   17  C5  UNL     1       4.296  -1.312  -0.739  1.00  0.00     0.136 C 
BRANCH  17  18
HETATM   18  C4  UNL     1       5.561  -0.867  -0.133  1.00  0.00     0.037 C 
BRANCH  18  19
HETATM   19  C2  UNL     1       5.815  -1.201   1.289  1.00  0.00    -0.020 C 
HETATM   20  C1  UNL     1       5.817  -2.705   1.551  1.00  0.00     0.009 C 
HETATM   21  C3  UNL     1       4.996  -0.477   2.298  1.00  0.00     0.009 C 
ENDBRANCH  18  19
ENDBRANCH  17  18
BRANCH  17  22
HETATM   22  O1  UNL     1       4.045  -2.658  -0.763  1.00  0.00    -0.394 OA
ATOM     23  H1  UNL     1       3.228  -2.945  -1.154  1.00  0.00     0.210 HD
ENDBRANCH  17  22
ENDBRANCH  16  17
ENDBRANCH  14  16
ENDBRANCH  13  14
ENDBRANCH  10  13
ENDBRANCH   1  10
BRANCH   7  24
HETATM   24  N3  UNL     1      -2.569  -0.316  -0.450  1.00  0.00    -0.337 N 
HETATM   25  C17 UNL     1      -2.596  -1.518   0.343  1.00  0.00     0.227 C 
HETATM   26  O2  UNL     1      -2.065  -1.558   1.481  1.00  0.00    -0.273 OA
ATOM     27  H3  UNL     1      -3.005  -0.282  -1.372  1.00  0.00     0.164 HD
BRANCH  25  28
HETATM   28  C18 UNL     1      -3.252  -2.752  -0.161  1.00  0.00     0.030 C 
HETATM   29  C19 UNL     1      -4.701  -2.505  -0.522  1.00  0.00     0.024 C 
HETATM   30  C20 UNL     1      -2.428  -3.188  -1.380  1.00  0.00     0.024 C 
HETATM   31  C21 UNL     1      -3.124  -3.836   0.872  1.00  0.00     0.024 C 
ENDBRANCH  25  28
ENDBRANCH   7  24
TORSDOF 10
