REMARK  2 active torsions:
REMARK  status: ('A' for Active; 'I' for Inactive)
REMARK    1  A    between atoms: C2_2  and  C4_5 
REMARK    2  A    between atoms: C8_9  and  N1_10 
REMARK       I    between atoms: N1_10  and  C9_12 
REMARK       I    between atoms: C9_12  and  N2_14 
ROOT
HETATM    1  N1  UNL     1       2.760   0.049   0.077  1.00  0.00    -0.338 N 
ATOM      2  H1  UNL     1       2.701   0.773   0.793  1.00  0.00     0.164 HD
HETATM    3  C9  UNL     1       4.036  -0.376  -0.330  1.00  0.00     0.329 C 
HETATM    4  O1  UNL     1       4.133  -1.260  -1.207  1.00  0.00    -0.246 OA
HETATM    5  N2  UNL     1       5.191   0.192   0.247  1.00  0.00    -0.245 N 
ATOM      6  H2  UNL     1       5.076   0.912   0.960  1.00  0.00     0.183 HD
HETATM    7  C10 UNL     1       6.495  -0.192  -0.119  1.00  0.00     0.185 C 
HETATM    8  N3  UNL     1       7.570  -0.505  -0.438  1.00  0.00    -0.172 NA
ENDROOT
BRANCH   1   9
HETATM    9  C8  UNL     1       1.526  -0.480  -0.461  1.00  0.00     0.086 C 
HETATM   10  C7  UNL     1       0.666  -1.130   0.566  1.00  0.00     0.026 C 
HETATM   11  C6  UNL     1      -0.392  -0.201   1.143  1.00  0.00     0.013 C 
HETATM   12  C4  UNL     1      -1.355   0.281   0.107  1.00  0.00    -0.023 C 
HETATM   13  C5  UNL     1      -1.512   1.775   0.285  1.00  0.00     0.017 C 
HETATM   14  C12 UNL     1      -0.709   0.066  -1.248  1.00  0.00     0.013 C 
HETATM   15  C11 UNL     1       0.725   0.559  -1.197  1.00  0.00     0.026 C 
BRANCH  12  16
HETATM   16  C2  UNL     1      -2.681  -0.439   0.155  1.00  0.00     0.037 C 
HETATM   17  C1  UNL     1      -3.623   0.031  -0.930  1.00  0.00     0.033 C 
HETATM   18  C3  UNL     1      -3.397  -0.230   1.467  1.00  0.00     0.033 C 
HETATM   19 CL1  UNL     1      -2.480  -2.194  -0.056  1.00  0.00    -0.119 Cl
ENDBRANCH  12  16
ENDBRANCH   1   9
TORSDOF 2
