REMARK  9 active torsions:
REMARK  status: ('A' for Active; 'I' for Inactive)
REMARK    1  A    between atoms: C2_2  and  C3_3 
REMARK    2  A    between atoms: C3_3  and  C4_4 
REMARK    3  A    between atoms: C4_4  and  N1_5 
REMARK    4  A    between atoms: N1_5  and  C6_7 
REMARK    5  A    between atoms: C9_11  and  O2_12 
REMARK    6  A    between atoms: N2_21  and  C17_22 
REMARK    7  A    between atoms: C17_22  and  C18_23 
REMARK    8  A    between atoms: C25_34  and  C26_35 
REMARK    9  A    between atoms: C33_42  and  O3_43 
ROOT
HETATM    1  C6  UNL     1       1.958   0.116  -0.872  1.00  0.00     0.288 C 
HETATM    2  C7  UNL     1       1.861  -1.259  -1.483  1.00  0.00     0.182 C 
HETATM    3  O1  UNL     1       1.692  -1.126  -2.874  1.00  0.00    -0.339 OA
HETATM    4  C8  UNL     1       0.486  -1.774  -3.169  1.00  0.00     0.110 A 
HETATM    5  C9  UNL     1      -0.021  -2.240  -4.384  1.00  0.00     0.099 A 
HETATM    6  C10 UNL     1      -1.246  -2.854  -4.423  1.00  0.00     0.040 A 
HETATM    7  C11 UNL     1      -2.001  -3.025  -3.272  1.00  0.00     0.011 A 
HETATM    8  C12 UNL     1      -1.512  -2.571  -2.076  1.00  0.00    -0.042 A 
HETATM    9  C13 UNL     1      -0.265  -1.944  -2.027  1.00  0.00    -0.001 A 
HETATM   10  C14 UNL     1       0.462  -1.401  -0.885  1.00  0.00     0.057 C 
HETATM   11  C15 UNL     1       0.403  -2.376   0.240  1.00  0.00     0.065 C 
HETATM   12  C16 UNL     1      -0.745  -2.392   1.136  1.00  0.00     0.065 C 
HETATM   13  N2  UNL     1      -1.879  -1.592   0.933  1.00  0.00    -0.363 N 
HETATM   14  C21 UNL     1      -2.727  -1.639  -0.143  1.00  0.00     0.017 C 
HETATM   15  C22 UNL     1      -2.547  -2.894  -1.047  1.00  0.00     0.096 C 
HETATM   16  C23 UNL     1      -3.002  -0.488  -1.020  1.00  0.00     0.057 C 
HETATM   17  C24 UNL     1      -2.716   0.863  -0.620  1.00  0.00     0.058 A 
HETATM   18  N3  UNL     1      -3.569   1.764  -0.040  1.00  0.00    -0.300 N 
ATOM     19  H3  UNL     1      -4.534   1.554   0.216  1.00  0.00     0.187 HD
HETATM   20  N4  UNL     1      -3.008   2.908   0.144  1.00  0.00    -0.303 N 
ATOM     21  H4  UNL     1      -3.451   3.727   0.559  1.00  0.00     0.186 HD
HETATM   22  C25 UNL     1      -1.719   2.843  -0.309  1.00  0.00     0.038 A 
HETATM   23  C31 UNL     1      -1.532   1.562  -0.788  1.00  0.00    -0.003 A 
HETATM   24  C32 UNL     1      -0.335   0.941  -1.425  1.00  0.00     0.084 C 
HETATM   25  C33 UNL     1       0.451   0.008  -0.561  1.00  0.00     0.110 C 
ENDROOT
BRANCH   1  26
HETATM   26  N1  UNL     1       2.821   0.139   0.303  1.00  0.00     0.094 N 
HETATM   27  C5  UNL     1       2.867   1.464   0.895  1.00  0.00     0.310 C 
BRANCH  26  28
HETATM   28  C4  UNL     1       4.187  -0.266  -0.018  1.00  0.00     0.272 C 
BRANCH  28  29
HETATM   29  C3  UNL     1       4.911  -0.492   1.289  1.00  0.00     0.030 C 
BRANCH  29  30
HETATM   30  C2  UNL     1       6.350  -0.923   0.998  1.00  0.00    -0.003 C 
HETATM   31  C1  UNL     1       7.012   0.182   0.218  1.00  0.00     0.005 C 
ENDBRANCH  29  30
ENDBRANCH  28  29
ENDBRANCH  26  28
ENDBRANCH   1  26
BRANCH  25  32
HETATM   32  O3  UNL     1       0.342   0.352   0.798  1.00  0.00    -0.386 OA
ATOM     33  H3  UNL     1      -0.586   0.285   0.990  1.00  0.00     0.210 HD
ENDBRANCH  25  32
BRANCH   5  34
HETATM   34  O2  UNL     1       0.759  -2.056  -5.530  1.00  0.00    -0.358 OA
ATOM     35  H2  UNL     1       0.414  -2.373  -6.356  1.00  0.00     0.217 HD
ENDBRANCH   5  34
BRANCH  22  36
HETATM   36  C26 UNL     1      -0.760   3.996  -0.237  1.00  0.00     0.037 C 
HETATM   37  C27 UNL     1      -1.623   5.255  -0.086  1.00  0.00     0.011 C 
HETATM   38  C28 UNL     1      -0.883   6.192   0.812  1.00  0.00     0.001 C 
HETATM   39  C29 UNL     1      -0.284   5.230   1.827  1.00  0.00     0.001 C 
HETATM   40  C30 UNL     1       0.012   3.975   1.058  1.00  0.00     0.011 C 
ENDBRANCH  22  36
BRANCH  13  41
HETATM   41  C17 UNL     1      -2.599  -1.352   2.211  1.00  0.00     0.132 C 
BRANCH  41  42
HETATM   42  C18 UNL     1      -3.211  -2.645   2.694  1.00  0.00     0.004 A 
HETATM   43  C19 UNL     1      -3.996  -2.655   3.976  1.00  0.00     0.007 A 
HETATM   44  C20 UNL     1      -4.734  -2.631   2.692  1.00  0.00     0.007 A 
ENDBRANCH  41  42
ENDBRANCH  13  41
TORSDOF 9
