REMARK  5 active torsions:
REMARK  status: ('A' for Active; 'I' for Inactive)
REMARK    1  A    between atoms: C3_3  and  C4_4 
REMARK    2  A    between atoms: C6_6  and  C7_7 
REMARK    3  A    between atoms: C7_7  and  N1_8 
REMARK    4  A    between atoms: C11_14  and  N3_15 
REMARK    5  A    between atoms: C14_18  and  O1_19 
ROOT
HETATM    1  C1  UNL     1       9.263   1.927  -0.767  1.00  0.00     0.012 C 
HETATM    2  C2  UNL     1       8.386   1.569  -0.020  1.00  0.00    -0.111 C 
HETATM    3  C3  UNL     1       7.287   1.146   0.884  1.00  0.00     0.152 C 
ENDROOT
BRANCH   3   4
HETATM    4  C4  UNL     1       6.391   0.215   0.152  1.00  0.00     0.046 A 
HETATM    5  C5  UNL     1       5.296   0.556  -0.633  1.00  0.00     0.068 A 
HETATM    6  C6  UNL     1       4.745  -0.626  -1.124  1.00  0.00     0.116 A 
HETATM    7  O2  UNL     1       5.478  -1.581  -0.651  1.00  0.00    -0.236 OA
HETATM    8  N5  UNL     1       6.445  -1.126   0.097  1.00  0.00    -0.264 N 
ATOM      9  H5  UNL     1       7.140  -1.704   0.570  1.00  0.00     0.194 HD
BRANCH   6  10
HETATM   10  C7  UNL     1       3.564  -0.720  -2.005  1.00  0.00     0.129 C 
BRANCH  10  11
HETATM   11  N1  UNL     1       2.309  -0.686  -1.379  1.00  0.00    -0.361 N 
HETATM   12  C8  UNL     1       1.981  -1.662  -0.418  1.00  0.00     0.070 C 
HETATM   13  C9  UNL     1       1.425  -1.106   0.883  1.00  0.00     0.104 C 
HETATM   14  C10 UNL     1       0.189  -0.358   0.508  1.00  0.00     0.056 A 
HETATM   15  N2  UNL     1      -1.067  -0.257   0.928  1.00  0.00    -0.193 N 
HETATM   16  C18 UNL     1       0.329   0.461  -0.600  1.00  0.00     0.068 A 
HETATM   17  C11 UNL     1      -1.774   0.607   0.126  1.00  0.00     0.681 A 
ATOM     18  H2  UNL     1      -1.453  -0.751   1.733  1.00  0.00     0.184 HD
HETATM   19  N4  UNL     1      -0.868   1.017  -0.793  1.00  0.00    -0.192 N 
ATOM     20  H4  UNL     1      -1.076   1.674  -1.545  1.00  0.00     0.184 HD
HETATM   21  C19 UNL     1       1.635   0.573  -1.302  1.00  0.00     0.187 C 
BRANCH  17  22
HETATM   22  N3  UNL     1      -3.134   0.962   0.285  1.00  0.00    -0.215 N 
HETATM   23  C12 UNL     1      -3.698   1.172   1.607  1.00  0.00     0.144 C 
HETATM   24  C13 UNL     1      -4.797   0.138   1.832  1.00  0.00     0.055 C 
HETATM   25  C14 UNL     1      -5.809   0.159   0.695  1.00  0.00     0.158 C 
HETATM   26  C16 UNL     1      -5.122   0.010  -0.614  1.00  0.00     0.217 C 
HETATM   27  F1  UNL     1      -6.018  -0.007  -1.642  1.00  0.00    -0.245 F 
HETATM   28  C17 UNL     1      -4.043   1.065  -0.856  1.00  0.00     0.181 C 
BRANCH  25  29
HETATM   29  O1  UNL     1      -6.591  -0.990   0.889  1.00  0.00    -0.388 OA
HETATM   30  C15 UNL     1      -7.906  -0.695   1.183  1.00  0.00     0.202 C 
ENDBRANCH  25  29
ENDBRANCH  17  22
ENDBRANCH  10  11
ENDBRANCH   6  10
ENDBRANCH   3   4
TORSDOF 5
