REMARK  10 active torsions:
REMARK  status: ('A' for Active; 'I' for Inactive)
REMARK    1  A    between atoms: C2_2  and  O1_3 
REMARK    2  A    between atoms: O1_3  and  C3_4 
REMARK    3  A    between atoms: C5_6  and  N1_7 
REMARK    4  A    between atoms: C11_13  and  N2_14 
REMARK    5  A    between atoms: N2_14  and  C12_16 
REMARK    6  A    between atoms: C13_19  and  N4_20 
REMARK    7  A    between atoms: C19_29  and  N7_30 
REMARK    8  A    between atoms: N7_30  and  C20_32 
REMARK    9  A    between atoms: C20_32  and  C21_33 
REMARK   10  A    between atoms: C21_33  and  O2_34 
ROOT
HETATM    1  C12 UNL     1      -0.317   1.697   0.473  1.00  0.00     0.712 A 
HETATM    2  N3  UNL     1       0.394   0.594   0.200  1.00  0.00    -0.021 N 
ATOM      3  H3  UNL     1      -0.094  -0.291   0.063  1.00  0.00     0.203 HD
HETATM    4  C13 UNL     1       1.721   0.626   0.104  1.00  0.00     0.709 A 
HETATM    5  N6  UNL     1       2.374   1.784   0.283  1.00  0.00    -0.021 N 
ATOM      6  H6  UNL     1       3.391   1.807   0.209  1.00  0.00     0.203 HD
HETATM    7  C19 UNL     1       1.701   2.914   0.559  1.00  0.00     0.707 A 
HETATM    8  N8  UNL     1       0.363   2.839   0.647  1.00  0.00    -0.021 N 
ATOM      9  H8  UNL     1      -0.160   3.690   0.856  1.00  0.00     0.203 HD
ENDROOT
BRANCH   1  10
HETATM   10  N2  UNL     1      -1.600   1.704   0.573  1.00  0.00    -0.187 N 
ATOM     11  H2  UNL     1      -2.068   2.586   0.783  1.00  0.00     0.184 HD
BRANCH  10  12
HETATM   12  C11 UNL     1      -2.391   0.542   0.404  1.00  0.00     0.088 A 
HETATM   13  C3  UNL     1      -3.096   0.387  -0.779  1.00  0.00     0.098 A 
HETATM   14  C4  UNL     1      -3.861  -0.747  -0.933  1.00  0.00     0.068 A 
HETATM   15  C5  UNL     1      -3.951  -1.730   0.045  1.00  0.00     0.032 A 
HETATM   16  C8  UNL     1      -3.241  -1.543   1.199  1.00  0.00     0.038 A 
HETATM   17  C9  UNL     1      -2.464  -0.409   1.375  1.00  0.00    -0.030 A 
HETATM   18  C10 UNL     1      -1.728  -0.300   2.672  1.00  0.00     0.050 C 
BRANCH  13  19
HETATM   19  O1  UNL     1      -3.049   1.317  -1.781  1.00  0.00    -0.349 OA
BRANCH  19  20
HETATM   20  C2  UNL     1      -3.700   1.305  -3.009  1.00  0.00     0.171 C 
HETATM   21  C1  UNL     1      -5.191   1.290  -2.956  1.00  0.00     0.034 C 
ENDBRANCH  19  20
ENDBRANCH  13  19
BRANCH  15  22
HETATM   22  N1  UNL     1      -4.749  -2.888  -0.143  1.00  0.00    -0.389 N 
HETATM   23  C6  UNL     1      -4.849  -3.911   0.865  1.00  0.00     0.149 C 
HETATM   24  C7  UNL     1      -5.479  -3.037  -1.383  1.00  0.00     0.149 C 
ENDBRANCH  15  22
ENDBRANCH  10  12
ENDBRANCH   1  10
BRANCH   4  25
HETATM   25  N4  UNL     1       2.402  -0.590  -0.190  1.00  0.00    -0.213 N 
HETATM   26  C14 UNL     1       2.663  -0.979  -1.541  1.00  0.00     0.171 C 
HETATM   27  C15 UNL     1       4.007  -1.615  -1.750  1.00  0.00     0.292 C 
HETATM   28  N5  UNL     1       4.625  -1.864  -0.478  1.00  0.00     0.087 N 
HETATM   29  C16 UNL     1       5.868  -2.586  -0.578  1.00  0.00     0.310 C 
HETATM   30  C17 UNL     1       3.699  -2.491   0.455  1.00  0.00     0.292 C 
HETATM   31  C18 UNL     1       2.802  -1.389   0.974  1.00  0.00     0.171 C 
ENDBRANCH   4  25
BRANCH   7  32
HETATM   32  N7  UNL     1       2.319   4.032   0.733  1.00  0.00    -0.223 N 
ATOM     33  H7  UNL     1       1.773   4.868   0.941  1.00  0.00     0.177 HD
BRANCH  32  34
HETATM   34  C20 UNL     1       3.751   4.143   0.645  1.00  0.00     0.164 C 
BRANCH  34  35
HETATM   35  C21 UNL     1       4.120   5.609   0.546  1.00  0.00     0.184 C 
BRANCH  35  36
HETATM   36  O2  UNL     1       5.491   5.779   0.458  1.00  0.00    -0.399 OA
ATOM     37  H2  UNL     1       5.722   6.698   0.396  1.00  0.00     0.209 HD
ENDBRANCH  35  36
ENDBRANCH  34  35
ENDBRANCH  32  34
ENDBRANCH   7  32
TORSDOF 10
