REMARK  2 active torsions:
REMARK  status: ('A' for Active; 'I' for Inactive)
REMARK    1  A    between atoms: C2_2  and  C3_3 
REMARK    2  A    between atoms: C2_2  and  N2_12 
ROOT
HETATM    1  C3  UNL     1      -0.379   0.104  -0.100  1.00  0.00     0.256 C 
HETATM    2  C4  UNL     1      -0.679   0.057  -1.545  1.00  0.00     0.040 C 
HETATM    3  C5  UNL     1      -1.886   1.009  -1.622  1.00  0.00     0.038 C 
HETATM    4  C6  UNL     1      -2.346   1.133  -0.177  1.00  0.00     0.223 C 
HETATM    5  C7  UNL     1      -3.825   0.958  -0.141  1.00  0.00     0.036 C 
HETATM    6  C8  UNL     1      -4.304   0.414   1.205  1.00  0.00     0.004 C 
HETATM    7  C9  UNL     1      -3.613  -0.891   1.421  1.00  0.00     0.030 C 
HETATM    8  C10 UNL     1      -2.427  -1.097   0.461  1.00  0.00     0.273 C 
HETATM    9  N1  UNL     1      -1.630   0.073   0.558  1.00  0.00     0.100 N 
ENDROOT
BRANCH   1  10
HETATM   10  C2  UNL     1       0.725  -0.735   0.424  1.00  0.00     0.252 C 
HETATM   11  C1  UNL     1       0.632  -2.206   0.223  1.00  0.00     0.045 C 
BRANCH  10  12
HETATM   12  N2  UNL     1       2.033  -0.278   0.136  1.00  0.00     0.095 N 
HETATM   13  C11 UNL     1       2.560  -0.416  -1.160  1.00  0.00     0.273 C 
HETATM   14  C12 UNL     1       4.091  -0.493  -0.994  1.00  0.00     0.030 C 
HETATM   15  C13 UNL     1       4.588   0.766  -0.301  1.00  0.00     0.003 C 
HETATM   16  C14 UNL     1       3.782   1.115   0.915  1.00  0.00     0.030 C 
HETATM   17  C15 UNL     1       2.306   1.073   0.589  1.00  0.00     0.273 C 
ENDBRANCH  10  12
ENDBRANCH   1  10
TORSDOF 2
