REMARK  2 active torsions:
REMARK  status: ('A' for Active; 'I' for Inactive)
REMARK    1  A    between atoms: C6_6  and  N1_7 
REMARK    2  A    between atoms: N1_7  and  C8_9 
ROOT
HETATM    1  C8  UNL     1       0.407  -0.710  -0.017  1.00  0.00     0.226 C 
HETATM    2  C9  UNL     1       0.754  -0.039   1.297  1.00  0.00     0.066 C 
HETATM    3  C10 UNL     1       2.135  -0.376   1.759  1.00  0.00     0.275 C 
HETATM    4  N2  UNL     1       3.121  -0.290   0.738  1.00  0.00     0.093 N 
HETATM    5  C11 UNL     1       4.326   0.395   1.052  1.00  0.00     0.273 C 
HETATM    6  C12 UNL     1       4.605   1.386  -0.088  1.00  0.00     0.032 C 
HETATM    7  C13 UNL     1       3.729   0.765  -1.189  1.00  0.00     0.037 C 
HETATM    8  C14 UNL     1       2.501   0.448  -0.367  1.00  0.00     0.225 C 
HETATM    9  C15 UNL     1       1.562  -0.530  -1.019  1.00  0.00     0.071 C 
ENDROOT
BRANCH   1  10
HETATM   10  N1  UNL     1      -0.759  -0.154  -0.624  1.00  0.00     0.093 N 
HETATM   11  C7  UNL     1      -0.923  -0.705  -1.947  1.00  0.00     0.310 C 
BRANCH  10  12
HETATM   12  C6  UNL     1      -1.958  -0.274   0.133  1.00  0.00     0.226 C 
HETATM   13  C2  UNL     1      -3.076   0.527  -0.510  1.00  0.00     0.015 C 
HETATM   14  C1  UNL     1      -3.067   1.973  -0.058  1.00  0.00     0.012 C 
HETATM   15  C3  UNL     1      -4.363  -0.140  -0.037  1.00  0.00     0.006 C 
HETATM   16  C4  UNL     1      -3.947  -1.320   0.806  1.00  0.00     0.002 C 
HETATM   17  C5  UNL     1      -2.558  -1.629   0.233  1.00  0.00     0.036 C 
ENDBRANCH  10  12
ENDBRANCH   1  10
TORSDOF 2
