REMARK  13 active torsions:
REMARK  status: ('A' for Active; 'I' for Inactive)
REMARK    1  A    between atoms: C2_2  and  O1_3 
REMARK    2  A    between atoms: C2_2  and  C3_5 
REMARK    3  A    between atoms: C3_5  and  C4_6 
REMARK    4  A    between atoms: C5_7  and  C6_8 
REMARK    5  A    between atoms: C6_8  and  O2_9 
REMARK    6  A    between atoms: C6_8  and  C7_11 
REMARK    7  A    between atoms: C8_12  and  N1_13 
REMARK    8  A    between atoms: C9_18  and  N3_19 
REMARK    9  A    between atoms: N7_30  and  C12_31 
REMARK   10  A    between atoms: C12_31  and  O5_32 
REMARK   11  A    between atoms: O5_32  and  C13_33 
REMARK   12  A    between atoms: C13_33  and  C14_35 
REMARK   13  A    between atoms: N8_36  and  O7_38 
ROOT
HETATM    1  C4  UNL     1       0.842  -0.743  -0.954  1.00  0.00     0.052 A 
HETATM    2  C5  UNL     1      -0.261   0.068  -1.297  1.00  0.00     0.092 A 
HETATM    3  N6  UNL     1       0.213   1.104  -2.053  1.00  0.00    -0.329 N 
ATOM      4  H6  UNL     1      -0.347   1.858  -2.451  1.00  0.00     0.168 HD
HETATM    5  C11 UNL     1       1.515   0.963  -2.179  1.00  0.00     0.184 A 
HETATM    6  S1  UNL     1       2.551   1.950  -2.995  1.00  0.00    -0.040 SA
HETATM    7  N7  UNL     1       1.912  -0.173  -1.506  1.00  0.00    -0.280 N 
ENDROOT
BRANCH   2   8
HETATM    8  C6  UNL     1      -1.641  -0.191  -1.026  1.00  0.00     0.112 C 
BRANCH   8   9
HETATM    9  O2  UNL     1      -2.001  -1.395  -1.394  1.00  0.00    -0.357 OA
ATOM     10  H2  UNL     1      -2.918  -1.567  -1.214  1.00  0.00     0.217 HD
ENDBRANCH   8   9
BRANCH   8  11
HETATM   11  C7  UNL     1      -2.717   0.580  -0.458  1.00  0.00     0.092 A 
HETATM   12  C8  UNL     1      -2.643   1.773   0.206  1.00  0.00     0.204 A 
HETATM   13  N2  UNL     1      -3.787   2.437   0.644  1.00  0.00    -0.170 N 
HETATM   14  C9  UNL     1      -4.987   1.936   0.444  1.00  0.00     0.678 A 
ATOM     15  H2  UNL     1      -3.692   3.329   1.129  1.00  0.00     0.186 HD
HETATM   16  N4  UNL     1      -5.096   0.769  -0.192  1.00  0.00    -0.178 N 
HETATM   17  C10 UNL     1      -4.039   0.088  -0.639  1.00  0.00     0.148 A 
ATOM     18  H4  UNL     1      -6.027   0.380  -0.343  1.00  0.00     0.185 HD
HETATM   19  N5  UNL     1      -4.201  -1.148  -1.315  1.00  0.00    -0.081 NA
BRANCH  12  20
HETATM   20  N1  UNL     1      -1.466   2.429   0.598  1.00  0.00    -0.096 N 
HETATM   21  O3  UNL     1      -1.473   3.700   0.566  1.00  0.00    -0.530 OA
HETATM   22  O4  UNL     1      -0.331   1.857   0.980  1.00  0.00    -0.530 OA
ENDBRANCH  12  20
BRANCH  14  23
HETATM   23  N3  UNL     1      -6.064   2.567   0.860  1.00  0.00    -0.234 N 
ATOM     24  H32 UNL     1      -5.981   3.460   1.346  1.00  0.00     0.174 HD
ATOM     25  H31 UNL     1      -6.994   2.179   0.705  1.00  0.00     0.174 HD
ENDBRANCH  14  23
ENDBRANCH   8  11
ENDBRANCH   2   8
BRANCH   1  26
HETATM   26  C3  UNL     1       0.663  -2.015  -0.252  1.00  0.00     0.091 C 
BRANCH  26  27
HETATM   27  C2  UNL     1       0.105  -2.022   1.106  1.00  0.00     0.119 C 
HETATM   28  C1  UNL     1       0.049  -3.520   1.516  1.00  0.00     0.039 C 
BRANCH  27  29
HETATM   29  O1  UNL     1       0.881  -1.434   2.053  1.00  0.00    -0.396 OA
ATOM     30  H1  UNL     1       0.915  -0.518   1.802  1.00  0.00     0.210 HD
ENDBRANCH  27  29
ENDBRANCH  26  27
ENDBRANCH   1  26
BRANCH   7  31
HETATM   31  C12 UNL     1       3.302  -0.556  -1.473  1.00  0.00     0.247 C 
BRANCH  31  32
HETATM   32  O5  UNL     1       4.136   0.164  -0.717  1.00  0.00    -0.269 OA
BRANCH  32  33
HETATM   33  C13 UNL     1       4.277   0.464   0.561  1.00  0.00     0.306 C 
HETATM   34  O6  UNL     1       3.527   0.047   1.463  1.00  0.00    -0.258 OA
BRANCH  33  35
HETATM   35  C14 UNL     1       5.381   1.345   1.003  1.00  0.00     0.196 C 
HETATM   36  N8  UNL     1       5.500   1.625   2.274  1.00  0.00    -0.275 N 
ATOM     37  H8  UNL     1       4.843   1.244   2.954  1.00  0.00     0.193 HD
BRANCH  36  38
HETATM   38  O7  UNL     1       6.525   2.441   2.674  1.00  0.00    -0.290 OA
ATOM     39  H7  UNL     1       6.612   2.645   3.598  1.00  0.00     0.244 HD
ENDBRANCH  36  38
ENDBRANCH  33  35
ENDBRANCH  32  33
ENDBRANCH  31  32
ENDBRANCH   7  31
TORSDOF 13
