REMARK  6 active torsions:
REMARK  status: ('A' for Active; 'I' for Inactive)
REMARK    1  A    between atoms: O1_1  and  C1_3 
REMARK    2  A    between atoms: N1_8  and  C6_9 
REMARK    3  A    between atoms: C6_9  and  C7_10 
REMARK    4  A    between atoms: C7_10  and  C8_11 
REMARK    5  A    between atoms: C8_11  and  N2_12 
REMARK    6  A    between atoms: N2_12  and  C9_15 
ROOT
HETATM    1  C7  UNL     1      -0.704   0.562   1.149  1.00  0.00     0.072 C 
ENDROOT
BRANCH   1   2
HETATM    2  C6  UNL     1      -1.290  -0.244   0.041  1.00  0.00     0.067 C 
BRANCH   2   3
HETATM    3  N1  UNL     1      -2.664  -0.132  -0.196  1.00  0.00    -0.347 N 
HETATM    4  C1  UNL     1      -3.569  -0.662   0.744  1.00  0.00     0.223 C 
HETATM    5  C2  UNL     1      -4.873   0.132   0.788  1.00  0.00     0.054 C 
HETATM    6  C3  UNL     1      -5.446   0.123  -0.601  1.00  0.00     0.009 C 
HETATM    7  C4  UNL     1      -4.535  -0.405  -1.658  1.00  0.00     0.045 C 
HETATM    8  C5  UNL     1      -3.144   0.135  -1.493  1.00  0.00     0.066 C 
BRANCH   4   9
HETATM    9  O1  UNL     1      -3.083  -0.934   2.002  1.00  0.00    -0.376 OA
ATOM     10  H1  UNL     1      -2.272  -1.428   1.975  1.00  0.00     0.212 HD
ENDBRANCH   4   9
ENDBRANCH   2   3
ENDBRANCH   1   2
BRANCH   1  11
HETATM   11  C8  UNL     1       0.787   0.278   1.243  1.00  0.00     0.237 C 
BRANCH  11  12
HETATM   12  N2  UNL     1       1.378   0.643  -0.024  1.00  0.00    -0.071 N 
ATOM     13  H22 UNL     1       0.941   0.150  -0.803  1.00  0.00     0.277 HD
ATOM     14  H21 UNL     1       1.138   1.597  -0.294  1.00  0.00     0.277 HD
BRANCH  12  15
HETATM   15  C9  UNL     1       2.807   0.437   0.009  1.00  0.00     0.185 C 
HETATM   16  C10 UNL     1       3.227  -0.980   0.218  1.00  0.00     0.033 C 
HETATM   17  C11 UNL     1       4.706  -1.120   0.245  1.00  0.00     0.002 C 
HETATM   18  C12 UNL     1       5.496  -0.251  -0.650  1.00  0.00     0.000 C 
HETATM   19  C13 UNL     1       4.921   1.103  -0.933  1.00  0.00     0.002 C 
HETATM   20  C14 UNL     1       3.438   0.911  -1.285  1.00  0.00     0.033 C 
ENDBRANCH  12  15
ENDBRANCH  11  12
ENDBRANCH   1  11
TORSDOF 6
