REMARK  3 active torsions:
REMARK  status: ('A' for Active; 'I' for Inactive)
REMARK    1  A    between atoms: O1_1  and  C1_3 
REMARK    2  A    between atoms: C3_6  and  N1_7 
REMARK    3  A    between atoms: N1_7  and  C4_9 
ROOT
HETATM    1  C1  UNL     1       3.695  -0.047  -0.127  1.00  0.00     0.148 A 
HETATM    2  C2  UNL     1       3.422   0.419   1.129  1.00  0.00     0.109 A 
HETATM    3  S1  UNL     1       1.716   0.376   1.157  1.00  0.00    -0.061 SA
HETATM    4  C3  UNL     1       1.457  -0.227  -0.416  1.00  0.00     0.151 A 
HETATM    5  N2  UNL     1       2.696  -0.369  -0.895  1.00  0.00    -0.317 N 
ATOM      6  H2  UNL     1       2.854  -0.721  -1.839  1.00  0.00     0.170 HD
ENDROOT
BRANCH   4   7
HETATM    7  N1  UNL     1       0.331  -0.499  -1.039  1.00  0.00    -0.337 N 
ATOM      8  H1  UNL     1       0.343  -0.860  -1.993  1.00  0.00     0.168 HD
BRANCH   7   9
HETATM    9  C4  UNL     1      -0.903  -0.284  -0.367  1.00  0.00     0.034 A 
HETATM   10  C5  UNL     1      -1.712  -1.294   0.060  1.00  0.00     0.029 A 
HETATM   11  C6  UNL     1      -2.899  -1.019   0.707  1.00  0.00     0.002 A 
HETATM   12  C7  UNL     1      -3.315   0.288   0.947  1.00  0.00     0.000 A 
HETATM   13  C8  UNL     1      -2.490   1.318   0.510  1.00  0.00     0.002 A 
HETATM   14  C9  UNL     1      -1.311   1.012  -0.132  1.00  0.00     0.029 A 
ENDBRANCH   7   9
ENDBRANCH   4   7
BRANCH   1  15
HETATM   15  O1  UNL     1       5.050  -0.162  -0.546  1.00  0.00    -0.346 OA
ATOM     16  H1  UNL     1       5.240  -0.486  -1.419  1.00  0.00     0.219 HD
ENDBRANCH   1  15
TORSDOF 3
