REMARK  4 active torsions:
REMARK  status: ('A' for Active; 'I' for Inactive)
REMARK    1  A    between atoms: C2_2  and  C3_3 
REMARK    2  A    between atoms: C5_9  and  C6_10 
REMARK    3  A    between atoms: C6_10  and  C7_11 
REMARK    4  A    between atoms: C7_11  and  C8_12 
ROOT
HETATM    1  C6  UNL     1       0.178  -0.786  -0.146  1.00  0.00    -0.058 C 
ENDROOT
BRANCH   1   2
HETATM    2  C5  UNL     1      -1.188  -1.198  -0.279  1.00  0.00     0.059 A 
HETATM    3  C3  UNL     1      -2.326  -0.415  -0.059  1.00  0.00     0.045 A 
HETATM    4  N1  UNL     1      -3.412  -1.171  -0.300  1.00  0.00    -0.304 N 
HETATM    5  N2  UNL     1      -3.030  -2.391  -0.660  1.00  0.00    -0.310 N 
ATOM      6  H1  UNL     1      -4.379  -0.856  -0.219  1.00  0.00     0.186 HD
HETATM    7  C4  UNL     1      -1.680  -2.429  -0.654  1.00  0.00     0.129 A 
ATOM      8  H2  UNL     1      -3.649  -3.165  -0.900  1.00  0.00     0.186 HD
BRANCH   3   9
HETATM    9  C2  UNL     1      -2.238   1.007   0.373  1.00  0.00     0.056 C 
HETATM   10  C1  UNL     1      -3.551   1.693   0.108  1.00  0.00     0.011 C 
ENDBRANCH   3   9
ENDBRANCH   1   2
BRANCH   1  11
HETATM   11  C7  UNL     1       1.322  -0.421  -0.053  1.00  0.00    -0.059 C 
BRANCH  11  12
HETATM   12  C8  UNL     1       2.687   0.045   0.039  1.00  0.00     0.048 A 
HETATM   13  C9  UNL     1       3.266   0.748  -1.010  1.00  0.00     0.111 A 
HETATM   14  N3  UNL     1       4.525   1.174  -0.910  1.00  0.00    -0.361 N 
HETATM   15  C10 UNL     1       5.263   0.942   0.189  1.00  0.00     0.180 A 
ATOM     16  H3  UNL     1       4.939   1.689  -1.687  1.00  0.00     0.166 HD
HETATM   17  N4  UNL     1       4.689   0.260   1.196  1.00  0.00    -0.361 N 
HETATM   18  C11 UNL     1       3.420  -0.201   1.162  1.00  0.00     0.111 A 
ATOM     19  H4  UNL     1       5.244   0.081   2.033  1.00  0.00     0.166 HD
ENDBRANCH  11  12
ENDBRANCH   1  11
TORSDOF 4
