REMARK  8 active torsions:
REMARK  status: ('A' for Active; 'I' for Inactive)
REMARK    1  A    between atoms: N1_1  and  C1_4 
REMARK    2  A    between atoms: C2_7  and  N3_8 
REMARK    3  A    between atoms: N5_14  and  C4_15 
REMARK    4  A    between atoms: C4_15  and  C5_16 
REMARK    5  A    between atoms: C5_16  and  N6_17 
REMARK    6  A    between atoms: N6_17  and  C6_20 
REMARK    7  A    between atoms: C6_20  and  C7_21 
REMARK    8  A    between atoms: C7_21  and  O1_22 
ROOT
HETATM    1  C1  UNL     1      -4.507   0.753   0.500  1.00  0.00     0.679 A 
HETATM    2  N2  UNL     1      -4.584  -0.147  -0.495  1.00  0.00    -0.175 N 
ATOM      3  H2  UNL     1      -5.459  -0.248  -1.009  1.00  0.00     0.186 HD
HETATM    4  C2  UNL     1      -3.529  -0.921  -0.831  1.00  0.00     0.147 A 
HETATM    5  C3  UNL     1      -2.336  -0.792  -0.142  1.00  0.00     0.140 A 
HETATM    6  N4  UNL     1      -1.131  -1.397  -0.227  1.00  0.00    -0.277 N 
ATOM      7  H4  UNL     1      -0.891  -2.129  -0.896  1.00  0.00     0.189 HD
HETATM    8  N5  UNL     1      -0.301  -0.899   0.690  1.00  0.00    -0.230 N 
HETATM    9  N7  UNL     1      -1.003   0.017   1.340  1.00  0.00    -0.266 N 
ATOM     10  H7  UNL     1      -0.636   0.578   2.109  1.00  0.00     0.190 HD
HETATM   11  C8  UNL     1      -2.245   0.118   0.870  1.00  0.00     0.169 A 
HETATM   12  N8  UNL     1      -3.340   0.859   1.153  1.00  0.00    -0.173 N 
ATOM     13  H8  UNL     1      -3.275   1.540   1.909  1.00  0.00     0.186 HD
ENDROOT
BRANCH   8  14
HETATM   14  C4  UNL     1       1.080  -1.287   0.933  1.00  0.00     0.197 C 
BRANCH  14  15
HETATM   15  C5  UNL     1       1.957  -0.414   0.057  1.00  0.00     0.255 C 
BRANCH  15  16
HETATM   16  N6  UNL     1       3.347  -0.704   0.220  1.00  0.00    -0.071 N 
ATOM     17  H62 UNL     1       3.646  -0.622   1.192  1.00  0.00     0.277 HD
ATOM     18  H61 UNL     1       3.552  -1.694   0.087  1.00  0.00     0.277 HD
BRANCH  16  19
HETATM   19  C6  UNL     1       4.119   0.134  -0.659  1.00  0.00     0.258 C 
BRANCH  19  20
HETATM   20  C7  UNL     1       4.060   1.583  -0.236  1.00  0.00     0.191 C 
BRANCH  20  21
HETATM   21  O1  UNL     1       4.578   1.656   1.073  1.00  0.00    -0.399 OA
ATOM     22  H1  UNL     1       4.541   2.567   1.339  1.00  0.00     0.209 HD
ENDBRANCH  20  21
ENDBRANCH  19  20
ENDBRANCH  16  19
ENDBRANCH  15  16
ENDBRANCH  14  15
ENDBRANCH   8  14
BRANCH   4  23
HETATM   23  N3  UNL     1      -3.583  -1.787  -1.774  1.00  0.00    -0.383 N 
ATOM     24  H32 UNL     1      -4.462  -1.882  -2.282  1.00  0.00     0.157 HD
ATOM     25  H31 UNL     1      -2.786  -2.371  -2.028  1.00  0.00     0.157 HD
ENDBRANCH   4  23
BRANCH   1  26
HETATM   26  N1  UNL     1      -5.540   1.485   0.805  1.00  0.00    -0.234 N 
ATOM     27  H12 UNL     1      -6.427   1.404   0.308  1.00  0.00     0.174 HD
ATOM     28  H11 UNL     1      -5.482   2.168   1.560  1.00  0.00     0.174 HD
ENDBRANCH   1  26
TORSDOF 8
