REMARK  10 active torsions:
REMARK  status: ('A' for Active; 'I' for Inactive)
REMARK    1  A    between atoms: C15_16  and  C17_18 
REMARK    2  A    between atoms: C17_18  and  C18_19 
REMARK    3  A    between atoms: C18_19  and  O2_20 
REMARK    4  A    between atoms: C18_19  and  C19_22 
REMARK    5  A    between atoms: C19_22  and  O3_23 
REMARK    6  A    between atoms: C19_22  and  C20_25 
REMARK    7  A    between atoms: C20_25  and  C21_26 
REMARK    8  A    between atoms: C21_26  and  O4_27 
REMARK    9  A    between atoms: C26_33  and  O5_34 
REMARK   10  A    between atoms: C27_36  and  O6_37 
ROOT
HETATM    1  C1  UNL     1      -4.976  -1.194   0.576  1.00  0.00     0.018 C 
HETATM    2  C2  UNL     1      -4.689   0.045  -0.214  1.00  0.00    -0.011 C 
HETATM    3  C3  UNL     1      -4.416   1.262   0.571  1.00  0.00     0.012 C 
HETATM    4  C4  UNL     1      -2.938   1.700   0.520  1.00  0.00     0.007 C 
HETATM    5  C5  UNL     1      -2.054   0.457   0.648  1.00  0.00    -0.001 C 
HETATM    6  C6  UNL     1      -2.228  -0.272  -0.657  1.00  0.00     0.002 C 
HETATM    7  C7  UNL     1      -1.270   0.407  -1.649  1.00  0.00     0.084 C 
HETATM    8  C8  UNL     1       0.064  -0.051  -1.128  1.00  0.00     0.133 C 
HETATM    9  O1  UNL     1       0.656  -0.785  -1.840  1.00  0.00    -0.298 OA
HETATM   10  C9  UNL     1       0.445   0.489   0.213  1.00  0.00     0.072 C 
HETATM   11  C10 UNL     1      -0.691   0.671   1.147  1.00  0.00    -0.029 C 
HETATM   12  C11 UNL     1      -0.690   2.123   1.697  1.00  0.00     0.016 C 
HETATM   13  C12 UNL     1      -0.561  -0.139   2.444  1.00  0.00     0.010 C 
HETATM   14  C13 UNL     1       0.766  -0.022   3.068  1.00  0.00     0.002 C 
HETATM   15  C14 UNL     1       1.939  -0.052   2.182  1.00  0.00     0.011 C 
HETATM   16  C15 UNL     1       1.640  -0.272   0.692  1.00  0.00    -0.023 C 
HETATM   17  C16 UNL     1       1.430  -1.754   0.550  1.00  0.00     0.017 C 
HETATM   18  C24 UNL     1      -3.580  -0.124  -1.225  1.00  0.00     0.003 C 
HETATM   19  C25 UNL     1      -4.088  -1.274  -2.024  1.00  0.00     0.040 C 
HETATM   20  C26 UNL     1      -5.568  -0.910  -2.196  1.00  0.00     0.148 C 
HETATM   21  C27 UNL     1      -5.857   0.196  -1.201  1.00  0.00     0.155 C 
ENDROOT
BRANCH  16  22
HETATM   22  C17 UNL     1       2.961   0.228   0.068  1.00  0.00    -0.004 A 
HETATM   23  C22 UNL     1       3.098   1.706   0.325  1.00  0.00     0.014 A 
HETATM   24  C23 UNL     1       3.041   1.106  -1.062  1.00  0.00     0.014 A 
BRANCH  22  25
HETATM   25  C18 UNL     1       4.138  -0.625   0.464  1.00  0.00     0.156 C 
BRANCH  25  26
HETATM   26  O2  UNL     1       3.938  -1.958   0.077  1.00  0.00    -0.392 OA
ATOM     27  H2  UNL     1       4.680  -2.496   0.327  1.00  0.00     0.210 HD
ENDBRANCH  25  26
BRANCH  25  28
HETATM   28  C19 UNL     1       5.472  -0.274  -0.082  1.00  0.00     0.149 C 
BRANCH  28  29
HETATM   29  O3  UNL     1       5.946   0.992   0.081  1.00  0.00    -0.393 OA
ATOM     30  H3  UNL     1       6.800   1.217  -0.269  1.00  0.00     0.210 HD
ENDBRANCH  28  29
BRANCH  28  31
HETATM   31  C20 UNL     1       5.837  -0.941  -1.392  1.00  0.00     0.060 C 
BRANCH  31  32
HETATM   32  C21 UNL     1       7.240  -0.415  -1.756  1.00  0.00     0.166 C 
BRANCH  32  33
HETATM   33  O4  UNL     1       7.690  -0.951  -2.937  1.00  0.00    -0.401 OA
ATOM     34  H4  UNL     1       8.554  -0.627  -3.161  1.00  0.00     0.209 HD
ENDBRANCH  32  33
ENDBRANCH  31  32
ENDBRANCH  28  31
ENDBRANCH  25  28
ENDBRANCH  22  25
ENDBRANCH  16  22
BRANCH  21  35
HETATM   35  O6  UNL     1      -7.028  -0.096  -0.533  1.00  0.00    -0.392 OA
ATOM     36  H6  UNL     1      -7.750  -0.003  -1.143  1.00  0.00     0.210 HD
ENDBRANCH  21  35
BRANCH  20  37
HETATM   37  O5  UNL     1      -6.390  -2.005  -2.018  1.00  0.00    -0.393 OA
ATOM     38  H5  UNL     1      -7.307  -1.780  -2.125  1.00  0.00     0.210 HD
ENDBRANCH  20  37
TORSDOF 10
