REMARK  6 active torsions:
REMARK  status: ('A' for Active; 'I' for Inactive)
REMARK    1  A    between atoms: O1_2  and  C2_3 
REMARK       I    between atoms: C2_3  and  N1_5 
REMARK    2  A    between atoms: N1_5  and  C3_7 
REMARK    3  A    between atoms: C6_11  and  O4_12 
REMARK    4  A    between atoms: O4_12  and  C7_13 
REMARK    5  A    between atoms: C8_16  and  O6_17 
REMARK    6  A    between atoms: C9_19  and  O7_20 
ROOT
HETATM    1  C3  UNL     1      -0.666  -0.206   0.074  1.00  0.00     0.146 C 
HETATM    2  C4  UNL     1       0.325  -0.143   1.209  1.00  0.00     0.146 C 
HETATM    3  C5  UNL     1       0.773   1.287   1.458  1.00  0.00     0.042 C 
HETATM    4  O3  UNL     1       1.352  -1.033   1.115  1.00  0.00    -0.351 OA
HETATM    5  C6  UNL     1       1.927  -1.181  -0.111  1.00  0.00     0.302 C 
HETATM    6  C8  UNL     1       0.989  -1.482  -1.232  1.00  0.00     0.204 C 
HETATM    7  C9  UNL     1      -0.462  -1.452  -0.771  1.00  0.00     0.177 C 
ENDROOT
BRANCH   1   8
HETATM    8  N1  UNL     1      -2.038  -0.253   0.547  1.00  0.00    -0.327 N 
HETATM    9  C2  UNL     1      -3.011   0.697   0.191  1.00  0.00     0.360 C 
HETATM   10  O2  UNL     1      -2.725   1.650  -0.571  1.00  0.00    -0.239 OA
ATOM     11  H1  UNL     1      -2.310  -1.014   1.169  1.00  0.00     0.165 HD
BRANCH   9  12
HETATM   12  O1  UNL     1      -4.310   0.617   0.664  1.00  0.00    -0.309 OA
HETATM   13  C1  UNL     1      -5.255   1.600   0.276  1.00  0.00     0.215 C 
ENDBRANCH   9  12
ENDBRANCH   1   8
BRANCH   7  14
HETATM   14  O7  UNL     1      -0.782  -2.606  -0.089  1.00  0.00    -0.391 OA
ATOM     15  H7  UNL     1      -0.654  -3.385  -0.617  1.00  0.00     0.210 HD
ENDBRANCH   7  14
BRANCH   6  16
HETATM   16  O6  UNL     1       1.090  -0.591  -2.296  1.00  0.00    -0.388 OA
ATOM     17  H6  UNL     1       0.493  -0.783  -3.010  1.00  0.00     0.210 HD
ENDBRANCH   6  16
BRANCH   5  18
HETATM   18  O4  UNL     1       2.760  -0.068  -0.368  1.00  0.00    -0.272 OA
BRANCH  18  19
HETATM   19  C7  UNL     1       4.131  -0.136  -0.484  1.00  0.00     0.375 C 
HETATM   20  N2  UNL     1       4.872   1.032  -0.741  1.00  0.00    -0.032 NA
HETATM   21  O5  UNL     1       4.666  -1.274  -0.351  1.00  0.00    -0.242 OA
ENDBRANCH  18  19
ENDBRANCH   5  18
TORSDOF 6
