REMARK  3 active torsions:
REMARK  status: ('A' for Active; 'I' for Inactive)
REMARK       I    between atoms: C2_4  and  N2_5 
REMARK       I    between atoms: C2_4  and  N5_16 
REMARK    1  A    between atoms: N2_5  and  N3_7 
REMARK    2  A    between atoms: C3_9  and  C5_12 
REMARK    3  A    between atoms: C5_12  and  C7_14 
ROOT
HETATM    1  N3  UNL     1      -1.328   0.434  -0.937  1.00  0.00    -0.280 N 
ATOM      2  H3  UNL     1      -1.670   1.358  -1.201  1.00  0.00     0.188 HD
HETATM    3  C3  UNL     1      -2.174  -0.449  -0.531  1.00  0.00     0.110 C 
HETATM    4  C4  UNL     1      -1.688  -1.745  -0.162  1.00  0.00     0.115 C 
HETATM    5  N4  UNL     1      -1.285  -2.796   0.136  1.00  0.00    -0.190 NA
ENDROOT
BRANCH   3   6
HETATM    6  C5  UNL     1      -3.626  -0.170  -0.434  1.00  0.00     0.054 C 
HETATM    7  C6  UNL     1      -4.428  -1.123  -1.329  1.00  0.00     0.018 C 
BRANCH   6   8
HETATM    8  C7  UNL     1      -4.131  -0.416   0.982  1.00  0.00     0.097 C 
HETATM    9  S1  UNL     1      -5.916  -0.037   0.959  1.00  0.00    -0.097 SA
ENDBRANCH   6   8
ENDBRANCH   3   6
BRANCH   1  10
HETATM   10  N2  UNL     1       0.041   0.170  -1.028  1.00  0.00    -0.132 N 
HETATM   11  C2  UNL     1       0.950   0.957  -0.248  1.00  0.00     0.690 C 
HETATM   12  N1  UNL     1       0.613   2.154   0.030  1.00  0.00    -0.229 N 
HETATM   13  N5  UNL     1       2.167   0.400   0.181  1.00  0.00    -0.213 N 
HETATM   14  C1  UNL     1       1.512   2.975   0.817  1.00  0.00     0.165 C 
ATOM     15  H1  UNL     1      -0.277   2.529  -0.297  1.00  0.00     0.177 HD
HETATM   16  C8  UNL     1       2.193  -0.734   1.103  1.00  0.00     0.167 C 
HETATM   17  C11 UNL     1       3.467   0.898  -0.248  1.00  0.00     0.167 C 
HETATM   18  C9  UNL     1       3.389  -1.576   0.751  1.00  0.00     0.188 C 
HETATM   19  O1  UNL     1       3.719  -1.473  -0.605  1.00  0.00    -0.388 OA
HETATM   20  C10 UNL     1       4.328  -0.230  -0.813  1.00  0.00     0.188 C 
ATOM     21  H2  UNL     1       0.387  -0.570  -1.639  1.00  0.00     0.205 HD
ENDBRANCH   1  10
TORSDOF 3
