REMARK  12 active torsions:
REMARK  status: ('A' for Active; 'I' for Inactive)
REMARK    1  A    between atoms: O1_2  and  C2_3 
REMARK    2  A    between atoms: C2_3  and  C3_5 
REMARK    3  A    between atoms: C6_14  and  N4_15 
REMARK    4  A    between atoms: N5_17  and  N6_19 
REMARK    5  A    between atoms: N6_19  and  C7_21 
REMARK    6  A    between atoms: C7_21  and  N7_22 
REMARK    7  A    between atoms: C7_21  and  C8_26 
REMARK    8  A    between atoms: C11_29  and  N8_30 
REMARK    9  A    between atoms: C13_38  and  O3_39 
REMARK   10  A    between atoms: C15_45  and  O5_46 
REMARK   11  A    between atoms: C15_45  and  C16_48 
REMARK   12  A    between atoms: C16_48  and  O6_49 
ROOT
HETATM    1  C3  UNL     1      -3.971  -0.402   0.716  1.00  0.00     0.229 C 
HETATM    2  N1  UNL     1      -2.834  -0.159  -0.099  1.00  0.00    -0.357 N 
ATOM      3  H1  UNL     1      -2.535  -0.946  -0.675  1.00  0.00     0.162 HD
HETATM    4  C4  UNL     1      -2.120   0.915  -0.219  1.00  0.00     0.137 C 
HETATM    5  C5  UNL     1      -1.014   0.854  -1.140  1.00  0.00     0.144 A 
HETATM    6  N2  UNL     1      -0.775  -0.310  -1.838  1.00  0.00    -0.279 N 
ATOM      7  H2  UNL     1      -1.393  -1.108  -1.689  1.00  0.00     0.188 HD
HETATM    8  N3  UNL     1       0.211  -0.428  -2.681  1.00  0.00    -0.130 N 
ATOM      9  H3  UNL     1       0.324  -1.321  -3.161  1.00  0.00     0.205 HD
HETATM   10  C6  UNL     1       1.091   0.552  -2.960  1.00  0.00     0.714 A 
HETATM   11  N10 UNL     1       0.900   1.704  -2.306  1.00  0.00    -0.165 N 
ATOM     12  H10 UNL     1       1.533   2.486  -2.475  1.00  0.00     0.186 HD
HETATM   13  C13 UNL     1      -0.136   1.856  -1.407  1.00  0.00     0.187 A 
HETATM   14  N11 UNL     1      -2.536   2.005   0.568  1.00  0.00    -0.309 N 
ATOM     15  H11 UNL     1      -2.022   2.885   0.526  1.00  0.00     0.170 HD
HETATM   16  C14 UNL     1      -3.688   1.886   1.436  1.00  0.00     0.262 C 
HETATM   17  O4  UNL     1      -4.342   2.902   1.711  1.00  0.00    -0.270 OA
HETATM   18  C15 UNL     1      -3.980   0.519   1.923  1.00  0.00     0.189 C 
ENDROOT
BRANCH  10  19
HETATM   19  N4  UNL     1       2.113   0.333  -3.899  1.00  0.00    -0.116 N 
HETATM   20  N5  UNL     1       3.284   0.063  -3.826  1.00  0.00    -0.231 N 
ATOM     21  H5  UNL     1       3.750  -0.028  -4.729  1.00  0.00     0.208 HD
ATOM     22  H4  UNL     1       1.789   0.423  -4.862  1.00  0.00     0.207 HD
BRANCH  20  23
HETATM   23  N6  UNL     1       4.096  -0.142  -2.757  1.00  0.00    -0.287 N 
ATOM     24  H6  UNL     1       5.060   0.171  -2.871  1.00  0.00     0.184 HD
BRANCH  23  25
HETATM   25  C7  UNL     1       3.783  -0.740  -1.486  1.00  0.00     0.332 C 
BRANCH  25  26
HETATM   26  N7  UNL     1       3.336  -2.109  -1.711  1.00  0.00    -0.053 N 
ATOM     27  H73 UNL     1       2.559  -2.163  -2.369  1.00  0.00     0.277 HD
ATOM     28  H72 UNL     1       4.011  -2.657  -2.245  1.00  0.00     0.277 HD
ATOM     29  H71 UNL     1       3.114  -2.533  -0.810  1.00  0.00     0.277 HD
ENDBRANCH  25  26
BRANCH  25  30
HETATM   30  C8  UNL     1       4.951  -0.686  -0.588  1.00  0.00     0.008 A 
HETATM   31  C9  UNL     1       5.730   0.442  -0.536  1.00  0.00     0.016 A 
HETATM   32  C10 UNL     1       6.843   0.509   0.317  1.00  0.00     0.049 A 
HETATM   33  C11 UNL     1       7.114  -0.618   1.100  1.00  0.00     0.098 A 
HETATM   34  N9  UNL     1       6.348  -1.723   1.047  1.00  0.00    -0.352 N 
HETATM   35  C12 UNL     1       5.268  -1.757   0.204  1.00  0.00     0.100 A 
ATOM     36  H9  UNL     1       6.570  -2.530   1.630  1.00  0.00     0.166 HD
BRANCH  33  37
HETATM   37  N8  UNL     1       8.142  -0.534   1.871  1.00  0.00    -0.385 N 
ATOM     38  H82 UNL     1       8.723   0.304   1.911  1.00  0.00     0.157 HD
ATOM     39  H81 UNL     1       8.340  -1.356   2.442  1.00  0.00     0.157 HD
ENDBRANCH  33  37
ENDBRANCH  25  30
ENDBRANCH  23  25
ENDBRANCH  20  23
ENDBRANCH  10  19
BRANCH  13  40
HETATM   40  O3  UNL     1      -0.271   3.080  -0.765  1.00  0.00    -0.344 OA
ATOM     41  H3  UNL     1       0.343   3.781  -0.952  1.00  0.00     0.219 HD
ENDBRANCH  13  40
BRANCH   1  42
HETATM   42  C2  UNL     1      -5.227  -0.449  -0.037  1.00  0.00     0.285 C 
HETATM   43  O2  UNL     1      -5.174  -0.095  -1.258  1.00  0.00    -0.263 OA
BRANCH  42  44
HETATM   44  O1  UNL     1      -6.379  -0.857   0.567  1.00  0.00    -0.325 OA
HETATM   45  C1  UNL     1      -7.585  -0.916  -0.128  1.00  0.00     0.213 C 
ENDBRANCH  42  44
ENDBRANCH   1  42
BRANCH  18  46
HETATM   46  O5  UNL     1      -2.872   0.103   2.688  1.00  0.00    -0.376 OA
ATOM     47  H5  UNL     1      -2.878   0.679   3.443  1.00  0.00     0.211 HD
ENDBRANCH  18  46
BRANCH  18  48
HETATM   48  C16 UNL     1      -5.225   0.448   2.739  1.00  0.00     0.214 C 
BRANCH  48  49
HETATM   49  O6  UNL     1      -4.998   1.265   3.875  1.00  0.00    -0.397 OA
ATOM     50  H6  UNL     1      -5.792   1.220   4.395  1.00  0.00     0.209 HD
ENDBRANCH  48  49
ENDBRANCH  18  48
TORSDOF 12
