REMARK  10 active torsions:
REMARK  status: ('A' for Active; 'I' for Inactive)
REMARK    1  A    between atoms: O1_2  and  N1_3 
REMARK    2  A    between atoms: C2_5  and  O2_6 
REMARK    3  A    between atoms: C2_5  and  C3_8 
REMARK    4  A    between atoms: N2_9  and  O3_10 
REMARK    5  A    between atoms: C12_34  and  C13_35 
REMARK    6  A    between atoms: C13_35  and  C14_36 
REMARK    7  A    between atoms: C14_36  and  N9_37 
REMARK    8  A    between atoms: N9_37  and  C15_40 
REMARK    9  A    between atoms: C15_40  and  N10_41 
REMARK   10  A    between atoms: C15_40  and  O4_45 
ROOT
HETATM    1  C3  UNL     1       0.542   1.810   0.475  1.00  0.00     0.155 C 
HETATM    2  N2  UNL     1       0.399   2.209   1.694  1.00  0.00    -0.160 N 
HETATM    3  N3  UNL     1      -0.116   1.504   2.783  1.00  0.00    -0.278 N 
ATOM      4  H3  UNL     1       0.383   1.540   3.672  1.00  0.00     0.185 HD
HETATM    5  C4  UNL     1      -1.275   0.761   2.701  1.00  0.00     0.311 C 
HETATM    6  C5  UNL     1      -2.311   0.736   3.795  1.00  0.00     0.132 C 
HETATM    7  S1  UNL     1      -3.408  -0.405   2.774  1.00  0.00    -0.129 SA
HETATM    8  C6  UNL     1      -2.057  -1.170   1.833  1.00  0.00     0.286 C 
HETATM    9  N4  UNL     1      -0.964  -0.651   2.648  1.00  0.00    -0.036 N 
ATOM     10  H41 UNL     1      -0.849  -1.103   3.555  1.00  0.00     0.281 HD
ATOM     11  H42 UNL     1      -0.028  -0.875   2.310  1.00  0.00     0.281 HD
HETATM   12  C7  UNL     1      -1.908  -0.913   0.404  1.00  0.00     0.148 C 
HETATM   13  C8  UNL     1      -1.398  -2.276  -0.164  1.00  0.00     0.273 C 
HETATM   14  N5  UNL     1      -2.515  -3.163  -0.415  1.00  0.00    -0.071 N 
ATOM     15  H51 UNL     1      -3.359  -2.836   0.056  1.00  0.00     0.277 HD
ATOM     16  H52 UNL     1      -2.395  -4.053   0.068  1.00  0.00     0.277 HD
HETATM   17  C9  UNL     1      -2.749  -3.362  -1.829  1.00  0.00     0.252 C 
HETATM   18  C10 UNL     1      -2.905  -1.981  -2.432  1.00  0.00     0.148 C 
HETATM   19  N6  UNL     1      -3.614  -1.192  -1.424  1.00  0.00    -0.378 N 
ATOM     20  H6  UNL     1      -4.573  -0.950  -1.672  1.00  0.00     0.160 HD
HETATM   21  C11 UNL     1      -3.228  -0.751  -0.273  1.00  0.00     0.122 C 
HETATM   22  N7  UNL     1      -4.277  -0.021   0.335  1.00  0.00    -0.085 NA
HETATM   23  N8  UNL     1      -1.076   0.047  -0.102  1.00  0.00    -0.371 N 
ATOM     24  H8  UNL     1      -1.582   0.673  -0.729  1.00  0.00     0.160 HD
HETATM   25  C12 UNL     1       0.228   0.406  -0.010  1.00  0.00     0.043 C 
ENDROOT
BRANCH  25  26
HETATM   26  C13 UNL     1       1.335  -0.547   0.296  1.00  0.00     0.087 C 
BRANCH  26  27
HETATM   27  C14 UNL     1       2.680  -0.187  -0.369  1.00  0.00     0.243 C 
BRANCH  27  28
HETATM   28  N9  UNL     1       3.571  -1.275   0.085  1.00  0.00    -0.023 N 
ATOM     29  H92 UNL     1       3.582  -1.360   1.101  1.00  0.00     0.282 HD
ATOM     30  H91 UNL     1       3.193  -2.196  -0.138  1.00  0.00     0.282 HD
BRANCH  28  31
HETATM   31  C15 UNL     1       4.903  -1.088  -0.459  1.00  0.00     0.519 C 
BRANCH  31  32
HETATM   32  N10 UNL     1       4.747  -1.108  -1.919  1.00  0.00    -0.027 N 
ATOM     33 3H10 UNL     1       4.278  -1.944  -2.268  1.00  0.00     0.279 HD
ATOM     34 2H10 UNL     1       4.066  -0.432  -2.266  1.00  0.00     0.279 HD
ATOM     35 1H10 UNL     1       5.683  -0.977  -2.301  1.00  0.00     0.279 HD
ENDBRANCH  31  32
BRANCH  31  36
HETATM   36  O4  UNL     1       5.711  -2.178  -0.150  1.00  0.00    -0.349 OA
ATOM     37  H4  UNL     1       6.583  -2.056  -0.506  1.00  0.00     0.213 HD
ENDBRANCH  31  36
ENDBRANCH  28  31
ENDBRANCH  27  28
ENDBRANCH  26  27
ENDBRANCH  25  26
BRANCH   1  38
HETATM   38  C2  UNL     1       1.092   2.807  -0.462  1.00  0.00     0.193 C 
HETATM   39  N1  UNL     1       1.240   2.440  -1.685  1.00  0.00    -0.243 N 
ATOM     40  H1  UNL     1       0.971   1.488  -1.933  1.00  0.00     0.196 HD
BRANCH  39  41
HETATM   41  O1  UNL     1       1.732   3.238  -2.670  1.00  0.00    -0.283 OA
HETATM   42  C1  UNL     1       1.088   4.478  -2.923  1.00  0.00     0.237 C 
ENDBRANCH  39  41
BRANCH  38  43
HETATM   43  O2  UNL     1       1.433   4.073  -0.051  1.00  0.00    -0.343 OA
ATOM     44  H2  UNL     1       1.324   4.344   0.853  1.00  0.00     0.219 HD
ENDBRANCH  38  43
ENDBRANCH   1  38
BRANCH   2  45
HETATM   45  O3  UNL     1       0.783   3.542   2.017  1.00  0.00    -0.268 OA
ATOM     46  H3  UNL     1       0.678   3.836   2.914  1.00  0.00     0.247 HD
ENDBRANCH   2  45
TORSDOF 10
