REMARK  11 active torsions:
REMARK  status: ('A' for Active; 'I' for Inactive)
REMARK    1  A    between atoms: N1_2  and  C3_4 
REMARK    2  A    between atoms: C3_4  and  C4_5 
REMARK    3  A    between atoms: C7_13  and  O2_14 
REMARK    4  A    between atoms: O2_14  and  C8_15 
REMARK    5  A    between atoms: C9_16  and  N4_17 
REMARK    6  A    between atoms: C11_22  and  N5_23 
REMARK    7  A    between atoms: N5_23  and  O3_24 
REMARK    8  A    between atoms: C12_26  and  O4_27 
REMARK    9  A    between atoms: C13_29  and  N6_30 
REMARK   10  A    between atoms: N6_30  and  C14_32 
REMARK   11  A    between atoms: C16_36  and  N8_37 
ROOT
HETATM    1  C4  UNL     1       3.639   0.446  -0.407  1.00  0.00     0.357 C 
HETATM    2  N2  UNL     1       3.114   1.367   0.568  1.00  0.00    -0.008 N 
ATOM      3  H21 UNL     1       3.857   1.945   0.960  1.00  0.00     0.284 HD
ATOM      4  H22 UNL     1       2.822   0.875   1.413  1.00  0.00     0.284 HD
HETATM    5  C5  UNL     1       2.043   2.186   0.052  1.00  0.00     0.436 C 
HETATM    6  C6  UNL     1       2.638   3.472  -0.352  1.00  0.00     0.121 C 
HETATM    7  N3  UNL     1       3.120   4.477  -0.681  1.00  0.00    -0.193 NA
HETATM    8  O1  UNL     1       1.459   1.634  -1.061  1.00  0.00    -0.294 OA
HETATM    9  C7  UNL     1       1.422   0.254  -1.060  1.00  0.00     0.418 C 
HETATM   10  O5  UNL     1       2.697  -0.313  -1.040  1.00  0.00    -0.303 OA
ENDROOT
BRANCH   1  11
HETATM   11  C3  UNL     1       4.599  -0.477   0.315  1.00  0.00     0.332 C 
BRANCH  11  12
HETATM   12  N1  UNL     1       5.600   0.357   0.985  1.00  0.00     0.084 N 
HETATM   13  C1  UNL     1       6.553  -0.476   1.697  1.00  0.00     0.309 C 
HETATM   14  C2  UNL     1       6.254   1.201   0.012  1.00  0.00     0.309 C 
ENDBRANCH  11  12
ENDBRANCH   1  11
BRANCH   9  15
HETATM   15  O2  UNL     1       0.729  -0.320  -0.020  1.00  0.00    -0.329 OA
BRANCH  15  16
HETATM   16  C8  UNL     1      -0.277  -1.169  -0.543  1.00  0.00     0.182 C 
HETATM   17  C9  UNL     1       0.041  -2.595  -0.167  1.00  0.00     0.216 C 
HETATM   18  C10 UNL     1      -1.077  -3.525  -0.008  1.00  0.00     0.061 C 
HETATM   19  C11 UNL     1      -2.437  -2.937   0.156  1.00  0.00     0.139 C 
HETATM   20  C12 UNL     1      -2.641  -1.656  -0.603  1.00  0.00     0.165 C 
HETATM   21  C13 UNL     1      -1.592  -0.670  -0.060  1.00  0.00     0.144 C 
BRANCH  17  22
HETATM   22  N4  UNL     1       0.854  -2.517   1.061  1.00  0.00    -0.072 N 
ATOM     23  H43 UNL     1       1.680  -1.927   0.966  1.00  0.00     0.274 HD
ATOM     24  H42 UNL     1       0.410  -1.987   1.811  1.00  0.00     0.274 HD
ATOM     25  H41 UNL     1       1.069  -3.481   1.315  1.00  0.00     0.274 HD
ENDBRANCH  17  22
BRANCH  19  26
HETATM   26  N5  UNL     1      -3.463  -3.870  -0.277  1.00  0.00    -0.096 NA
BRANCH  26  27
HETATM   27  O3  UNL     1      -4.697  -3.385  -0.145  1.00  0.00    -0.296 OA
ATOM     28  H3  UNL     1      -5.368  -3.995  -0.428  1.00  0.00     0.238 HD
ENDBRANCH  26  27
ENDBRANCH  19  26
BRANCH  20  29
HETATM   29  O4  UNL     1      -2.475  -1.776  -1.961  1.00  0.00    -0.392 OA
ATOM     30  H4  UNL     1      -2.604  -0.966  -2.441  1.00  0.00     0.210 HD
ENDBRANCH  20  29
BRANCH  21  31
HETATM   31  N6  UNL     1      -1.893   0.598  -0.670  1.00  0.00    -0.369 N 
ATOM     32  H6  UNL     1      -1.261   1.021  -1.350  1.00  0.00     0.161 HD
BRANCH  31  33
HETATM   33  C14 UNL     1      -3.111   1.243  -0.287  1.00  0.00     0.091 C 
HETATM   34  N7  UNL     1      -3.976   1.623  -1.142  1.00  0.00    -0.375 N 
HETATM   35  C15 UNL     1      -5.180   2.272  -0.603  1.00  0.00     0.174 C 
ATOM     36  H7  UNL     1      -3.841   1.485  -2.143  1.00  0.00     0.160 HD
HETATM   37  C16 UNL     1      -4.654   3.326   0.370  1.00  0.00     0.295 C 
HETATM   38  N9  UNL     1      -4.093   2.628   1.483  1.00  0.00    -0.388 N 
HETATM   39  C17 UNL     1      -3.347   1.456   1.156  1.00  0.00     0.192 C 
ATOM     40  H9  UNL     1      -4.217   2.945   2.444  1.00  0.00     0.155 HD
BRANCH  37  41
HETATM   41  N8  UNL     1      -3.691   4.186  -0.283  1.00  0.00    -0.057 N 
ATOM     42  H83 UNL     1      -2.933   3.652  -0.708  1.00  0.00     0.276 HD
ATOM     43  H82 UNL     1      -4.073   4.609  -1.129  1.00  0.00     0.276 HD
ATOM     44  H81 UNL     1      -3.340   4.890   0.367  1.00  0.00     0.276 HD
ENDBRANCH  37  41
ENDBRANCH  31  33
ENDBRANCH  21  31
ENDBRANCH  15  16
ENDBRANCH   9  15
TORSDOF 11
