REMARK  14 active torsions:
REMARK  status: ('A' for Active; 'I' for Inactive)
REMARK    1  A    between atoms: C2_4  and  O3_5 
REMARK    2  A    between atoms: C3_7  and  C4_8 
REMARK    3  A    between atoms: C4_8  and  C5_9 
REMARK    4  A    between atoms: C6_10  and  C7_11 
REMARK    5  A    between atoms: C7_11  and  O4_12 
REMARK    6  A    between atoms: C7_11  and  O5_14 
REMARK    7  A    between atoms: C9_19  and  C10_20 
REMARK    8  A    between atoms: C10_20  and  O6_21 
REMARK    9  A    between atoms: C12_24  and  O7_25 
REMARK   10  A    between atoms: C12_24  and  N2_27 
REMARK   11  A    between atoms: N2_27  and  C13_29 
REMARK   12  A    between atoms: C13_29  and  C14_30 
REMARK   13  A    between atoms: C14_30  and  O8_31 
REMARK   14  A    between atoms: C14_30  and  O9_33 
ROOT
HETATM    1  C5  UNL     1      -2.294   0.633   0.634  1.00  0.00     0.032 A 
HETATM    2  C6  UNL     1      -2.764   1.974   0.118  1.00  0.00     0.079 A 
HETATM    3  N1  UNL     1      -1.938   2.891  -0.539  1.00  0.00    -0.334 N 
ATOM      4  H1  UNL     1      -2.287   3.788  -0.876  1.00  0.00     0.168 HD
HETATM    5  C8  UNL     1      -0.625   2.510  -0.704  1.00  0.00     0.162 A 
HETATM    6  C9  UNL     1       0.683   2.211  -0.907  1.00  0.00     0.055 A 
HETATM    7  C11 UNL     1       1.218   0.868  -0.411  1.00  0.00     0.084 A 
HETATM    8  C12 UNL     1       2.437   0.550  -0.593  1.00  0.00     0.151 C 
HETATM    9  C15 UNL     1       0.271  -0.090   0.296  1.00  0.00     0.222 A 
HETATM   10  O10 UNL     1       0.295  -1.254   0.838  1.00  0.00    -0.284 OA
HETATM   11  C16 UNL     1      -0.924   0.400   0.381  1.00  0.00     0.141 A 
HETATM   12  O11 UNL     1      -0.738   1.437  -0.163  1.00  0.00    -0.288 OA
ENDROOT
BRANCH   6  13
HETATM   13  C10 UNL     1       1.293   3.277  -1.577  1.00  0.00     0.148 C 
BRANCH  13  14
HETATM   14  O6  UNL     1       0.498   4.388  -1.896  1.00  0.00    -0.372 OA
ATOM     15  H6  UNL     1       0.912   5.112  -2.351  1.00  0.00     0.216 HD
ENDBRANCH  13  14
ENDBRANCH   6  13
BRANCH   8  16
HETATM   16  O7  UNL     1       3.284   1.444  -1.251  1.00  0.00    -0.346 OA
ATOM     17  H7  UNL     1       4.194   1.207  -1.387  1.00  0.00     0.219 HD
ENDBRANCH   8  16
BRANCH   8  18
HETATM   18  N2  UNL     1       3.016  -0.658  -0.177  1.00  0.00    -0.366 N 
ATOM     19  H2  UNL     1       2.821  -1.043   0.747  1.00  0.00     0.161 HD
BRANCH  18  20
HETATM   20  C13 UNL     1       3.893  -1.339  -1.092  1.00  0.00     0.182 C 
BRANCH  20  21
HETATM   21  C14 UNL     1       4.438  -2.609  -0.530  1.00  0.00     0.271 C 
BRANCH  21  22
HETATM   22  O8  UNL     1       5.180  -2.446   0.631  1.00  0.00    -0.370 OA
ATOM     23  H8  UNL     1       5.527  -3.255   0.989  1.00  0.00     0.212 HD
ENDBRANCH  21  22
BRANCH  21  24
HETATM   24  O9  UNL     1       3.373  -3.498  -0.288  1.00  0.00    -0.370 OA
ATOM     25  H9  UNL     1       3.720  -4.307   0.070  1.00  0.00     0.212 HD
ENDBRANCH  21  24
ENDBRANCH  20  21
ENDBRANCH  18  20
ENDBRANCH   8  18
BRANCH   1  26
HETATM   26  C4  UNL     1      -2.869  -0.366   1.111  1.00  0.00     0.059 C 
BRANCH  26  27
HETATM   27  C3  UNL     1      -2.564  -1.656   1.639  1.00  0.00     0.140 A 
HETATM   28  C2  UNL     1      -2.765  -2.909   1.062  1.00  0.00     0.223 A 
HETATM   29  O2  UNL     1      -2.339  -3.774   1.937  1.00  0.00    -0.229 OA
HETATM   30  C1  UNL     1      -1.889  -3.201   3.006  1.00  0.00     0.419 A 
HETATM   31  O1  UNL     1      -1.398  -3.723   4.061  1.00  0.00    -0.229 OA
HETATM   32  O12 UNL     1      -2.025  -1.929   2.825  1.00  0.00    -0.250 OA
BRANCH  28  33
HETATM   33  O3  UNL     1      -3.316  -3.088  -0.196  1.00  0.00    -0.338 OA
ATOM     34  H3  UNL     1      -3.627  -2.457  -0.834  1.00  0.00     0.220 HD
ENDBRANCH  28  33
ENDBRANCH  26  27
ENDBRANCH   1  26
BRANCH   2  35
HETATM   35  C7  UNL     1      -4.133   2.324   0.324  1.00  0.00     0.306 C 
BRANCH  35  36
HETATM   36  O4  UNL     1      -4.405   3.594  -0.199  1.00  0.00    -0.366 OA
ATOM     37  H4  UNL     1      -5.316   3.827  -0.062  1.00  0.00     0.213 HD
ENDBRANCH  35  36
BRANCH  35  38
HETATM   38  O5  UNL     1      -4.935   1.426  -0.371  1.00  0.00    -0.366 OA
ATOM     39  H5  UNL     1      -5.846   1.659  -0.234  1.00  0.00     0.213 HD
ENDBRANCH  35  38
ENDBRANCH   2  35
TORSDOF 14
