REMARK  5 active torsions:
REMARK  status: ('A' for Active; 'I' for Inactive)
REMARK    1  A    between atoms: O1_2  and  C2_3 
REMARK    2  A    between atoms: N1_9  and  C7_11 
REMARK    3  A    between atoms: C9_14  and  O2_15 
REMARK    4  A    between atoms: C11_20  and  C12_21 
REMARK    5  A    between atoms: C15_29  and  O5_30 
ROOT
HETATM    1  C7  UNL     1      -0.385   0.211   0.444  1.00  0.00     0.094 A 
HETATM    2  C8  UNL     1      -0.052   0.893  -0.703  1.00  0.00     0.111 A 
HETATM    3  N2  UNL     1      -0.994   1.620  -1.478  1.00  0.00    -0.097 NA
HETATM    4  C9  UNL     1       1.297   0.841  -1.088  1.00  0.00     0.120 A 
HETATM    5  C10 UNL     1       2.241   0.148  -0.364  1.00  0.00     0.088 A 
HETATM    6  N3  UNL     1       3.536   0.086  -0.716  1.00  0.00    -0.335 N 
ATOM      7  H3  UNL     1       3.820   0.581  -1.562  1.00  0.00     0.168 HD
HETATM    8  C11 UNL     1       4.489  -0.582  -0.034  1.00  0.00     0.175 A 
HETATM    9  N5  UNL     1       4.109  -1.232   1.081  1.00  0.00    -0.304 N 
ATOM     10  H5  UNL     1       4.801  -1.748   1.625  1.00  0.00     0.171 HD
HETATM   11  C13 UNL     1       2.830  -1.209   1.485  1.00  0.00     0.262 A 
HETATM   12  O4  UNL     1       2.492  -1.816   2.520  1.00  0.00    -0.267 OA
HETATM   13  C14 UNL     1       1.836  -0.519   0.783  1.00  0.00     0.097 A 
HETATM   14  C15 UNL     1       0.537  -0.505   1.209  1.00  0.00     0.112 A 
ENDROOT
BRANCH   1  15
HETATM   15  N1  UNL     1      -1.757   0.257   0.843  1.00  0.00    -0.354 N 
HETATM   16  C6  UNL     1      -2.666  -0.437   0.248  1.00  0.00     0.029 C 
HETATM   17  C3  UNL     1      -4.072  -0.442   0.597  1.00  0.00     0.045 C 
HETATM   18  C5  UNL     1      -2.458  -1.376  -0.908  1.00  0.00     0.069 C 
HETATM   19  C2  UNL     1      -4.909   0.467   0.956  1.00  0.00     0.154 C 
HETATM   20  S1  UNL     1      -4.490  -2.217   0.427  1.00  0.00    -0.126 SA
HETATM   21  C4  UNL     1      -2.969  -2.725  -0.448  1.00  0.00     0.085 C 
ATOM     22  H1  UNL     1      -2.025   0.858   1.623  1.00  0.00     0.166 HD
BRANCH  19  23
HETATM   23  O1  UNL     1      -4.790   1.756   1.124  1.00  0.00    -0.366 OA
HETATM   24  C1  UNL     1      -3.825   2.678   1.190  1.00  0.00     0.209 C 
ENDBRANCH  19  23
ENDBRANCH   1  15
BRANCH  14  25
HETATM   25  O5  UNL     1       0.153  -1.165   2.340  1.00  0.00    -0.357 OA
ATOM     26  H5  UNL     1       0.781  -1.652   2.861  1.00  0.00     0.217 HD
ENDBRANCH  14  25
BRANCH   4  27
HETATM   27  O2  UNL     1       1.654   1.517  -2.233  1.00  0.00    -0.357 OA
ATOM     28  H2  UNL     1       2.567   1.482  -2.494  1.00  0.00     0.218 HD
ENDBRANCH   4  27
BRANCH   8  29
HETATM   29  C12 UNL     1       5.875  -0.617  -0.458  1.00  0.00     0.298 C 
HETATM   30  N4  UNL     1       6.265   0.065  -1.623  1.00  0.00    -0.054 NA
HETATM   31  O3  UNL     1       6.712  -1.248   0.209  1.00  0.00    -0.268 OA
ENDBRANCH   8  29
TORSDOF 5
