REMARK  16 active torsions:
REMARK  status: ('A' for Active; 'I' for Inactive)
REMARK    1  A    between atoms: N1_1  and  C1_5 
REMARK    2  A    between atoms: C1_5  and  C2_6 
REMARK    3  A    between atoms: C2_6  and  C3_7 
REMARK    4  A    between atoms: C3_7  and  C4_8 
REMARK    5  A    between atoms: C4_8  and  O2_10 
REMARK    6  A    between atoms: O2_10  and  C5_11 
REMARK    7  A    between atoms: C6_12  and  N2_13 
REMARK    8  A    between atoms: C9_19  and  O3_20 
REMARK    9  A    between atoms: C10_24  and  N5_25 
REMARK   10  A    between atoms: C12_30  and  N6_31 
REMARK   11  A    between atoms: C13_35  and  O4_36 
REMARK   12  A    between atoms: O4_36  and  C14_37 
REMARK   13  A    between atoms: C15_39  and  C16_40 
REMARK   14  A    between atoms: C16_40  and  N7_41 
REMARK   15  A    between atoms: C17_45  and  N8_46 
REMARK   16  A    between atoms: C19_51  and  N9_52 
ROOT
HETATM    1  C5  UNL     1      -0.968   0.780  -1.223  1.00  0.00     0.187 C 
HETATM    2  C6  UNL     1      -1.916  -0.387  -1.086  1.00  0.00     0.147 C 
HETATM    3  C10 UNL     1      -1.745  -1.281  -2.284  1.00  0.00     0.210 C 
HETATM    4  C11 UNL     1      -0.300  -1.676  -2.530  1.00  0.00     0.070 C 
HETATM    5  C12 UNL     1       0.468  -0.418  -2.732  1.00  0.00     0.217 C 
HETATM    6  C13 UNL     1       0.449   0.316  -1.377  1.00  0.00     0.186 C 
ENDROOT
BRANCH   6   7
HETATM    7  O4  UNL     1       0.819  -0.648  -0.441  1.00  0.00    -0.349 OA
BRANCH   7   8
HETATM    8  C14 UNL     1       1.996  -0.347   0.216  1.00  0.00     0.291 C 
HETATM    9  O5  UNL     1       3.002  -1.298   0.055  1.00  0.00    -0.350 OA
HETATM   10  C15 UNL     1       4.190  -0.669   0.334  1.00  0.00     0.180 C 
HETATM   11  C17 UNL     1       4.191   0.166   1.567  1.00  0.00     0.216 C 
HETATM   12  C18 UNL     1       3.025  -0.067   2.465  1.00  0.00     0.073 C 
HETATM   13  C19 UNL     1       1.722  -0.346   1.707  1.00  0.00     0.240 C 
BRANCH  10  14
HETATM   14  C16 UNL     1       5.355  -1.669   0.324  1.00  0.00     0.263 C 
BRANCH  14  15
HETATM   15  N7  UNL     1       5.398  -2.253  -1.016  1.00  0.00    -0.077 N 
ATOM     16  H73 UNL     1       4.511  -2.666  -1.303  1.00  0.00     0.274 HD
ATOM     17  H72 UNL     1       5.461  -1.555  -1.757  1.00  0.00     0.274 HD
ATOM     18  H71 UNL     1       6.172  -2.917  -1.023  1.00  0.00     0.274 HD
ENDBRANCH  14  15
ENDBRANCH  10  14
BRANCH  11  19
HETATM   19  N8  UNL     1       4.296   1.587   1.290  1.00  0.00    -0.072 N 
ATOM     20  H83 UNL     1       5.114   1.786   0.715  1.00  0.00     0.274 HD
ATOM     21  H82 UNL     1       3.563   1.888   0.647  1.00  0.00     0.274 HD
ATOM     22  H81 UNL     1       4.297   2.159   2.135  1.00  0.00     0.274 HD
ENDBRANCH  11  19
BRANCH  13  23
HETATM   23  N9  UNL     1       1.355  -1.723   2.080  1.00  0.00    -0.070 N 
ATOM     24  H93 UNL     1       0.579  -2.093   1.531  1.00  0.00     0.274 HD
ATOM     25  H92 UNL     1       2.053  -2.413   1.802  1.00  0.00     0.274 HD
ATOM     26  H91 UNL     1       1.171  -1.722   3.083  1.00  0.00     0.274 HD
ENDBRANCH  13  23
ENDBRANCH   7   8
ENDBRANCH   6   7
BRANCH   1  27
HETATM   27  O2  UNL     1      -1.188   1.837  -0.375  1.00  0.00    -0.311 OA
BRANCH  27  28
HETATM   28  C4  UNL     1      -1.629   3.098  -0.683  1.00  0.00     0.259 C 
HETATM   29  O1  UNL     1      -1.842   3.249  -1.898  1.00  0.00    -0.265 OA
BRANCH  28  30
HETATM   30  C3  UNL     1      -1.804   4.101   0.372  1.00  0.00     0.113 C 
BRANCH  30  31
HETATM   31  C2  UNL     1      -3.270   4.330   0.699  1.00  0.00     0.037 C 
BRANCH  31  32
HETATM   32  C1  UNL     1      -3.448   5.355   1.775  1.00  0.00     0.230 C 
BRANCH  32  33
HETATM   33  N1  UNL     1      -2.906   6.643   1.428  1.00  0.00    -0.079 N 
ATOM     34  H13 UNL     1      -1.925   6.564   1.162  1.00  0.00     0.274 HD
ATOM     35  H12 UNL     1      -3.294   6.974   0.544  1.00  0.00     0.274 HD
ATOM     36  H11 UNL     1      -3.027   7.342   2.161  1.00  0.00     0.274 HD
ENDBRANCH  32  33
ENDBRANCH  31  32
ENDBRANCH  30  31
ENDBRANCH  28  30
ENDBRANCH  27  28
ENDBRANCH   1  27
BRANCH   5  37
HETATM   37  N6  UNL     1       1.792  -0.586  -3.239  1.00  0.00    -0.072 N 
ATOM     38  H63 UNL     1       2.317  -1.225  -2.642  1.00  0.00     0.274 HD
ATOM     39  H62 UNL     1       1.770  -1.126  -4.104  1.00  0.00     0.274 HD
ATOM     40  H61 UNL     1       2.319   0.277  -3.377  1.00  0.00     0.274 HD
ENDBRANCH   5  37
BRANCH   2  41
HETATM   41  N2  UNL     1      -2.015  -0.963   0.150  1.00  0.00    -0.353 N 
HETATM   42  C7  UNL     1      -2.178  -2.114   0.588  1.00  0.00     0.173 C 
HETATM   43  N3  UNL     1      -2.249  -2.438   2.021  1.00  0.00    -0.358 N 
HETATM   44  N4  UNL     1      -2.331  -3.386  -0.025  1.00  0.00    -0.335 N 
HETATM   45  C8  UNL     1      -2.917  -3.707   2.161  1.00  0.00     0.176 C 
ATOM     46  H3  UNL     1      -1.888  -1.864   2.783  1.00  0.00     0.162 HD
HETATM   47  C9  UNL     1      -3.368  -4.063   0.774  1.00  0.00     0.238 C 
ATOM     48  H4  UNL     1      -1.834  -3.750  -0.838  1.00  0.00     0.165 HD
ATOM     49  H2  UNL     1      -1.935  -0.276   0.900  1.00  0.00     0.163 HD
BRANCH  47  50
HETATM   50  O3  UNL     1      -3.405  -5.416   0.531  1.00  0.00    -0.375 OA
ATOM     51  H3  UNL     1      -3.690  -5.641  -0.347  1.00  0.00     0.212 HD
ENDBRANCH  47  50
ENDBRANCH   2  41
BRANCH   3  52
HETATM   52  N5  UNL     1      -2.105  -0.447  -3.464  1.00  0.00    -0.073 N 
ATOM     53  H53 UNL     1      -3.031  -0.024  -3.398  1.00  0.00     0.274 HD
ATOM     54  H52 UNL     1      -1.578   0.424  -3.525  1.00  0.00     0.274 HD
ATOM     55  H51 UNL     1      -1.989  -1.053  -4.276  1.00  0.00     0.274 HD
ENDBRANCH   3  52
TORSDOF 16
