REMARK  0 active torsions:
REMARK  status: ('A' for Active; 'I' for Inactive)
ROOT
HETATM    1  C1  UNL     1       2.224   1.603   0.050  1.00  0.00     0.048 C 
HETATM    2  C2  UNL     1       1.105   0.939   0.254  1.00  0.00     0.076 C 
HETATM    3  O1  UNL     1       0.011   1.363   1.033  1.00  0.00    -0.317 OA
HETATM    4  C3  UNL     1      -0.971   0.439   0.807  1.00  0.00     0.207 C 
HETATM    5  C4  UNL     1      -0.167  -0.874   0.851  1.00  0.00     0.112 C 
HETATM    6  C5  UNL     1       0.750  -0.411  -0.299  1.00  0.00     0.176 C 
HETATM    7  C6  UNL     1       1.862  -1.292  -0.588  1.00  0.00     0.054 C 
HETATM    8  N1  UNL     1      -0.277  -0.299  -1.337  1.00  0.00    -0.035 N 
ATOM      9  H11 UNL     1      -0.559  -1.189  -1.748  1.00  0.00     0.280 HD
ATOM     10  H12 UNL     1       0.048   0.124  -2.206  1.00  0.00     0.280 HD
HETATM   11  C7  UNL     1      -1.349   0.424  -0.685  1.00  0.00     0.365 C 
HETATM   12  N2  UNL     1      -2.586  -0.300  -0.595  1.00  0.00    -0.034 NA
HETATM   13  O2  UNL     1      -2.966  -0.366   0.673  1.00  0.00    -0.165 OA
HETATM   14  N3  UNL     1      -2.181   0.433   1.435  1.00  0.00    -0.242 N 
ATOM     15  H3  UNL     1      -2.439   0.923   2.292  1.00  0.00     0.193 HD
ENDROOT
TORSDOF 0
