REMARK  2 active torsions:
REMARK  status: ('A' for Active; 'I' for Inactive)
REMARK    1  A    between atoms: C3_3  and  N2_7 
REMARK    2  A    between atoms: N2_7  and  C4_9 
ROOT
HETATM    1  C1  UNL     1       3.830   1.356   0.620  1.00  0.00     0.021 C 
HETATM    2  C2  UNL     1       3.220   0.324   0.474  1.00  0.00    -0.042 C 
HETATM    3  C3  UNL     1       2.475  -0.904   0.281  1.00  0.00     0.150 C 
HETATM    4  N1  UNL     1       2.870  -1.980   0.876  1.00  0.00    -0.379 N 
ATOM      5  H11 UNL     1       2.346  -2.844   0.740  1.00  0.00     0.158 HD
ATOM      6  H12 UNL     1       3.698  -1.946   1.471  1.00  0.00     0.158 HD
ENDROOT
BRANCH   3   7
HETATM    7  N2  UNL     1       1.332  -0.951  -0.540  1.00  0.00    -0.365 N 
ATOM      8  H2  UNL     1       1.344  -1.569  -1.351  1.00  0.00     0.162 HD
BRANCH   7   9
HETATM    9  C4  UNL     1       0.141  -0.168  -0.293  1.00  0.00     0.083 C 
HETATM   10  C5  UNL     1      -0.481  -0.480   1.056  1.00  0.00     0.025 C 
HETATM   11  C6  UNL     1      -1.922  -0.007   0.985  1.00  0.00     0.002 C 
HETATM   12  C7  UNL     1      -1.976   1.261   0.163  1.00  0.00     0.000 C 
HETATM   13  C8  UNL     1      -1.814   0.878  -1.303  1.00  0.00     0.002 C 
HETATM   14  C9  UNL     1      -0.905  -0.357  -1.340  1.00  0.00     0.025 C 
ENDBRANCH   7   9
ENDBRANCH   3   7
TORSDOF 2
