REMARK  2 active torsions:
REMARK  status: ('A' for Active; 'I' for Inactive)
REMARK    1  A    between atoms: O1_2  and  C2_3 
REMARK    2  A    between atoms: C2_3  and  C3_5 
ROOT
HETATM    1  C3  UNL     1       0.430  -0.567  -0.610  1.00  0.00     0.121 C 
HETATM    2  C4  UNL     1       0.711  -1.962  -1.136  1.00  0.00     0.050 C 
HETATM    3  C5  UNL     1      -0.539  -0.729   0.533  1.00  0.00     0.042 C 
HETATM    4  C6  UNL     1      -1.244   0.357   1.163  1.00  0.00     0.004 C 
HETATM    5  C7  UNL     1      -2.580   0.868   0.634  1.00  0.00     0.013 C 
HETATM    6  C8  UNL     1      -2.454   1.355  -0.849  1.00  0.00     0.104 C 
HETATM    7  C9  UNL     1      -1.298   0.758  -1.361  1.00  0.00    -0.074 C 
HETATM    8  N1  UNL     1      -0.172   0.152  -1.781  1.00  0.00    -0.341 N 
ATOM      9  H1  UNL     1       0.205   0.177  -2.728  1.00  0.00     0.170 HD
ENDROOT
BRANCH   1  10
HETATM   10  C2  UNL     1       1.699   0.049  -0.233  1.00  0.00     0.287 C 
HETATM   11  O2  UNL     1       2.174   1.043  -0.840  1.00  0.00    -0.262 OA
BRANCH  10  12
HETATM   12  O1  UNL     1       2.433  -0.454   0.827  1.00  0.00    -0.325 OA
HETATM   13  C1  UNL     1       3.670   0.095   1.246  1.00  0.00     0.213 C 
ENDBRANCH  10  12
ENDBRANCH   1  10
TORSDOF 2
