REMARK  3 active torsions:
REMARK  status: ('A' for Active; 'I' for Inactive)
REMARK    1  A    between atoms: C2_3  and  C3_4 
REMARK    2  A    between atoms: C4_5  and  C5_6 
REMARK    3  A    between atoms: C6_7  and  C7_8 
ROOT
HETATM    1  N1  UNL     1       5.650   1.505   0.735  1.00  0.00    -0.196 NA
HETATM    2  C1  UNL     1       5.227   0.577   0.229  1.00  0.00     0.071 C 
HETATM    3  C2  UNL     1       4.697  -0.616  -0.398  1.00  0.00     0.217 C 
ENDROOT
BRANCH   3   4
HETATM    4  C3  UNL     1       3.240  -0.633  -0.256  1.00  0.00    -0.088 C 
HETATM    5  C4  UNL     1       2.023  -0.643  -0.137  1.00  0.00    -0.077 C 
BRANCH   5   6
HETATM    6  C5  UNL     1       0.602  -0.676   0.014  1.00  0.00     0.067 C 
HETATM    7  C6  UNL     1      -0.084   0.404   0.287  1.00  0.00     0.045 C 
BRANCH   7   8
HETATM    8  C7  UNL     1      -1.540   0.353   0.438  1.00  0.00     0.070 C 
HETATM    9  N2  UNL     1      -2.337  -0.610   0.351  1.00  0.00    -0.363 N 
HETATM   10  C8  UNL     1      -3.707  -0.456   0.531  1.00  0.00     0.072 C 
ATOM     11  H2  UNL     1      -1.968  -1.538   0.141  1.00  0.00     0.165 HD
HETATM   12  C9  UNL     1      -4.153   0.973   0.377  1.00  0.00     0.125 C 
HETATM   13  S1  UNL     1      -2.556   1.786   0.806  1.00  0.00    -0.107 SA
ENDBRANCH   7   8
ENDBRANCH   5   6
ENDBRANCH   3   4
TORSDOF 3
