REMARK  12 active torsions:
REMARK  status: ('A' for Active; 'I' for Inactive)
REMARK    1  A    between atoms: C2_2  and  C3_3 
REMARK    2  A    between atoms: C3_3  and  O1_4 
REMARK    3  A    between atoms: O1_4  and  C4_5 
REMARK    4  A    between atoms: C4_5  and  C5_7 
REMARK    5  A    between atoms: C6_8  and  C7_9 
REMARK       I    between atoms: C7_9  and  N1_11 
REMARK    6  A    between atoms: N1_11  and  N2_13 
REMARK    7  A    between atoms: C8_15  and  C9_16 
REMARK    8  A    between atoms: C12_19  and  C13_20 
REMARK    9  A    between atoms: C14_21  and  C15_22 
REMARK   10  A    between atoms: C15_22  and  O4_23 
REMARK   11  A    between atoms: C15_22  and  N3_25 
REMARK   12  A    between atoms: N3_25  and  O5_27 
ROOT
HETATM    1  N2  UNL     1       0.243  -1.513   0.106  1.00  0.00    -0.308 N 
ATOM      2  H2  UNL     1       0.581  -2.366  -0.339  1.00  0.00     0.186 HD
HETATM    3  C8  UNL     1       1.046  -0.571   0.367  1.00  0.00     0.126 C 
ENDROOT
BRANCH   3   4
HETATM    4  C9  UNL     1       2.475  -0.699   0.029  1.00  0.00     0.022 A 
HETATM    5  C10 UNL     1       3.115  -1.754  -0.567  1.00  0.00     0.021 A 
HETATM    6  C11 UNL     1       4.431  -1.633  -0.772  1.00  0.00     0.020 A 
HETATM    7  C12 UNL     1       5.035  -0.477  -0.376  1.00  0.00     0.005 A 
HETATM    8  S1  UNL     1       3.729   0.423   0.281  1.00  0.00    -0.089 SA
BRANCH   7   9
HETATM    9  C13 UNL     1       6.461  -0.097  -0.488  1.00  0.00     0.023 C 
HETATM   10  C14 UNL     1       6.849   1.068  -0.046  1.00  0.00     0.059 C 
BRANCH  10  11
HETATM   11  C15 UNL     1       8.247   1.419  -0.165  1.00  0.00     0.159 C 
BRANCH  11  12
HETATM   12  O4  UNL     1       9.185   0.558  -0.732  1.00  0.00    -0.345 OA
ATOM     13  H4  UNL     1      10.103   0.789  -0.810  1.00  0.00     0.219 HD
ENDBRANCH  11  12
BRANCH  11  14
HETATM   14  N3  UNL     1       8.673   2.554   0.256  1.00  0.00    -0.248 N 
ATOM     15  H3  UNL     1       9.664   2.773   0.158  1.00  0.00     0.196 HD
BRANCH  14  16
HETATM   16  O5  UNL     1       7.845   3.485   0.833  1.00  0.00    -0.288 OA
ATOM     17  H5  UNL     1       8.160   4.325   1.145  1.00  0.00     0.244 HD
ENDBRANCH  14  16
ENDBRANCH  11  14
ENDBRANCH  10  11
ENDBRANCH   7   9
ENDBRANCH   3   4
BRANCH   1  18
HETATM   18  N1  UNL     1      -1.109  -1.379   0.431  1.00  0.00    -0.267 N 
HETATM   19  C7  UNL     1      -2.033  -0.853  -0.484  1.00  0.00     0.259 C 
HETATM   20  O3  UNL     1      -1.646  -0.493  -1.620  1.00  0.00    -0.267 OA
ATOM     21  H1  UNL     1      -1.431  -1.670   1.354  1.00  0.00     0.190 HD
BRANCH  19  22
HETATM   22  C6  UNL     1      -3.434  -0.729  -0.108  1.00  0.00     0.082 C 
HETATM   23  C5  UNL     1      -4.314  -0.239  -0.949  1.00  0.00     0.088 C 
BRANCH  23  24
HETATM   24  C4  UNL     1      -5.705  -0.130  -0.539  1.00  0.00     0.283 C 
HETATM   25  O2  UNL     1      -6.559   0.341  -1.345  1.00  0.00    -0.260 OA
BRANCH  24  26
HETATM   26  O1  UNL     1      -6.061  -0.545   0.725  1.00  0.00    -0.314 OA
BRANCH  26  27
HETATM   27  C3  UNL     1      -7.378  -0.463   1.172  1.00  0.00     0.206 C 
BRANCH  27  28
HETATM   28  C2  UNL     1      -7.838   0.946   1.165  1.00  0.00    -0.011 C 
HETATM   29  C1  UNL     1      -8.872   1.295   0.433  1.00  0.00     0.009 C 
ENDBRANCH  27  28
ENDBRANCH  26  27
ENDBRANCH  24  26
ENDBRANCH  23  24
ENDBRANCH  19  22
ENDBRANCH   1  18
TORSDOF 12
