REMARK  8 active torsions:
REMARK  status: ('A' for Active; 'I' for Inactive)
REMARK    1  A    between atoms: C2_2  and  C3_3 
REMARK    2  A    between atoms: C2_2  and  C8_19 
REMARK    3  A    between atoms: C3_3  and  C4_4 
REMARK    4  A    between atoms: C4_4  and  N1_5 
REMARK       I    between atoms: N1_5  and  C5_7 
REMARK       I    between atoms: C5_7  and  N3_9 
REMARK    5  A    between atoms: N3_9  and  C6_10 
REMARK    6  A    between atoms: C6_10  and  N4_11 
REMARK    7  A    between atoms: C6_10  and  C7_15 
REMARK    8  A    between atoms: C19_31  and  O2_32 
ROOT
HETATM    1  C8  UNL     1       1.360  -1.307   1.332  1.00  0.00    -0.002 C 
HETATM    2  C9  UNL     1       0.683  -0.539   2.490  1.00  0.00     0.006 C 
HETATM    3  C10 UNL     1      -0.486  -1.521   2.617  1.00  0.00     0.006 C 
HETATM    4  C11 UNL     1      -1.088  -1.429   1.280  1.00  0.00     0.006 C 
HETATM    5  C12 UNL     1      -2.173  -0.535   1.005  1.00  0.00     0.065 C 
HETATM    6  C13 UNL     1      -2.658   0.470   1.970  1.00  0.00     0.132 C 
HETATM    7  O1  UNL     1      -2.325   0.608   3.123  1.00  0.00    -0.298 OA
HETATM    8  C14 UNL     1      -3.670   1.452   1.529  1.00  0.00     0.085 C 
HETATM    9  C15 UNL     1      -4.310   1.299   0.207  1.00  0.00     0.011 C 
HETATM   10  C16 UNL     1      -5.766   0.906   0.314  1.00  0.00    -0.017 C 
HETATM   11  C17 UNL     1      -6.526   2.181   0.754  1.00  0.00     0.018 C 
HETATM   12  C18 UNL     1      -6.085  -0.098   1.367  1.00  0.00     0.018 C 
HETATM   13  C19 UNL     1      -6.396   0.522  -0.983  1.00  0.00     0.126 C 
HETATM   14  C20 UNL     1      -5.531  -0.210  -1.945  1.00  0.00     0.033 C 
HETATM   15  C21 UNL     1      -4.231  -0.698  -1.338  1.00  0.00     0.012 C 
HETATM   16  C22 UNL     1      -3.527   0.533  -0.822  1.00  0.00    -0.035 C 
HETATM   17  C23 UNL     1      -3.275   1.371  -2.098  1.00  0.00     0.016 C 
HETATM   18  C24 UNL     1      -2.137   0.265  -0.296  1.00  0.00     0.006 C 
HETATM   19  C25 UNL     1      -1.178  -0.279  -1.291  1.00  0.00     0.007 C 
HETATM   20  C26 UNL     1       0.163  -0.202  -0.520  1.00  0.00     0.010 C 
HETATM   21  C27 UNL     1       0.175  -1.351   0.397  1.00  0.00    -0.036 C 
HETATM   22  C28 UNL     1       0.312  -2.615  -0.426  1.00  0.00     0.016 C 
ENDROOT
BRANCH   1  23
HETATM   23  C2  UNL     1       2.582  -0.603   0.827  1.00  0.00    -0.012 C 
HETATM   24  C1  UNL     1       3.493  -0.443   2.053  1.00  0.00     0.010 C 
BRANCH  23  25
HETATM   25  C3  UNL     1       3.244  -1.507  -0.186  1.00  0.00     0.024 C 
BRANCH  25  26
HETATM   26  C4  UNL     1       4.571  -1.104  -0.707  1.00  0.00     0.123 C 
BRANCH  26  27
HETATM   27  N1  UNL     1       5.680  -1.085   0.176  1.00  0.00    -0.353 N 
HETATM   28  C5  UNL     1       6.959  -0.565  -0.346  1.00  0.00     0.259 C 
HETATM   29  N2  UNL     1       8.094  -1.470  -0.178  1.00  0.00    -0.050 NA
HETATM   30  N3  UNL     1       7.108   0.481  -0.858  1.00  0.00    -0.380 NA
ATOM     31  H1  UNL     1       5.597  -1.418   1.136  1.00  0.00     0.163 HD
BRANCH  30  32
HETATM   32  C6  UNL     1       7.281   1.664  -1.437  1.00  0.00     0.415 C 
BRANCH  32  33
HETATM   33  N4  UNL     1       7.612   2.696  -0.424  1.00  0.00    -0.042 N 
ATOM     34  H43 UNL     1       6.914   2.736   0.318  1.00  0.00     0.278 HD
ATOM     35  H42 UNL     1       8.419   2.428   0.140  1.00  0.00     0.278 HD
ATOM     36  H41 UNL     1       7.745   3.604  -0.869  1.00  0.00     0.278 HD
ENDBRANCH  32  33
BRANCH  32  37
HETATM   37  C7  UNL     1       8.399   1.751  -2.502  1.00  0.00     0.245 C 
HETATM   38 CL1  UNL     1       9.976   1.369  -1.823  1.00  0.00    -0.078 Cl
HETATM   39 CL2  UNL     1       8.414   3.449  -3.052  1.00  0.00    -0.078 Cl
HETATM   40 CL3  UNL     1       7.994   0.716  -3.870  1.00  0.00    -0.078 Cl
ENDBRANCH  32  37
ENDBRANCH  30  32
ENDBRANCH  26  27
ENDBRANCH  25  26
ENDBRANCH  23  25
ENDBRANCH   1  23
BRANCH  13  41
HETATM   41  O2  UNL     1      -7.069   1.608  -1.599  1.00  0.00    -0.395 OA
ATOM     42  H2  UNL     1      -7.470   1.364  -2.425  1.00  0.00     0.210 HD
ENDBRANCH  13  41
TORSDOF 8
