REMARK  9 active torsions:
REMARK  status: ('A' for Active; 'I' for Inactive)
REMARK    1  A    between atoms: C2_2  and  C3_3 
REMARK    2  A    between atoms: C3_3  and  N1_4 
REMARK    3  A    between atoms: C3_3  and  C12_14 
REMARK    4  A    between atoms: N1_4  and  C4_6 
REMARK    5  A    between atoms: C4_6  and  C6_8 
REMARK    6  A    between atoms: C6_8  and  C8_10 
REMARK    7  A    between atoms: C8_10  and  C9_11 
REMARK    8  A    between atoms: C12_14  and  O1_15 
REMARK    9  A    between atoms: C12_14  and  C13_17 
ROOT
HETATM    1  C3  UNL     1      -1.380  -0.598  -0.153  1.00  0.00     0.107 C 
ENDROOT
BRANCH   1   2
HETATM    2  C2  UNL     1      -1.869  -1.055   1.203  1.00  0.00     0.023 C 
HETATM    3  C1  UNL     1      -1.446  -2.515   1.451  1.00  0.00     0.007 C 
ENDBRANCH   1   2
BRANCH   1   4
HETATM    4  N1  UNL     1      -0.002  -0.621  -0.359  1.00  0.00    -0.410 N 
ATOM      5  H1  UNL     1       0.330  -1.273  -1.070  1.00  0.00     0.154 HD
BRANCH   4   6
HETATM    6  C4  UNL     1       0.970   0.122   0.273  1.00  0.00     0.076 C 
HETATM    7  C5  UNL     1       1.200   0.004   1.713  1.00  0.00     0.032 C 
BRANCH   6   8
HETATM    8  C6  UNL     1       2.270  -0.138  -0.529  1.00  0.00     0.004 C 
HETATM    9  C7  UNL     1       2.513  -1.596  -0.411  1.00  0.00     0.012 C 
BRANCH   8  10
HETATM   10  C8  UNL     1       3.353   0.802  -0.248  1.00  0.00     0.010 C 
BRANCH  10  11
HETATM   11  C9  UNL     1       4.627   0.612  -1.011  1.00  0.00    -0.022 C 
HETATM   12  C10 UNL     1       5.559   1.749  -0.531  1.00  0.00     0.009 C 
HETATM   13  C11 UNL     1       5.371  -0.666  -0.709  1.00  0.00     0.009 C 
ENDBRANCH  10  11
ENDBRANCH   8  10
ENDBRANCH   6   8
ENDBRANCH   4   6
ENDBRANCH   1   4
BRANCH   1  14
HETATM   14  C12 UNL     1      -2.077   0.693  -0.493  1.00  0.00     0.171 C 
BRANCH  14  15
HETATM   15  O1  UNL     1      -1.624   1.769   0.272  1.00  0.00    -0.391 OA
ATOM     16  H1  UNL     1      -2.064   2.583   0.058  1.00  0.00     0.210 HD
ENDBRANCH  14  15
BRANCH  14  17
HETATM   17  C13 UNL     1      -3.563   0.674  -0.367  1.00  0.00     0.216 C 
HETATM   18  C14 UNL     1      -4.259  -0.369  -1.175  1.00  0.00     0.037 C 
HETATM   19  C15 UNL     1      -5.692   0.165  -1.190  1.00  0.00     0.029 C 
HETATM   20  C16 UNL     1      -5.476   1.635  -1.305  1.00  0.00     0.233 C 
HETATM   21  N2  UNL     1      -4.153   1.916  -0.849  1.00  0.00    -0.068 N 
ATOM     22  H22 UNL     1      -4.127   2.660  -0.152  1.00  0.00     0.277 HD
ATOM     23  H21 UNL     1      -3.581   2.373  -1.559  1.00  0.00     0.277 HD
ENDBRANCH  14  17
ENDBRANCH   1  14
TORSDOF 9
