REMARK  10 active torsions:
REMARK  status: ('A' for Active; 'I' for Inactive)
REMARK    1  A    between atoms: O1_1  and  C1_3 
REMARK    2  A    between atoms: C1_3  and  C2_4 
REMARK    3  A    between atoms: N1_5  and  C3_6 
REMARK    4  A    between atoms: C3_6  and  C4_7 
REMARK    5  A    between atoms: C14_17  and  O2_18 
REMARK    6  A    between atoms: O2_18  and  C15_19 
REMARK    7  A    between atoms: C15_19  and  C16_20 
REMARK    8  A    between atoms: C16_20  and  O3_21 
REMARK    9  A    between atoms: O3_21  and  C17_22 
REMARK   10  A    between atoms: C25_30  and  O4_31 
ROOT
HETATM    1  C2  UNL     1      -3.015  -1.520   1.200  1.00  0.00     0.052 C 
HETATM    2  N1  UNL     1      -3.117  -1.900  -0.116  1.00  0.00    -0.354 N 
HETATM    3  C10 UNL     1      -2.077  -2.741  -0.687  1.00  0.00     0.167 C 
HETATM    4  C11 UNL     1      -0.835  -1.899  -0.497  1.00  0.00    -0.030 A 
HETATM    5  C12 UNL     1       0.192  -1.623  -1.347  1.00  0.00     0.012 A 
HETATM    6  C13 UNL     1       1.186  -0.702  -0.961  1.00  0.00     0.038 A 
HETATM    7  C14 UNL     1       1.096  -0.089   0.282  1.00  0.00     0.075 A 
HETATM    8  C23 UNL     1       0.046  -0.361   1.165  1.00  0.00    -0.011 A 
HETATM    9  C24 UNL     1      -0.794  -1.242   0.669  1.00  0.00    -0.001 A 
HETATM   10  C25 UNL     1      -1.660  -1.485   1.817  1.00  0.00     0.130 C 
HETATM   11  C26 UNL     1      -0.901  -0.332   2.347  1.00  0.00     0.091 C 
ENDROOT
BRANCH   7  12
HETATM   12  O2  UNL     1       2.016   0.829   0.756  1.00  0.00    -0.348 OA
BRANCH  12  13
HETATM   13  C15 UNL     1       3.151   1.232   0.002  1.00  0.00     0.202 C 
BRANCH  13  14
HETATM   14  C16 UNL     1       3.903   2.224   0.831  1.00  0.00     0.202 C 
BRANCH  14  15
HETATM   15  O3  UNL     1       5.037   2.676   0.191  1.00  0.00    -0.349 OA
BRANCH  15  16
HETATM   16  C17 UNL     1       6.139   1.934  -0.100  1.00  0.00     0.068 A 
HETATM   17  C18 UNL     1       7.184   2.538  -0.805  1.00  0.00     0.037 A 
HETATM   18  C19 UNL     1       8.312   1.831  -1.115  1.00  0.00     0.003 A 
HETATM   19  C20 UNL     1       8.425   0.512  -0.730  1.00  0.00     0.000 A 
HETATM   20  C21 UNL     1       7.409  -0.079  -0.043  1.00  0.00     0.003 A 
HETATM   21  C22 UNL     1       6.238   0.623   0.290  1.00  0.00     0.037 A 
ENDBRANCH  15  16
ENDBRANCH  14  15
ENDBRANCH  13  14
ENDBRANCH  12  13
ENDBRANCH   7  12
BRANCH  10  22
HETATM   22  O4  UNL     1      -1.381  -2.706   2.490  1.00  0.00    -0.378 OA
ATOM     23  H4  UNL     1      -0.517  -2.684   2.884  1.00  0.00     0.211 HD
ENDBRANCH  10  22
BRANCH   1  24
HETATM   24  C1  UNL     1      -3.752  -0.313   1.720  1.00  0.00     0.220 C 
BRANCH  24  25
HETATM   25  O1  UNL     1      -5.128  -0.422   1.584  1.00  0.00    -0.395 OA
ATOM     26  H1  UNL     1      -5.593   0.339   1.912  1.00  0.00     0.209 HD
ENDBRANCH  24  25
ENDBRANCH   1  24
BRANCH   2  27
HETATM   27  C3  UNL     1      -4.182  -1.734  -0.962  1.00  0.00     0.102 C 
BRANCH  27  28
HETATM   28  C4  UNL     1      -4.561  -0.405  -1.479  1.00  0.00    -0.021 A 
HETATM   29  C5  UNL     1      -3.670   0.614  -1.573  1.00  0.00     0.013 A 
HETATM   30  C6  UNL     1      -4.088   1.827  -2.093  1.00  0.00     0.001 A 
HETATM   31  C7  UNL     1      -5.382   2.045  -2.523  1.00  0.00     0.000 A 
HETATM   32  C8  UNL     1      -6.252   0.979  -2.408  1.00  0.00     0.001 A 
HETATM   33  C9  UNL     1      -5.859  -0.227  -1.896  1.00  0.00     0.013 A 
ENDBRANCH  27  28
ENDBRANCH   2  27
TORSDOF 10
