REMARK  5 active torsions:
REMARK  status: ('A' for Active; 'I' for Inactive)
REMARK    1  A    between atoms: N1_1  and  C1_5 
REMARK    2  A    between atoms: C1_5  and  O1_6 
REMARK    3  A    between atoms: C1_5  and  C2_8 
REMARK    4  A    between atoms: C2_8  and  C3_9 
REMARK    5  A    between atoms: C3_9  and  N2_10 
ROOT
HETATM    1  N2  UNL     1      -0.105   0.349   0.021  1.00  0.00    -0.388 N 
HETATM    2  C4  UNL     1      -0.596   0.325   1.336  1.00  0.00     0.127 C 
HETATM    3  C5  UNL     1      -2.134   0.226   1.214  1.00  0.00     0.004 C 
HETATM    4  C6  UNL     1      -2.547   1.163   0.140  1.00  0.00     0.006 C 
HETATM    5  C7  UNL     1      -2.817   0.557  -1.203  1.00  0.00     0.002 C 
HETATM    6  C8  UNL     1      -1.618  -0.079  -1.850  1.00  0.00     0.025 C 
HETATM    7  C9  UNL     1      -0.644  -0.647  -0.862  1.00  0.00     0.083 C 
HETATM    8  C10 UNL     1      -1.302  -1.737  -0.051  1.00  0.00     0.026 C 
HETATM    9  C11 UNL     1      -2.395  -1.227   0.864  1.00  0.00     0.008 C 
ENDROOT
BRANCH   1  10
HETATM   10  C3  UNL     1       1.219   0.738  -0.240  1.00  0.00     0.063 C 
BRANCH  10  11
HETATM   11  C2  UNL     1       2.300  -0.224   0.186  1.00  0.00     0.105 C 
BRANCH  11  12
HETATM   12  C1  UNL     1       3.621   0.428  -0.238  1.00  0.00     0.320 C 
BRANCH  12  13
HETATM   13  N1  UNL     1       4.757  -0.408   0.095  1.00  0.00    -0.053 N 
ATOM     14  H13 UNL     1       5.647   0.041  -0.121  1.00  0.00     0.277 HD
ATOM     15  H12 UNL     1       4.888  -0.504   1.102  1.00  0.00     0.277 HD
ATOM     16  H11 UNL     1       4.651  -1.309  -0.372  1.00  0.00     0.277 HD
ENDBRANCH  12  13
BRANCH  12  17
HETATM   17  O1  UNL     1       3.766   1.665   0.403  1.00  0.00    -0.370 OA
ATOM     18  H1  UNL     1       3.021   2.213   0.185  1.00  0.00     0.212 HD
ENDBRANCH  12  17
ENDBRANCH  11  12
ENDBRANCH  10  11
ENDBRANCH   1  10
TORSDOF 5
