REMARK  11 active torsions:
REMARK  status: ('A' for Active; 'I' for Inactive)
REMARK    1  A    between atoms: C2_2  and  C3_3 
REMARK    2  A    between atoms: C9_12  and  C10_13 
REMARK    3  A    between atoms: C10_13  and  C11_14 
REMARK    4  A    between atoms: C11_14  and  O1_15 
REMARK    5  A    between atoms: C11_14  and  C12_17 
REMARK    6  A    between atoms: C12_17  and  C13_18 
REMARK    7  A    between atoms: C13_18  and  C15_20 
REMARK    8  A    between atoms: C16_21  and  O2_22 
REMARK    9  A    between atoms: C17_25  and  O4_26 
REMARK   10  A    between atoms: C18_28  and  C19_29 
REMARK   11  A    between atoms: C19_29  and  C20_30 
ROOT
HETATM    1  C11 UNL     1       0.128   0.241  -0.896  1.00  0.00     0.119 C 
ENDROOT
BRANCH   1   2
HETATM    2  C10 UNL     1      -0.636   0.044   0.359  1.00  0.00     0.036 C 
BRANCH   2   3
HETATM    3  C9  UNL     1      -1.995   0.706   0.362  1.00  0.00    -0.009 C 
HETATM    4  C8  UNL     1      -2.722   0.478   1.675  1.00  0.00     0.039 C 
HETATM    5  C7  UNL     1      -4.189   0.698   1.306  1.00  0.00     0.198 C 
HETATM    6  C3  UNL     1      -4.318   0.161  -0.075  1.00  0.00     0.005 C 
HETATM    7  N1  UNL     1      -4.430   2.125   1.385  1.00  0.00    -0.067 N 
HETATM    8  C4  UNL     1      -5.236   1.010  -0.914  1.00  0.00    -0.017 C 
HETATM    9  C23 UNL     1      -2.946   0.103  -0.663  1.00  0.00     0.020 C 
HETATM   10  C5  UNL     1      -5.909   2.043  -0.448  1.00  0.00    -0.003 C 
HETATM   11  C6  UNL     1      -5.782   2.427   0.985  1.00  0.00     0.260 C 
ATOM     12  H12 UNL     1      -3.746   2.657   0.846  1.00  0.00     0.277 HD
ATOM     13  H11 UNL     1      -4.215   2.496   2.310  1.00  0.00     0.277 HD
BRANCH   6  14
HETATM   14  C2  UNL     1      -4.951  -1.229  -0.089  1.00  0.00     0.011 C 
HETATM   15  C1  UNL     1      -6.337  -1.211   0.489  1.00  0.00     0.006 C 
ENDBRANCH   6  14
ENDBRANCH   2   3
ENDBRANCH   1   2
BRANCH   1  16
HETATM   16  O1  UNL     1      -0.442  -0.237  -2.057  1.00  0.00    -0.396 OA
ATOM     17  H1  UNL     1       0.048  -0.111  -2.861  1.00  0.00     0.210 HD
ENDBRANCH   1  16
BRANCH   1  18
HETATM   18  C12 UNL     1       1.613  -0.007  -0.764  1.00  0.00     0.041 C 
BRANCH  18  19
HETATM   19  C13 UNL     1       2.009  -1.337  -0.337  1.00  0.00     0.022 C 
HETATM   20  C14 UNL     1       1.523  -2.448  -1.295  1.00  0.00     0.015 C 
BRANCH  19  21
HETATM   21  C15 UNL     1       3.409  -1.658  -0.086  1.00  0.00     0.015 A 
HETATM   22  C16 UNL     1       3.727  -2.903   0.530  1.00  0.00     0.193 A 
HETATM   23  O3  UNL     1       5.016  -2.996   0.608  1.00  0.00    -0.264 OA
HETATM   24  C17 UNL     1       5.583  -1.939   0.108  1.00  0.00     0.192 A 
HETATM   25  C18 UNL     1       4.593  -1.043  -0.354  1.00  0.00     0.012 A 
BRANCH  22  26
HETATM   26  O2  UNL     1       2.849  -3.874   0.982  1.00  0.00    -0.340 OA
ATOM     27  H2  UNL     1       3.061  -4.704   1.393  1.00  0.00     0.220 HD
ENDBRANCH  22  26
BRANCH  24  28
HETATM   28  O4  UNL     1       6.958  -1.661   0.007  1.00  0.00    -0.340 OA
ATOM     29  H4  UNL     1       7.373  -0.888  -0.359  1.00  0.00     0.220 HD
ENDBRANCH  24  28
BRANCH  25  30
HETATM   30  C19 UNL     1       4.866   0.268  -0.938  1.00  0.00     0.048 C 
BRANCH  30  31
HETATM   31  C20 UNL     1       4.877   1.430   0.024  1.00  0.00    -0.018 C 
HETATM   32  C21 UNL     1       5.170   2.737  -0.728  1.00  0.00     0.010 C 
HETATM   33  C22 UNL     1       6.023   1.305   1.019  1.00  0.00     0.010 C 
ENDBRANCH  30  31
ENDBRANCH  25  30
ENDBRANCH  19  21
ENDBRANCH  18  19
ENDBRANCH   1  18
TORSDOF 11
