REMARK  5 active torsions:
REMARK  status: ('A' for Active; 'I' for Inactive)
REMARK    1  A    between atoms: N2_10  and  C7_11 
REMARK    2  A    between atoms: C9_14  and  N3_15 
REMARK    3  A    between atoms: N3_15  and  C10_17 
REMARK    4  A    between atoms: C10_17  and  C11_18 
REMARK    5  A    between atoms: C11_18  and  O1_19 
ROOT
HETATM    1  C1  UNL     1      -4.006  -0.146   1.041  1.00  0.00     0.054 C 
HETATM    2  C2  UNL     1      -2.954   0.575   0.255  1.00  0.00     0.174 C 
HETATM    3  C3  UNL     1      -3.356   2.015  -0.011  1.00  0.00     0.054 C 
HETATM    4  N1  UNL     1      -2.801  -0.083  -1.013  1.00  0.00    -0.034 N 
ATOM      5  H11 UNL     1      -3.161   0.469  -1.791  1.00  0.00     0.281 HD
ATOM      6  H12 UNL     1      -3.420  -0.887  -1.119  1.00  0.00     0.281 HD
HETATM    7  C4  UNL     1      -1.406  -0.426  -1.168  1.00  0.00     0.200 C 
HETATM    8  C5  UNL     1      -0.798   0.517  -2.177  1.00  0.00     0.071 C 
HETATM    9  C6  UNL     1      -1.374  -1.870  -1.683  1.00  0.00     0.071 C 
HETATM   10  N2  UNL     1      -0.821  -0.341   0.129  1.00  0.00    -0.290 N 
HETATM   11  C12 UNL     1      -1.634   0.498   0.926  1.00  0.00     0.119 C 
HETATM   12  S2  UNL     1      -1.205   1.232   2.302  1.00  0.00    -0.062 SA
ENDROOT
BRANCH  10  13
HETATM   13  C7  UNL     1       0.409  -1.016   0.537  1.00  0.00     0.119 A 
HETATM   14  C8  UNL     1       0.333  -2.277   1.075  1.00  0.00     0.102 A 
HETATM   15  S1  UNL     1       1.971  -2.638   1.386  1.00  0.00    -0.062 SA
HETATM   16  C9  UNL     1       2.657  -1.182   0.822  1.00  0.00     0.146 A 
HETATM   17  N4  UNL     1       1.600  -0.486   0.421  1.00  0.00    -0.322 N 
ATOM     18  H4  UNL     1       1.714   0.448   0.028  1.00  0.00     0.169 HD
BRANCH  16  19
HETATM   19  N3  UNL     1       3.928  -0.851   0.800  1.00  0.00    -0.368 N 
ATOM     20  H3  UNL     1       4.651  -1.484   1.142  1.00  0.00     0.161 HD
BRANCH  19  21
HETATM   21  C10 UNL     1       4.251   0.449   0.269  1.00  0.00     0.147 C 
BRANCH  21  22
HETATM   22  C11 UNL     1       5.637   0.900   0.664  1.00  0.00     0.183 C 
BRANCH  22  23
HETATM   23  O1  UNL     1       5.784   0.984   2.042  1.00  0.00    -0.399 OA
ATOM     24  H1  UNL     1       6.656   1.268   2.290  1.00  0.00     0.209 HD
ENDBRANCH  22  23
ENDBRANCH  21  22
ENDBRANCH  19  21
ENDBRANCH  16  19
ENDBRANCH  10  13
TORSDOF 5
