REMARK  8 active torsions:
REMARK  status: ('A' for Active; 'I' for Inactive)
REMARK    1  A    between atoms: C2_2  and  N1_3 
REMARK    2  A    between atoms: C5_6  and  N2_7 
REMARK       I    between atoms: N2_7  and  C6_9 
REMARK    3  A    between atoms: C6_9  and  C7_11 
REMARK    4  A    between atoms: C7_11  and  S1_12 
REMARK    5  A    between atoms: S1_12  and  C8_13 
REMARK    6  A    between atoms: C13_18  and  C14_19 
REMARK    7  A    between atoms: C14_19  and  O2_20 
REMARK    8  A    between atoms: N3_22  and  O3_24 
ROOT
HETATM    1  C7  UNL     1       1.126  -1.103  -0.863  1.00  0.00     0.177 C 
ENDROOT
BRANCH   1   2
HETATM    2  C6  UNL     1      -0.358  -1.077  -0.635  1.00  0.00     0.227 C 
HETATM    3  N2  UNL     1      -1.012   0.073  -0.127  1.00  0.00    -0.355 N 
ATOM      4  H2  UNL     1      -0.478   0.913   0.094  1.00  0.00     0.162 HD
HETATM    5  O1  UNL     1      -0.996  -2.119  -0.914  1.00  0.00    -0.273 OA
BRANCH   3   6
HETATM    6  C5  UNL     1      -2.445   0.045   0.075  1.00  0.00     0.091 C 
HETATM    7  C4  UNL     1      -3.041   1.062  -0.865  1.00  0.00     0.056 C 
HETATM    8  C3  UNL     1      -4.528   1.198  -0.720  1.00  0.00     0.274 C 
HETATM    9  N1  UNL     1      -4.887   0.570   0.537  1.00  0.00     0.088 N 
HETATM   10  C17 UNL     1      -4.055   1.035   1.626  1.00  0.00     0.278 C 
HETATM   11  C15 UNL     1      -2.731   0.313   1.526  1.00  0.00     0.032 C 
HETATM   12  C16 UNL     1      -2.925  -1.056   2.190  1.00  0.00     0.014 C 
BRANCH   9  13
HETATM   13  C2  UNL     1      -6.295   0.701   0.830  1.00  0.00     0.268 C 
HETATM   14  C1  UNL     1      -7.059  -0.131  -0.174  1.00  0.00     0.037 C 
ENDBRANCH   9  13
ENDBRANCH   3   6
ENDBRANCH   1   2
BRANCH   1  15
HETATM   15  S1  UNL     1       1.784   0.513  -0.384  1.00  0.00    -0.154 SA
BRANCH  15  16
HETATM   16  C8  UNL     1       3.604   0.559  -0.618  1.00  0.00     0.059 C 
HETATM   17  C9  UNL     1       3.899   0.456  -2.058  1.00  0.00     0.016 C 
HETATM   18  C10 UNL     1       4.489  -0.849  -2.511  1.00  0.00     0.001 C 
HETATM   19  C11 UNL     1       5.733  -1.066  -1.636  1.00  0.00     0.001 C 
HETATM   20  C12 UNL     1       5.212  -1.366  -0.260  1.00  0.00     0.014 C 
HETATM   21  C13 UNL     1       4.298  -0.362   0.311  1.00  0.00     0.076 C 
BRANCH  21  22
HETATM   22  C14 UNL     1       5.024   0.378   1.402  1.00  0.00     0.140 C 
HETATM   23  N3  UNL     1       6.283   0.259   1.540  1.00  0.00    -0.251 N 
ATOM     24  H3  UNL     1       6.800  -0.346   0.902  1.00  0.00     0.196 HD
BRANCH  22  25
HETATM   25  O2  UNL     1       4.212   1.176   2.215  1.00  0.00    -0.348 OA
ATOM     26  H2  UNL     1       4.670   1.643   2.904  1.00  0.00     0.219 HD
ENDBRANCH  22  25
BRANCH  23  27
HETATM   27  O3  UNL     1       6.952   0.919   2.517  1.00  0.00    -0.288 OA
ATOM     28  H3  UNL     1       7.892   0.830   2.620  1.00  0.00     0.244 HD
ENDBRANCH  23  27
ENDBRANCH  21  22
ENDBRANCH  15  16
ENDBRANCH   1  15
TORSDOF 8
