REMARK  9 active torsions:
REMARK  status: ('A' for Active; 'I' for Inactive)
REMARK    1  A    between atoms: C2_2  and  C3_4 
REMARK    2  A    between atoms: C3_4  and  C4_5 
REMARK    3  A    between atoms: C4_5  and  C5_6 
REMARK    4  A    between atoms: C5_6  and  C6_7 
REMARK    5  A    between atoms: C8_9  and  C9_10 
REMARK    6  A    between atoms: C10_11  and  C11_12 
REMARK    7  A    between atoms: C14_15  and  O2_16 
REMARK    8  A    between atoms: C17_20  and  O3_21 
REMARK    9  A    between atoms: C20_25  and  O4_26 
ROOT
HETATM    1  C11 UNL     1      -1.038   0.363   0.174  1.00  0.00     0.040 C 
HETATM    2  C12 UNL     1      -0.553   0.336  -1.262  1.00  0.00     0.028 C 
HETATM    3  C13 UNL     1      -2.113   1.439   0.210  1.00  0.00     0.059 C 
HETATM    4  C14 UNL     1      -3.487   1.027  -0.028  1.00  0.00     0.072 C 
HETATM    5  C15 UNL     1      -3.999   1.258  -1.444  1.00  0.00     0.041 C 
HETATM    6  C16 UNL     1      -5.402   0.691  -1.330  1.00  0.00     0.035 C 
HETATM    7  C17 UNL     1      -5.106  -0.641  -0.628  1.00  0.00     0.132 C 
HETATM    8  C18 UNL     1      -3.935  -0.340   0.287  1.00  0.00     0.046 C 
HETATM    9  C19 UNL     1      -4.515  -0.358   1.710  1.00  0.00     0.024 C 
HETATM   10  C20 UNL     1      -2.904  -1.433   0.201  1.00  0.00     0.202 C 
HETATM   11  C21 UNL     1      -1.581  -0.931   0.648  1.00  0.00     0.168 C 
HETATM   12  O5  UNL     1      -0.938  -1.599   1.418  1.00  0.00    -0.294 OA
ENDROOT
BRANCH   1  13
HETATM   13  C10 UNL     1       0.110   0.799   1.002  1.00  0.00    -0.010 C 
HETATM   14  C9  UNL     1       1.308   0.318   1.057  1.00  0.00    -0.003 C 
BRANCH  14  15
HETATM   15  C8  UNL     1       1.905  -0.777   0.346  1.00  0.00     0.002 C 
HETATM   16  C6  UNL     1       3.135  -1.221   0.446  1.00  0.00    -0.084 C 
HETATM   17  C7  UNL     1       3.513  -2.403  -0.427  1.00  0.00     0.043 C 
BRANCH  16  18
HETATM   18  C5  UNL     1       4.173  -0.678   1.322  1.00  0.00     0.034 C 
BRANCH  18  19
HETATM   19  C4  UNL     1       5.343  -0.203   0.478  1.00  0.00     0.012 C 
BRANCH  19  20
HETATM   20  C3  UNL     1       4.870   0.870  -0.475  1.00  0.00     0.078 C 
BRANCH  20  21
HETATM   21  C2  UNL     1       6.005   1.332  -1.295  1.00  0.00     0.123 C 
HETATM   22  C1  UNL     1       7.346   0.733  -1.092  1.00  0.00     0.091 C 
HETATM   23  O1  UNL     1       5.863   2.192  -2.132  1.00  0.00    -0.298 OA
ENDBRANCH  20  21
ENDBRANCH  19  20
ENDBRANCH  18  19
ENDBRANCH  16  18
ENDBRANCH  14  15
ENDBRANCH   1  13
BRANCH   4  24
HETATM   24  O2  UNL     1      -4.315   1.898   0.740  1.00  0.00    -0.389 OA
ATOM     25  H2  UNL     1      -5.213   1.629   0.585  1.00  0.00     0.210 HD
ENDBRANCH   4  24
BRANCH  10  26
HETATM   26  O4  UNL     1      -2.867  -2.083  -1.018  1.00  0.00    -0.387 OA
ATOM     27  H4  UNL     1      -2.216  -2.773  -1.072  1.00  0.00     0.210 HD
ENDBRANCH  10  26
BRANCH   7  28
HETATM   28  O3  UNL     1      -6.227  -1.080   0.061  1.00  0.00    -0.395 OA
ATOM     29  H3  UNL     1      -6.044  -1.905   0.496  1.00  0.00     0.210 HD
ENDBRANCH   7  28
TORSDOF 9
