REMARK  10 active torsions:
REMARK  status: ('A' for Active; 'I' for Inactive)
REMARK    1  A    between atoms: N2_5  and  C4_6 
REMARK    2  A    between atoms: C4_6  and  C5_7 
REMARK    3  A    between atoms: C5_7  and  N3_8 
REMARK    4  A    between atoms: N3_8  and  C6_10 
REMARK    5  A    between atoms: C6_10  and  N4_12 
REMARK    6  A    between atoms: N4_12  and  C7_14 
REMARK    7  A    between atoms: C7_14  and  C8_15 
REMARK    8  A    between atoms: C8_15  and  C9_16 
REMARK    9  A    between atoms: C9_16  and  N5_17 
REMARK   10  A    between atoms: N6_23  and  C14_25 
ROOT
HETATM    1  C14 UNL     1       1.991  -3.006   0.926  1.00  0.00     0.184 C 
HETATM    2  C15 UNL     1       1.641  -3.564  -0.403  1.00  0.00     0.105 C 
HETATM    3  N7  UNL     1       1.381  -3.991  -1.451  1.00  0.00    -0.191 NA
ENDROOT
BRANCH   1   4
HETATM    4  N6  UNL     1       2.815  -1.883   0.861  1.00  0.00    -0.342 N 
HETATM    5  C4  UNL     1       2.773  -0.742   0.353  1.00  0.00     0.119 C 
ATOM      6  H6  UNL     1       3.689  -2.034   1.365  1.00  0.00     0.167 HD
BRANCH   5   7
HETATM    7  N2  UNL     1       3.962   0.066   0.600  1.00  0.00    -0.363 N 
HETATM    8  C3  UNL     1       3.878   1.421   0.995  1.00  0.00     0.143 C 
HETATM    9  C2  UNL     1       5.222   2.041   1.297  1.00  0.00     0.136 C 
HETATM   10  N1  UNL     1       6.293   1.632   0.472  1.00  0.00    -0.414 N 
HETATM   11  C1  UNL     1       6.943   2.641  -0.298  1.00  0.00     0.143 C 
HETATM   12  C17 UNL     1       6.143   0.412  -0.244  1.00  0.00     0.136 C 
HETATM   13  C16 UNL     1       5.239  -0.574   0.424  1.00  0.00     0.143 C 
ENDBRANCH   5   7
BRANCH   5  14
HETATM   14  C5  UNL     1       1.708  -0.201  -0.459  1.00  0.00     0.138 C 
BRANCH  14  15
HETATM   15  N3  UNL     1       0.359  -0.620  -0.226  1.00  0.00    -0.340 N 
ATOM     16  H3  UNL     1       0.114  -1.170   0.597  1.00  0.00     0.167 HD
BRANCH  15  17
HETATM   17  C6  UNL     1      -0.647  -0.239  -1.194  1.00  0.00     0.171 C 
HETATM   18  S1  UNL     1      -0.106   0.657  -2.474  1.00  0.00    -0.041 SA
BRANCH  17  19
HETATM   19  N4  UNL     1      -1.997  -0.575  -1.112  1.00  0.00    -0.367 N 
ATOM     20  H4  UNL     1      -2.578  -0.245  -1.883  1.00  0.00     0.161 HD
BRANCH  19  21
HETATM   21  C7  UNL     1      -2.682  -1.315  -0.103  1.00  0.00     0.123 C 
BRANCH  21  22
HETATM   22  C8  UNL     1      -2.870  -0.605   1.208  1.00  0.00     0.039 C 
BRANCH  22  23
HETATM   23  C9  UNL     1      -3.692   0.675   0.943  1.00  0.00     0.123 C 
BRANCH  23  24
HETATM   24  N5  UNL     1      -4.905   0.294   0.361  1.00  0.00    -0.389 N 
HETATM   25  C10 UNL     1      -5.885  -0.402   1.070  1.00  0.00     0.084 C 
HETATM   26  C11 UNL     1      -7.265  -0.006   0.572  1.00  0.00     0.212 C 
HETATM   27  O1  UNL     1      -7.416  -0.180  -0.793  1.00  0.00    -0.385 OA
HETATM   28  C12 UNL     1      -6.315   0.171  -1.541  1.00  0.00     0.187 C 
HETATM   29  C13 UNL     1      -5.443   1.102  -0.686  1.00  0.00     0.148 C 
ENDBRANCH  23  24
ENDBRANCH  22  23
ENDBRANCH  21  22
ENDBRANCH  19  21
ENDBRANCH  17  19
ENDBRANCH  15  17
ENDBRANCH  14  15
ENDBRANCH   5  14
ENDBRANCH   1   4
TORSDOF 10
