REMARK  4 active torsions:
REMARK  status: ('A' for Active; 'I' for Inactive)
REMARK       I    between atoms: C1_2  and  N1_3 
REMARK    1  A    between atoms: C1_2  and  C7_12 
REMARK    2  A    between atoms: N1_3  and  C2_5 
REMARK    3  A    between atoms: C7_12  and  C8_13 
REMARK    4  A    between atoms: C7_12  and  N5_21 
REMARK       I    between atoms: C8_13  and  N3_15 
ROOT
HETATM    1  C7  UNL     1      -0.853   1.021   0.210  1.00  0.00     0.274 C 
ENDROOT
BRANCH   1   2
HETATM    2  C1  UNL     1       0.549   1.030   0.758  1.00  0.00     0.255 C 
HETATM    3  O1  UNL     1       1.233   2.067   0.661  1.00  0.00    -0.270 OA
HETATM    4  N1  UNL     1       1.131  -0.093   1.382  1.00  0.00    -0.311 N 
ATOM      5  H1  UNL     1       0.604  -0.525   2.141  1.00  0.00     0.170 HD
BRANCH   4   6
HETATM    6  C2  UNL     1       2.253  -0.617   1.086  1.00  0.00     0.107 A 
HETATM    7  C3  UNL     1       3.117  -0.192   0.102  1.00  0.00     0.048 A 
HETATM    8  C4  UNL     1       4.315  -0.810  -0.157  1.00  0.00     0.005 A 
HETATM    9  C5  UNL     1       4.690  -1.901   0.583  1.00  0.00     0.017 A 
HETATM   10  C6  UNL     1       3.815  -2.312   1.562  1.00  0.00     0.089 A 
HETATM   11  N2  UNL     1       2.648  -1.708   1.813  1.00  0.00    -0.352 N 
ATOM     12  H2  UNL     1       2.045  -2.064   2.555  1.00  0.00     0.166 HD
ENDBRANCH   4   6
ENDBRANCH   1   2
BRANCH   1  13
HETATM   13  C8  UNL     1      -1.005  -0.099  -0.716  1.00  0.00     0.268 C 
HETATM   14  O2  UNL     1      -0.946   0.087  -1.976  1.00  0.00    -0.269 OA
HETATM   15  N3  UNL     1      -1.228  -1.450  -0.303  1.00  0.00    -0.259 N 
HETATM   16  C9  UNL     1      -1.327  -2.452  -1.318  1.00  0.00     0.174 C 
HETATM   17  N4  UNL     1      -1.371  -1.805   1.027  1.00  0.00    -0.110 NA
HETATM   18  C10 UNL     1      -1.504  -3.859  -0.843  1.00  0.00     0.191 C 
HETATM   19  O3  UNL     1      -1.268  -4.085   0.492  1.00  0.00    -0.372 OA
HETATM   20  C11 UNL     1      -1.946  -3.107   1.224  1.00  0.00     0.302 C 
ENDBRANCH   1  13
BRANCH   1  21
HETATM   21  N5  UNL     1      -1.179   2.308  -0.237  1.00  0.00    -0.352 N 
HETATM   22  C12 UNL     1      -1.292   3.348   0.671  1.00  0.00     0.065 A 
HETATM   23  C13 UNL     1      -1.412   4.593  -0.167  1.00  0.00     0.050 A 
HETATM   24  C14 UNL     1      -1.393   4.137  -1.602  1.00  0.00     0.050 A 
HETATM   25  C15 UNL     1      -1.188   2.639  -1.567  1.00  0.00     0.065 A 
ENDBRANCH   1  21
TORSDOF 4
