REMARK  5 active torsions:
REMARK  status: ('A' for Active; 'I' for Inactive)
REMARK    1  A    between atoms: N1_4  and  C3_5 
REMARK    2  A    between atoms: C3_5  and  C4_6 
REMARK    3  A    between atoms: C4_6  and  N2_7 
REMARK    4  A    between atoms: N2_7  and  C5_9 
REMARK    5  A    between atoms: C5_9  and  N3_11 
ROOT
HETATM    1  N2  UNL     1       0.669  -0.426  -0.332  1.00  0.00    -0.366 N 
ATOM      2  H2  UNL     1       0.405  -0.904  -1.194  1.00  0.00     0.161 HD
ENDROOT
BRANCH   1   3
HETATM    3  C4  UNL     1       2.055  -0.469   0.046  1.00  0.00     0.142 C 
BRANCH   3   4
HETATM    4  C3  UNL     1       2.740   0.859  -0.064  1.00  0.00     0.147 C 
BRANCH   4   5
HETATM    5  N1  UNL     1       4.110   0.848   0.299  1.00  0.00    -0.362 N 
HETATM    6  C2  UNL     1       4.428   0.626   1.654  1.00  0.00     0.164 C 
HETATM    7  C1  UNL     1       5.752  -0.035   1.856  1.00  0.00     0.257 C 
HETATM    8  O1  UNL     1       6.299   0.087   2.985  1.00  0.00    -0.267 OA
HETATM    9  N4  UNL     1       6.394  -0.779   0.830  1.00  0.00    -0.352 N 
HETATM   10  C14 UNL     1       5.735  -0.841  -0.458  1.00  0.00     0.167 C 
ATOM     11  H4  UNL     1       7.283  -1.251   0.994  1.00  0.00     0.163 HD
HETATM   12  C13 UNL     1       5.035   0.452  -0.686  1.00  0.00     0.083 C 
ENDBRANCH   4   5
ENDBRANCH   3   4
ENDBRANCH   1   3
BRANCH   1  13
HETATM   13  C5  UNL     1      -0.365   0.227   0.395  1.00  0.00     0.169 C 
HETATM   14  S1  UNL     1      -0.044   1.012   1.806  1.00  0.00    -0.041 SA
BRANCH  13  15
HETATM   15  N3  UNL     1      -1.709   0.208  -0.081  1.00  0.00    -0.358 N 
HETATM   16  C6  UNL     1      -1.953  -0.495  -1.315  1.00  0.00     0.130 C 
HETATM   17  C7  UNL     1      -3.349  -0.583  -1.772  1.00  0.00     0.088 C 
HETATM   18  C8  UNL     1      -4.369   0.010  -0.837  1.00  0.00     0.167 C 
HETATM   19  C9  UNL     1      -3.829   1.308  -0.225  1.00  0.00     0.088 C 
HETATM   20  O2  UNL     1      -4.517  -0.890   0.213  1.00  0.00    -0.353 OA
HETATM   21  O3  UNL     1      -5.599   0.170  -1.418  1.00  0.00    -0.353 OA
HETATM   22  C10 UNL     1      -2.712   0.885   0.700  1.00  0.00     0.130 C 
HETATM   23  C11 UNL     1      -5.737  -0.585   0.772  1.00  0.00     0.197 C 
HETATM   24  C12 UNL     1      -6.492   0.065  -0.356  1.00  0.00     0.197 C 
ENDBRANCH  13  15
ENDBRANCH   1  13
TORSDOF 5
