REMARK  3 active torsions:
REMARK  status: ('A' for Active; 'I' for Inactive)
REMARK    1  A    between atoms: C2_2  and  C3_3 
REMARK    2  A    between atoms: C3_3  and  N1_4 
REMARK    3  A    between atoms: N1_4  and  C4_7 
ROOT
HETATM    1  C4  UNL     1       0.682  -0.651   0.296  1.00  0.00     0.213 C 
HETATM    2  C5  UNL     1       1.205   0.703   0.600  1.00  0.00     0.062 C 
HETATM    3  C6  UNL     1       2.629   0.770   0.021  1.00  0.00     0.234 C 
HETATM    4  N2  UNL     1       2.626  -0.295  -0.948  1.00  0.00    -0.073 N 
ATOM      5  H21 UNL     1       3.562  -0.600  -1.213  1.00  0.00     0.277 HD
ATOM      6  H22 UNL     1       2.322   0.005  -1.874  1.00  0.00     0.277 HD
HETATM    7  C7  UNL     1       1.818  -1.353  -0.400  1.00  0.00     0.265 C 
ENDROOT
BRANCH   1   8
HETATM    8  N1  UNL     1      -0.516  -0.608  -0.473  1.00  0.00    -0.066 N 
ATOM      9  H12 UNL     1      -0.791  -1.537  -0.792  1.00  0.00     0.278 HD
ATOM     10  H11 UNL     1      -0.363  -0.170  -1.381  1.00  0.00     0.278 HD
BRANCH   8  11
HETATM   11  C3  UNL     1      -1.574   0.035   0.250  1.00  0.00     0.259 C 
BRANCH  11  12
HETATM   12  C2  UNL     1      -2.879  -0.087  -0.435  1.00  0.00    -0.010 C 
HETATM   13  C1  UNL     1      -3.595   0.937  -0.858  1.00  0.00     0.008 C 
ENDBRANCH  11  12
ENDBRANCH   8  11
ENDBRANCH   1   8
TORSDOF 3
