REMARK  4 active torsions:
REMARK  status: ('A' for Active; 'I' for Inactive)
REMARK    1  A    between atoms: N1_1  and  C1_5 
REMARK    2  A    between atoms: C1_5  and  C2_6 
REMARK    3  A    between atoms: C2_6  and  N2_7 
REMARK    4  A    between atoms: C4_9  and  N3_10 
ROOT
HETATM    1  N2  UNL     1       0.136   0.620   0.007  1.00  0.00    -0.228 NA
HETATM    2  C3  UNL     1       0.967  -0.088   0.930  1.00  0.00     0.161 C 
HETATM    3  C4  UNL     1       1.968  -0.311  -0.185  1.00  0.00     0.304 C 
HETATM    4  N4  UNL     1       1.211   0.716  -0.864  1.00  0.00    -0.130 NA
ENDROOT
BRANCH   1   5
HETATM    5  C2  UNL     1      -1.060   0.010  -0.465  1.00  0.00     0.137 C 
BRANCH   5   6
HETATM    6  C1  UNL     1      -2.037  -0.089   0.696  1.00  0.00     0.245 C 
BRANCH   6   7
HETATM    7  N1  UNL     1      -3.265  -0.718   0.194  1.00  0.00    -0.078 N 
ATOM      8  H13 UNL     1      -3.657  -0.234  -0.614  1.00  0.00     0.274 HD
ATOM      9  H12 UNL     1      -3.094  -1.616  -0.258  1.00  0.00     0.274 HD
ATOM     10  H11 UNL     1      -3.920  -0.784   0.973  1.00  0.00     0.274 HD
ENDBRANCH   6   7
ENDBRANCH   5   6
ENDBRANCH   1   5
BRANCH   3  11
HETATM   11  N3  UNL     1       3.300   0.097   0.217  1.00  0.00    -0.059 N 
ATOM     12  H33 UNL     1       3.313   1.063   0.545  1.00  0.00     0.276 HD
ATOM     13  H32 UNL     1       3.590  -0.365   1.079  1.00  0.00     0.276 HD
ATOM     14  H31 UNL     1       3.974  -0.053  -0.534  1.00  0.00     0.276 HD
ENDBRANCH   3  11
TORSDOF 4
