REMARK  8 active torsions:
REMARK  status: ('A' for Active; 'I' for Inactive)
REMARK    1  A    between atoms: C7_7  and  N1_8 
REMARK    2  A    between atoms: C12_14  and  N2_15 
REMARK    3  A    between atoms: C15_18  and  C16_19 
REMARK    4  A    between atoms: C16_19  and  N3_20 
REMARK    5  A    between atoms: N3_20  and  C17_23 
REMARK    6  A    between atoms: C17_23  and  C18_24 
REMARK    7  A    between atoms: C18_24  and  N4_25 
REMARK    8  A    between atoms: C20_30  and  C22_32 
ROOT
HETATM    1  N2  UNL     1       0.577  -0.458   0.671  1.00  0.00    -0.391 N 
HETATM    2  C13 UNL     1       1.501   0.429   1.281  1.00  0.00     0.119 C 
HETATM    3  C14 UNL     1       2.870   0.503   0.711  1.00  0.00     0.026 C 
HETATM    4  C15 UNL     1       2.988   0.212  -0.750  1.00  0.00     0.023 C 
HETATM    5  C20 UNL     1       2.132  -0.999  -1.045  1.00  0.00    -0.010 C 
HETATM    6  C21 UNL     1       2.594  -2.117  -0.146  1.00  0.00     0.018 C 
HETATM    7  C23 UNL     1       0.699  -0.557  -0.702  1.00  0.00     0.129 C 
ENDROOT
BRANCH   1   8
HETATM    8  C12 UNL     1      -0.622  -0.652   1.357  1.00  0.00     0.184 C 
HETATM    9  N1  UNL     1      -1.740  -1.209   0.648  1.00  0.00    -0.326 N 
HETATM   10  C8  UNL     1      -1.691  -2.594   0.387  1.00  0.00     0.221 C 
HETATM   11  O1  UNL     1      -2.201  -3.098  -0.618  1.00  0.00    -0.273 OA
HETATM   12  C9  UNL     1      -0.988  -3.505   1.379  1.00  0.00     0.103 C 
HETATM   13  C10 UNL     1      -0.824  -2.807   2.683  1.00  0.00     0.013 C 
HETATM   14  C11 UNL     1      -0.446  -1.372   2.652  1.00  0.00     0.047 C 
BRANCH   9  15
HETATM   15  C7  UNL     1      -2.872  -0.428   0.234  1.00  0.00     0.090 C 
HETATM   16  C6  UNL     1      -2.925  -0.272  -1.245  1.00  0.00     0.030 C 
HETATM   17  C5  UNL     1      -4.235   0.335  -1.718  1.00  0.00    -0.011 C 
HETATM   18  C4  UNL     1      -4.483   1.701  -1.163  1.00  0.00     0.013 C 
HETATM   19  C27 UNL     1      -5.291  -0.675  -1.303  1.00  0.00     0.014 C 
HETATM   20  C2  UNL     1      -5.779   1.829  -0.404  1.00  0.00    -0.047 C 
HETATM   21  C1  UNL     1      -5.724   3.166   0.339  1.00  0.00     0.015 C 
HETATM   22  C3  UNL     1      -6.971   1.917  -1.326  1.00  0.00     0.015 C 
HETATM   23  C28 UNL     1      -5.943   0.763   0.637  1.00  0.00     0.018 C 
HETATM   24  C25 UNL     1      -5.403  -0.575   0.183  1.00  0.00    -0.041 C 
HETATM   25  C24 UNL     1      -4.140  -0.866   0.887  1.00  0.00     0.034 C 
HETATM   26  C26 UNL     1      -6.439  -1.626   0.609  1.00  0.00     0.015 C 
ENDBRANCH   9  15
ENDBRANCH   1   8
BRANCH   5  27
HETATM   27  C22 UNL     1       2.221  -1.468  -2.467  1.00  0.00     0.126 C 
HETATM   28 CL1  UNL     1       1.719  -0.262  -3.643  1.00  0.00    -0.130 Cl
ENDBRANCH   5  27
BRANCH   4  29
HETATM   29  C16 UNL     1       4.403  -0.018  -1.161  1.00  0.00     0.237 C 
BRANCH  29  30
HETATM   30  N3  UNL     1       5.256   1.129  -0.903  1.00  0.00    -0.073 N 
ATOM     31  H32 UNL     1       4.912   1.986  -1.336  1.00  0.00     0.277 HD
ATOM     32  H31 UNL     1       5.216   1.444   0.066  1.00  0.00     0.277 HD
BRANCH  30  33
HETATM   33  C17 UNL     1       6.600   0.779  -1.330  1.00  0.00     0.251 C 
BRANCH  33  34
HETATM   34  C18 UNL     1       7.567   1.916  -1.132  1.00  0.00     0.149 C 
BRANCH  34  35
HETATM   35  N4  UNL     1       7.675   2.336   0.249  1.00  0.00    -0.365 N 
HETATM   36  C19 UNL     1       8.795   2.221   0.903  1.00  0.00     0.197 C 
HETATM   37  N5  UNL     1       9.915   1.670   0.226  1.00  0.00    -0.067 NA
HETATM   38  N6  UNL     1       8.924   2.627   2.254  1.00  0.00    -0.067 NA
ATOM     39  H4  UNL     1       6.859   2.729   0.718  1.00  0.00     0.161 HD
ENDBRANCH  34  35
ENDBRANCH  33  34
ENDBRANCH  30  33
ENDBRANCH  29  30
ENDBRANCH   4  29
TORSDOF 8
