REMARK  9 active torsions:
REMARK  status: ('A' for Active; 'I' for Inactive)
REMARK    1  A    between atoms: C5_7  and  N2_8 
REMARK    2  A    between atoms: N2_8  and  C6_10 
REMARK    3  A    between atoms: C6_10  and  C7_11 
REMARK    4  A    between atoms: C7_11  and  C8_12 
REMARK    5  A    between atoms: C8_12  and  N3_13 
REMARK    6  A    between atoms: N3_13  and  C9_14 
REMARK       I    between atoms: N3_13  and  C13_19 
REMARK    7  A    between atoms: C9_14  and  C10_15 
REMARK    8  A    between atoms: C10_15  and  N4_16 
REMARK    9  A    between atoms: C13_19  and  C14_21 
ROOT
HETATM    1  N3  UNL     1       0.877  -0.655   1.256  1.00  0.00    -0.346 N 
HETATM    2  C13 UNL     1       0.156   0.546   1.298  1.00  0.00     0.260 C 
HETATM    3  O1  UNL     1       0.831   1.610   1.528  1.00  0.00    -0.267 OA
ENDROOT
BRANCH   1   4
HETATM    4  C8  UNL     1       2.297  -0.704   1.502  1.00  0.00     0.127 C 
BRANCH   4   5
HETATM    5  C7  UNL     1       3.207  -0.579   0.347  1.00  0.00     0.040 C 
BRANCH   5   6
HETATM    6  C6  UNL     1       3.146   0.710  -0.424  1.00  0.00     0.139 C 
BRANCH   6   7
HETATM    7  N2  UNL     1       4.096   0.695  -1.527  1.00  0.00    -0.226 N 
ATOM      8  H2  UNL     1       3.745   0.410  -2.441  1.00  0.00     0.177 HD
BRANCH   7   9
HETATM    9  C5  UNL     1       5.331   1.008  -1.448  1.00  0.00     0.678 A 
HETATM   10  N1  UNL     1       5.954   1.403  -0.327  1.00  0.00    -0.202 N 
HETATM   11  C4  UNL     1       7.268   1.718  -0.318  1.00  0.00     0.108 A 
ATOM     12  H1  UNL     1       5.422   1.467   0.541  1.00  0.00     0.183 HD
HETATM   13  C3  UNL     1       7.953   1.623  -1.500  1.00  0.00     0.042 A 
HETATM   14  C2  UNL     1       7.319   1.218  -2.654  1.00  0.00     0.024 A 
HETATM   15  C1  UNL     1       8.129   1.135  -3.920  1.00  0.00     0.068 C 
HETATM   16  N6  UNL     1       6.027   0.918  -2.617  1.00  0.00    -0.196 N 
ATOM     17  H6  UNL     1       5.552   0.618  -3.468  1.00  0.00     0.184 HD
ENDBRANCH   7   9
ENDBRANCH   6   7
ENDBRANCH   5   6
ENDBRANCH   4   5
ENDBRANCH   1   4
BRANCH   1  18
HETATM   18  C9  UNL     1       0.147  -1.890   0.949  1.00  0.00     0.156 C 
BRANCH  18  19
HETATM   19  C10 UNL     1      -0.333  -2.645   2.128  1.00  0.00     0.291 C 
BRANCH  19  20
HETATM   20  N4  UNL     1      -1.024  -3.835   1.635  1.00  0.00     0.081 N 
HETATM   21  C11 UNL     1      -2.243  -3.552   0.949  1.00  0.00     0.309 C 
HETATM   22  C12 UNL     1      -0.138  -4.685   0.897  1.00  0.00     0.309 C 
ENDBRANCH  19  20
ENDBRANCH  18  19
ENDBRANCH   1  18
BRANCH   2  23
HETATM   23  C14 UNL     1      -1.261   0.751   1.116  1.00  0.00     0.118 A 
HETATM   24  C15 UNL     1      -1.924   0.957  -0.067  1.00  0.00     0.044 A 
HETATM   25 BR1  UNL     1      -0.947   0.953  -1.692  1.00  0.00    -0.049 Br
HETATM   26  C16 UNL     1      -3.309   1.179  -0.121  1.00  0.00     0.012 A 
HETATM   27  C17 UNL     1      -3.925   1.379  -1.352  1.00  0.00     0.053 A 
HETATM   28  C24 UNL     1      -4.055   1.197   1.031  1.00  0.00     0.047 A 
HETATM   29  C18 UNL     1      -5.290   1.594  -1.379  1.00  0.00     0.086 A 
HETATM   30  O2  UNL     1      -6.118   1.806  -2.365  1.00  0.00    -0.321 OA
HETATM   31  C22 UNL     1      -6.036   1.609  -0.201  1.00  0.00     0.008 A 
HETATM   32  C19 UNL     1      -7.350   1.961  -1.934  1.00  0.00     0.150 A 
HETATM   33  C20 UNL     1      -7.343   1.842  -0.553  1.00  0.00    -0.027 A 
HETATM   34  C21 UNL     1      -8.523   1.948   0.367  1.00  0.00     0.051 C 
HETATM   35  C23 UNL     1      -5.419   1.410   1.015  1.00  0.00     0.045 A 
HETATM   36  N5  UNL     1      -3.409   0.997   2.185  1.00  0.00    -0.322 N 
HETATM   37  C25 UNL     1      -2.089   0.785   2.250  1.00  0.00     0.263 A 
ATOM     38  H5  UNL     1      -3.945   1.006   3.053  1.00  0.00     0.169 HD
HETATM   39  O3  UNL     1      -1.570   0.611   3.374  1.00  0.00    -0.267 OA
ENDBRANCH   2  23
TORSDOF 9
