REMARK  8 active torsions:
REMARK  status: ('A' for Active; 'I' for Inactive)
REMARK    1  A    between atoms: C2_2  and  C3_3 
REMARK    2  A    between atoms: C4_4  and  C5_5 
REMARK    3  A    between atoms: C10_10  and  O1_11 
REMARK    4  A    between atoms: C12_14  and  C13_15 
REMARK    5  A    between atoms: C13_15  and  C14_17 
REMARK    6  A    between atoms: C16_19  and  C17_20 
REMARK    7  A    between atoms: C17_20  and  O3_21 
REMARK    8  A    between atoms: C18_24  and  O5_25 
ROOT
HETATM    1  C1  UNL     1      -0.312   0.335   0.802  1.00  0.00     0.048 C 
HETATM    2  C2  UNL     1       0.088   0.225  -0.600  1.00  0.00    -0.059 C 
HETATM    3  C12 UNL     1       1.336   0.344  -0.956  1.00  0.00     0.057 C 
ENDROOT
BRANCH   2   4
HETATM    4  C3  UNL     1      -0.901  -0.016  -1.637  1.00  0.00     0.003 C 
HETATM    5  C4  UNL     1      -2.155  -0.173  -1.589  1.00  0.00    -0.021 C 
BRANCH   5   6
HETATM    6  C5  UNL     1      -3.104  -0.179  -0.501  1.00  0.00     0.014 C 
HETATM    7  C6  UNL     1      -4.016  -1.430  -0.572  1.00  0.00     0.036 C 
HETATM    8  C7  UNL     1      -4.906  -1.321   0.613  1.00  0.00    -0.021 C 
HETATM    9  C8  UNL     1      -5.365  -0.161   1.034  1.00  0.00    -0.059 C 
HETATM   10  C9  UNL     1      -6.254  -0.112   2.229  1.00  0.00     0.046 C 
HETATM   11  C10 UNL     1      -5.045   1.137   0.378  1.00  0.00     0.147 C 
HETATM   12  C11 UNL     1      -4.107   0.974  -0.786  1.00  0.00     0.045 C 
BRANCH  11  13
HETATM   13  O1  UNL     1      -6.227   1.762   0.019  1.00  0.00    -0.391 OA
ATOM     14  H1  UNL     1      -6.023   2.590  -0.399  1.00  0.00     0.210 HD
ENDBRANCH  11  13
ENDBRANCH   5   6
ENDBRANCH   2   4
BRANCH   3  15
HETATM   15  C13 UNL     1       2.511   0.579  -0.213  1.00  0.00     0.158 C 
HETATM   16  O2  UNL     1       2.563   0.726   1.029  1.00  0.00    -0.293 OA
BRANCH  15  17
HETATM   17  C14 UNL     1       3.868   0.682  -0.848  1.00  0.00     0.117 C 
HETATM   18  C15 UNL     1       4.912   0.933   0.203  1.00  0.00     0.051 C 
HETATM   19  C16 UNL     1       6.111   0.225  -0.377  1.00  0.00     0.149 C 
HETATM   20  O4  UNL     1       5.696  -0.590  -1.386  1.00  0.00    -0.353 OA
HETATM   21  C18 UNL     1       4.328  -0.564  -1.491  1.00  0.00     0.269 C 
BRANCH  19  22
HETATM   22  C17 UNL     1       6.834  -0.461   0.739  1.00  0.00     0.196 C 
BRANCH  22  23
HETATM   23  O3  UNL     1       7.993  -1.111   0.312  1.00  0.00    -0.398 OA
ATOM     24  H3  UNL     1       8.452  -1.547   1.021  1.00  0.00     0.209 HD
ENDBRANCH  22  23
ENDBRANCH  19  22
BRANCH  21  25
HETATM   25  O5  UNL     1       3.819  -1.729  -0.969  1.00  0.00    -0.370 OA
ATOM     26  H5  UNL     1       4.115  -2.531  -1.383  1.00  0.00     0.212 HD
ENDBRANCH  21  25
ENDBRANCH  15  17
ENDBRANCH   3  15
TORSDOF 8
