REMARK  9 active torsions:
REMARK  status: ('A' for Active; 'I' for Inactive)
REMARK    1  A    between atoms: C2_2  and  C3_3 
REMARK    2  A    between atoms: C3_3  and  N1_4 
REMARK    3  A    between atoms: N1_4  and  C5_6 
REMARK    4  A    between atoms: C5_6  and  N2_7 
REMARK    5  A    between atoms: C7_9  and  C8_10 
REMARK    6  A    between atoms: C9_11  and  C10_12 
REMARK    7  A    between atoms: C10_12  and  O1_13 
REMARK    8  A    between atoms: C10_12  and  N3_15 
REMARK    9  A    between atoms: C18_23  and  O2_24 
ROOT
HETATM    1  N2  UNL     1      -3.144  -0.466  -0.776  1.00  0.00    -0.303 N 
HETATM    2  C6  UNL     1      -2.251   0.570  -0.721  1.00  0.00     0.111 A 
HETATM    3  C7  UNL     1      -1.031   0.081  -0.382  1.00  0.00    -0.016 A 
HETATM    4  C17 UNL     1      -1.135  -1.268  -0.218  1.00  0.00     0.069 A 
HETATM    5  C18 UNL     1      -2.469  -1.584  -0.471  1.00  0.00     0.147 A 
ENDROOT
BRANCH   3   6
HETATM    6  C8  UNL     1       0.234   0.829  -0.199  1.00  0.00     0.013 C 
HETATM    7  C9  UNL     1       1.355   0.232   0.131  1.00  0.00     0.037 C 
BRANCH   7   8
HETATM    8  C10 UNL     1       2.575   1.027   0.299  1.00  0.00     0.380 C 
BRANCH   8   9
HETATM    9  O1  UNL     1       2.893   1.595  -0.933  1.00  0.00    -0.365 OA
ATOM     10  H1  UNL     1       3.684   2.110  -0.824  1.00  0.00     0.212 HD
ENDBRANCH   8   9
BRANCH   8  11
HETATM   11  N3  UNL     1       3.680   0.261   0.834  1.00  0.00     0.120 N 
HETATM   12  C11 UNL     1       4.737   1.163   1.209  1.00  0.00     0.276 C 
HETATM   13  C12 UNL     1       5.734   1.466   0.152  1.00  0.00     0.030 C 
HETATM   14  C13 UNL     1       6.943   0.559   0.258  1.00  0.00     0.002 C 
HETATM   15  C14 UNL     1       6.632  -0.838  -0.175  1.00  0.00     0.002 C 
HETATM   16  C15 UNL     1       5.372  -1.388   0.452  1.00  0.00     0.030 C 
HETATM   17  C16 UNL     1       4.119  -0.771  -0.079  1.00  0.00     0.276 C 
ENDBRANCH   8  11
ENDBRANCH   7   8
ENDBRANCH   3   6
BRANCH   1  18
HETATM   18  C5  UNL     1      -4.544  -0.407  -1.083  1.00  0.00     0.160 C 
BRANCH  18  19
HETATM   19  N1  UNL     1      -5.409  -0.168   0.019  1.00  0.00    -0.280 NA
HETATM   20  C4  UNL     1      -5.271  -1.182   1.041  1.00  0.00     0.117 C 
BRANCH  19  21
HETATM   21  C3  UNL     1      -6.791  -0.138  -0.399  1.00  0.00     0.122 C 
BRANCH  21  22
HETATM   22  C2  UNL     1      -7.084   0.846  -1.439  1.00  0.00    -0.022 C 
HETATM   23  C1  UNL     1      -7.957   1.809  -1.220  1.00  0.00     0.008 C 
ENDBRANCH  21  22
ENDBRANCH  19  21
ENDBRANCH  18  19
ENDBRANCH   1  18
BRANCH   5  24
HETATM   24  O2  UNL     1      -2.943  -2.882  -0.396  1.00  0.00    -0.346 OA
ATOM     25  H2  UNL     1      -2.465  -3.674  -0.180  1.00  0.00     0.219 HD
ENDBRANCH   5  24
TORSDOF 9
