REMARK  7 active torsions:
REMARK  status: ('A' for Active; 'I' for Inactive)
REMARK    1  A    between atoms: N1_1  and  C1_4 
REMARK    2  A    between atoms: N4_16  and  C6_17 
REMARK    3  A    between atoms: C6_17  and  C7_18 
REMARK    4  A    between atoms: C7_18  and  C8_19 
REMARK    5  A    between atoms: C8_19  and  C9_20 
REMARK    6  A    between atoms: C9_20  and  N5_21 
REMARK    7  A    between atoms: C9_20  and  C10_25 
ROOT
HETATM    1  C1  UNL     1      -2.678   1.426  -1.429  1.00  0.00     0.680 A 
HETATM    2  N2  UNL     1      -3.951   1.356  -0.987  1.00  0.00    -0.155 N 
ATOM      3  H2  UNL     1      -4.630   2.061  -1.275  1.00  0.00     0.187 HD
HETATM    4  C2  UNL     1      -4.326   0.359  -0.168  1.00  0.00     0.279 A 
HETATM    5  O1  UNL     1      -5.523   0.278   0.258  1.00  0.00    -0.266 OA
HETATM    6  C3  UNL     1      -3.370  -0.571   0.194  1.00  0.00     0.145 A 
HETATM    7  C4  UNL     1      -3.718  -1.606   1.033  1.00  0.00     0.269 A 
HETATM    8  O2  UNL     1      -4.911  -1.689   1.460  1.00  0.00    -0.267 OA
HETATM    9  N3  UNL     1      -2.780  -2.495   1.374  1.00  0.00    -0.274 N 
ATOM     10  H3  UNL     1      -3.019  -3.268   1.995  1.00  0.00     0.173 HD
HETATM   11  C5  UNL     1      -1.531  -2.381   0.908  1.00  0.00     0.331 A 
HETATM   12  O3  UNL     1      -0.667  -3.240   1.250  1.00  0.00    -0.246 OA
HETATM   13  N4  UNL     1      -1.125  -1.380   0.074  1.00  0.00    -0.284 N 
HETATM   14  C11 UNL     1      -2.068  -0.482  -0.271  1.00  0.00     0.148 A 
HETATM   15  N7  UNL     1      -1.730   0.533  -1.091  1.00  0.00    -0.175 N 
ATOM     16  H7  UNL     1      -0.778   0.622  -1.447  1.00  0.00     0.186 HD
ENDROOT
BRANCH  13  17
HETATM   17  C6  UNL     1       0.244  -1.314  -0.393  1.00  0.00     0.135 C 
BRANCH  17  18
HETATM   18  C7  UNL     1       1.124  -0.483   0.530  1.00  0.00     0.023 C 
BRANCH  18  19
HETATM   19  C8  UNL     1       2.516  -0.476  -0.041  1.00  0.00     0.043 C 
BRANCH  19  20
HETATM   20  C9  UNL     1       3.516   0.292   0.753  1.00  0.00     0.271 C 
BRANCH  20  21
HETATM   21  N5  UNL     1       4.791   0.162   0.021  1.00  0.00    -0.067 N 
ATOM     22  H53 UNL     1       5.064  -0.805  -0.156  1.00  0.00     0.275 HD
ATOM     23  H52 UNL     1       4.734   0.452  -0.955  1.00  0.00     0.275 HD
ATOM     24  H51 UNL     1       5.476   0.688   0.565  1.00  0.00     0.275 HD
ENDBRANCH  20  21
BRANCH  20  25
HETATM   25  C10 UNL     1       3.264   1.732   0.862  1.00  0.00     0.261 C 
HETATM   26  N6  UNL     1       4.090   2.730   0.302  1.00  0.00    -0.060 NA
HETATM   27  O4  UNL     1       2.252   2.130   1.492  1.00  0.00    -0.275 OA
ENDBRANCH  20  25
ENDBRANCH  19  20
ENDBRANCH  18  19
ENDBRANCH  17  18
ENDBRANCH  13  17
BRANCH   1  28
HETATM   28  N1  UNL     1      -2.303   2.390  -2.224  1.00  0.00    -0.234 N 
ATOM     29  H12 UNL     1      -3.022   3.067  -2.480  1.00  0.00     0.174 HD
ATOM     30  H11 UNL     1      -1.341   2.443  -2.558  1.00  0.00     0.174 HD
ENDBRANCH   1  28
TORSDOF 7
