REMARK  3 active torsions:
REMARK  status: ('A' for Active; 'I' for Inactive)
REMARK    1  A    between atoms: C2_5  and  C3_6 
REMARK    2  A    between atoms: C2_5  and  C9_12 
REMARK    3  A    between atoms: C15_18  and  C16_19 
ROOT
HETATM    1  N1  UNL     1      -0.527  -2.123   3.588  1.00  0.00    -0.063 NA
HETATM    2  C1  UNL     1       0.083  -1.273   2.598  1.00  0.00     0.190 A 
HETATM    3  N2  UNL     1      -0.632  -0.869   1.650  1.00  0.00    -0.345 N 
ATOM      4  H2  UNL     1      -1.603  -1.180   1.657  1.00  0.00     0.163 HD
HETATM    5  C2  UNL     1      -0.241  -0.005   0.534  1.00  0.00     0.103 A 
HETATM    6  C15 UNL     1       1.184   0.409   0.604  1.00  0.00     0.145 A 
HETATM    7  C20 UNL     1       1.927  -0.149   1.793  1.00  0.00     0.109 A 
HETATM    8  N3  UNL     1       3.288   0.233   1.871  1.00  0.00    -0.087 NA
HETATM    9  N4  UNL     1       1.435  -0.896   2.678  1.00  0.00    -0.322 N 
ATOM     10  H4  UNL     1       2.014  -1.226   3.450  1.00  0.00     0.169 HD
ENDROOT
BRANCH   5  11
HETATM   11  C3  UNL     1      -0.630  -0.752  -0.675  1.00  0.00    -0.024 A 
HETATM   12  C4  UNL     1      -0.933  -2.089  -0.614  1.00  0.00     0.010 A 
HETATM   13  C5  UNL     1      -1.303  -2.775  -1.751  1.00  0.00     0.001 A 
HETATM   14  C6  UNL     1      -1.382  -2.156  -2.978  1.00  0.00     0.000 A 
HETATM   15  C7  UNL     1      -1.081  -0.820  -3.049  1.00  0.00     0.001 A 
HETATM   16  C8  UNL     1      -0.707  -0.134  -1.887  1.00  0.00     0.010 A 
ENDBRANCH   5  11
BRANCH   5  17
HETATM   17  C9  UNL     1      -1.177   1.176   0.670  1.00  0.00    -0.024 A 
HETATM   18  C10 UNL     1      -0.864   2.388   0.126  1.00  0.00     0.010 A 
HETATM   19  C11 UNL     1      -1.762   3.448   0.278  1.00  0.00     0.001 A 
HETATM   20  C12 UNL     1      -2.942   3.282   0.961  1.00  0.00     0.000 A 
HETATM   21  C13 UNL     1      -3.280   2.070   1.518  1.00  0.00     0.001 A 
HETATM   22  C14 UNL     1      -2.387   1.035   1.362  1.00  0.00     0.010 A 
ENDBRANCH   5  17
BRANCH   6  23
HETATM   23  C16 UNL     1       1.975   0.204  -0.624  1.00  0.00     0.066 A 
HETATM   24  C17 UNL     1       2.388  -0.988  -1.156  1.00  0.00     0.035 A 
HETATM   25  C18 UNL     1       3.100  -0.706  -2.305  1.00  0.00     0.027 A 
HETATM   26  C19 UNL     1       3.083   0.666  -2.414  1.00  0.00     0.142 A 
HETATM   27  O1  UNL     1       2.419   1.135  -1.415  1.00  0.00    -0.326 OA
ENDBRANCH   6  23
TORSDOF 3
