REMARK  1 active torsions:
REMARK  status: ('A' for Active; 'I' for Inactive)
REMARK    1  A    between atoms: C3_8  and  C4_9 
ROOT
HETATM    1  N1  UNL     1       3.473  -0.230  -1.216  1.00  0.00    -0.195 NA
HETATM    2  C1  UNL     1       2.461  -0.360  -0.709  1.00  0.00     0.087 C 
HETATM    3  C2  UNL     1       1.176  -0.520  -0.041  1.00  0.00     0.225 C 
HETATM    4  N2  UNL     1       1.239  -0.106   1.311  1.00  0.00    -0.320 N 
ATOM      5  H2  UNL     1       2.066  -0.186   1.903  1.00  0.00     0.181 HD
HETATM    6  N3  UNL     1       0.172   0.359   1.672  1.00  0.00    -0.328 N 
ATOM      7  H3  UNL     1       0.001   0.716   2.612  1.00  0.00     0.180 HD
HETATM    8  C3  UNL     1      -0.827   0.350   0.623  1.00  0.00     0.157 C 
HETATM    9  C5  UNL     1       0.121   0.407  -0.593  1.00  0.00     0.160 C 
HETATM   10  C6  UNL     1       0.642   1.744  -0.727  1.00  0.00     0.069 C 
HETATM   11  N5  UNL     1       1.055   2.828  -0.853  1.00  0.00    -0.197 NA
ENDROOT
BRANCH   8  12
HETATM   12  C4  UNL     1      -1.521  -0.964   0.542  1.00  0.00     0.081 C 
HETATM   13  N4  UNL     1      -2.735  -1.093   0.153  1.00  0.00    -0.409 N 
ATOM     14  H42 UNL     1      -3.236  -0.244  -0.110  1.00  0.00     0.155 HD
ATOM     15  H41 UNL     1      -3.211  -1.994   0.097  1.00  0.00     0.155 HD
ENDBRANCH   8  12
TORSDOF 1
