REMARK  3 active torsions:
REMARK  status: ('A' for Active; 'I' for Inactive)
REMARK    1  A    between atoms: C10_11  and  C11_12 
REMARK    2  A    between atoms: C12_13  and  O2_14 
REMARK    3  A    between atoms: O2_14  and  C13_15 
ROOT
HETATM    1  C1  UNL     1      -3.553   0.864  -0.445  1.00  0.00     0.015 C 
HETATM    2  C2  UNL     1      -2.461   1.087   0.213  1.00  0.00    -0.077 C 
HETATM    3  C3  UNL     1      -2.623   2.112   1.321  1.00  0.00     0.017 C 
HETATM    4  C4  UNL     1      -3.634   3.118   0.815  1.00  0.00     0.015 C 
HETATM    5  C5  UNL     1      -1.368   2.830   1.680  1.00  0.00     0.087 C 
HETATM    6  C6  UNL     1      -0.080   2.185   1.599  1.00  0.00     0.136 C 
HETATM    7  O1  UNL     1       0.844   2.988   1.556  1.00  0.00    -0.297 OA
HETATM    8  C7  UNL     1       0.481   0.778   1.550  1.00  0.00     0.021 C 
HETATM    9  C8  UNL     1       1.256   0.455   2.791  1.00  0.00     0.024 C 
HETATM   10  C9  UNL     1       1.269   0.492   0.274  1.00  0.00     0.055 C 
HETATM   11  C10 UNL     1       0.690  -0.515  -0.644  1.00  0.00    -0.052 C 
HETATM   12  C15 UNL     1      -0.678  -0.520  -0.820  1.00  0.00    -0.069 C 
HETATM   13  C16 UNL     1      -1.211  -1.516  -1.724  1.00  0.00     0.044 C 
HETATM   14  C17 UNL     1      -1.233   0.496  -0.012  1.00  0.00     0.044 C 
HETATM   15  C18 UNL     1      -0.772  -0.005   1.390  1.00  0.00     0.030 C 
ENDROOT
BRANCH  11  16
HETATM   16  C11 UNL     1       1.483  -1.523  -1.387  1.00  0.00     0.032 C 
HETATM   17  C12 UNL     1       2.773  -1.545  -1.257  1.00  0.00     0.146 C 
BRANCH  17  18
HETATM   18  O2  UNL     1       3.638  -2.404  -1.867  1.00  0.00    -0.291 OA
BRANCH  18  19
HETATM   19  C13 UNL     1       3.448  -3.416  -2.722  1.00  0.00     0.259 C 
HETATM   20  C14 UNL     1       4.645  -4.196  -3.229  1.00  0.00     0.126 C 
HETATM   21  O3  UNL     1       2.293  -3.716  -3.100  1.00  0.00    -0.265 OA
ENDBRANCH  18  19
ENDBRANCH  17  18
ENDBRANCH  11  16
TORSDOF 3
