REMARK  4 active torsions:
REMARK  status: ('A' for Active; 'I' for Inactive)
REMARK    1  A    between atoms: C2_2  and  C3_3 
REMARK    2  A    between atoms: C3_3  and  C4_4 
REMARK    3  A    between atoms: C4_4  and  C5_5 
REMARK    4  A    between atoms: N1_12  and  C10_13 
ROOT
HETATM    1  C3  UNL     1      -1.753   0.677   0.988  1.00  0.00     0.154 A 
HETATM    2  O1  UNL     1      -1.245   1.908   0.547  1.00  0.00    -0.282 OA
HETATM    3  C9  UNL     1       0.088   1.792   0.178  1.00  0.00     0.375 A 
HETATM    4  O2  UNL     1       0.781   2.733  -0.287  1.00  0.00    -0.237 OA
HETATM    5  N1  UNL     1       0.557   0.468   0.399  1.00  0.00    -0.229 N 
HETATM    6  C17 UNL     1      -0.587  -0.227   0.932  1.00  0.00     0.268 A 
HETATM    7  O3  UNL     1      -0.502  -1.432   1.273  1.00  0.00    -0.269 OA
ENDROOT
BRANCH   1   8
HETATM    8  C2  UNL     1      -2.124   0.906   2.471  1.00  0.00     0.044 C 
HETATM    9  C1  UNL     1      -0.963   1.386   3.261  1.00  0.00     0.009 C 
ENDBRANCH   1   8
BRANCH   1  10
HETATM   10  C4  UNL     1      -2.984   0.212   0.349  1.00  0.00     0.057 C 
BRANCH  10  11
HETATM   11  C5  UNL     1      -3.079  -0.117  -1.059  1.00  0.00    -0.048 C 
HETATM   12  C6  UNL     1      -2.770   0.953  -2.060  1.00  0.00     0.014 C 
HETATM   13  C7  UNL     1      -2.290  -1.346  -1.465  1.00  0.00     0.014 C 
HETATM   14  C8  UNL     1      -4.542  -0.523  -1.366  1.00  0.00     0.014 C 
ENDBRANCH  10  11
ENDBRANCH   1  10
BRANCH   5  15
HETATM   15  C10 UNL     1       1.858  -0.024   0.142  1.00  0.00     0.021 C 
HETATM   16  C11 UNL     1       2.818   0.615   0.830  1.00  0.00    -0.001 C 
HETATM   17  C12 UNL     1       4.271   0.343   0.786  1.00  0.00     0.029 C 
HETATM   18  C13 UNL     1       4.711   0.152  -0.667  1.00  0.00     0.004 C 
HETATM   19  C14 UNL     1       4.524  -1.259  -1.120  1.00  0.00     0.001 C 
HETATM   20  C15 UNL     1       3.289  -1.905  -0.567  1.00  0.00     0.006 C 
HETATM   21  C16 UNL     1       2.034  -1.136  -0.808  1.00  0.00     0.057 C 
ENDBRANCH   5  15
TORSDOF 4
