REMARK  8 active torsions:
REMARK  status: ('A' for Active; 'I' for Inactive)
REMARK    1  A    between atoms: O1_2  and  C2_3 
REMARK    2  A    between atoms: C5_6  and  N1_7 
REMARK    3  A    between atoms: C6_10  and  C7_11 
REMARK    4  A    between atoms: C12_16  and  N3_17 
REMARK       I    between atoms: N3_17  and  C13_18 
REMARK    5  A    between atoms: C13_18  and  C14_20 
REMARK    6  A    between atoms: C17_25  and  O3_26 
REMARK    7  A    between atoms: C21_30  and  O4_31 
REMARK    8  A    between atoms: C25_35  and  O5_36 
ROOT
HETATM    1  N1  UNL     1      -1.753   1.581  -0.409  1.00  0.00    -0.228 N 
HETATM    2  N2  UNL     1      -2.656   2.530  -0.393  1.00  0.00    -0.294 N 
ATOM      3  H2  UNL     1      -3.647   2.387  -0.586  1.00  0.00     0.187 HD
HETATM    4  C6  UNL     1      -2.107   3.711  -0.091  1.00  0.00     0.040 A 
HETATM    5  C10 UNL     1      -0.784   3.458   0.087  1.00  0.00     0.023 A 
HETATM    6  C11 UNL     1       0.203   4.490   0.429  1.00  0.00     0.056 C 
HETATM    7  C12 UNL     1      -0.508   2.093  -0.108  1.00  0.00     0.212 A 
ENDROOT
BRANCH   7   8
HETATM    8  N3  UNL     1       0.502   1.484  -0.040  1.00  0.00    -0.345 NA
HETATM    9  C13 UNL     1       1.735   1.020   0.090  1.00  0.00     0.330 C 
HETATM   10  O2  UNL     1       2.686   1.869  -0.115  1.00  0.00    -0.251 OA
BRANCH   9  11
HETATM   11  C14 UNL     1       2.007  -0.380   0.444  1.00  0.00     0.077 A 
HETATM   12  C15 UNL     1       1.077  -1.224   1.044  1.00  0.00     0.107 A 
HETATM   13  N4  UNL     1       1.639  -2.416   1.278  1.00  0.00    -0.362 N 
HETATM   14  C16 UNL     1       2.906  -2.367   0.846  1.00  0.00     0.080 A 
ATOM     15  H4  UNL     1       1.183  -3.220   1.709  1.00  0.00     0.165 HD
HETATM   16  C17 UNL     1       3.884  -3.336   0.853  1.00  0.00     0.096 A 
HETATM   17  C23 UNL     1       3.149  -1.082   0.315  1.00  0.00     0.045 A 
HETATM   18  C19 UNL     1       5.115  -3.024   0.326  1.00  0.00     0.042 A 
HETATM   19  C20 UNL     1       5.364  -1.774  -0.197  1.00  0.00     0.040 A 
HETATM   20  C21 UNL     1       4.380  -0.782  -0.209  1.00  0.00     0.082 A 
BRANCH  16  21
HETATM   21  O3  UNL     1       3.595  -4.592   1.392  1.00  0.00    -0.354 OA
HETATM   22  C18 UNL     1       4.490  -5.663   1.463  1.00  0.00     0.210 C 
ENDBRANCH  16  21
BRANCH  20  23
HETATM   23  O4  UNL     1       4.684   0.465  -0.753  1.00  0.00    -0.355 OA
HETATM   24  C22 UNL     1       5.975   0.707  -1.280  1.00  0.00     0.210 C 
ENDBRANCH  20  23
ENDBRANCH   9  11
ENDBRANCH   7   8
BRANCH   1  25
HETATM   25  C5  UNL     1      -2.050   0.230  -0.708  1.00  0.00     0.062 A 
HETATM   26  C4  UNL     1      -1.612  -0.383  -1.858  1.00  0.00     0.034 A 
HETATM   27  C3  UNL     1      -1.939  -1.720  -2.116  1.00  0.00     0.042 A 
HETATM   28  C2  UNL     1      -2.702  -2.435  -1.221  1.00  0.00     0.101 A 
HETATM   29  C25 UNL     1      -3.147  -1.828  -0.062  1.00  0.00     0.103 A 
HETATM   30  C24 UNL     1      -2.811  -0.515   0.165  1.00  0.00     0.071 A 
BRANCH  28  31
HETATM   31  O1  UNL     1      -3.039  -3.778  -1.465  1.00  0.00    -0.353 OA
HETATM   32  C1  UNL     1      -2.558  -4.368  -2.672  1.00  0.00     0.210 C 
ENDBRANCH  28  31
BRANCH  29  33
HETATM   33  O5  UNL     1      -3.915  -2.589   0.819  1.00  0.00    -0.353 OA
HETATM   34  C26 UNL     1      -4.419  -2.070   2.034  1.00  0.00     0.210 C 
ENDBRANCH  29  33
ENDBRANCH   1  25
BRANCH   4  35
HETATM   35  C7  UNL     1      -2.856   4.983   0.006  1.00  0.00     0.029 C 
HETATM   36  C8  UNL     1      -4.326   4.689  -0.194  1.00  0.00     0.016 C 
HETATM   37  C9  UNL     1      -2.690   5.709   1.296  1.00  0.00     0.016 C 
ENDBRANCH   4  35
TORSDOF 8
