REMARK  18 active torsions:
REMARK  status: ('A' for Active; 'I' for Inactive)
REMARK    1  A    between atoms: N1_2  and  N2_4 
REMARK       I    between atoms: N2_4  and  C2_6 
REMARK       I    between atoms: N4_8  and  C3_10 
REMARK    2  A    between atoms: C3_10  and  C4_12 
REMARK    3  A    between atoms: C5_15  and  C6_16 
REMARK    4  A    between atoms: C6_16  and  C7_17 
REMARK    5  A    between atoms: C7_17  and  C8_18 
REMARK    6  A    between atoms: C8_18  and  C9_19 
REMARK    7  A    between atoms: C9_19  and  N6_20 
REMARK    8  A    between atoms: C11_22  and  C12_23 
REMARK    9  A    between atoms: C12_23  and  C13_24 
REMARK   10  A    between atoms: C13_24  and  C14_25 
REMARK   11  A    between atoms: C14_25  and  C15_26 
REMARK   12  A    between atoms: C15_26  and  C16_27 
REMARK   13  A    between atoms: C16_27  and  C17_28 
REMARK   14  A    between atoms: N8_31  and  C18_32 
REMARK   15  A    between atoms: C18_32  and  C19_33 
REMARK   16  A    between atoms: C19_33  and  O2_34 
REMARK   17  A    between atoms: C21_37  and  O3_38 
REMARK   18  A    between atoms: C22_42  and  N10_43 
ROOT
HETATM    1  N6  UNL     1       1.318   0.301   1.168  1.00  0.00    -0.284 N 
HETATM    2  C10 UNL     1       1.009   0.464  -0.128  1.00  0.00     0.138 A 
HETATM    3  C11 UNL     1      -0.248   1.021  -0.235  1.00  0.00     0.044 A 
HETATM    4  N12 UNL     1      -0.665   1.178   1.020  1.00  0.00    -0.289 N 
ATOM      5  H12 UNL     1      -1.565   1.568   1.301  1.00  0.00     0.188 HD
HETATM    6  N13 UNL     1       0.290   0.740   1.857  1.00  0.00    -0.240 N 
ATOM      7  H13 UNL     1       0.226   0.747   2.875  1.00  0.00     0.208 HD
ENDROOT
BRANCH   3   8
HETATM    8  C12 UNL     1      -0.970   1.384  -1.460  1.00  0.00     0.060 C 
BRANCH   8   9
HETATM    9  C13 UNL     1      -2.354   1.877  -1.265  1.00  0.00     0.006 C 
BRANCH   9  10
HETATM   10  C14 UNL     1      -3.291   0.880  -0.610  1.00  0.00     0.001 C 
BRANCH  10  11
HETATM   11  C15 UNL     1      -3.407  -0.379  -1.376  1.00  0.00     0.006 C 
BRANCH  11  12
HETATM   12  C16 UNL     1      -4.288  -1.449  -0.832  1.00  0.00     0.061 C 
BRANCH  12  13
HETATM   13  C17 UNL     1      -5.690  -0.972  -0.706  1.00  0.00     0.055 A 
HETATM   14  N7  UNL     1      -6.668  -1.094  -1.643  1.00  0.00    -0.300 N 
HETATM   15  N8  UNL     1      -7.792  -0.534  -1.256  1.00  0.00    -0.284 N 
ATOM     16  H7  UNL     1      -6.544  -1.564  -2.540  1.00  0.00     0.187 HD
HETATM   17  C20 UNL     1      -7.578  -0.023  -0.036  1.00  0.00     0.131 A 
HETATM   18  C21 UNL     1      -8.351   0.656   0.877  1.00  0.00     0.186 A 
HETATM   19  C23 UNL     1      -6.269  -0.281   0.339  1.00  0.00     0.105 A 
HETATM   20  N9  UNL     1      -7.893   1.056   2.071  1.00  0.00    -0.169 N 
HETATM   21  C22 UNL     1      -6.622   0.793   2.412  1.00  0.00     0.678 A 
ATOM     22  H9  UNL     1      -8.505   1.556   2.715  1.00  0.00     0.186 HD
HETATM   23  N11 UNL     1      -5.847   0.137   1.547  1.00  0.00    -0.188 N 
ATOM     24  H11 UNL     1      -4.883  -0.058   1.815  1.00  0.00     0.184 HD
BRANCH  15  25
HETATM   25  C18 UNL     1      -9.039  -0.487  -2.031  1.00  0.00     0.175 C 
BRANCH  25  26
HETATM   26  C19 UNL     1      -9.069   0.764  -2.894  1.00  0.00     0.185 C 
BRANCH  26  27
HETATM   27  O2  UNL     1      -7.961   0.694  -3.744  1.00  0.00    -0.399 OA
ATOM     28  H2  UNL     1      -7.980   1.476  -4.283  1.00  0.00     0.209 HD
ENDBRANCH  26  27
ENDBRANCH  25  26
ENDBRANCH  15  25
BRANCH  18  29
HETATM   29  O3  UNL     1      -9.667   0.931   0.529  1.00  0.00    -0.344 OA
ATOM     30  H3  UNL     1     -10.201   1.400   1.160  1.00  0.00     0.219 HD
ENDBRANCH  18  29
BRANCH  21  31
HETATM   31  N10 UNL     1      -6.163   1.180   3.582  1.00  0.00    -0.234 N 
ATOM     32 2H10 UNL     1      -6.756   1.682   4.243  1.00  0.00     0.174 HD
ATOM     33 1H10 UNL     1      -5.197   0.980   3.841  1.00  0.00     0.174 HD
ENDBRANCH  21  31
ENDBRANCH  12  13
ENDBRANCH  11  12
ENDBRANCH  10  11
ENDBRANCH   9  10
ENDBRANCH   8   9
ENDBRANCH   3   8
BRANCH   1  34
HETATM   34  C9  UNL     1       2.582  -0.280   1.695  1.00  0.00     0.176 C 
BRANCH  34  35
HETATM   35  C8  UNL     1       2.332  -1.722   1.831  1.00  0.00    -0.009 C 
BRANCH  35  36
HETATM   36  C7  UNL     1       3.341  -2.647   2.328  1.00  0.00    -0.022 C 
BRANCH  36  37
HETATM   37  C6  UNL     1       4.591  -2.962   1.647  1.00  0.00     0.104 C 
BRANCH  37  38
HETATM   38  C5  UNL     1       5.536  -1.881   1.371  1.00  0.00     0.101 A 
HETATM   39  N5  UNL     1       5.721  -1.162   0.240  1.00  0.00    -0.325 N 
HETATM   40  C4  UNL     1       6.719  -0.265   0.465  1.00  0.00     0.191 A 
ATOM     41  H5  UNL     1       5.202  -1.273  -0.631  1.00  0.00     0.169 HD
HETATM   42  N15 UNL     1       7.154  -0.418   1.714  1.00  0.00    -0.280 N 
HETATM   43  N14 UNL     1       6.449  -1.386   2.265  1.00  0.00    -0.287 N 
ATOM     44  H15 UNL     1       7.898   0.117   2.163  1.00  0.00     0.189 HD
ATOM     45  H14 UNL     1       6.566  -1.720   3.222  1.00  0.00     0.188 HD
BRANCH  40  46
HETATM   46  C3  UNL     1       7.238   0.710  -0.495  1.00  0.00     0.293 C 
HETATM   47  N4  UNL     1       8.285   1.569  -0.090  1.00  0.00    -0.293 N 
HETATM   48  C2  UNL     1       9.502   1.185  -0.208  1.00  0.00     0.210 C 
ATOM     49  H4  UNL     1       8.073   2.490   0.294  1.00  0.00     0.172 HD
HETATM   50  N2  UNL     1      10.603   2.019   0.189  1.00  0.00    -0.275 N 
HETATM   51  N3  UNL     1       9.775  -0.098  -0.744  1.00  0.00    -0.062 NA
ATOM     52  H2  UNL     1      10.624   2.994  -0.111  1.00  0.00     0.189 HD
HETATM   53  O1  UNL     1       6.742   0.764  -1.663  1.00  0.00    -0.264 OA
BRANCH  50  54
HETATM   54  N1  UNL     1      11.645   1.525   0.976  1.00  0.00    -0.320 N 
HETATM   55  C1  UNL     1      12.706   1.003   0.518  1.00  0.00     0.139 C 
ATOM     56  H1  UNL     1      11.546   1.588   1.989  1.00  0.00     0.185 HD
ENDBRANCH  50  54
ENDBRANCH  40  46
ENDBRANCH  37  38
ENDBRANCH  36  37
ENDBRANCH  35  36
ENDBRANCH  34  35
ENDBRANCH   1  34
TORSDOF 18
