REMARK  2 active torsions:
REMARK  status: ('A' for Active; 'I' for Inactive)
REMARK    1  A    between atoms: C2_2  and  C3_3 
REMARK    2  A    between atoms: C6_8  and  C7_9 
ROOT
HETATM    1  C1  UNL     1       2.315  -1.406   0.171  1.00  0.00     0.038 C 
HETATM    2  C2  UNL     1       1.481  -0.179   0.103  1.00  0.00     0.095 C 
HETATM    3  S1  UNL     1       0.225  -0.117   1.452  1.00  0.00    -0.121 SA
HETATM    4  C4  UNL     1      -1.100   0.548   0.383  1.00  0.00     0.094 A 
HETATM    5  C5  UNL     1      -1.109   2.061   0.260  1.00  0.00     0.047 C 
HETATM    6  C6  UNL     1      -2.106  -0.203  -0.258  1.00  0.00     0.201 A 
HETATM    7  N1  UNL     1      -0.748  -0.233  -0.796  1.00  0.00    -0.214 NA
HETATM    8  C8  UNL     1       0.621  -0.096  -1.102  1.00  0.00     0.221 C 
HETATM    9  O3  UNL     1       1.085   0.076  -2.246  1.00  0.00    -0.278 OA
ENDROOT
BRANCH   2  10
HETATM   10  C3  UNL     1       2.324   1.092   0.163  1.00  0.00     0.144 C 
HETATM   11 CL1  UNL     1       3.462   1.123  -1.204  1.00  0.00    -0.128 Cl
ENDBRANCH   2  10
BRANCH   6  12
HETATM   12  C7  UNL     1      -2.625  -1.457   0.354  1.00  0.00     0.194 C 
HETATM   13  O1  UNL     1      -1.833  -2.101   1.087  1.00  0.00    -0.647 OA
HETATM   14  O2  UNL     1      -3.921  -1.907   0.135  1.00  0.00    -0.647 OA
ENDBRANCH   6  12
TORSDOF 2
