REMARK  10 active torsions:
REMARK  status: ('A' for Active; 'I' for Inactive)
REMARK    1  A    between atoms: C2_2  and  C3_4 
REMARK    2  A    between atoms: C3_4  and  O1_5 
REMARK    3  A    between atoms: C3_4  and  C4_7 
REMARK    4  A    between atoms: C3_4  and  C7_12 
REMARK    5  A    between atoms: C5_8  and  O2_10 
REMARK    6  A    between atoms: C7_12  and  C8_13 
REMARK    7  A    between atoms: C8_13  and  C9_14 
REMARK    8  A    between atoms: C10_15  and  C11_16 
REMARK    9  A    between atoms: C11_16  and  O3_17 
REMARK   10  A    between atoms: N1_19  and  O4_21 
ROOT
HETATM    1  C9  UNL     1      -1.389  -0.838  -0.534  1.00  0.00     0.013 C 
HETATM    2  C10 UNL     1      -1.701   0.116  -1.625  1.00  0.00     0.089 C 
HETATM    3  C12 UNL     1      -3.195  -0.107  -1.769  1.00  0.00    -0.017 C 
HETATM    4  C13 UNL     1      -3.689  -0.717  -0.724  1.00  0.00    -0.021 C 
HETATM    5  C14 UNL     1      -2.607  -1.003   0.292  1.00  0.00    -0.026 C 
HETATM    6  C15 UNL     1      -2.779  -0.210   1.504  1.00  0.00     0.019 C 
HETATM    7  C16 UNL     1      -2.830  -2.482   0.658  1.00  0.00     0.019 C 
ENDROOT
BRANCH   1   8
HETATM    8  C8  UNL     1      -0.107  -0.681   0.184  1.00  0.00     0.010 C 
BRANCH   8   9
HETATM    9  C7  UNL     1       1.099  -0.824  -0.711  1.00  0.00     0.048 C 
BRANCH   9  10
HETATM   10  C3  UNL     1       2.411  -0.653   0.018  1.00  0.00     0.111 C 
BRANCH  10  11
HETATM   11  C2  UNL     1       3.444  -0.833  -1.035  1.00  0.00     0.021 C 
HETATM   12  C1  UNL     1       3.516   0.124  -2.149  1.00  0.00     0.060 C 
HETATM   13  S1  UNL     1       4.340  -1.919  -0.949  1.00  0.00    -0.086 SA
ENDBRANCH  10  11
BRANCH  10  14
HETATM   14  O1  UNL     1       2.514  -1.715   0.915  1.00  0.00    -0.380 OA
ATOM     15  H1  UNL     1       1.854  -1.600   1.588  1.00  0.00     0.211 HD
ENDBRANCH  10  14
BRANCH  10  16
HETATM   16  C4  UNL     1       2.526   0.616   0.717  1.00  0.00     0.047 C 
HETATM   17  C5  UNL     1       2.365   0.716   2.012  1.00  0.00     0.038 C 
HETATM   18  C6  UNL     1       2.484   2.023   2.732  1.00  0.00     0.076 C 
BRANCH  17  19
HETATM   19  O2  UNL     1       2.077  -0.402   2.759  1.00  0.00    -0.366 OA
ATOM     20  H2  UNL     1       1.960  -0.329   3.699  1.00  0.00     0.217 HD
ENDBRANCH  17  19
ENDBRANCH  10  16
ENDBRANCH   9  10
ENDBRANCH   8   9
ENDBRANCH   1   8
BRANCH   2  21
HETATM   21  C11 UNL     1      -1.497   1.532  -1.386  1.00  0.00     0.143 C 
HETATM   22  N1  UNL     1      -0.730   2.209  -2.157  1.00  0.00    -0.251 N 
ATOM     23  H1  UNL     1      -0.283   1.712  -2.927  1.00  0.00     0.196 HD
BRANCH  21  24
HETATM   24  O3  UNL     1      -2.092   2.222  -0.353  1.00  0.00    -0.348 OA
ATOM     25  H3  UNL     1      -1.958   3.149  -0.196  1.00  0.00     0.219 HD
ENDBRANCH  21  24
BRANCH  22  26
HETATM   26  O4  UNL     1      -0.465   3.531  -2.033  1.00  0.00    -0.288 OA
ATOM     27  H4  UNL     1       0.104   4.033  -2.605  1.00  0.00     0.244 HD
ENDBRANCH  22  26
ENDBRANCH   2  21
TORSDOF 10
