REMARK  14 active torsions:
REMARK  status: ('A' for Active; 'I' for Inactive)
REMARK    1  A    between atoms: C2_2  and  O1_3 
REMARK    2  A    between atoms: C2_2  and  C3_5 
REMARK    3  A    between atoms: C5_9  and  N2_10 
REMARK    4  A    between atoms: N2_10  and  C6_11 
REMARK    5  A    between atoms: C6_11  and  C7_12 
REMARK    6  A    between atoms: C7_12  and  C8_13 
REMARK    7  A    between atoms: C8_13  and  C9_14 
REMARK    8  A    between atoms: C9_14  and  C10_15 
REMARK    9  A    between atoms: C10_15  and  C11_16 
REMARK   10  A    between atoms: C11_16  and  N3_17 
REMARK   11  A    between atoms: N3_17  and  C13_19 
REMARK   12  A    between atoms: C13_19  and  C14_20 
REMARK   13  A    between atoms: C14_20  and  C15_21 
REMARK   14  A    between atoms: C15_21  and  N4_22 
ROOT
HETATM    1  C7  UNL     1       1.539   1.369  -1.764  1.00  0.00     0.033 C 
ENDROOT
BRANCH   1   2
HETATM    2  C6  UNL     1       2.299   2.102  -0.620  1.00  0.00     0.222 C 
BRANCH   2   3
HETATM    3  N2  UNL     1       3.540   1.632  -0.428  1.00  0.00    -0.416 NA
BRANCH   3   4
HETATM    4  C5  UNL     1       4.658   1.197  -0.249  1.00  0.00     0.245 C 
HETATM    5  N1  UNL     1       5.912   1.773  -0.726  1.00  0.00    -0.349 N 
HETATM    6  C4  UNL     1       6.938   1.347   0.176  1.00  0.00     0.151 C 
ATOM      7  H1  UNL     1       6.034   2.367  -1.547  1.00  0.00     0.163 HD
HETATM    8  C3  UNL     1       6.391   0.207   0.960  1.00  0.00     0.131 C 
HETATM    9  N7  UNL     1       5.083  -0.010   0.440  1.00  0.00    -0.342 N 
ATOM     10  H7  UNL     1       4.537  -0.867   0.535  1.00  0.00     0.164 HD
BRANCH   8  11
HETATM   11  C2  UNL     1       7.264  -1.032   0.863  1.00  0.00     0.138 C 
HETATM   12  C1  UNL     1       7.415  -1.497  -0.553  1.00  0.00     0.041 C 
BRANCH  11  13
HETATM   13  O1  UNL     1       6.625  -2.032   1.607  1.00  0.00    -0.394 OA
ATOM     14  H1  UNL     1       6.529  -1.737   2.505  1.00  0.00     0.210 HD
ENDBRANCH  11  13
ENDBRANCH   8  11
ENDBRANCH   3   4
ENDBRANCH   2   3
ENDBRANCH   1   2
BRANCH   1  15
HETATM   15  C8  UNL     1       1.423  -0.076  -1.440  1.00  0.00     0.003 C 
BRANCH  15  16
HETATM   16  C9  UNL     1       0.637  -0.395  -0.199  1.00  0.00     0.002 C 
BRANCH  16  17
HETATM   17  C10 UNL     1      -0.769   0.111  -0.422  1.00  0.00     0.020 C 
BRANCH  17  18
HETATM   18  C11 UNL     1      -1.670  -0.194   0.769  1.00  0.00     0.121 C 
BRANCH  18  19
HETATM   19  N3  UNL     1      -2.985   0.271   0.504  1.00  0.00    -0.398 N 
HETATM   20  C12 UNL     1      -3.197   1.649   0.447  1.00  0.00     0.148 C 
BRANCH  19  21
HETATM   21  C13 UNL     1      -4.002  -0.603   0.891  1.00  0.00     0.059 C 
BRANCH  21  22
HETATM   22  C14 UNL     1      -5.416  -0.156   0.594  1.00  0.00     0.064 C 
BRANCH  22  23
HETATM   23  C15 UNL     1      -6.306  -1.298   1.088  1.00  0.00     0.127 C 
BRANCH  23  24
HETATM   24  N4  UNL     1      -7.693  -1.079   0.899  1.00  0.00    -0.367 N 
HETATM   25  C16 UNL     1      -8.370  -1.041  -0.172  1.00  0.00     0.196 C 
HETATM   26  N5  UNL     1      -9.786  -0.794  -0.022  1.00  0.00    -0.067 NA
HETATM   27  N6  UNL     1      -7.871  -1.215  -1.486  1.00  0.00    -0.067 NA
ATOM     28  H4  UNL     1      -8.228  -0.929   1.754  1.00  0.00     0.161 HD
ENDBRANCH  23  24
ENDBRANCH  22  23
ENDBRANCH  21  22
ENDBRANCH  19  21
ENDBRANCH  18  19
ENDBRANCH  17  18
ENDBRANCH  16  17
ENDBRANCH  15  16
ENDBRANCH   1  15
TORSDOF 14
