REMARK  13 active torsions:
REMARK  status: ('A' for Active; 'I' for Inactive)
REMARK    1  A    between atoms: O1_2  and  C2_3 
REMARK    2  A    between atoms: C2_3  and  C3_4 
REMARK    3  A    between atoms: C7_10  and  N2_11 
REMARK    4  A    between atoms: N2_11  and  C8_13 
REMARK    5  A    between atoms: C8_13  and  C9_14 
REMARK    6  A    between atoms: C9_14  and  C10_15 
REMARK    7  A    between atoms: C10_15  and  N3_16 
REMARK    8  A    between atoms: N3_16  and  C11_18 
REMARK    9  A    between atoms: C11_18  and  C12_19 
REMARK   10  A    between atoms: C12_19  and  N4_20 
REMARK   11  A    between atoms: N4_20  and  C13_23 
REMARK   12  A    between atoms: C13_23  and  C14_24 
REMARK   13  A    between atoms: C14_24  and  N5_25 
REMARK       I    between atoms: N5_25  and  C15_27 
ROOT
HETATM    1  C9  UNL     1      -1.357   0.799   1.662  1.00  0.00     0.064 C 
ENDROOT
BRANCH   1   2
HETATM    2  C8  UNL     1       0.101   1.215   1.504  1.00  0.00     0.143 C 
BRANCH   2   3
HETATM    3  N2  UNL     1       0.686   0.694   0.293  1.00  0.00    -0.226 N 
ATOM      4  H2  UNL     1       0.114   0.517  -0.533  1.00  0.00     0.177 HD
BRANCH   3   5
HETATM    5  C7  UNL     1       1.974   0.454   0.284  1.00  0.00     0.679 A 
HETATM    6  N1  UNL     1       2.867   0.628   1.273  1.00  0.00    -0.190 N 
HETATM    7  C6  UNL     1       4.103   0.265   0.871  1.00  0.00     0.076 A 
ATOM      8  H1  UNL     1       2.641   0.986   2.201  1.00  0.00     0.184 HD
HETATM    9  C5  UNL     1       5.319   0.263   1.522  1.00  0.00     0.033 A 
HETATM   10  C16 UNL     1       3.987  -0.160  -0.441  1.00  0.00     0.077 A 
HETATM   11  C4  UNL     1       6.452  -0.169   0.860  1.00  0.00     0.012 A 
HETATM   12  C3  UNL     1       6.320  -0.595  -0.464  1.00  0.00    -0.032 A 
HETATM   13  C17 UNL     1       5.108  -0.595  -1.116  1.00  0.00     0.041 A 
HETATM   14  N8  UNL     1       2.689  -0.031  -0.760  1.00  0.00    -0.190 N 
ATOM     15  H8  UNL     1       2.293  -0.267  -1.670  1.00  0.00     0.184 HD
BRANCH  12  16
HETATM   16  C2  UNL     1       7.536  -1.064  -1.164  1.00  0.00     0.205 C 
BRANCH  16  17
HETATM   17  O1  UNL     1       8.400  -0.018  -1.359  1.00  0.00    -0.391 OA
HETATM   18  C1  UNL     1       7.795   0.954  -2.128  1.00  0.00     0.201 C 
ENDBRANCH  16  17
ENDBRANCH  12  16
ENDBRANCH   3   5
ENDBRANCH   2   3
ENDBRANCH   1   2
BRANCH   1  19
HETATM   19  C10 UNL     1      -1.459  -0.712   1.709  1.00  0.00     0.057 C 
BRANCH  19  20
HETATM   20  N3  UNL     1      -1.006  -1.395   0.574  1.00  0.00    -0.401 N 
ATOM     21  H3  UNL     1      -0.149  -1.947   0.599  1.00  0.00     0.158 HD
BRANCH  20  22
HETATM   22  C11 UNL     1      -1.777  -1.294  -0.610  1.00  0.00     0.146 C 
BRANCH  22  23
HETATM   23  C12 UNL     1      -3.089  -1.993  -0.648  1.00  0.00     0.251 C 
BRANCH  23  24
HETATM   24  N4  UNL     1      -4.087  -1.566   0.275  1.00  0.00    -0.072 N 
ATOM     25  H42 UNL     1      -4.827  -2.265   0.345  1.00  0.00     0.277 HD
ATOM     26  H41 UNL     1      -3.725  -1.597   1.228  1.00  0.00     0.277 HD
BRANCH  24  27
HETATM   27  C13 UNL     1      -4.642  -0.283  -0.002  1.00  0.00     0.252 C 
BRANCH  27  28
HETATM   28  C14 UNL     1      -5.507  -0.260  -1.269  1.00  0.00     0.150 C 
BRANCH  28  29
HETATM   29  N5  UNL     1      -5.989   1.127  -1.384  1.00  0.00    -0.363 N 
HETATM   30  C15 UNL     1      -6.912   1.671  -0.454  1.00  0.00     0.181 C 
HETATM   31  N6  UNL     1      -6.958   2.933  -0.258  1.00  0.00    -0.374 N 
HETATM   32  N7  UNL     1      -7.796   0.789   0.268  1.00  0.00    -0.064 NA
ATOM     33  H62 UNL     1      -6.333   3.557  -0.769  1.00  0.00     0.158 HD
ATOM     34  H61 UNL     1      -7.622   3.324   0.411  1.00  0.00     0.158 HD
ATOM     35  H5  UNL     1      -5.651   1.710  -2.150  1.00  0.00     0.162 HD
ENDBRANCH  28  29
ENDBRANCH  27  28
ENDBRANCH  24  27
ENDBRANCH  23  24
ENDBRANCH  22  23
ENDBRANCH  20  22
ENDBRANCH  19  20
ENDBRANCH   1  19
TORSDOF 13
