REMARK  3 active torsions:
REMARK  status: ('A' for Active; 'I' for Inactive)
REMARK    1  A    between atoms: N2_4  and  C1_6 
REMARK    2  A    between atoms: C1_6  and  C2_7 
REMARK    3  A    between atoms: C1_6  and  C3_9 
ROOT
HETATM    1  N1  UNL     1       2.394   0.063   0.721  1.00  0.00    -0.349 N 
ATOM      2  H11 UNL     1       3.215  -0.439   1.059  1.00  0.00     0.176 HD
ATOM      3  H12 UNL     1       2.337   1.079   0.786  1.00  0.00     0.176 HD
HETATM    4  N2  UNL     1       1.455  -0.555   0.228  1.00  0.00    -0.336 N 
ATOM      5  H2  UNL     1       1.496  -1.572   0.156  1.00  0.00     0.180 HD
ENDROOT
BRANCH   4   6
HETATM    6  C1  UNL     1       0.312   0.144  -0.242  1.00  0.00     0.122 C 
BRANCH   6   7
HETATM    7  C2  UNL     1      -0.721  -0.799  -0.826  1.00  0.00     0.142 C 
HETATM    8 CL1  UNL     1      -1.289  -1.977   0.361  1.00  0.00    -0.128 Cl
ENDBRANCH   6   7
BRANCH   6   9
HETATM    9  C3  UNL     1      -0.294   1.077   0.773  1.00  0.00     0.113 C 
HETATM   10 BR1  UNL     1      -1.832   1.929  -0.056  1.00  0.00    -0.094 Br
ENDBRANCH   6   9
ENDBRANCH   4   6
TORSDOF 3
