REMARK  4 active torsions:
REMARK  status: ('A' for Active; 'I' for Inactive)
REMARK    1  A    between atoms: C4_4  and  N1_5 
REMARK    2  A    between atoms: C7_8  and  C8_9 
REMARK    3  A    between atoms: C8_9  and  C9_10 
REMARK    4  A    between atoms: C12_15  and  C13_16 
ROOT
HETATM    1  N1  UNL     1      -0.345   0.224  -0.570  1.00  0.00     0.093 N 
HETATM    2  C5  UNL     1       0.140   1.446   0.009  1.00  0.00     0.273 C 
HETATM    3  C6  UNL     1       1.496   1.330   0.621  1.00  0.00     0.035 C 
HETATM    4  C7  UNL     1       2.492   0.588  -0.238  1.00  0.00    -0.006 C 
HETATM    5  C14 UNL     1       1.857  -0.535  -1.009  1.00  0.00     0.035 C 
HETATM    6  C15 UNL     1       0.543  -0.890  -0.342  1.00  0.00     0.273 C 
ENDROOT
BRANCH   4   7
HETATM    7  C8  UNL     1       3.524   0.028   0.693  1.00  0.00     0.052 C 
BRANCH   7   8
HETATM    8  C9  UNL     1       4.623  -0.733   0.059  1.00  0.00     0.002 A 
HETATM    9  S1  UNL     1       4.704  -2.446   0.006  1.00  0.00    -0.081 SA
HETATM   10  C10 UNL     1       6.160  -2.627  -0.853  1.00  0.00     0.076 A 
HETATM   11 CL1  UNL     1       6.998  -4.111  -1.352  1.00  0.00    -0.076 Cl
HETATM   12  C11 UNL     1       6.548  -1.338  -1.076  1.00  0.00     0.051 A 
HETATM   13  C12 UNL     1       5.752  -0.353  -0.603  1.00  0.00     0.056 A 
BRANCH  13  14
HETATM   14  C13 UNL     1       6.100   1.086  -0.739  1.00  0.00     0.210 C 
HETATM   15  O1  UNL     1       7.066   1.404  -1.495  1.00  0.00    -0.644 OA
HETATM   16  O2  UNL     1       5.460   2.103  -0.109  1.00  0.00    -0.644 OA
ENDBRANCH  13  14
ENDBRANCH   7   8
ENDBRANCH   4   7
BRANCH   1  17
HETATM   17  C4  UNL     1      -1.710  -0.075  -0.227  1.00  0.00     0.224 C 
HETATM   18  C3  UNL     1      -1.911  -0.295   1.248  1.00  0.00     0.040 C 
HETATM   19  C2  UNL     1      -3.302  -0.881   1.418  1.00  0.00    -0.016 C 
HETATM   20  C1  UNL     1      -3.396  -2.303   0.914  1.00  0.00     0.010 C 
HETATM   21  C20 UNL     1      -4.374   0.002   0.874  1.00  0.00     0.013 C 
HETATM   22  C17 UNL     1      -4.063   0.698  -0.393  1.00  0.00    -0.045 C 
HETATM   23  C16 UNL     1      -2.633   1.014  -0.662  1.00  0.00     0.044 C 
HETATM   24  C18 UNL     1      -4.803   2.049  -0.333  1.00  0.00     0.015 C 
HETATM   25  C19 UNL     1      -4.671  -0.021  -1.594  1.00  0.00     0.015 C 
ENDBRANCH   1  17
TORSDOF 4
