REMARK  4 active torsions:
REMARK  status: ('A' for Active; 'I' for Inactive)
REMARK    1  A    between atoms: C2_2  and  C3_4 
REMARK    2  A    between atoms: C6_7  and  N1_8 
REMARK       I    between atoms: N1_8  and  C7_10 
REMARK    3  A    between atoms: C7_10  and  C8_12 
REMARK    4  A    between atoms: C13_17  and  C14_18 
ROOT
HETATM    1  N1  UNL     1       1.226  -0.864  -0.387  1.00  0.00    -0.348 N 
ATOM      2  H1  UNL     1       1.278  -1.124   0.598  1.00  0.00     0.163 HD
HETATM    3  C7  UNL     1       0.013  -1.107  -1.070  1.00  0.00     0.223 C 
HETATM    4  O2  UNL     1      -0.032  -0.779  -2.279  1.00  0.00    -0.273 OA
ENDROOT
BRANCH   1   5
HETATM    5  C6  UNL     1       2.398  -0.271  -0.991  1.00  0.00     0.056 C 
HETATM    6  C5  UNL     1       2.099   1.089  -1.508  1.00  0.00     0.004 C 
HETATM    7  C4  UNL     1       3.085   1.922  -1.225  1.00  0.00     0.020 C 
HETATM    8  C3  UNL     1       4.153   1.213  -0.487  1.00  0.00     0.176 C 
HETATM    9  O4  UNL     1       5.224   0.876  -1.278  1.00  0.00    -0.217 OA
HETATM   10  C22 UNL     1       3.479  -0.051   0.020  1.00  0.00     0.089 C 
HETATM   11  O3  UNL     1       5.179  -0.403  -1.587  1.00  0.00    -0.239 OA
HETATM   12  C21 UNL     1       4.243  -0.565  -2.600  1.00  0.00     0.212 C 
HETATM   13  C20 UNL     1       2.975  -1.174  -2.075  1.00  0.00     0.064 C 
BRANCH   8  14
HETATM   14  C2  UNL     1       4.560   2.022   0.683  1.00  0.00     0.164 C 
HETATM   15  C1  UNL     1       3.547   2.494   1.670  1.00  0.00     0.095 C 
HETATM   16  O1  UNL     1       5.751   2.285   0.808  1.00  0.00    -0.295 OA
ENDBRANCH   8  14
ENDBRANCH   1   5
BRANCH   3  17
HETATM   17  C8  UNL     1      -1.136  -1.712  -0.397  1.00  0.00     0.082 C 
HETATM   18  C9  UNL     1      -0.857  -3.084   0.156  1.00  0.00     0.014 C 
HETATM   19  C10 UNL     1      -0.799  -3.139   1.646  1.00  0.00     0.001 C 
HETATM   20  C11 UNL     1      -2.017  -2.606   2.335  1.00  0.00     0.000 C 
HETATM   21  C12 UNL     1      -2.773  -1.702   1.381  1.00  0.00     0.006 C 
HETATM   22  C13 UNL     1      -1.728  -0.851   0.690  1.00  0.00     0.003 C 
BRANCH  22  23
HETATM   23  C14 UNL     1      -2.330   0.424   0.166  1.00  0.00    -0.010 C 
HETATM   24  C15 UNL     1      -3.437   0.221  -0.811  1.00  0.00     0.005 C 
HETATM   25  C16 UNL     1      -4.602   1.157  -0.590  1.00  0.00     0.000 C 
HETATM   26  C17 UNL     1      -4.168   2.564  -0.278  1.00  0.00     0.000 C 
HETATM   27  C18 UNL     1      -3.156   2.660   0.814  1.00  0.00     0.000 C 
HETATM   28  C19 UNL     1      -2.747   1.285   1.339  1.00  0.00     0.005 C 
ENDBRANCH  22  23
ENDBRANCH   3  17
TORSDOF 4
