REMARK  4 active torsions:
REMARK  status: ('A' for Active; 'I' for Inactive)
REMARK    1  A    between atoms: O1_1  and  C1_3 
REMARK    2  A    between atoms: N1_6  and  C4_7 
REMARK    3  A    between atoms: C12_15  and  C13_16 
REMARK    4  A    between atoms: C19_24  and  C20_25 
ROOT
HETATM    1  C1  UNL     1      -1.030  -0.693  -0.792  1.00  0.00     0.147 C 
HETATM    2  C2  UNL     1       0.343  -0.047  -0.920  1.00  0.00     0.054 C 
HETATM    3  C3  UNL     1       1.321  -0.873  -0.102  1.00  0.00     0.280 C 
HETATM    4  N1  UNL     1       2.620  -0.314  -0.289  1.00  0.00     0.093 N 
HETATM    5  C9  UNL     1       2.694   1.037   0.226  1.00  0.00     0.273 C 
HETATM    6  C10 UNL     1       1.352   1.589   0.632  1.00  0.00     0.041 C 
HETATM    7  C11 UNL     1       0.347   1.402  -0.497  1.00  0.00     0.046 C 
HETATM    8  C12 UNL     1      -0.967   1.925  -0.113  1.00  0.00     0.020 C 
HETATM    9  N2  UNL     1      -1.918   1.168   0.364  1.00  0.00    -0.385 N 
ATOM     10  H2  UNL     1      -2.826   1.552   0.626  1.00  0.00     0.160 HD
HETATM   11  C19 UNL     1      -1.624  -0.239   0.503  1.00  0.00     0.114 C 
ENDROOT
BRANCH   8  12
HETATM   12  C13 UNL     1      -1.278   3.343  -0.250  1.00  0.00    -0.013 A 
HETATM   13  C14 UNL     1      -0.378   4.242  -0.737  1.00  0.00     0.013 A 
HETATM   14  C15 UNL     1      -0.679   5.599  -0.866  1.00  0.00     0.001 A 
HETATM   15  C16 UNL     1      -1.936   6.034  -0.484  1.00  0.00     0.000 A 
HETATM   16  C17 UNL     1      -2.866   5.168   0.008  1.00  0.00     0.001 A 
HETATM   17  C18 UNL     1      -2.535   3.838   0.121  1.00  0.00     0.013 A 
ENDBRANCH   8  12
BRANCH  11  18
HETATM   18  C20 UNL     1      -2.782  -1.041   0.979  1.00  0.00     0.011 C 
HETATM   19  C21 UNL     1      -3.969  -1.085   0.084  1.00  0.00     0.007 C 
HETATM   20  C22 UNL     1      -4.149  -2.441  -0.573  1.00  0.00     0.000 C 
HETATM   21  C23 UNL     1      -4.381  -3.523   0.465  1.00  0.00     0.000 C 
HETATM   22  C24 UNL     1      -3.571  -3.255   1.721  1.00  0.00     0.000 C 
HETATM   23  C25 UNL     1      -2.330  -2.478   1.266  1.00  0.00     0.007 C 
ENDBRANCH  11  18
BRANCH   1  24
HETATM   24  O1  UNL     1      -1.769  -0.305  -1.915  1.00  0.00    -0.393 OA
ATOM     25  H1  UNL     1      -2.626  -0.708  -1.835  1.00  0.00     0.210 HD
ENDBRANCH   1  24
BRANCH   4  26
HETATM   26  C4  UNL     1       3.715  -1.054   0.218  1.00  0.00     0.223 C 
HETATM   27  C5  UNL     1       3.961  -2.398  -0.354  1.00  0.00     0.036 C 
HETATM   28  C6  UNL     1       5.234  -2.318  -1.173  1.00  0.00     0.002 C 
HETATM   29  C7  UNL     1       6.036  -1.325  -0.317  1.00  0.00     0.002 C 
HETATM   30  C8  UNL     1       4.980  -0.259  -0.094  1.00  0.00     0.036 C 
ENDBRANCH   4  26
TORSDOF 4
