REMARK  11 active torsions:
REMARK  status: ('A' for Active; 'I' for Inactive)
REMARK    1  A    between atoms: O1_2  and  C2_3 
REMARK    2  A    between atoms: C5_6  and  N1_7 
REMARK       I    between atoms: N1_7  and  C6_9 
REMARK       I    between atoms: C6_9  and  N3_13 
REMARK    3  A    between atoms: N3_13  and  C7_15 
REMARK    4  A    between atoms: C9_17  and  C10_18 
REMARK    5  A    between atoms: C11_22  and  O2_23 
REMARK    6  A    between atoms: O2_23  and  C12_24 
REMARK    7  A    between atoms: C26_41  and  O3_42 
REMARK    8  A    between atoms: O3_42  and  C27_43 
REMARK    9  A    between atoms: C27_43  and  C28_44 
REMARK   10  A    between atoms: C28_44  and  C29_45 
REMARK   11  A    between atoms: C29_45  and  N6_46 
ROOT
HETATM    1  N1  UNL     1      -0.746  -1.636  -2.007  1.00  0.00    -0.191 N 
ATOM      2  H1  UNL     1      -1.036  -0.691  -2.259  1.00  0.00     0.184 HD
HETATM    3  C6  UNL     1       0.325  -2.147  -2.702  1.00  0.00     0.676 C 
HETATM    4  N2  UNL     1       0.308  -3.343  -3.187  1.00  0.00    -0.234 N 
ATOM      5  H21 UNL     1       1.102  -3.722  -3.702  1.00  0.00     0.174 HD
ATOM      6  H22 UNL     1      -0.535  -3.883  -2.993  1.00  0.00     0.174 HD
HETATM    7  N3  UNL     1       1.500  -1.394  -2.972  1.00  0.00    -0.190 N 
ATOM      8  H3  UNL     1       1.617  -0.996  -3.904  1.00  0.00     0.184 HD
ENDROOT
BRANCH   1   9
HETATM    9  C5  UNL     1      -1.412  -2.198  -1.094  1.00  0.00     0.063 A 
HETATM   10  C4  UNL     1      -2.473  -1.420  -0.558  1.00  0.00     0.021 A 
HETATM   11  C3  UNL     1      -2.725  -0.153  -1.028  1.00  0.00     0.055 A 
HETATM   12  C24 UNL     1      -3.230  -1.981   0.438  1.00  0.00     0.047 A 
HETATM   13  C2  UNL     1      -3.757   0.566  -0.490  1.00  0.00     0.102 A 
HETATM   14  C26 UNL     1      -4.581   0.055   0.538  1.00  0.00     0.104 A 
HETATM   15  C25 UNL     1      -4.273  -1.215   0.962  1.00  0.00     0.070 A 
HETATM   16  N5  UNL     1      -2.999  -3.231   0.916  1.00  0.00    -0.365 N 
HETATM   17  C23 UNL     1      -2.004  -3.990   0.429  1.00  0.00     0.090 A 
ATOM     18  H5  UNL     1      -3.592  -3.600   1.659  1.00  0.00     0.165 HD
HETATM   19  C22 UNL     1      -1.208  -3.454  -0.588  1.00  0.00     0.048 A 
BRANCH  13  20
HETATM   20  O1  UNL     1      -4.064   1.859  -0.923  1.00  0.00    -0.353 OA
HETATM   21  C1  UNL     1      -3.337   2.513  -1.938  1.00  0.00     0.210 C 
ENDBRANCH  13  20
BRANCH  14  22
HETATM   22  O3  UNL     1      -5.600   0.835   1.026  1.00  0.00    -0.348 OA
BRANCH  22  23
HETATM   23  C27 UNL     1      -6.546   0.524   1.983  1.00  0.00     0.177 C 
BRANCH  23  24
HETATM   24  C28 UNL     1      -7.523  -0.562   1.625  1.00  0.00     0.057 C 
BRANCH  24  25
HETATM   25  C29 UNL     1      -8.362  -0.182   0.395  1.00  0.00     0.274 C 
BRANCH  25  26
HETATM   26  N6  UNL     1      -9.082   1.034   0.744  1.00  0.00     0.088 N 
HETATM   27  C30 UNL     1     -10.081   0.827   1.769  1.00  0.00     0.272 C 
HETATM   28  C31 UNL     1     -10.824   2.163   1.742  1.00  0.00     0.032 C 
HETATM   29  C32 UNL     1     -10.809   2.490   0.265  1.00  0.00     0.032 C 
HETATM   30  C33 UNL     1      -9.898   1.478  -0.385  1.00  0.00     0.272 C 
ENDBRANCH  25  26
ENDBRANCH  24  25
ENDBRANCH  23  24
ENDBRANCH  22  23
ENDBRANCH  14  22
ENDBRANCH   1   9
BRANCH   7  31
HETATM   31  C7  UNL     1       2.509  -1.171  -2.018  1.00  0.00     0.074 A 
HETATM   32  C8  UNL     1       2.472  -1.608  -0.703  1.00  0.00     0.051 A 
HETATM   33  C9  UNL     1       3.518  -1.333   0.174  1.00  0.00     0.083 A 
HETATM   34  C11 UNL     1       4.639  -0.621  -0.202  1.00  0.00     0.086 A 
HETATM   35  C20 UNL     1       4.655  -0.195  -1.514  1.00  0.00     0.066 A 
HETATM   36  C21 UNL     1       3.636  -0.452  -2.400  1.00  0.00     0.076 A 
HETATM   37  N4  UNL     1       3.735   0.017  -3.733  1.00  0.00    -0.100 NA
BRANCH  33  38
HETATM   38  C10 UNL     1       3.404  -1.831   1.565  1.00  0.00     0.420 C 
HETATM   39  F1  UNL     1       4.444  -2.680   1.824  1.00  0.00    -0.166 F 
HETATM   40  F2  UNL     1       2.188  -2.454   1.783  1.00  0.00    -0.166 F 
HETATM   41  F3  UNL     1       3.427  -0.767   2.469  1.00  0.00    -0.166 F 
ENDBRANCH  33  38
BRANCH  34  42
HETATM   42  O2  UNL     1       5.627  -0.396   0.726  1.00  0.00    -0.345 OA
BRANCH  42  43
HETATM   43  C12 UNL     1       6.840   0.246   0.574  1.00  0.00     0.129 C 
HETATM   44  C13 UNL     1       6.946   1.537   1.367  1.00  0.00     0.033 C 
HETATM   45  C14 UNL     1       8.203   2.263   0.914  1.00  0.00     0.011 C 
HETATM   46  C15 UNL     1       9.431   1.398   1.076  1.00  0.00    -0.048 C 
HETATM   47  C16 UNL     1       9.787   1.190   2.531  1.00  0.00     0.015 C 
HETATM   48  C17 UNL     1      10.594   2.120   0.409  1.00  0.00     0.015 C 
HETATM   49  C18 UNL     1       9.270   0.055   0.419  1.00  0.00     0.011 C 
HETATM   50  C19 UNL     1       8.027  -0.609   0.964  1.00  0.00     0.033 C 
ENDBRANCH  42  43
ENDBRANCH  34  42
ENDBRANCH   7  31
TORSDOF 11
