REMARK  6 active torsions:
REMARK  status: ('A' for Active; 'I' for Inactive)
REMARK    1  A    between atoms: C6_7  and  O2_9 
REMARK    2  A    between atoms: O2_9  and  C8_10 
REMARK    3  A    between atoms: C8_10  and  O4_12 
REMARK    4  A    between atoms: O4_12  and  C9_13 
REMARK    5  A    between atoms: C9_13  and  N2_17 
REMARK       I    between atoms: N2_17  and  C10_19 
REMARK    6  A    between atoms: C10_19  and  C11_21 
ROOT
HETATM    1  C8  UNL     1       0.111   0.857  -0.698  1.00  0.00     0.415 C 
HETATM    2  O3  UNL     1      -0.352   1.535  -1.617  1.00  0.00    -0.229 OA
ENDROOT
BRANCH   1   3
HETATM    3  O2  UNL     1      -0.808   0.343   0.198  1.00  0.00    -0.271 OA
BRANCH   3   4
HETATM    4  C6  UNL     1      -2.184   0.509   0.162  1.00  0.00     0.189 C 
HETATM    5  C5  UNL     1      -2.713  -0.222   1.381  1.00  0.00     0.170 C 
HETATM    6  C4  UNL     1      -4.162  -0.320   1.527  1.00  0.00     0.091 C 
HETATM    7  O1  UNL     1      -1.984  -0.715   2.217  1.00  0.00    -0.294 OA
HETATM    8  C2  UNL     1      -4.946  -0.692   0.333  1.00  0.00    -0.035 C 
HETATM    9  C1  UNL     1      -6.286   0.046   0.405  1.00  0.00     0.015 C 
HETATM   10  C3  UNL     1      -5.306  -2.179   0.410  1.00  0.00     0.015 C 
HETATM   11  C16 UNL     1      -4.320  -0.442  -0.996  1.00  0.00     0.091 C 
HETATM   12  C15 UNL     1      -2.864  -0.216  -0.957  1.00  0.00     0.170 C 
HETATM   13  O6  UNL     1      -2.172  -0.627  -1.860  1.00  0.00    -0.294 OA
HETATM   14  C7  UNL     1      -2.655   1.923   0.256  1.00  0.00     0.064 C 
ENDBRANCH   3   4
ENDBRANCH   1   3
BRANCH   1  15
HETATM   15  O4  UNL     1       1.455   0.653  -0.614  1.00  0.00    -0.222 OA
BRANCH  15  16
HETATM   16  C9  UNL     1       2.415   1.144  -1.483  1.00  0.00     0.229 C 
HETATM   17  N1  UNL     1       2.125   1.845  -2.461  1.00  0.00    -0.365 N 
ATOM     18  H12 UNL     1       1.148   2.075  -2.643  1.00  0.00     0.159 HD
ATOM     19  H11 UNL     1       2.832   2.207  -3.101  1.00  0.00     0.159 HD
BRANCH  16  20
HETATM   20  N2  UNL     1       3.811   0.815  -1.223  1.00  0.00    -0.292 N 
HETATM   21  C10 UNL     1       4.162   0.017  -0.113  1.00  0.00     0.232 C 
HETATM   22  O5  UNL     1       3.273  -0.409   0.650  1.00  0.00    -0.272 OA
ATOM     23  H2  UNL     1       4.539   1.164  -1.847  1.00  0.00     0.172 HD
BRANCH  21  24
HETATM   24  C11 UNL     1       5.570  -0.323   0.159  1.00  0.00     0.030 C 
HETATM   25  C12 UNL     1       6.191  -1.089  -0.997  1.00  0.00     0.025 C 
HETATM   26  C13 UNL     1       5.739  -1.164   1.393  1.00  0.00     0.025 C 
HETATM   27  C14 UNL     1       6.390   0.935   0.350  1.00  0.00     0.025 C 
ENDBRANCH  21  24
ENDBRANCH  16  20
ENDBRANCH  15  16
ENDBRANCH   1  15
TORSDOF 6
