REMARK  5 active torsions:
REMARK  status: ('A' for Active; 'I' for Inactive)
REMARK    1  A    between atoms: N1_1  and  S1_4 
REMARK    2  A    between atoms: S1_4  and  C1_7 
REMARK    3  A    between atoms: C4_10  and  S2_11 
REMARK    4  A    between atoms: S2_11  and  N2_14 
REMARK    5  A    between atoms: C9_19  and  N3_20 
ROOT
HETATM    1  S2  UNL     1      -0.370  -1.226   2.086  1.00  0.00     0.284 S 
HETATM    2  O3  UNL     1      -0.967  -2.542   2.574  1.00  0.00    -0.198 OA
HETATM    3  O4  UNL     1      -0.050  -0.476   3.377  1.00  0.00    -0.198 OA
ENDROOT
BRANCH   1   4
HETATM    4  C4  UNL     1      -1.517  -0.341   1.142  1.00  0.00     0.149 A 
HETATM    5  C3  UNL     1      -1.329  -0.073  -0.190  1.00  0.00     0.045 A 
HETATM    6  C2  UNL     1      -2.252   0.616  -0.950  1.00  0.00     0.029 A 
HETATM    7  C1  UNL     1      -3.403   1.050  -0.351  1.00  0.00     0.094 A 
HETATM    8  C13 UNL     1      -3.588   0.777   0.996  1.00  0.00     0.114 A 
HETATM    9  N4  UNL     1      -2.655   0.096   1.705  1.00  0.00    -0.354 N 
ATOM     10  H4  UNL     1      -2.822  -0.090   2.694  1.00  0.00     0.166 HD
BRANCH   7  11
HETATM   11  S1  UNL     1      -4.568   1.920  -1.308  1.00  0.00     0.258 S 
HETATM   12  O1  UNL     1      -3.871   2.630  -2.455  1.00  0.00    -0.201 OA
HETATM   13  O2  UNL     1      -5.279   2.923  -0.452  1.00  0.00    -0.201 OA
BRANCH  11  14
HETATM   14  N1  UNL     1      -5.681   0.784  -2.006  1.00  0.00    -0.324 N 
ATOM     15  H12 UNL     1      -5.828   0.633  -3.004  1.00  0.00     0.169 HD
ATOM     16  H11 UNL     1      -6.149   0.307  -1.235  1.00  0.00     0.169 HD
ENDBRANCH  11  14
ENDBRANCH   7  11
ENDBRANCH   1   4
BRANCH   1  17
HETATM   17  N2  UNL     1       1.086  -1.608   1.244  1.00  0.00    -0.245 N 
HETATM   18  C5  UNL     1       1.549  -2.857   0.941  1.00  0.00     0.111 A 
HETATM   19  C6  UNL     1       2.733  -2.784   0.246  1.00  0.00     0.032 A 
HETATM   20  C7  UNL     1       3.030  -1.437   0.105  1.00  0.00    -0.005 A 
HETATM   21  C8  UNL     1       4.097  -0.767  -0.497  1.00  0.00     0.050 A 
HETATM   22  C12 UNL     1       2.001  -0.767   0.726  1.00  0.00     0.060 A 
HETATM   23  C9  UNL     1       4.153   0.609  -0.485  1.00  0.00     0.103 A 
HETATM   24  C10 UNL     1       3.123   1.279   0.138  1.00  0.00     0.038 A 
HETATM   25  C11 UNL     1       2.068   0.624   0.733  1.00  0.00     0.034 A 
BRANCH  23  26
HETATM   26  N3  UNL     1       5.240   1.321  -1.098  1.00  0.00    -0.116 N 
HETATM   27  O5  UNL     1       6.140   0.688  -1.643  1.00  0.00    -0.532 OA
HETATM   28  O6  UNL     1       5.295   2.680  -1.086  1.00  0.00    -0.532 OA
ENDBRANCH  23  26
ENDBRANCH   1  17
TORSDOF 5
