REMARK  8 active torsions:
REMARK  status: ('A' for Active; 'I' for Inactive)
REMARK    1  A    between atoms: C2_2  and  C4_4 
REMARK    2  A    between atoms: C4_4  and  C5_5 
REMARK    3  A    between atoms: C5_5  and  O1_6 
REMARK    4  A    between atoms: C5_5  and  C6_8 
REMARK    5  A    between atoms: C6_8  and  C7_9 
REMARK    6  A    between atoms: C6_8  and  C8_13 
REMARK    7  A    between atoms: C9_15  and  N2_16 
REMARK    8  A    between atoms: N2_16  and  N3_17 
ROOT
HETATM    1  C6  UNL     1       0.663  -1.469  -0.333  1.00  0.00     0.085 C 
ENDROOT
BRANCH   1   2
HETATM    2  C5  UNL     1      -0.290  -0.297  -0.053  1.00  0.00     0.130 C 
BRANCH   2   3
HETATM    3  C4  UNL     1      -1.676  -0.769  -0.308  1.00  0.00     0.036 C 
BRANCH   3   4
HETATM    4  C2  UNL     1      -2.778   0.193  -0.136  1.00  0.00    -0.020 C 
HETATM    5  C1  UNL     1      -2.917   0.766   1.253  1.00  0.00     0.009 C 
HETATM    6  C3  UNL     1      -2.739   1.371  -1.082  1.00  0.00     0.009 C 
ENDBRANCH   3   4
ENDBRANCH   2   3
BRANCH   2   7
HETATM    7  O1  UNL     1      -0.158   0.138   1.250  1.00  0.00    -0.395 OA
ATOM      8  H1  UNL     1       0.728   0.440   1.413  1.00  0.00     0.210 HD
ENDBRANCH   2   7
ENDBRANCH   1   2
BRANCH   1   9
HETATM    9  C7  UNL     1       0.461  -1.858  -1.759  1.00  0.00     0.062 C 
HETATM   10  N1  UNL     1       0.342  -3.066  -2.143  1.00  0.00    -0.411 N 
ATOM     11  H12 UNL     1       0.389  -3.792  -1.428  1.00  0.00     0.155 HD
ATOM     12  H11 UNL     1       0.204  -3.332  -3.118  1.00  0.00     0.155 HD
ENDBRANCH   1   9
BRANCH   1  13
HETATM   13  C8  UNL     1       2.102  -1.109  -0.173  1.00  0.00     0.181 A 
HETATM   14  O2  UNL     1       2.536  -0.046  -1.064  1.00  0.00    -0.355 OA
HETATM   15  C9  UNL     1       2.644   0.110   0.354  1.00  0.00     0.264 A 
BRANCH  15  16
HETATM   16  N2  UNL     1       4.057   0.104   0.747  1.00  0.00    -0.113 NA
BRANCH  16  17
HETATM   17  N3  UNL     1       4.399   1.350   1.218  1.00  0.00    -0.346 N 
ATOM     18  H32 UNL     1       3.760   2.143   1.278  1.00  0.00     0.172 HD
ATOM     19  H31 UNL     1       5.382   1.346   1.491  1.00  0.00     0.172 HD
ENDBRANCH  16  17
ENDBRANCH  15  16
ENDBRANCH   1  13
TORSDOF 8
