REMARK  7 active torsions:
REMARK  status: ('A' for Active; 'I' for Inactive)
REMARK    1  A    between atoms: N1_2  and  C2_4 
REMARK    2  A    between atoms: C3_9  and  C4_10 
REMARK    3  A    between atoms: C4_10  and  N4_11 
REMARK    4  A    between atoms: N4_11  and  C5_14 
REMARK    5  A    between atoms: C5_14  and  C6_15 
REMARK    6  A    between atoms: C6_15  and  C7_16 
REMARK    7  A    between atoms: C7_16  and  N5_17 
ROOT
HETATM    1  C2  UNL     1       3.274  -0.698  -0.327  1.00  0.00     0.693 A 
HETATM    2  N2  UNL     1       3.499  -2.018  -0.311  1.00  0.00    -0.131 N 
ATOM      3  H2  UNL     1       4.392  -2.471  -0.505  1.00  0.00     0.205 HD
HETATM    4  N3  UNL     1       2.353  -2.646   0.003  1.00  0.00    -0.273 N 
ATOM      5  H3  UNL     1       2.236  -3.656   0.080  1.00  0.00     0.189 HD
HETATM    6  C3  UNL     1       1.420  -1.767   0.193  1.00  0.00     0.138 A 
HETATM    7  N6  UNL     1       1.996  -0.547  -0.013  1.00  0.00    -0.176 N 
ATOM      8  H6  UNL     1       1.514   0.349   0.064  1.00  0.00     0.185 HD
ENDROOT
BRANCH   6   9
HETATM    9  C4  UNL     1      -0.033  -1.878   0.586  1.00  0.00     0.310 C 
BRANCH   9  10
HETATM   10  N4  UNL     1      -0.770  -1.210  -0.488  1.00  0.00    -0.068 N 
ATOM     11  H42 UNL     1      -0.155  -0.980  -1.269  1.00  0.00     0.277 HD
ATOM     12  H41 UNL     1      -1.399  -1.858  -0.961  1.00  0.00     0.277 HD
BRANCH  10  13
HETATM   13  C5  UNL     1      -1.465  -0.065  -0.031  1.00  0.00     0.234 C 
BRANCH  13  14
HETATM   14  C6  UNL     1      -2.924   0.050  -0.116  1.00  0.00     0.055 C 
BRANCH  14  15
HETATM   15  C7  UNL     1      -3.227   1.474   0.411  1.00  0.00     0.231 C 
BRANCH  15  16
HETATM   16  N5  UNL     1      -4.626   1.766   0.435  1.00  0.00    -0.079 N 
ATOM     17  H53 UNL     1      -5.047   1.618  -0.482  1.00  0.00     0.274 HD
ATOM     18  H52 UNL     1      -5.138   1.062   0.967  1.00  0.00     0.274 HD
ATOM     19  H51 UNL     1      -4.826   2.704   0.782  1.00  0.00     0.274 HD
ENDBRANCH  15  16
ENDBRANCH  14  15
ENDBRANCH  13  14
ENDBRANCH  10  13
ENDBRANCH   9  10
ENDBRANCH   6   9
BRANCH   1  20
HETATM   20  N1  UNL     1       4.197   0.144  -0.597  1.00  0.00    -0.229 N 
HETATM   21  C1  UNL     1       4.135   1.555  -0.661  1.00  0.00     0.165 C 
ATOM     22  H1  UNL     1       5.112  -0.261  -0.795  1.00  0.00     0.177 HD
ENDBRANCH   1  20
TORSDOF 7
