REMARK  11 active torsions:
REMARK  status: ('A' for Active; 'I' for Inactive)
REMARK    1  A    between atoms: C2_2  and  N1_3 
REMARK    2  A    between atoms: N1_3  and  C3_5 
REMARK    3  A    between atoms: C4_8  and  O1_9 
REMARK    4  A    between atoms: C5_11  and  N4_12 
REMARK    5  A    between atoms: C7_22  and  O3_23 
REMARK    6  A    between atoms: C7_22  and  C8_25 
REMARK    7  A    between atoms: C9_28  and  N11_29 
REMARK    8  A    between atoms: C10_34  and  N13_35 
REMARK    9  A    between atoms: N13_35  and  C11_37 
REMARK   10  A    between atoms: C11_37  and  O4_39 
REMARK   11  A    between atoms: C13_41  and  O5_42 
ROOT
HETATM    1  C3  UNL     1      -0.715  -1.999   0.295  1.00  0.00     0.259 C 
HETATM    2  N2  UNL     1      -1.180  -1.018   1.287  1.00  0.00    -0.084 NA
HETATM    3  N3  UNL     1      -1.748   0.017   0.500  1.00  0.00    -0.164 N 
HETATM    4  C4  UNL     1      -2.702   0.953   0.531  1.00  0.00     0.212 A 
HETATM    5  C5  UNL     1      -2.757   1.601  -0.679  1.00  0.00     0.197 A 
HETATM    6  C6  UNL     1      -1.755   0.976  -1.437  1.00  0.00     0.301 A 
HETATM    7  O2  UNL     1      -1.568   1.368  -2.638  1.00  0.00    -0.264 OA
HETATM    8  N9  UNL     1      -1.146   0.023  -0.720  1.00  0.00    -0.189 N 
HETATM    9  C7  UNL     1      -0.119  -0.985  -0.729  1.00  0.00     0.241 C 
ENDROOT
BRANCH   9  10
HETATM   10  O3  UNL     1       0.022  -1.559  -1.974  1.00  0.00    -0.361 OA
ATOM     11  H3  UNL     1       0.385  -0.941  -2.598  1.00  0.00     0.213 HD
ENDBRANCH   9  10
BRANCH   9  12
HETATM   12  C8  UNL     1       1.149  -0.532  -0.112  1.00  0.00     0.124 A 
HETATM   13  N10 UNL     1       1.609  -1.162   1.000  1.00  0.00    -0.188 N 
HETATM   14  C9  UNL     1       2.719  -0.802   1.616  1.00  0.00     0.677 A 
ATOM     15  H10 UNL     1       1.074  -1.946   1.374  1.00  0.00     0.184 HD
HETATM   16  N12 UNL     1       3.408   0.245   1.093  1.00  0.00    -0.174 N 
HETATM   17  C10 UNL     1       3.062   0.941   0.012  1.00  0.00     0.158 A 
ATOM     18  H12 UNL     1       4.266   0.522   1.570  1.00  0.00     0.186 HD
HETATM   19  C13 UNL     1       1.860   0.522  -0.625  1.00  0.00     0.139 A 
BRANCH  14  20
HETATM   20  N11 UNL     1       3.112  -1.427   2.662  1.00  0.00    -0.234 N 
ATOM     21 2H11 UNL     1       2.595  -2.213   3.055  1.00  0.00     0.174 HD
ATOM     22 1H11 UNL     1       3.970  -1.149   3.138  1.00  0.00     0.174 HD
ENDBRANCH  14  20
BRANCH  17  23
HETATM   23  N13 UNL     1       3.782   2.021  -0.520  1.00  0.00    -0.324 N 
ATOM     24  H13 UNL     1       3.372   2.439  -1.355  1.00  0.00     0.169 HD
BRANCH  23  25
HETATM   25  C11 UNL     1       4.958   2.610  -0.094  1.00  0.00     0.112 C 
HETATM   26  C12 UNL     1       5.826   2.305   1.035  1.00  0.00     0.097 C 
BRANCH  25  27
HETATM   27  O4  UNL     1       5.382   3.634  -0.834  1.00  0.00    -0.350 OA
ATOM     28  H4  UNL     1       6.190   4.039  -0.541  1.00  0.00     0.219 HD
ENDBRANCH  25  27
ENDBRANCH  23  25
ENDBRANCH  17  23
BRANCH  19  29
HETATM   29  O5  UNL     1       1.448   1.188  -1.742  1.00  0.00    -0.355 OA
ATOM     30  H5  UNL     1       1.941   1.918  -2.097  1.00  0.00     0.218 HD
ENDBRANCH  19  29
ENDBRANCH   9  12
BRANCH   1  31
HETATM   31  N1  UNL     1      -1.820  -2.616  -0.336  1.00  0.00    -0.399 N 
ATOM     32  H1  UNL     1      -2.104  -2.382  -1.287  1.00  0.00     0.155 HD
BRANCH  31  33
HETATM   33  C2  UNL     1      -2.511  -3.587   0.448  1.00  0.00     0.111 C 
HETATM   34  C1  UNL     1      -3.661  -4.131  -0.408  1.00  0.00     0.026 C 
ENDBRANCH  31  33
ENDBRANCH   1  31
BRANCH   4  35
HETATM   35  O1  UNL     1      -3.558   1.284   1.593  1.00  0.00    -0.342 OA
ATOM     36  H1  UNL     1      -4.236   1.949   1.615  1.00  0.00     0.219 HD
ENDBRANCH   4  35
BRANCH   5  37
HETATM   37  N4  UNL     1      -3.608   2.656  -1.101  1.00  0.00    -0.157 N 
HETATM   38  N5  UNL     1      -3.862   3.819  -0.516  1.00  0.00     0.018 NA
HETATM   39  N6  UNL     1      -4.719   4.501  -1.259  1.00  0.00     0.010 NA
HETATM   40  N7  UNL     1      -5.020   3.777  -2.325  1.00  0.00    -0.212 N 
HETATM   41  N8  UNL     1      -4.339   2.666  -2.211  1.00  0.00    -0.210 N 
ATOM     42  H7  UNL     1      -5.654   4.033  -3.082  1.00  0.00     0.207 HD
ATOM     43  H8  UNL     1      -4.366   1.904  -2.888  1.00  0.00     0.211 HD
ENDBRANCH   5  37
TORSDOF 11
