REMARK  6 active torsions:
REMARK  status: ('A' for Active; 'I' for Inactive)
REMARK    1  A    between atoms: C2_2  and  N1_3 
REMARK    2  A    between atoms: N1_3  and  C3_4 
REMARK    3  A    between atoms: N1_3  and  C25_30 
REMARK    4  A    between atoms: C3_4  and  C4_5 
REMARK    5  A    between atoms: C5_6  and  C6_7 
REMARK    6  A    between atoms: C14_15  and  C15_16 
ROOT
HETATM    1  C15 UNL     1       5.323   0.637   0.149  1.00  0.00    -0.026 A 
HETATM    2  C16 UNL     1       6.427   1.060  -0.547  1.00  0.00     0.014 A 
HETATM    3  C17 UNL     1       7.039   2.285  -0.231  1.00  0.00     0.023 A 
HETATM    4  C18 UNL     1       6.521   3.065   0.788  1.00  0.00     0.044 A 
HETATM    5  C19 UNL     1       7.125   4.331   1.138  1.00  0.00     0.099 C 
HETATM    6  N2  UNL     1       7.610   5.356   1.408  1.00  0.00    -0.191 NA
HETATM    7  C20 UNL     1       5.402   2.641   1.496  1.00  0.00     0.023 A 
HETATM    8  C21 UNL     1       4.820   1.416   1.154  1.00  0.00     0.014 A 
ENDROOT
BRANCH   1   9
HETATM    9  C14 UNL     1       4.715  -0.639  -0.208  1.00  0.00    -0.025 A 
HETATM   10  C13 UNL     1       3.387  -0.889  -0.080  1.00  0.00     0.026 A 
HETATM   11  C12 UNL     1       2.785  -2.102  -0.412  1.00  0.00    -0.002 A 
HETATM   12  C10 UNL     1       1.406  -2.496  -0.328  1.00  0.00    -0.001 A 
HETATM   13  C24 UNL     1       3.627  -3.059  -0.889  1.00  0.00     0.075 A 
HETATM   14  C9  UNL     1       1.123  -3.766  -0.732  1.00  0.00     0.075 A 
HETATM   15  C11 UNL     1       0.306  -1.741   0.120  1.00  0.00     0.034 A 
HETATM   16  C8  UNL     1      -0.149  -4.319  -0.720  1.00  0.00     0.026 A 
HETATM   17  S1  UNL     1       2.673  -4.463  -1.232  1.00  0.00     0.208 S 
HETATM   18  C7  UNL     1      -1.171  -3.523  -0.271  1.00  0.00     0.022 A 
HETATM   19  C6  UNL     1      -0.969  -2.229   0.155  1.00  0.00     0.018 A 
HETATM   20  O1  UNL     1       3.023  -5.626  -0.327  1.00  0.00    -0.217 OA
HETATM   21  O2  UNL     1       2.653  -4.845  -2.666  1.00  0.00    -0.217 OA
HETATM   22  C23 UNL     1       4.968  -2.831  -1.027  1.00  0.00     0.025 A 
HETATM   23  C22 UNL     1       5.547  -1.628  -0.694  1.00  0.00     0.014 A 
BRANCH  19  24
HETATM   24  C5  UNL     1      -2.080  -1.413   0.626  1.00  0.00    -0.065 C 
HETATM   25  C4  UNL     1      -3.001  -0.749   1.034  1.00  0.00    -0.081 C 
BRANCH  25  26
HETATM   26  C3  UNL     1      -4.132   0.034   1.541  1.00  0.00     0.218 C 
BRANCH  26  27
HETATM   27  N1  UNL     1      -4.952   0.580   0.510  1.00  0.00    -0.357 N 
BRANCH  27  28
HETATM   28  C2  UNL     1      -5.774  -0.202  -0.364  1.00  0.00     0.121 C 
HETATM   29  C1  UNL     1      -6.934  -0.863   0.312  1.00  0.00     0.026 C 
ENDBRANCH  27  28
BRANCH  27  30
HETATM   30  C25 UNL     1      -4.965   1.998   0.323  1.00  0.00     0.103 A 
HETATM   31  C26 UNL     1      -5.932   2.680   1.056  1.00  0.00     0.048 A 
HETATM   32  C27 UNL     1      -6.045   4.047   0.963  1.00  0.00     0.005 A 
HETATM   33  C28 UNL     1      -5.169   4.693   0.122  1.00  0.00     0.017 A 
HETATM   34  C29 UNL     1      -4.210   3.974  -0.599  1.00  0.00     0.089 A 
HETATM   35  N3  UNL     1      -4.131   2.638  -0.481  1.00  0.00    -0.352 N 
ATOM     36  H3  UNL     1      -3.430   2.118  -1.010  1.00  0.00     0.166 HD
ENDBRANCH  27  30
ENDBRANCH  26  27
ENDBRANCH  25  26
ENDBRANCH  19  24
ENDBRANCH   1   9
TORSDOF 6
