REMARK  5 active torsions:
REMARK  status: ('A' for Active; 'I' for Inactive)
REMARK    1  A    between atoms: N1_1  and  C1_4 
REMARK    2  A    between atoms: N5_17  and  C6_18 
REMARK    3  A    between atoms: C6_18  and  C7_19 
REMARK    4  A    between atoms: C7_19  and  O3_20 
REMARK    5  A    between atoms: O3_20  and  N6_21 
ROOT
HETATM    1  C1  UNL     1      -0.224  -0.042  -2.026  1.00  0.00     0.680 A 
HETATM    2  N2  UNL     1      -1.451   0.478  -1.840  1.00  0.00    -0.182 N 
ATOM      3  H2  UNL     1      -2.008   0.939  -2.559  1.00  0.00     0.184 HD
HETATM    4  C2  UNL     1      -1.833   0.298  -0.562  1.00  0.00     0.162 A 
HETATM    5  C3  UNL     1      -2.955   0.616   0.169  1.00  0.00     0.280 A 
HETATM    6  O1  UNL     1      -3.879   1.219  -0.451  1.00  0.00    -0.265 OA
HETATM    7  N3  UNL     1      -3.084   0.310   1.480  1.00  0.00    -0.273 N 
ATOM      8  H3  UNL     1      -3.929   0.560   1.994  1.00  0.00     0.173 HD
HETATM    9  C4  UNL     1      -2.070  -0.332   2.089  1.00  0.00     0.328 A 
HETATM   10  O2  UNL     1      -2.202  -0.615   3.323  1.00  0.00    -0.247 OA
HETATM   11  N4  UNL     1      -0.960  -0.656   1.400  1.00  0.00    -0.292 N 
ATOM     12  H4  UNL     1      -0.205  -1.142   1.884  1.00  0.00     0.172 HD
HETATM   13  C5  UNL     1      -0.810  -0.360   0.090  1.00  0.00     0.160 A 
HETATM   14  N5  UNL     1       0.147  -0.547  -0.835  1.00  0.00    -0.164 N 
ENDROOT
BRANCH  14  15
HETATM   15  C6  UNL     1       1.406  -1.204  -0.579  1.00  0.00     0.178 C 
BRANCH  15  16
HETATM   16  C7  UNL     1       2.465  -0.224  -0.135  1.00  0.00     0.221 C 
BRANCH  16  17
HETATM   17  O3  UNL     1       2.093   0.432   1.038  1.00  0.00    -0.286 OA
BRANCH  17  18
HETATM   18  N6  UNL     1       3.012   1.305   1.454  1.00  0.00    -0.311 N 
ATOM     19  H62 UNL     1       3.888   1.464   0.956  1.00  0.00     0.184 HD
ATOM     20  H61 UNL     1       2.740   1.785   2.312  1.00  0.00     0.184 HD
ENDBRANCH  17  18
ENDBRANCH  16  17
ENDBRANCH  15  16
ENDBRANCH  14  15
BRANCH   1  21
HETATM   21  N1  UNL     1       0.467  -0.052  -3.141  1.00  0.00    -0.234 N 
ATOM     22  H12 UNL     1       0.186   0.331  -4.044  1.00  0.00     0.174 HD
ATOM     23  H11 UNL     1       1.397  -0.446  -3.282  1.00  0.00     0.174 HD
ENDBRANCH   1  21
TORSDOF 5
