REMARK  3 active torsions:
REMARK  status: ('A' for Active; 'I' for Inactive)
REMARK    1  A    between atoms: N1_1  and  C1_4 
REMARK    2  A    between atoms: N4_13  and  C4_14 
REMARK    3  A    between atoms: C4_14  and  C5_15 
ROOT
HETATM    1  C1  UNL     1      -1.425  -1.213   0.272  1.00  0.00     0.686 A 
HETATM    2  N2  UNL     1      -2.542  -1.022   1.033  1.00  0.00    -0.141 N 
ATOM      3  H2  UNL     1      -2.894  -1.801   1.590  1.00  0.00     0.189 HD
HETATM    4  C2  UNL     1      -3.187   0.136   1.077  1.00  0.00     0.342 A 
HETATM    5  O1  UNL     1      -4.230   0.326   1.782  1.00  0.00    -0.246 OA
HETATM    6  N3  UNL     1      -2.698   1.136   0.336  1.00  0.00    -0.259 N 
ATOM      7  H3  UNL     1      -3.170   2.040   0.348  1.00  0.00     0.175 HD
HETATM    8  C3  UNL     1      -1.607   0.981  -0.419  1.00  0.00     0.345 A 
HETATM    9  O2  UNL     1      -1.194   1.960  -1.096  1.00  0.00    -0.246 OA
HETATM   10  N4  UNL     1      -0.949  -0.199  -0.464  1.00  0.00    -0.127 N 
ENDROOT
BRANCH  10  11
HETATM   11  C4  UNL     1       0.236  -0.283  -1.292  1.00  0.00     0.211 C 
BRANCH  11  12
HETATM   12  C5  UNL     1       1.472   0.112  -0.609  1.00  0.00     0.048 A 
HETATM   13  C6  UNL     1       2.074   1.356  -0.509  1.00  0.00     0.119 A 
HETATM   14  N5  UNL     1       3.178   1.209   0.209  1.00  0.00    -0.317 N 
HETATM   15  C7  UNL     1       3.319  -0.059   0.575  1.00  0.00     0.324 A 
ATOM     16  H5  UNL     1       3.825   1.961   0.446  1.00  0.00     0.170 HD
HETATM   17  O3  UNL     1       4.263  -0.565   1.273  1.00  0.00    -0.247 OA
HETATM   18  N6  UNL     1       2.274  -0.714   0.070  1.00  0.00    -0.309 N 
ATOM     19  H6  UNL     1       2.108  -1.714   0.186  1.00  0.00     0.170 HD
ENDBRANCH  11  12
ENDBRANCH  10  11
BRANCH   1  20
HETATM   20  N1  UNL     1      -0.856  -2.376   0.273  1.00  0.00    -0.234 N 
ATOM     21  H12 UNL     1      -1.218  -3.148   0.833  1.00  0.00     0.174 HD
ATOM     22  H11 UNL     1      -0.021  -2.519  -0.296  1.00  0.00     0.174 HD
ENDBRANCH   1  20
TORSDOF 3
