REMARK  4 active torsions:
REMARK  status: ('A' for Active; 'I' for Inactive)
REMARK    1  A    between atoms: C2_2  and  C3_3 
REMARK    2  A    between atoms: C3_3  and  N1_4 
REMARK    3  A    between atoms: N1_4  and  C4_6 
REMARK    4  A    between atoms: C5_13  and  O1_14 
ROOT
HETATM    1  C4  UNL     1      -0.460   0.506   0.123  1.00  0.00     0.171 A 
HETATM    2  N2  UNL     1      -0.706   1.825   0.057  1.00  0.00    -0.268 N 
ATOM      3  H2  UNL     1      -0.019   2.573  -0.039  1.00  0.00     0.190 HD
HETATM    4  N3  UNL     1      -2.016   1.956   0.141  1.00  0.00    -0.239 N 
ATOM      5  H3  UNL     1      -2.511   2.847   0.120  1.00  0.00     0.208 HD
HETATM    6  N4  UNL     1      -2.597   0.781   0.256  1.00  0.00    -0.262 N 
ATOM      7  H4  UNL     1      -3.601   0.621   0.337  1.00  0.00     0.190 HD
HETATM    8  C5  UNL     1      -1.652  -0.174   0.250  1.00  0.00     0.204 A 
ENDROOT
BRANCH   1   9
HETATM    9  N1  UNL     1       0.684  -0.067   0.080  1.00  0.00    -0.368 N 
ATOM     10  H1  UNL     1       0.716  -1.085   0.143  1.00  0.00     0.161 HD
BRANCH   9  11
HETATM   11  C3  UNL     1       1.930   0.647  -0.053  1.00  0.00     0.148 C 
BRANCH  11  12
HETATM   12  C2  UNL     1       2.841  -0.138  -0.927  1.00  0.00    -0.018 C 
HETATM   13  C1  UNL     1       3.993  -0.541  -0.433  1.00  0.00     0.008 C 
ENDBRANCH  11  12
ENDBRANCH   9  11
ENDBRANCH   1   9
BRANCH   8  14
HETATM   14  O1  UNL     1      -1.811  -1.551   0.348  1.00  0.00    -0.337 OA
HETATM   15  C6  UNL     1      -3.046  -2.186   0.474  1.00  0.00     0.212 C 
ENDBRANCH   8  14
TORSDOF 4
