REMARK  5 active torsions:
REMARK  status: ('A' for Active; 'I' for Inactive)
REMARK    1  A    between atoms: N1_1  and  C1_5 
REMARK    2  A    between atoms: C1_5  and  C2_6 
REMARK    3  A    between atoms: C2_6  and  O1_7 
REMARK    4  A    between atoms: O1_7  and  C3_8 
REMARK    5  A    between atoms: C3_8  and  C4_9 
ROOT
HETATM    1  C3  UNL     1       0.312  -0.075   0.657  1.00  0.00     0.244 C 
ENDROOT
BRANCH   1   2
HETATM    2  O1  UNL     1      -0.514  -0.327  -0.394  1.00  0.00    -0.382 OA
BRANCH   2   3
HETATM    3  C2  UNL     1      -1.811  -0.562  -0.082  1.00  0.00     0.195 C 
BRANCH   3   4
HETATM    4  C1  UNL     1      -2.445   0.612   0.602  1.00  0.00     0.255 C 
BRANCH   4   5
HETATM    5  N1  UNL     1      -3.846   0.334   0.922  1.00  0.00    -0.077 N 
ATOM      6  H13 UNL     1      -4.372   0.049   0.096  1.00  0.00     0.274 HD
ATOM      7  H12 UNL     1      -3.945  -0.521   1.470  1.00  0.00     0.274 HD
ATOM      8  H11 UNL     1      -4.277   1.133   1.387  1.00  0.00     0.274 HD
ENDBRANCH   4   5
ENDBRANCH   3   4
ENDBRANCH   2   3
ENDBRANCH   1   2
BRANCH   1   9
HETATM    9  C4  UNL     1       1.692   0.129   0.094  1.00  0.00     0.105 A 
HETATM   10  N2  UNL     1       2.249   1.289  -0.272  1.00  0.00    -0.353 N 
HETATM   11  C5  UNL     1       3.478   1.036  -0.720  1.00  0.00     0.106 A 
ATOM     12  H2  UNL     1       1.809   2.208  -0.218  1.00  0.00     0.166 HD
HETATM   13  C6  UNL     1       3.695  -0.335  -0.629  1.00  0.00     0.106 A 
HETATM   14  N3  UNL     1       2.560  -0.865  -0.118  1.00  0.00    -0.353 N 
ATOM     15  H3  UNL     1       2.395  -1.853   0.073  1.00  0.00     0.166 HD
ENDBRANCH   1   9
TORSDOF 5
