REMARK  14 active torsions:
REMARK  status: ('A' for Active; 'I' for Inactive)
REMARK    1  A    between atoms: C2_2  and  C3_3 
REMARK    2  A    between atoms: C3_3  and  C4_4 
REMARK    3  A    between atoms: C5_5  and  C6_6 
REMARK    4  A    between atoms: C7_7  and  C8_8 
REMARK    5  A    between atoms: C9_9  and  C10_10 
REMARK    6  A    between atoms: C10_10  and  C11_11 
REMARK    7  A    between atoms: C13_14  and  O2_15 
REMARK    8  A    between atoms: O2_15  and  C14_16 
REMARK    9  A    between atoms: C15_18  and  C16_19 
REMARK   10  A    between atoms: C16_19  and  O4_20 
REMARK   11  A    between atoms: C17_22  and  O5_23 
REMARK   12  A    between atoms: C18_25  and  O6_26 
REMARK   13  A    between atoms: C20_29  and  O7_30 
REMARK   14  A    between atoms: C21_32  and  O8_33 
ROOT
HETATM    1  C11 UNL     1       0.189  -0.895   0.338  1.00  0.00     0.195 C 
HETATM    2  O1  UNL     1      -1.092  -0.300   0.220  1.00  0.00    -0.369 OA
HETATM    3  C12 UNL     1      -1.970  -1.178   0.781  1.00  0.00     0.165 C 
HETATM    4  C13 UNL     1      -3.397  -1.004   0.469  1.00  0.00     0.157 C 
HETATM    5  C19 UNL     1      -3.961  -2.201  -0.310  1.00  0.00     0.069 C 
HETATM    6  C20 UNL     1      -3.683  -3.501   0.411  1.00  0.00     0.150 C 
HETATM    7  C21 UNL     1      -2.214  -3.586   0.854  1.00  0.00     0.161 C 
HETATM    8  C22 UNL     1      -1.499  -2.498   0.141  1.00  0.00     0.121 C 
HETATM    9  C23 UNL     1      -0.067  -2.348   0.477  1.00  0.00     0.165 C 
HETATM   10  O9  UNL     1       0.687  -3.224   0.787  1.00  0.00    -0.295 OA
ENDROOT
BRANCH   4  11
HETATM   11  O2  UNL     1      -3.722   0.144  -0.207  1.00  0.00    -0.351 OA
BRANCH  11  12
HETATM   12  C14 UNL     1      -4.639   0.872   0.545  1.00  0.00     0.292 C 
HETATM   13  O3  UNL     1      -5.820   1.129  -0.142  1.00  0.00    -0.348 OA
HETATM   14  C15 UNL     1      -6.437   2.151   0.539  1.00  0.00     0.179 C 
HETATM   15  C17 UNL     1      -5.324   3.065   0.991  1.00  0.00     0.182 C 
HETATM   16  C18 UNL     1      -4.074   2.224   0.929  1.00  0.00     0.204 C 
BRANCH  14  17
HETATM   17  C16 UNL     1      -7.326   2.885  -0.473  1.00  0.00     0.198 C 
BRANCH  17  18
HETATM   18  O4  UNL     1      -8.256   1.989  -0.982  1.00  0.00    -0.398 OA
ATOM     19  H4  UNL     1      -8.807   2.444  -1.609  1.00  0.00     0.209 HD
ENDBRANCH  17  18
ENDBRANCH  14  17
BRANCH  15  20
HETATM   20  O5  UNL     1      -5.211   4.086   0.049  1.00  0.00    -0.390 OA
ATOM     21  H5  UNL     1      -4.511   4.661   0.333  1.00  0.00     0.210 HD
ENDBRANCH  15  20
BRANCH  16  22
HETATM   22  O6  UNL     1      -3.169   2.686  -0.017  1.00  0.00    -0.388 OA
ATOM     23  H6  UNL     1      -2.815   3.534   0.224  1.00  0.00     0.210 HD
ENDBRANCH  16  22
ENDBRANCH  11  12
ENDBRANCH   4  11
BRANCH   6  24
HETATM   24  O7  UNL     1      -3.858  -4.530  -0.533  1.00  0.00    -0.393 OA
ATOM     25  H7  UNL     1      -3.683  -5.347  -0.080  1.00  0.00     0.210 HD
ENDBRANCH   6  24
BRANCH   1  26
HETATM   26  C10 UNL     1       0.937  -0.675  -0.958  1.00  0.00     0.067 C 
BRANCH  26  27
HETATM   27  C9  UNL     1       2.281  -1.289  -0.835  1.00  0.00    -0.024 C 
HETATM   28  C8  UNL     1       3.396  -0.536  -0.958  1.00  0.00    -0.004 C 
BRANCH  28  29
HETATM   29  C7  UNL     1       4.688  -1.134  -0.838  1.00  0.00    -0.000 C 
HETATM   30  C6  UNL     1       5.805  -0.436  -0.950  1.00  0.00    -0.000 C 
BRANCH  30  31
HETATM   31  C5  UNL     1       5.871   0.978  -1.200  1.00  0.00    -0.004 C 
HETATM   32  C4  UNL     1       6.976   1.650  -1.307  1.00  0.00    -0.027 C 
BRANCH  32  33
HETATM   33  C3  UNL     1       8.318   1.065  -1.188  1.00  0.00     0.027 C 
BRANCH  33  34
HETATM   34  C2  UNL     1       8.991   1.780  -0.019  1.00  0.00    -0.001 C 
HETATM   35  C1  UNL     1      10.383   1.287   0.232  1.00  0.00     0.005 C 
ENDBRANCH  33  34
ENDBRANCH  32  33
ENDBRANCH  30  31
ENDBRANCH  28  29
ENDBRANCH  26  27
ENDBRANCH   1  26
BRANCH   7  36
HETATM   36  O8  UNL     1      -2.231  -3.262   2.223  1.00  0.00    -0.392 OA
ATOM     37  H8  UNL     1      -1.323  -3.315   2.497  1.00  0.00     0.210 HD
ENDBRANCH   7  36
TORSDOF 14
