REMARK  8 active torsions:
REMARK  status: ('A' for Active; 'I' for Inactive)
REMARK    1  A    between atoms: C7_7  and  C8_8 
REMARK    2  A    between atoms: C8_8  and  C9_9 
REMARK    3  A    between atoms: C9_9  and  C10_10 
REMARK    4  A    between atoms: C10_10  and  C11_11 
REMARK    5  A    between atoms: C11_11  and  C12_12 
REMARK       I    between atoms: C12_12  and  N1_14 
REMARK    6  A    between atoms: N1_14  and  C13_16 
REMARK    7  A    between atoms: C13_16  and  C14_17 
REMARK    8  A    between atoms: C14_17  and  N2_19 
ROOT
HETATM    1  C12 UNL     1       0.859   1.180   1.701  1.00  0.00     0.217 C 
HETATM    2  O1  UNL     1       0.529   1.598   0.582  1.00  0.00    -0.274 OA
HETATM    3  N1  UNL     1       2.120   0.578   1.899  1.00  0.00    -0.359 N 
ATOM      4  H1  UNL     1       2.305   0.284   2.858  1.00  0.00     0.162 HD
ENDROOT
BRANCH   1   5
HETATM    5  C11 UNL     1      -0.072   1.302   2.868  1.00  0.00     0.103 C 
BRANCH   5   6
HETATM    6  C10 UNL     1      -1.424   1.830   2.524  1.00  0.00     0.010 C 
BRANCH   6   7
HETATM    7  C9  UNL     1      -2.225   1.005   1.576  1.00  0.00     0.005 C 
BRANCH   7   8
HETATM    8  C8  UNL     1      -3.581   1.691   1.354  1.00  0.00     0.040 C 
BRANCH   8   9
HETATM    9  C7  UNL     1      -4.363   0.891   0.411  1.00  0.00    -0.045 A 
HETATM   10  C5  UNL     1      -4.109   0.946  -0.923  1.00  0.00    -0.049 A 
HETATM   11  C3  UNL     1      -4.874   0.166  -1.796  1.00  0.00    -0.049 A 
HETATM   12  C6  UNL     1      -3.060   1.797  -1.503  1.00  0.00     0.049 C 
HETATM   13  C2  UNL     1      -5.875  -0.652  -1.322  1.00  0.00    -0.049 A 
HETATM   14  C4  UNL     1      -4.652   0.177  -3.265  1.00  0.00     0.049 C 
HETATM   15  C1  UNL     1      -6.684  -1.480  -2.265  1.00  0.00     0.049 C 
HETATM   16  C25 UNL     1      -6.144  -0.717   0.047  1.00  0.00    -0.049 A 
HETATM   17  C23 UNL     1      -5.381   0.058   0.889  1.00  0.00    -0.049 A 
HETATM   18  C26 UNL     1      -7.226  -1.592   0.565  1.00  0.00     0.049 C 
HETATM   19  C24 UNL     1      -5.614   0.015   2.356  1.00  0.00     0.049 C 
ENDBRANCH   8   9
ENDBRANCH   7   8
ENDBRANCH   6   7
ENDBRANCH   5   6
ENDBRANCH   1   5
BRANCH   3  20
HETATM   20  C13 UNL     1       3.174   0.313   0.985  1.00  0.00     0.158 C 
BRANCH  20  21
HETATM   21  C14 UNL     1       2.980  -0.671  -0.086  1.00  0.00     0.236 C 
HETATM   22  C15 UNL     1       1.918  -0.467  -1.110  1.00  0.00     0.044 C 
BRANCH  21  23
HETATM   23  N2  UNL     1       4.239  -1.019  -0.758  1.00  0.00     0.096 N 
HETATM   24  C16 UNL     1       5.192  -1.635   0.107  1.00  0.00     0.305 C 
HETATM   25  C17 UNL     1       6.232  -2.440  -0.622  1.00  0.00     0.216 C 
HETATM   26  C18 UNL     1       6.208  -2.171  -2.093  1.00  0.00     0.068 C 
HETATM   27  N3  UNL     1       7.501  -1.707  -0.575  1.00  0.00    -0.064 N 
HETATM   28  C19 UNL     1       7.018  -0.970  -1.748  1.00  0.00     0.193 C 
HETATM   29  C20 UNL     1       6.232   0.243  -1.387  1.00  0.00     0.040 C 
HETATM   30  C21 UNL     1       6.575   1.430  -2.288  1.00  0.00     0.014 C 
HETATM   31  C22 UNL     1       4.729   0.031  -1.578  1.00  0.00     0.279 C 
ATOM     32  H32 UNL     1       7.806  -1.223   0.270  1.00  0.00     0.278 HD
ATOM     33  H31 UNL     1       8.398  -2.193  -0.583  1.00  0.00     0.278 HD
ENDBRANCH  21  23
ENDBRANCH  20  21
ENDBRANCH   3  20
TORSDOF 8
