REMARK  8 active torsions:
REMARK  status: ('A' for Active; 'I' for Inactive)
REMARK    1  A    between atoms: C3_3  and  N1_4 
REMARK       I    between atoms: N1_4  and  C4_6 
REMARK    2  A    between atoms: C4_6  and  C5_8 
REMARK    3  A    between atoms: C14_19  and  N3_20 
REMARK       I    between atoms: N3_20  and  C15_22 
REMARK    4  A    between atoms: C15_22  and  C16_24 
REMARK    5  A    between atoms: C16_24  and  C17_25 
REMARK    6  A    between atoms: C17_25  and  C18_26 
REMARK    7  A    between atoms: C18_26  and  O3_27 
REMARK    8  A    between atoms: N5_32  and  C21_33 
ROOT
HETATM    1  C5  UNL     1      -4.427  -1.550   0.456  1.00  0.00     0.130 C 
HETATM    2  C6  UNL     1      -3.940  -2.785   1.107  1.00  0.00     0.079 C 
HETATM    3  N2  UNL     1      -3.545  -3.754   1.608  1.00  0.00    -0.196 NA
HETATM    4  C7  UNL     1      -5.526  -1.916  -0.466  1.00  0.00     0.034 C 
HETATM    5  C8  UNL     1      -6.883  -1.996   0.140  1.00  0.00     0.002 C 
HETATM    6  C9  UNL     1      -7.215  -0.841   1.036  1.00  0.00     0.000 C 
HETATM    7  C10 UNL     1      -6.158  -0.794   2.120  1.00  0.00     0.002 C 
HETATM    8  C11 UNL     1      -4.799  -0.586   1.545  1.00  0.00     0.034 C 
ENDROOT
BRANCH   1   9
HETATM    9  C4  UNL     1      -3.293  -1.019  -0.329  1.00  0.00     0.245 C 
HETATM   10  N1  UNL     1      -2.107  -0.688   0.342  1.00  0.00    -0.319 N 
ATOM     11  H1  UNL     1      -2.043  -0.817   1.352  1.00  0.00     0.169 HD
HETATM   12  O1  UNL     1      -3.397  -0.870  -1.571  1.00  0.00    -0.271 OA
BRANCH  10  13
HETATM   13  C3  UNL     1      -0.968  -0.162  -0.391  1.00  0.00     0.085 A 
HETATM   14  C2  UNL     1       0.249   0.202   0.111  1.00  0.00    -0.013 A 
HETATM   15  C1  UNL     1       0.532   0.076   1.606  1.00  0.00     0.052 C 
HETATM   16  C13 UNL     1       1.165   0.674  -0.772  1.00  0.00     0.036 A 
HETATM   17  C12 UNL     1       0.785   0.742  -2.083  1.00  0.00     0.093 A 
HETATM   18  C14 UNL     1       2.488   1.161  -0.784  1.00  0.00     0.086 A 
HETATM   19  S1  UNL     1      -0.815   0.155  -2.055  1.00  0.00    -0.053 SA
HETATM   20  N5  UNL     1       1.785   1.235  -2.877  1.00  0.00    -0.325 N 
HETATM   21  C19 UNL     1       2.819   1.490  -2.093  1.00  0.00     0.145 A 
HETATM   22  C20 UNL     1       4.077   2.027  -2.566  1.00  0.00     0.120 C 
HETATM   23  N4  UNL     1       5.097   2.441  -2.943  1.00  0.00    -0.190 NA
BRANCH  20  24
HETATM   24  C21 UNL     1       1.618   1.400  -4.304  1.00  0.00     0.092 A 
HETATM   25  C22 UNL     1       1.962   2.803  -4.800  1.00  0.00     0.028 A 
HETATM   26  C23 UNL     1       0.519   2.371  -4.709  1.00  0.00     0.028 A 
ENDBRANCH  20  24
BRANCH  18  27
HETATM   27  N3  UNL     1       3.408   1.318   0.274  1.00  0.00    -0.324 N 
HETATM   28  C15 UNL     1       4.368   0.362   0.648  1.00  0.00     0.222 C 
HETATM   29  O2  UNL     1       4.426  -0.734  -0.006  1.00  0.00    -0.273 OA
ATOM     30  H3  UNL     1       3.374   2.188   0.806  1.00  0.00     0.169 HD
BRANCH  28  31
HETATM   31  C16 UNL     1       5.299   0.610   1.776  1.00  0.00     0.105 C 
BRANCH  31  32
HETATM   32  C17 UNL     1       6.200  -0.572   1.939  1.00  0.00     0.035 C 
BRANCH  32  33
HETATM   33  C18 UNL     1       7.183  -0.407   3.068  1.00  0.00     0.164 C 
BRANCH  33  34
HETATM   34  O3  UNL     1       6.579  -0.228   4.293  1.00  0.00    -0.401 OA
ATOM     35  H3  UNL     1       7.199  -0.124   5.005  1.00  0.00     0.209 HD
ENDBRANCH  33  34
ENDBRANCH  32  33
ENDBRANCH  31  32
ENDBRANCH  28  31
ENDBRANCH  18  27
ENDBRANCH  10  13
ENDBRANCH   1   9
TORSDOF 8
