REMARK  20 active torsions:
REMARK  status: ('A' for Active; 'I' for Inactive)
REMARK    1  A    between atoms: C2_2  and  C3_3 
REMARK    2  A    between atoms: C3_3  and  C4_4 
REMARK    3  A    between atoms: C5_5  and  C6_6 
REMARK    4  A    between atoms: C6_6  and  C7_7 
REMARK    5  A    between atoms: C8_8  and  C9_9 
REMARK    6  A    between atoms: C9_9  and  C10_10 
REMARK    7  A    between atoms: C11_11  and  C12_12 
REMARK    8  A    between atoms: C12_12  and  C13_13 
REMARK    9  A    between atoms: C14_14  and  C15_15 
REMARK   10  A    between atoms: C15_15  and  C16_16 
REMARK   11  A    between atoms: C17_17  and  C18_18 
REMARK   12  A    between atoms: C18_18  and  C19_19 
REMARK   13  A    between atoms: C19_19  and  C20_20 
REMARK   14  A    between atoms: C20_20  and  C21_21 
REMARK   15  A    between atoms: C21_21  and  C22_22 
REMARK   16  A    between atoms: C22_22  and  C23_23 
REMARK   17  A    between atoms: C23_23  and  C24_24 
REMARK   18  A    between atoms: C24_24  and  C25_25 
REMARK   19  A    between atoms: C25_25  and  O1_26 
REMARK   20  A    between atoms: O1_26  and  C26_27 
ROOT
HETATM    1  C16 UNL     1       0.296  -1.961  -2.161  1.00  0.00    -0.027 C 
HETATM    2  C17 UNL     1      -0.201  -2.246  -0.995  1.00  0.00    -0.027 C 
ENDROOT
BRANCH   1   3
HETATM    3  C15 UNL     1       1.300  -2.878  -2.839  1.00  0.00     0.053 C 
BRANCH   3   4
HETATM    4  C14 UNL     1       2.510  -2.072  -3.028  1.00  0.00    -0.027 C 
HETATM    5  C13 UNL     1       3.670  -2.370  -2.511  1.00  0.00    -0.027 C 
BRANCH   5   6
HETATM    6  C12 UNL     1       3.906  -3.549  -1.678  1.00  0.00     0.053 C 
BRANCH   6   7
HETATM    7  C11 UNL     1       4.370  -3.180  -0.307  1.00  0.00    -0.027 C 
HETATM    8  C10 UNL     1       4.541  -1.932   0.078  1.00  0.00    -0.027 C 
BRANCH   8   9
HETATM    9  C9  UNL     1       5.002  -1.598   1.447  1.00  0.00     0.053 C 
BRANCH   9  10
HETATM   10  C8  UNL     1       6.302  -0.850   1.362  1.00  0.00    -0.027 C 
HETATM   11  C7  UNL     1       6.834  -0.607   0.193  1.00  0.00    -0.027 C 
BRANCH  11  12
HETATM   12  C6  UNL     1       8.119   0.130   0.084  1.00  0.00     0.053 C 
BRANCH  12  13
HETATM   13  C5  UNL     1       8.586   0.466   1.448  1.00  0.00    -0.027 C 
HETATM   14  C4  UNL     1       8.777   1.681   1.861  1.00  0.00    -0.027 C 
BRANCH  14  15
HETATM   15  C3  UNL     1       8.574   2.894   1.083  1.00  0.00     0.053 C 
BRANCH  15  16
HETATM   16  C2  UNL     1       7.531   3.746   1.759  1.00  0.00    -0.033 C 
HETATM   17  C1  UNL     1       6.967   3.311   2.853  1.00  0.00     0.007 C 
ENDBRANCH  15  16
ENDBRANCH  14  15
ENDBRANCH  12  13
ENDBRANCH  11  12
ENDBRANCH   9  10
ENDBRANCH   8   9
ENDBRANCH   6   7
ENDBRANCH   5   6
ENDBRANCH   3   4
ENDBRANCH   1   3
BRANCH   2  18
HETATM   18  C18 UNL     1      -1.202  -1.332  -0.314  1.00  0.00     0.053 C 
BRANCH  18  19
HETATM   19  C19 UNL     1      -1.483  -0.142  -1.136  1.00  0.00    -0.027 C 
BRANCH  19  20
HETATM   20  C20 UNL     1      -2.385   0.912  -0.698  1.00  0.00    -0.030 C 
BRANCH  20  21
HETATM   21  C21 UNL     1      -3.846   0.704  -0.482  1.00  0.00     0.027 C 
BRANCH  21  22
HETATM   22  C22 UNL     1      -4.228  -0.277   0.527  1.00  0.00     0.004 C 
BRANCH  22  23
HETATM   23  C23 UNL     1      -5.640  -0.375   0.947  1.00  0.00     0.002 C 
BRANCH  23  24
HETATM   24  C24 UNL     1      -6.676  -0.724  -0.015  1.00  0.00     0.027 C 
BRANCH  24  25
HETATM   25  C25 UNL     1      -6.928   0.262  -1.105  1.00  0.00     0.175 C 
BRANCH  25  26
HETATM   26  O1  UNL     1      -7.229   1.524  -0.644  1.00  0.00    -0.351 OA
BRANCH  26  27
HETATM   27  C26 UNL     1      -8.258   2.043   0.068  1.00  0.00     0.068 A 
HETATM   28  C27 UNL     1      -9.338   1.308   0.478  1.00  0.00     0.037 A 
HETATM   29  C28 UNL     1     -10.394   1.848   1.217  1.00  0.00     0.003 A 
HETATM   30  C29 UNL     1     -10.323   3.179   1.533  1.00  0.00     0.000 A 
HETATM   31  C30 UNL     1      -9.243   3.951   1.132  1.00  0.00     0.003 A 
HETATM   32  C31 UNL     1      -8.237   3.404   0.419  1.00  0.00     0.037 A 
ENDBRANCH  26  27
ENDBRANCH  25  26
ENDBRANCH  24  25
ENDBRANCH  23  24
ENDBRANCH  22  23
ENDBRANCH  21  22
ENDBRANCH  20  21
ENDBRANCH  19  20
ENDBRANCH  18  19
ENDBRANCH   2  18
TORSDOF 20
