REMARK  6 active torsions:
REMARK  status: ('A' for Active; 'I' for Inactive)
REMARK    1  A    between atoms: C6_10  and  N3_11 
REMARK    2  A    between atoms: C8_15  and  C9_16 
REMARK    3  A    between atoms: C10_17  and  C11_18 
REMARK    4  A    between atoms: C16_25  and  C17_26 
REMARK       I    between atoms: C17_26  and  N5_28 
REMARK    5  A    between atoms: N5_28  and  C18_30 
REMARK    6  A    between atoms: C18_30  and  C19_31 
ROOT
HETATM    1  C9  UNL     1      -2.012   0.776   0.327  1.00  0.00     0.016 A 
HETATM    2  C10 UNL     1      -2.576   1.332   1.463  1.00  0.00    -0.021 A 
HETATM    3  C15 UNL     1      -1.538   1.550   2.378  1.00  0.00     0.097 A 
HETATM    4  N4  UNL     1      -0.414   1.135   1.789  1.00  0.00    -0.360 N 
ATOM      5  H4  UNL     1       0.509   1.172   2.222  1.00  0.00     0.165 HD
HETATM    6  C16 UNL     1      -0.650   0.666   0.565  1.00  0.00     0.112 A 
ENDROOT
BRANCH   1   7
HETATM    7  C8  UNL     1      -2.729   0.370  -0.888  1.00  0.00    -0.001 A 
HETATM    8  C2  UNL     1      -2.996   1.251  -1.908  1.00  0.00    -0.050 A 
HETATM    9  C1  UNL     1      -2.560   2.657  -1.794  1.00  0.00     0.049 C 
HETATM   10  C3  UNL     1      -3.662   0.816  -3.031  1.00  0.00     0.010 A 
HETATM   11  C4  UNL     1      -4.085  -0.483  -3.194  1.00  0.00     0.032 A 
HETATM   12  C5  UNL     1      -3.823  -1.378  -2.178  1.00  0.00     0.063 A 
HETATM   13  N1  UNL     1      -4.099  -2.699  -2.047  1.00  0.00    -0.298 N 
HETATM   14  C7  UNL     1      -3.151  -0.944  -1.041  1.00  0.00     0.049 A 
HETATM   15  N2  UNL     1      -3.625  -3.088  -0.881  1.00  0.00    -0.285 N 
ATOM     16  H1  UNL     1      -4.585  -3.284  -2.727  1.00  0.00     0.187 HD
HETATM   17  C6  UNL     1      -3.044  -2.059  -0.242  1.00  0.00     0.127 A 
ATOM     18  H2  UNL     1      -3.690  -4.038  -0.515  1.00  0.00     0.188 HD
BRANCH  17  19
HETATM   19  N3  UNL     1      -2.468  -2.063   0.919  1.00  0.00    -0.384 N 
ATOM     20  H32 UNL     1      -2.389  -2.890   1.511  1.00  0.00     0.157 HD
ATOM     21  H31 UNL     1      -2.027  -1.282   1.404  1.00  0.00     0.157 HD
ENDBRANCH  17  19
ENDBRANCH   1   7
BRANCH   2  22
HETATM   22  C11 UNL     1      -3.973   1.689   1.769  1.00  0.00    -0.015 A 
HETATM   23  C12 UNL     1      -5.029   0.592   1.754  1.00  0.00     0.020 C 
HETATM   24  C13 UNL     1      -4.158   2.679   2.921  1.00  0.00     0.015 A 
HETATM   25  C14 UNL     1      -4.479   3.064   1.545  1.00  0.00     0.015 A 
ENDBRANCH   2  22
BRANCH   6  26
HETATM   26  C17 UNL     1       0.310   0.133  -0.386  1.00  0.00     0.269 C 
HETATM   27  O1  UNL     1      -0.079  -0.262  -1.508  1.00  0.00    -0.266 OA
HETATM   28  N5  UNL     1       1.684   0.066  -0.029  1.00  0.00    -0.355 N 
ATOM     29  H5  UNL     1       1.999   0.388   0.886  1.00  0.00     0.162 HD
BRANCH  28  30
HETATM   30  C18 UNL     1       2.639  -0.473  -0.997  1.00  0.00     0.127 C 
BRANCH  30  31
HETATM   31  C19 UNL     1       4.033  -0.450  -0.411  1.00  0.00     0.007 C 
HETATM   32  C20 UNL     1       4.129  -1.276   0.850  1.00  0.00     0.036 C 
HETATM   33  C21 UNL     1       5.549  -1.667   1.071  1.00  0.00     0.272 C 
HETATM   34  N6  UNL     1       6.523  -0.765   0.494  1.00  0.00     0.084 N 
HETATM   35  C22 UNL     1       7.850  -0.994   0.970  1.00  0.00     0.309 C 
HETATM   36  C23 UNL     1       6.425  -0.719  -0.952  1.00  0.00     0.272 C 
HETATM   37  C24 UNL     1       5.012  -1.028  -1.411  1.00  0.00     0.036 C 
ENDBRANCH  30  31
ENDBRANCH  28  30
ENDBRANCH   6  26
TORSDOF 6
