REMARK  7 active torsions:
REMARK  status: ('A' for Active; 'I' for Inactive)
REMARK    1  A    between atoms: C3_5  and  C4_6 
REMARK    2  A    between atoms: C5_11  and  N3_12 
REMARK       I    between atoms: N3_12  and  C6_14 
REMARK       I    between atoms: C6_14  and  N4_15 
REMARK       I    between atoms: C6_14  and  N5_19 
REMARK    3  A    between atoms: C8_25  and  N7_26 
REMARK    4  A    between atoms: C9_31  and  C10_32 
REMARK       I    between atoms: C10_32  and  N10_34 
REMARK       I    between atoms: N10_34  and  C11_36 
REMARK       I    between atoms: C11_36  and  N12_40 
REMARK    5  A    between atoms: N12_40  and  N13_42 
REMARK    6  A    between atoms: C12_45  and  C13_46 
REMARK       I    between atoms: C13_46  and  N14_48 
REMARK    7  A    between atoms: N14_48  and  O5_50 
ROOT
HETATM    1  N7  UNL     1       0.653  -0.315   0.937  1.00  0.00    -0.230 N 
HETATM    2  N8  UNL     1       1.248  -0.123   2.121  1.00  0.00    -0.234 N 
ATOM      3  H8  UNL     1       0.768  -0.187   3.019  1.00  0.00     0.209 HD
HETATM    4  N9  UNL     1       2.492   0.150   1.991  1.00  0.00    -0.278 N 
ATOM      5  H9  UNL     1       3.140   0.331   2.758  1.00  0.00     0.189 HD
HETATM    6  C9  UNL     1       2.818   0.160   0.649  1.00  0.00     0.152 A 
HETATM    7  C12 UNL     1       1.625  -0.142   0.018  1.00  0.00     0.161 A 
ENDROOT
BRANCH   1   8
HETATM    8  C8  UNL     1      -0.708  -0.651   0.762  1.00  0.00     0.108 C 
HETATM    9  C2  UNL     1      -0.934  -1.878   0.187  1.00  0.00     0.038 C 
HETATM   10  C1  UNL     1       0.183  -2.837   0.332  1.00  0.00     0.070 C 
HETATM   11  N1  UNL     1      -2.046  -2.310  -0.484  1.00  0.00    -0.338 N 
HETATM   12  C3  UNL     1      -3.306  -1.901  -0.328  1.00  0.00     0.185 C 
ATOM     13  H1  UNL     1      -1.893  -3.032  -1.188  1.00  0.00     0.167 HD
HETATM   14  N2  UNL     1      -3.726  -0.725   0.170  1.00  0.00    -0.322 N 
HETATM   15  C5  UNL     1      -3.054   0.205   0.916  1.00  0.00     0.132 C 
ATOM     16  H2  UNL     1      -4.696  -0.489  -0.041  1.00  0.00     0.169 HD
HETATM   17  C7  UNL     1      -1.699   0.224   1.175  1.00  0.00     0.120 C 
HETATM   18  N6  UNL     1      -1.271   1.303   1.982  1.00  0.00    -0.096 NA
BRANCH  12  19
HETATM   19  C4  UNL     1      -4.382  -2.827  -0.743  1.00  0.00     0.245 C 
HETATM   20  O1  UNL     1      -5.580  -2.545  -0.641  1.00  0.00    -0.642 OA
HETATM   21  O2  UNL     1      -3.997  -4.050  -1.260  1.00  0.00    -0.642 OA
ENDBRANCH  12  19
BRANCH  15  22
HETATM   22  N3  UNL     1      -3.725   1.171   1.439  1.00  0.00    -0.325 N 
HETATM   23  C6  UNL     1      -5.150   1.225   1.215  1.00  0.00     0.481 C 
HETATM   24  N4  UNL     1      -5.573   2.571   0.858  1.00  0.00    -0.033 N 
HETATM   25  N5  UNL     1      -5.894   0.752   2.370  1.00  0.00    -0.033 N 
ATOM     26  H43 UNL     1      -5.276   3.255   1.554  1.00  0.00     0.278 HD
ATOM     27  H42 UNL     1      -5.053   2.928   0.057  1.00  0.00     0.278 HD
ATOM     28  H41 UNL     1      -6.580   2.609   0.700  1.00  0.00     0.278 HD
ATOM     29  H53 UNL     1      -5.596  -0.184   2.647  1.00  0.00     0.278 HD
ATOM     30  H52 UNL     1      -5.631   1.259   3.215  1.00  0.00     0.278 HD
ATOM     31  H51 UNL     1      -6.901   0.790   2.212  1.00  0.00     0.278 HD
ATOM     32  H3  UNL     1      -3.259   1.884   2.000  1.00  0.00     0.165 HD
ENDBRANCH  15  22
ENDBRANCH   1   8
BRANCH   7  33
HETATM   33  C13 UNL     1       1.429  -0.262  -1.412  1.00  0.00     0.296 C 
HETATM   34  O4  UNL     1       2.364  -0.752  -2.091  1.00  0.00    -0.264 OA
HETATM   35  N14 UNL     1       0.267   0.135  -2.087  1.00  0.00    -0.232 N 
ATOM     36  H14 UNL     1      -0.510   0.542  -1.566  1.00  0.00     0.197 HD
BRANCH  35  37
HETATM   37  O5  UNL     1       0.171  -0.023  -3.450  1.00  0.00    -0.287 OA
ATOM     38  H5  UNL     1      -0.617   0.246  -3.908  1.00  0.00     0.244 HD
ENDBRANCH  35  37
ENDBRANCH   7  33
BRANCH   6  39
HETATM   39  C10 UNL     1       4.148   0.418   0.168  1.00  0.00     0.290 C 
HETATM   40  O3  UNL     1       5.131   0.006   0.874  1.00  0.00    -0.265 OA
HETATM   41  N10 UNL     1       4.451   1.097  -1.016  1.00  0.00    -0.153 N 
HETATM   42  C11 UNL     1       5.793   1.318  -1.460  1.00  0.00     0.693 C 
ATOM     43  H10 UNL     1       3.683   1.450  -1.587  1.00  0.00     0.187 HD
HETATM   44  N11 UNL     1       5.959   1.955  -2.565  1.00  0.00    -0.233 N 
HETATM   45  N12 UNL     1       6.936   0.872  -0.746  1.00  0.00    -0.139 N 
ATOM     46 2H11 UNL     1       5.138   2.275  -3.078  1.00  0.00     0.174 HD
ATOM     47 1H11 UNL     1       6.916   2.113  -2.882  1.00  0.00     0.174 HD
ATOM     48  H12 UNL     1       7.079  -0.125  -0.586  1.00  0.00     0.205 HD
BRANCH  45  49
HETATM   49  N13 UNL     1       7.866   1.796  -0.262  1.00  0.00    -0.331 N 
ATOM     50 2H13 UNL     1       7.708   2.790  -0.431  1.00  0.00     0.177 HD
ATOM     51 1H13 UNL     1       8.687   1.476   0.251  1.00  0.00     0.177 HD
ENDBRANCH  45  49
ENDBRANCH   6  39
TORSDOF 7
