REMARK  9 active torsions:
REMARK  status: ('A' for Active; 'I' for Inactive)
REMARK    1  A    between atoms: N1_1  and  C1_4 
REMARK    2  A    between atoms: C3_8  and  O1_9 
REMARK    3  A    between atoms: O1_9  and  C4_10 
REMARK    4  A    between atoms: C4_10  and  C5_11 
REMARK    5  A    between atoms: C7_15  and  C8_16 
REMARK    6  A    between atoms: C9_20  and  S1_21 
REMARK    7  A    between atoms: S1_21  and  N5_22 
REMARK    8  A    between atoms: N5_22  and  N6_24 
REMARK    9  A    between atoms: C10_34  and  N11_35 
ROOT
HETATM    1  C5  UNL     1      -1.374  -0.331   0.479  1.00  0.00     0.050 A 
HETATM    2  C6  UNL     1      -1.068  -0.191  -0.836  1.00  0.00     0.115 A 
HETATM    3  N3  UNL     1       0.227  -0.152  -1.240  1.00  0.00    -0.362 N 
ATOM      4  H3  UNL     1       0.427  -0.046  -2.235  1.00  0.00     0.165 HD
HETATM    5  C7  UNL     1       1.255  -0.247  -0.382  1.00  0.00     0.101 A 
HETATM    6  C10 UNL     1       0.888  -0.391   0.964  1.00  0.00     0.125 A 
HETATM    7  N12 UNL     1      -0.395  -0.430   1.369  1.00  0.00    -0.342 N 
ATOM      8  H12 UNL     1      -0.615  -0.536   2.359  1.00  0.00     0.167 HD
ENDROOT
BRANCH   5   9
HETATM    9  C8  UNL     1       2.686  -0.212  -0.781  1.00  0.00     0.384 C 
HETATM   10  N4  UNL     1       3.356   0.659   0.143  1.00  0.00    -0.018 N 
HETATM   11  C9  UNL     1       3.952   1.759  -0.485  1.00  0.00     0.380 C 
ATOM     12  H42 UNL     1       2.725   0.960   0.885  1.00  0.00     0.282 HD
ATOM     13  H41 UNL     1       4.036   0.145   0.703  1.00  0.00     0.282 HD
HETATM   14  N10 UNL     1       3.101   2.234  -1.566  1.00  0.00    -0.278 N 
HETATM   15  S2  UNL     1       2.800   0.676  -2.314  1.00  0.00     0.264 S 
ATOM     16  H10 UNL     1       2.782   3.172  -1.810  1.00  0.00     0.175 HD
HETATM   17  O2  UNL     1       1.572   0.670  -3.122  1.00  0.00    -0.203 OA
HETATM   18  O3  UNL     1       4.031   0.301  -3.082  1.00  0.00    -0.203 OA
BRANCH  11  19
HETATM   19  S1  UNL     1       5.570   1.385  -1.229  1.00  0.00     0.020 SA
BRANCH  19  20
HETATM   20  N5  UNL     1       6.773   0.993  -0.008  1.00  0.00    -0.235 N 
ATOM     21  H5  UNL     1       7.138   1.725   0.601  1.00  0.00     0.198 HD
BRANCH  20  22
HETATM   22  N6  UNL     1       7.227  -0.311   0.128  1.00  0.00    -0.098 N 
HETATM   23  N7  UNL     1       6.925  -1.398   0.791  1.00  0.00    -0.193 N 
HETATM   24  N8  UNL     1       7.934  -2.078   0.237  1.00  0.00     0.013 NA
ATOM     25  H7  UNL     1       6.200  -1.635   1.468  1.00  0.00     0.208 HD
HETATM   26  N9  UNL     1       8.231  -0.974  -0.428  1.00  0.00     0.034 NA
ENDBRANCH  20  22
ENDBRANCH  19  20
ENDBRANCH  11  19
ENDBRANCH   5   9
BRANCH   6  27
HETATM   27  N11 UNL     1       1.881  -0.484   1.796  1.00  0.00    -0.384 N 
ATOM     28 2H11 UNL     1       2.853  -0.454   1.489  1.00  0.00     0.157 HD
ATOM     29 1H11 UNL     1       1.614  -0.589   2.775  1.00  0.00     0.157 HD
ENDBRANCH   6  27
BRANCH   1  30
HETATM   30  C4  UNL     1      -2.781  -0.378   0.952  1.00  0.00     0.234 C 
BRANCH  30  31
HETATM   31  O1  UNL     1      -3.624  -0.277  -0.159  1.00  0.00    -0.339 OA
BRANCH  31  32
HETATM   32  C3  UNL     1      -4.999  -0.285  -0.117  1.00  0.00     0.153 A 
HETATM   33  C2  UNL     1      -5.659  -0.398   1.085  1.00  0.00     0.148 A 
HETATM   34  N2  UNL     1      -7.003  -0.407   1.133  1.00  0.00    -0.199 N 
HETATM   35  C1  UNL     1      -7.730  -0.305   0.021  1.00  0.00     0.678 A 
ATOM     36  H2  UNL     1      -7.473  -0.493   2.034  1.00  0.00     0.183 HD
HETATM   37  N13 UNL     1      -7.080  -0.192  -1.168  1.00  0.00    -0.154 N 
HETATM   38  C11 UNL     1      -5.740  -0.179  -1.272  1.00  0.00     0.294 A 
ATOM     39  H13 UNL     1      -7.635  -0.113  -2.020  1.00  0.00     0.187 HD
HETATM   40  O4  UNL     1      -5.173  -0.072  -2.408  1.00  0.00    -0.265 OA
BRANCH  35  41
HETATM   41  N1  UNL     1      -9.015  -0.312   0.064  1.00  0.00    -0.234 N 
ATOM     42  H12 UNL     1      -9.503  -0.397   0.956  1.00  0.00     0.174 HD
ATOM     43  H11 UNL     1      -9.572  -0.234  -0.787  1.00  0.00     0.174 HD
ENDBRANCH  35  41
ENDBRANCH  31  32
ENDBRANCH  30  31
ENDBRANCH   1  30
TORSDOF 9
