REMARK  8 active torsions:
REMARK  status: ('A' for Active; 'I' for Inactive)
REMARK    1  A    between atoms: C2_2  and  C3_3 
REMARK    2  A    between atoms: C3_3  and  N1_4 
REMARK    3  A    between atoms: C3_3  and  C11_32 
REMARK       I    between atoms: N1_4  and  C4_6 
REMARK    4  A    between atoms: C4_6  and  C5_8 
REMARK    5  A    between atoms: C8_17  and  N6_18 
REMARK    6  A    between atoms: C10_27  and  N10_28 
REMARK    7  A    between atoms: C11_32  and  O3_33 
REMARK    8  A    between atoms: C11_32  and  O4_35 
ROOT
HETATM    1  C5  UNL     1      -0.078  -0.255   0.620  1.00  0.00     0.224 C 
HETATM    2  C6  UNL     1      -0.462   0.614  -0.545  1.00  0.00     0.276 C 
HETATM    3  O2  UNL     1       0.266   1.393  -1.203  1.00  0.00    -0.270 OA
HETATM    4  N2  UNL     1      -1.842   0.425  -0.820  1.00  0.00    -0.042 N 
HETATM    5  C7  UNL     1      -2.675   1.276  -1.609  1.00  0.00     0.738 A 
HETATM    6  N3  UNL     1      -2.631   2.333  -2.430  1.00  0.00    -0.112 N 
ATOM      7  H3  UNL     1      -1.891   2.935  -2.792  1.00  0.00     0.203 HD
HETATM    8  N4  UNL     1      -3.944   2.274  -2.578  1.00  0.00     0.013 NA
HETATM    9  N5  UNL     1      -4.018   1.228  -1.770  1.00  0.00    -0.055 N 
HETATM   10  C8  UNL     1      -5.007   0.357  -1.233  1.00  0.00     0.426 C 
HETATM   11  N7  UNL     1      -4.583  -0.861  -0.691  1.00  0.00    -0.318 N 
ATOM     12  H7  UNL     1      -5.358  -1.521  -0.637  1.00  0.00     0.166 HD
HETATM   13  C9  UNL     1      -3.508  -1.388  -0.244  1.00  0.00     0.211 C 
HETATM   14  N8  UNL     1      -3.574  -2.720   0.223  1.00  0.00    -0.062 NA
HETATM   15  N9  UNL     1      -2.252  -0.764  -0.170  1.00  0.00    -0.208 N 
HETATM   16  C10 UNL     1      -1.153  -1.286   0.624  1.00  0.00     0.330 C 
ENDROOT
BRANCH   1  17
HETATM   17  C4  UNL     1       1.279  -0.767   0.527  1.00  0.00     0.235 C 
HETATM   18  N1  UNL     1       2.368   0.146   0.467  1.00  0.00    -0.351 N 
ATOM     19  H1  UNL     1       2.176   1.148   0.490  1.00  0.00     0.163 HD
HETATM   20  O1  UNL     1       1.461  -2.009   0.502  1.00  0.00    -0.272 OA
BRANCH  18  21
HETATM   21  C3  UNL     1       3.749  -0.308   0.374  1.00  0.00     0.139 C 
BRANCH  21  22
HETATM   22  C2  UNL     1       4.561   0.114   1.565  1.00  0.00     0.025 C 
HETATM   23  C1  UNL     1       4.624   1.599   1.747  1.00  0.00     0.007 C 
ENDBRANCH  21  22
BRANCH  21  24
HETATM   24  C11 UNL     1       4.381   0.132  -0.930  1.00  0.00     0.276 C 
BRANCH  24  25
HETATM   25  O3  UNL     1       3.654  -0.409  -1.989  1.00  0.00    -0.369 OA
ATOM     26  H3  UNL     1       4.050  -0.133  -2.807  1.00  0.00     0.212 HD
ENDBRANCH  24  25
BRANCH  24  27
HETATM   27  O4  UNL     1       5.664  -0.363  -0.998  1.00  0.00    -0.369 OA
ATOM     28  H4  UNL     1       6.060  -0.087  -1.816  1.00  0.00     0.212 HD
ENDBRANCH  24  27
ENDBRANCH  21  24
ENDBRANCH  18  21
ENDBRANCH   1  17
BRANCH  16  29
HETATM   29  N10 UNL     1      -1.692  -1.450   1.984  1.00  0.00    -0.055 N 
ATOM     30 3H10 UNL     1      -0.959  -1.660   2.662  1.00  0.00     0.276 HD
ATOM     31 2H10 UNL     1      -2.011  -0.565   2.377  1.00  0.00     0.276 HD
ATOM     32 1H10 UNL     1      -2.428  -2.156   1.987  1.00  0.00     0.276 HD
ENDBRANCH  16  29
BRANCH  10  33
HETATM   33  N6  UNL     1      -5.744   1.094  -0.193  1.00  0.00    -0.038 N 
ATOM     34  H63 UNL     1      -5.132   1.485   0.523  1.00  0.00     0.279 HD
ATOM     35  H62 UNL     1      -6.134   1.973  -0.533  1.00  0.00     0.279 HD
ATOM     36  H61 UNL     1      -6.453   0.470   0.192  1.00  0.00     0.279 HD
ENDBRANCH  10  33
TORSDOF 8
