REMARK  6 active torsions:
REMARK  status: ('A' for Active; 'I' for Inactive)
REMARK    1  A    between atoms: O1_2  and  N1_3 
REMARK    2  A    between atoms: N1_3  and  C2_5 
REMARK    3  A    between atoms: C2_5  and  N2_7 
REMARK    4  A    between atoms: C3_9  and  C4_10 
REMARK    5  A    between atoms: C3_9  and  N3_12 
REMARK    6  A    between atoms: N3_12  and  C5_14 
ROOT
HETATM    1  N2  UNL     1       1.805  -0.917  -0.625  1.00  0.00    -0.321 N 
ATOM      2  H2  UNL     1       2.291  -1.695  -1.072  1.00  0.00     0.169 HD
HETATM    3  C3  UNL     1       0.588  -1.105  -0.174  1.00  0.00     0.089 C 
ENDROOT
BRANCH   3   4
HETATM    4  C4  UNL     1      -0.011  -2.447  -0.343  1.00  0.00     0.161 C 
HETATM    5 BR1  UNL     1       1.304  -3.686  -1.105  1.00  0.00    -0.088 Br
ENDBRANCH   3   4
BRANCH   3   6
HETATM    6  N3  UNL     1      -0.107  -0.063   0.442  1.00  0.00    -0.374 N 
ATOM      7  H3  UNL     1       0.476   0.588   0.968  1.00  0.00     0.161 HD
BRANCH   6   8
HETATM    8  C5  UNL     1      -1.487   0.235   0.455  1.00  0.00     0.082 C 
HETATM    9  C6  UNL     1      -2.109   0.463  -0.916  1.00  0.00     0.025 C 
HETATM   10  C7  UNL     1      -3.563   0.725  -0.494  1.00  0.00     0.002 C 
HETATM   11  C8  UNL     1      -3.772  -0.088   0.774  1.00  0.00     0.002 C 
HETATM   12  C9  UNL     1      -2.414  -0.757   1.056  1.00  0.00     0.025 C 
ENDBRANCH   6   8
ENDBRANCH   3   6
BRANCH   1  13
HETATM   13  C2  UNL     1       2.466   0.327  -0.513  1.00  0.00     0.197 C 
HETATM   14  S1  UNL     1       2.220   1.446  -1.675  1.00  0.00    -0.039 SA
BRANCH  13  15
HETATM   15  N1  UNL     1       3.335   0.653   0.563  1.00  0.00    -0.241 N 
ATOM     16  H1  UNL     1       3.492  -0.043   1.292  1.00  0.00     0.197 HD
BRANCH  15  17
HETATM   17  O1  UNL     1       3.961   1.842   0.663  1.00  0.00    -0.283 OA
HETATM   18  C1  UNL     1       5.196   1.697   0.001  1.00  0.00     0.237 C 
ENDBRANCH  15  17
ENDBRANCH  13  15
ENDBRANCH   1  13
TORSDOF 6
