REMARK  2 active torsions:
REMARK  status: ('A' for Active; 'I' for Inactive)
REMARK    1  A    between atoms: C3_8  and  C4_9 
REMARK    2  A    between atoms: C4_9  and  N3_10 
ROOT
HETATM    1  N1  UNL     1       4.723   0.647  -0.969  1.00  0.00    -0.233 N 
ATOM      2  H11 UNL     1       5.616   0.256  -0.670  1.00  0.00     0.174 HD
ATOM      3  H12 UNL     1       4.769   1.363  -1.694  1.00  0.00     0.174 HD
HETATM    4  C1  UNL     1       3.583   0.277  -0.478  1.00  0.00     0.690 A 
HETATM    5  N2  UNL     1       2.347   0.818  -0.892  1.00  0.00    -0.199 N 
ATOM      6  H2  UNL     1       2.337   1.538  -1.615  1.00  0.00     0.183 HD
HETATM    7  C2  UNL     1       1.121   0.388  -0.330  1.00  0.00     0.134 A 
HETATM    8  C3  UNL     1       1.073  -0.538   0.606  1.00  0.00     0.062 A 
HETATM    9  N6  UNL     1       2.282  -1.116   1.061  1.00  0.00    -0.288 N 
ATOM     10  H6  UNL     1       2.247  -1.832   1.786  1.00  0.00     0.187 HD
HETATM   11  N7  UNL     1       3.518  -0.735   0.547  1.00  0.00    -0.132 N 
ATOM     12  H7  UNL     1       4.373  -1.169   0.894  1.00  0.00     0.205 HD
ENDROOT
BRANCH   8  13
HETATM   13  C4  UNL     1      -0.185  -0.999   1.202  1.00  0.00     0.213 C 
BRANCH  13  14
HETATM   14  N3  UNL     1      -1.355  -0.335   0.657  1.00  0.00    -0.237 N 
HETATM   15  N4  UNL     1      -1.914   0.801   1.129  1.00  0.00    -0.241 N 
HETATM   16  N5  UNL     1      -2.589   1.606   0.291  1.00  0.00    -0.117 NA
ATOM     17  H4  UNL     1      -1.824   1.046   2.115  1.00  0.00     0.204 HD
HETATM   18  C5  UNL     1      -3.661   0.891  -0.369  1.00  0.00     0.225 C 
HETATM   19  C6  UNL     1      -3.144  -0.309  -1.050  1.00  0.00     0.234 C 
HETATM   20  O1  UNL     1      -3.660  -0.807  -2.084  1.00  0.00    -0.286 OA
HETATM   21  C7  UNL     1      -1.949  -0.960  -0.479  1.00  0.00     0.310 C 
HETATM   22  O2  UNL     1      -1.499  -2.017  -0.994  1.00  0.00    -0.262 OA
ENDBRANCH  13  14
ENDBRANCH   8  13
TORSDOF 2
