REMARK  1 active torsions:
REMARK  status: ('A' for Active; 'I' for Inactive)
REMARK    1  A    between atoms: C2_2  and  C4_4 
ROOT
HETATM    1  C4  UNL     1       0.009   0.160  -0.391  1.00  0.00     0.220 C 
HETATM    2  C5  UNL     1       0.589  -1.159   0.029  1.00  0.00     0.201 C 
HETATM    3  O1  UNL     1       1.932  -1.212  -0.237  1.00  0.00    -0.381 OA
HETATM    4  C6  UNL     1       2.669  -0.157   0.221  1.00  0.00     0.278 C 
HETATM    5  C7  UNL     1       2.096   1.185  -0.239  1.00  0.00     0.425 C 
HETATM    6  F1  UNL     1       2.796   2.198   0.338  1.00  0.00    -0.172 F 
HETATM    7  F2  UNL     1       2.162   1.185  -1.620  1.00  0.00    -0.172 F 
HETATM    8  N1  UNL     1       0.693   1.295   0.186  1.00  0.00    -0.001 N 
ATOM      9  H11 UNL     1       0.579   1.367   1.197  1.00  0.00     0.285 HD
ATOM     10  H12 UNL     1       0.266   2.190  -0.051  1.00  0.00     0.285 HD
ENDROOT
BRANCH   1  11
HETATM   11  C2  UNL     1      -1.474   0.230  -0.117  1.00  0.00     0.010 C 
HETATM   12  C1  UNL     1      -2.225  -0.842  -0.856  1.00  0.00     0.011 C 
HETATM   13  C3  UNL     1      -1.793   0.134   1.342  1.00  0.00     0.011 C 
ENDBRANCH   1  11
TORSDOF 1
