REMARK  3 active torsions:
REMARK  status: ('A' for Active; 'I' for Inactive)
REMARK       I    between atoms: N2_3  and  C2_5 
REMARK    1  A    between atoms: C2_5  and  C3_7 
REMARK    2  A    between atoms: C4_8  and  C5_9 
REMARK       I    between atoms: C5_9  and  N3_11 
REMARK    3  A    between atoms: N3_11  and  N4_13 
ROOT
HETATM    1  N1  UNL     1      -3.491  -3.736  -0.783  1.00  0.00    -0.172 NA
HETATM    2  C1  UNL     1      -3.054  -2.651  -0.732  1.00  0.00     0.184 C 
HETATM    3  N2  UNL     1      -2.519  -1.366  -0.654  1.00  0.00    -0.259 N 
ATOM      4  H2  UNL     1      -2.973  -0.601  -1.153  1.00  0.00     0.181 HD
HETATM    5  C2  UNL     1      -1.354  -1.107   0.108  1.00  0.00     0.272 C 
HETATM    6  O1  UNL     1      -0.859  -2.120   0.680  1.00  0.00    -0.266 OA
ENDROOT
BRANCH   5   7
HETATM    7  C3  UNL     1      -0.805   0.227   0.193  1.00  0.00     0.133 A 
HETATM    8  C4  UNL     1       0.533   0.469   0.145  1.00  0.00     0.126 A 
HETATM    9  N5  UNL     1       0.954   1.772   0.363  1.00  0.00    -0.327 N 
HETATM   10  C6  UNL     1       0.101   2.757   0.607  1.00  0.00     0.182 A 
ATOM     11  H5  UNL     1       1.952   1.979   0.335  1.00  0.00     0.168 HD
HETATM   12 CL1  UNL     1       0.661   4.416   0.882  1.00  0.00    -0.045 Cl
HETATM   13  N6  UNL     1      -1.205   2.490   0.645  1.00  0.00    -0.299 N 
HETATM   14  C7  UNL     1      -1.714   1.267   0.450  1.00  0.00     0.265 A 
ATOM     15  H6  UNL     1      -1.850   3.258   0.832  1.00  0.00     0.171 HD
HETATM   16  O3  UNL     1      -2.935   1.025   0.490  1.00  0.00    -0.267 OA
BRANCH   8  17
HETATM   17  C5  UNL     1       1.539  -0.511  -0.203  1.00  0.00     0.287 C 
HETATM   18  O2  UNL     1       1.269  -1.604  -0.704  1.00  0.00    -0.264 OA
HETATM   19  N3  UNL     1       2.905  -0.236   0.030  1.00  0.00    -0.271 N 
ATOM     20  H3  UNL     1       3.168   0.658   0.444  1.00  0.00     0.189 HD
BRANCH  19  21
HETATM   21  N4  UNL     1       3.896  -1.148  -0.289  1.00  0.00    -0.342 N 
ATOM     22  H42 UNL     1       3.616  -2.037  -0.703  1.00  0.00     0.176 HD
ATOM     23  H41 UNL     1       4.882  -0.949  -0.121  1.00  0.00     0.176 HD
ENDBRANCH  19  21
ENDBRANCH   8  17
ENDBRANCH   5   7
TORSDOF 3
