REMARK  5 active torsions:
REMARK  status: ('A' for Active; 'I' for Inactive)
REMARK       I    between atoms: N2_3  and  C2_5 
REMARK    1  A    between atoms: C2_5  and  C3_7 
REMARK    2  A    between atoms: C3_7  and  N3_8 
REMARK    3  A    between atoms: C3_7  and  C4_12 
REMARK       I    between atoms: C4_12  and  N4_14 
REMARK    4  A    between atoms: N4_14  and  C5_16 
REMARK    5  A    between atoms: C6_19  and  N6_20 
ROOT
HETATM    1  N1  UNL     1      -3.999   2.871  -0.349  1.00  0.00    -0.172 NA
HETATM    2  C1  UNL     1      -3.209   2.160   0.142  1.00  0.00     0.184 C 
HETATM    3  N2  UNL     1      -2.280   1.309   0.747  1.00  0.00    -0.262 N 
ATOM      4  H2  UNL     1      -1.482   1.711   1.239  1.00  0.00     0.181 HD
HETATM    5  C2  UNL     1      -2.421  -0.088   0.692  1.00  0.00     0.270 C 
HETATM    6  O1  UNL     1      -3.417  -0.573   0.078  1.00  0.00    -0.270 OA
ENDROOT
BRANCH   5   7
HETATM    7  C3  UNL     1      -1.450  -1.010   1.325  1.00  0.00     0.367 C 
BRANCH   7   8
HETATM    8  N3  UNL     1      -0.411  -0.252   1.959  1.00  0.00    -0.058 N 
ATOM      9  H33 UNL     1       0.039   0.398   1.315  1.00  0.00     0.275 HD
ATOM     10  H32 UNL     1      -0.781   0.430   2.620  1.00  0.00     0.275 HD
ATOM     11  H31 UNL     1       0.258  -0.887   2.395  1.00  0.00     0.275 HD
ENDBRANCH   7   8
BRANCH   7  12
HETATM   12  C4  UNL     1      -0.888  -1.974   0.347  1.00  0.00     0.276 C 
HETATM   13  O2  UNL     1      -1.718  -2.700  -0.276  1.00  0.00    -0.270 OA
HETATM   14  N4  UNL     1       0.497  -2.070   0.129  1.00  0.00    -0.156 N 
ATOM     15  H4  UNL     1       0.959  -2.926   0.437  1.00  0.00     0.187 HD
BRANCH  14  16
HETATM   16  C5  UNL     1       1.228  -1.179  -0.421  1.00  0.00     0.702 A 
HETATM   17  N5  UNL     1       0.924   0.030  -0.922  1.00  0.00    -0.153 N 
HETATM   18  C6  UNL     1       2.019   0.629  -1.407  1.00  0.00     0.279 A 
ATOM     19  H5  UNL     1      -0.012   0.436  -0.932  1.00  0.00     0.187 HD
HETATM   20  N7  UNL     1       3.028  -0.233  -1.199  1.00  0.00    -0.251 N 
HETATM   21  N8  UNL     1       2.553  -1.320  -0.608  1.00  0.00    -0.129 N 
ATOM     22  H7  UNL     1       4.003  -0.076  -1.455  1.00  0.00     0.191 HD
ATOM     23  H8  UNL     1       3.104  -2.134  -0.338  1.00  0.00     0.205 HD
BRANCH  18  24
HETATM   24  N6  UNL     1       2.099   1.931  -2.023  1.00  0.00    -0.077 N 
HETATM   25  O3  UNL     1       3.185   2.348  -2.421  1.00  0.00    -0.529 OA
HETATM   26  O4  UNL     1       0.979   2.695  -2.163  1.00  0.00    -0.529 OA
ENDBRANCH  18  24
ENDBRANCH  14  16
ENDBRANCH   7  12
ENDBRANCH   5   7
TORSDOF 5
