REMARK  6 active torsions:
REMARK  status: ('A' for Active; 'I' for Inactive)
REMARK    1  A    between atoms: N1_2  and  C2_4 
REMARK    2  A    between atoms: C2_4  and  N2_6 
REMARK    3  A    between atoms: N2_6  and  N3_8 
REMARK    4  A    between atoms: C3_10  and  C4_11 
REMARK    5  A    between atoms: C7_14  and  N4_15 
REMARK    6  A    between atoms: N4_15  and  O1_16 
ROOT
HETATM    1  C4  UNL     1      -1.210  -0.433   0.105  1.00  0.00    -0.019 A 
HETATM    2  C5  UNL     1      -1.696  -1.698   0.306  1.00  0.00     0.015 A 
HETATM    3  C6  UNL     1      -3.015  -1.855   0.715  1.00  0.00     0.033 A 
HETATM    4  C7  UNL     1      -3.854  -0.771   0.926  1.00  0.00     0.071 A 
HETATM    5  C8  UNL     1      -3.310   0.473   0.708  1.00  0.00     0.033 A 
HETATM    6  C9  UNL     1      -2.012   0.657   0.304  1.00  0.00     0.015 A 
ENDROOT
BRANCH   1   7
HETATM    7  C3  UNL     1       0.160  -0.250  -0.321  1.00  0.00     0.118 C 
HETATM    8  N3  UNL     1       0.590   0.944  -0.502  1.00  0.00    -0.309 N 
ATOM      9  H3  UNL     1      -0.064   1.709  -0.335  1.00  0.00     0.186 HD
BRANCH   8  10
HETATM   10  N2  UNL     1       1.866   1.276  -0.905  1.00  0.00    -0.277 N 
ATOM     11  H2  UNL     1       2.012   1.841  -1.742  1.00  0.00     0.189 HD
BRANCH  10  12
HETATM   12  C2  UNL     1       2.971   0.824  -0.144  1.00  0.00     0.186 C 
HETATM   13  S1  UNL     1       2.693  -0.071   1.182  1.00  0.00    -0.040 SA
BRANCH  12  14
HETATM   14  N1  UNL     1       4.300   1.165  -0.556  1.00  0.00    -0.370 N 
HETATM   15  C1  UNL     1       5.386   0.676   0.260  1.00  0.00     0.148 C 
ATOM     16  H1  UNL     1       4.471   1.728  -1.389  1.00  0.00     0.161 HD
ENDBRANCH  12  14
ENDBRANCH  10  12
ENDBRANCH   8  10
ENDBRANCH   1   7
BRANCH   4  17
HETATM   17  N4  UNL     1      -5.201  -0.928   1.343  1.00  0.00    -0.185 N 
HETATM   18  S2  UNL     1      -6.112   0.378   1.567  1.00  0.00     0.075 SA
BRANCH  17  19
HETATM   19  O1  UNL     1      -5.761  -2.149   1.565  1.00  0.00    -0.276 OA
ATOM     20  H1  UNL     1      -6.663  -2.254   1.844  1.00  0.00     0.246 HD
ENDBRANCH  17  19
ENDBRANCH   4  17
TORSDOF 6
