REMARK  6 active torsions:
REMARK  status: ('A' for Active; 'I' for Inactive)
REMARK    1  A    between atoms: C2_2  and  C3_3 
REMARK    2  A    between atoms: C5_5  and  O1_6 
REMARK    3  A    between atoms: C5_5  and  C6_8 
REMARK    4  A    between atoms: C10_12  and  O2_13 
REMARK    5  A    between atoms: C11_15  and  O3_16 
REMARK    6  A    between atoms: C12_18  and  O4_19 
ROOT
HETATM    1  C3  UNL     1      -1.929   0.116   0.186  1.00  0.00     0.041 C 
HETATM    2  C4  UNL     1      -0.583   0.756   0.439  1.00  0.00     0.052 C 
HETATM    3  C5  UNL     1       0.397   0.078  -0.524  1.00  0.00     0.093 C 
HETATM    4  C10 UNL     1       0.203  -1.378  -0.629  1.00  0.00     0.184 C 
HETATM    5  C11 UNL     1      -0.677  -2.019   0.393  1.00  0.00     0.179 C 
HETATM    6  C12 UNL     1      -1.868  -1.240   0.802  1.00  0.00     0.157 C 
ENDROOT
BRANCH   3   7
HETATM    7  O1  UNL     1       0.069   0.676  -1.764  1.00  0.00    -0.386 OA
ATOM      8  H1  UNL     1       0.677   0.256  -2.361  1.00  0.00     0.210 HD
ENDBRANCH   3   7
BRANCH   3   9
HETATM    9  C6  UNL     1       1.799   0.543  -0.269  1.00  0.00    -0.018 C 
HETATM   10  C7  UNL     1       2.342   0.283   1.079  1.00  0.00     0.018 C 
HETATM   11  C8  UNL     1       1.779   2.069  -0.469  1.00  0.00     0.018 C 
HETATM   12  C9  UNL     1       2.747   0.007  -1.318  1.00  0.00     0.018 C 
ENDBRANCH   3   9
BRANCH   4  13
HETATM   13  O2  UNL     1       1.418  -2.109  -0.623  1.00  0.00    -0.390 OA
ATOM     14  H2  UNL     1       1.293  -3.048  -0.691  1.00  0.00     0.210 HD
ENDBRANCH   4  13
BRANCH   1  15
HETATM   15  C2  UNL     1      -3.064   0.882   0.763  1.00  0.00    -0.030 C 
HETATM   16  C1  UNL     1      -2.942   2.023   1.416  1.00  0.00     0.007 C 
ENDBRANCH   1  15
BRANCH   5  17
HETATM   17  O3  UNL     1       0.030  -2.389   1.555  1.00  0.00    -0.390 OA
ATOM     18  H3  UNL     1      -0.530  -2.797   2.205  1.00  0.00     0.210 HD
ENDBRANCH   5  17
BRANCH   6  19
HETATM   19  O4  UNL     1      -3.078  -1.912   0.514  1.00  0.00    -0.392 OA
ATOM     20  H4  UNL     1      -3.039  -2.776   0.907  1.00  0.00     0.210 HD
ENDBRANCH   6  19
TORSDOF 6
