REMARK  9 active torsions:
REMARK  status: ('A' for Active; 'I' for Inactive)
REMARK    1  A    between atoms: C2_2  and  N1_4 
REMARK    2  A    between atoms: C2_2  and  C12_16 
REMARK       I    between atoms: N1_4  and  C4_6 
REMARK    3  A    between atoms: C4_6  and  O2_8 
REMARK    4  A    between atoms: O2_8  and  C5_9 
REMARK    5  A    between atoms: C5_9  and  C6_10 
REMARK    6  A    between atoms: C12_16  and  N3_20 
REMARK    7  A    between atoms: N3_20  and  N4_22 
REMARK    8  A    between atoms: C13_24  and  C14_25 
REMARK    9  A    between atoms: C17_28  and  C18_29 
ROOT
HETATM    1  C12 UNL     1       0.500  -0.269  -0.908  1.00  0.00     0.117 C 
HETATM    2  N2  UNL     1       0.334   1.012  -0.791  1.00  0.00    -0.386 N 
ATOM      3  H21 UNL     1       1.028   1.585  -1.270  1.00  0.00     0.157 HD
ATOM      4  H22 UNL     1      -0.448   1.398  -0.262  1.00  0.00     0.157 HD
ENDROOT
BRANCH   1   5
HETATM    5  C2  UNL     1      -0.511  -1.103  -0.210  1.00  0.00     0.087 C 
HETATM    6  C1  UNL     1      -0.011  -1.372   1.170  1.00  0.00     0.046 C 
HETATM    7  C3  UNL     1      -0.781  -2.386  -0.928  1.00  0.00     0.046 C 
BRANCH   5   8
HETATM    8  N1  UNL     1      -1.802  -0.357  -0.169  1.00  0.00    -0.321 N 
HETATM    9  C4  UNL     1      -2.835  -1.002   0.644  1.00  0.00     0.361 C 
HETATM   10  O1  UNL     1      -3.203  -1.777   1.279  1.00  0.00    -0.238 OA
ATOM     11  H1  UNL     1      -1.952   0.523  -0.663  1.00  0.00     0.166 HD
BRANCH   9  12
HETATM   12  O2  UNL     1      -4.011   0.004   0.397  1.00  0.00    -0.299 OA
BRANCH  12  13
HETATM   13  C5  UNL     1      -5.224  -0.326   1.056  1.00  0.00     0.219 C 
BRANCH  13  14
HETATM   14  C6  UNL     1      -6.234   0.652   0.577  1.00  0.00    -0.034 A 
HETATM   15  C7  UNL     1      -6.045   1.401  -0.558  1.00  0.00     0.009 A 
HETATM   16  C8  UNL     1      -7.001   2.315  -0.992  1.00  0.00     0.001 A 
HETATM   17  C9  UNL     1      -8.142   2.443  -0.253  1.00  0.00     0.000 A 
HETATM   18  C10 UNL     1      -8.392   1.727   0.891  1.00  0.00     0.001 A 
HETATM   19  C11 UNL     1      -7.391   0.819   1.286  1.00  0.00     0.009 A 
ENDBRANCH  13  14
ENDBRANCH  12  13
ENDBRANCH   9  12
ENDBRANCH   5   8
ENDBRANCH   1   5
BRANCH   1  20
HETATM   20  N3  UNL     1       1.574  -0.800  -1.635  1.00  0.00    -0.288 N 
ATOM     21  H3  UNL     1       1.356  -1.547  -2.294  1.00  0.00     0.188 HD
BRANCH  20  22
HETATM   22  N4  UNL     1       2.929  -0.405  -1.548  1.00  0.00    -0.310 N 
HETATM   23  C13 UNL     1       3.600  -0.886  -0.472  1.00  0.00     0.118 C 
ATOM     24  H4  UNL     1       3.369   0.197  -2.243  1.00  0.00     0.186 HD
BRANCH  23  25
HETATM   25  C14 UNL     1       4.973  -0.476  -0.357  1.00  0.00    -0.019 A 
HETATM   26  C15 UNL     1       6.020  -1.246   0.059  1.00  0.00     0.013 A 
HETATM   27  C16 UNL     1       7.334  -0.773   0.189  1.00  0.00     0.017 A 
HETATM   28  C17 UNL     1       7.583   0.538  -0.113  1.00  0.00     0.048 A 
HETATM   29  C19 UNL     1       6.515   1.344  -0.533  1.00  0.00     0.017 A 
HETATM   30  C20 UNL     1       5.256   0.854  -0.656  1.00  0.00     0.013 A 
BRANCH  28  31
HETATM   31  C18 UNL     1       8.941   1.189  -0.163  1.00  0.00     0.417 C 
HETATM   32  F1  UNL     1       9.941   0.216  -0.076  1.00  0.00    -0.166 F 
HETATM   33  F2  UNL     1       9.064   1.803  -1.424  1.00  0.00    -0.166 F 
HETATM   34  F3  UNL     1       9.109   2.171   0.783  1.00  0.00    -0.166 F 
ENDBRANCH  28  31
ENDBRANCH  23  25
ENDBRANCH  20  22
ENDBRANCH   1  20
TORSDOF 9
