REMARK  5 active torsions:
REMARK  status: ('A' for Active; 'I' for Inactive)
REMARK    1  A    between atoms: C7_7  and  O1_9 
REMARK    2  A    between atoms: C9_11  and  N1_12 
REMARK       I    between atoms: N1_12  and  C10_14 
REMARK    3  A    between atoms: C10_14  and  C11_16 
REMARK    4  A    between atoms: C13_19  and  N3_20 
REMARK    5  A    between atoms: C14_22  and  C15_24 
ROOT
HETATM    1  C11 UNL     1      -2.140   0.412   0.165  1.00  0.00     0.127 C 
HETATM    2  C12 UNL     1      -1.994   0.251  -1.252  1.00  0.00     0.106 C 
HETATM    3  N2  UNL     1      -1.863   0.132  -2.411  1.00  0.00    -0.191 NA
HETATM    4  C13 UNL     1      -3.350   0.455   0.697  1.00  0.00     0.118 C 
ENDROOT
BRANCH   1   5
HETATM    5  C10 UNL     1      -0.947   0.525   1.003  1.00  0.00     0.264 C 
HETATM    6  N1  UNL     1       0.348   0.479   0.435  1.00  0.00    -0.348 N 
ATOM      7  H1  UNL     1       0.454   0.365  -0.573  1.00  0.00     0.163 HD
HETATM    8  O2  UNL     1      -1.111   0.667   2.263  1.00  0.00    -0.267 OA
BRANCH   6   9
HETATM    9  C9  UNL     1       1.501   0.590   1.256  1.00  0.00     0.127 C 
HETATM   10  C4  UNL     1       2.420   1.705   0.909  1.00  0.00     0.035 C 
HETATM   11  C3  UNL     1       2.990   1.523  -0.468  1.00  0.00    -0.017 C 
HETATM   12  C5  UNL     1       3.670   1.258   1.697  1.00  0.00     0.022 C 
HETATM   13  C2  UNL     1       3.815   0.480  -0.468  1.00  0.00    -0.080 C 
HETATM   14  C1  UNL     1       4.619  -0.102  -1.576  1.00  0.00     0.043 C 
HETATM   15  C6  UNL     1       3.797  -0.059   0.912  1.00  0.00     0.051 C 
HETATM   16  C7  UNL     1       2.418  -0.624   1.149  1.00  0.00     0.082 C 
HETATM   17  C8  UNL     1       2.026  -1.457  -0.043  1.00  0.00     0.049 C 
BRANCH  16  18
HETATM   18  O1  UNL     1       2.367  -1.403   2.293  1.00  0.00    -0.387 OA
ATOM     19  H1  UNL     1       1.499  -1.759   2.442  1.00  0.00     0.210 HD
ENDBRANCH  16  18
ENDBRANCH   6   9
ENDBRANCH   1   5
BRANCH   4  20
HETATM   20  N3  UNL     1      -4.525   0.351  -0.058  1.00  0.00    -0.349 N 
HETATM   21  C14 UNL     1      -4.983  -0.709  -0.587  1.00  0.00     0.181 C 
HETATM   22  N4  UNL     1      -4.264  -1.917  -0.417  1.00  0.00    -0.077 NA
ATOM     23  H3  UNL     1      -5.063   1.206  -0.196  1.00  0.00     0.166 HD
BRANCH  21  24
HETATM   24  C15 UNL     1      -6.212  -0.687  -1.348  1.00  0.00     0.295 C 
HETATM   25  N5  UNL     1      -6.930   0.540  -1.513  1.00  0.00    -0.055 NA
HETATM   26  O3  UNL     1      -6.707  -1.702  -1.889  1.00  0.00    -0.268 OA
ENDBRANCH  21  24
ENDBRANCH   4  20
TORSDOF 5
