REMARK  0 active torsions:
REMARK  status: ('A' for Active; 'I' for Inactive)
ROOT
HETATM    1  N1  UNL     1       1.887   0.569   2.511  1.00  0.00    -0.195 NA
HETATM    2  C1  UNL     1       1.447   0.215   1.488  1.00  0.00     0.090 C 
HETATM    3  C2  UNL     1       0.908  -0.232   0.203  1.00  0.00     0.174 C 
HETATM    4  C3  UNL     1       1.927  -0.764  -0.673  1.00  0.00     0.090 C 
HETATM    5  N2  UNL     1       2.735  -1.195  -1.363  1.00  0.00    -0.195 NA
HETATM    6  C4  UNL     1      -0.195  -1.252   0.381  1.00  0.00     0.047 C 
HETATM    7  C5  UNL     1      -1.422  -0.660  -0.303  1.00  0.00     0.009 C 
HETATM    8  C6  UNL     1      -1.200   0.824  -0.021  1.00  0.00     0.055 C 
HETATM    9  C7  UNL     1       0.235   0.968  -0.405  1.00  0.00     0.017 C 
HETATM   10  N3  UNL     1       0.756   1.889  -1.086  1.00  0.00    -0.403 N 
ATOM     11  H31 UNL     1       0.300   2.703  -1.498  1.00  0.00     0.155 HD
ATOM     12  H32 UNL     1       1.737   1.987  -1.348  1.00  0.00     0.155 HD
ENDROOT
TORSDOF 0
