REMARK  3 active torsions:
REMARK  status: ('A' for Active; 'I' for Inactive)
REMARK    1  A    between atoms: C2_2  and  C5_5 
REMARK    2  A    between atoms: N2_9  and  C7_10 
REMARK    3  A    between atoms: C9_12  and  O1_13 
ROOT
HETATM    1  C5  UNL     1      -1.537  -0.120  -0.421  1.00  0.00     0.059 A 
HETATM    2  N1  UNL     1      -1.084  -0.433  -1.631  1.00  0.00    -0.352 N 
ATOM      3  H1  UNL     1      -1.649  -0.813  -2.391  1.00  0.00     0.166 HD
HETATM    4  C6  UNL     1       0.233  -0.172  -1.700  1.00  0.00     0.185 A 
HETATM    5  N2  UNL     1       0.642   0.324  -0.504  1.00  0.00    -0.316 N 
HETATM    6  C11 UNL     1      -0.460   0.354   0.287  1.00  0.00     0.144 A 
HETATM    7  N3  UNL     1      -0.450   0.811   1.625  1.00  0.00    -0.080 NA
ENDROOT
BRANCH   5   8
HETATM    8  C7  UNL     1       1.988   0.710  -0.226  1.00  0.00     0.156 C 
HETATM    9  C8  UNL     1       2.932  -0.080  -1.104  1.00  0.00     0.069 C 
HETATM   10  C9  UNL     1       4.298   0.005  -0.465  1.00  0.00     0.130 C 
HETATM   11  C10 UNL     1       4.170  -0.566   0.928  1.00  0.00     0.107 C 
HETATM   12  S1  UNL     1       2.534   0.109   1.422  1.00  0.00    -0.141 SA
BRANCH  10  13
HETATM   13  O1  UNL     1       4.776   1.302  -0.446  1.00  0.00    -0.395 OA
ATOM     14  H1  UNL     1       5.635   1.355  -0.044  1.00  0.00     0.210 HD
ENDBRANCH  10  13
ENDBRANCH   5   8
BRANCH   1  15
HETATM   15  C2  UNL     1      -2.910  -0.251   0.069  1.00  0.00    -0.005 C 
HETATM   16  C1  UNL     1      -3.483   1.099   0.500  1.00  0.00     0.021 C 
HETATM   17  C3  UNL     1      -3.034  -1.203   1.233  1.00  0.00     0.021 C 
HETATM   18  C4  UNL     1      -3.819  -0.779  -1.032  1.00  0.00     0.021 C 
ENDBRANCH   1  15
TORSDOF 3
