REMARK  5 active torsions:
REMARK  status: ('A' for Active; 'I' for Inactive)
REMARK    1  A    between atoms: C1_1  and  C16_24 
REMARK    2  A    between atoms: C2_2  and  C3_3 
REMARK    3  A    between atoms: C7_7  and  N1_8 
REMARK    4  A    between atoms: N1_8  and  N2_10 
REMARK    5  A    between atoms: C8_12  and  C9_13 
ROOT
HETATM    1  C3  UNL     1      -2.222   0.695   0.265  1.00  0.00     0.088 A 
HETATM    2  C4  UNL     1      -1.780   2.015   0.326  1.00  0.00     0.039 A 
HETATM    3  C5  UNL     1      -0.456   2.340   0.341  1.00  0.00     0.007 A 
HETATM    4  C6  UNL     1       0.480   1.335   0.295  1.00  0.00     0.050 A 
HETATM    5  C7  UNL     1       0.047   0.037   0.235  1.00  0.00     0.120 A 
HETATM    6  N3  UNL     1      -1.271  -0.250   0.222  1.00  0.00    -0.334 N 
ATOM      7  H3  UNL     1      -1.557  -1.228   0.178  1.00  0.00     0.168 HD
ENDROOT
BRANCH   5   8
HETATM    8  N1  UNL     1       0.855  -0.970   0.189  1.00  0.00    -0.286 N 
ATOM      9  H1  UNL     1       0.507  -1.928   0.145  1.00  0.00     0.188 HD
BRANCH   8  10
HETATM   10  N2  UNL     1       2.225  -0.695   0.202  1.00  0.00    -0.309 N 
HETATM   11  C8  UNL     1       3.010  -1.122  -0.720  1.00  0.00     0.118 C 
ATOM     12  H2  UNL     1       2.612  -0.140   0.965  1.00  0.00     0.186 HD
BRANCH  11  13
HETATM   13  C9  UNL     1       4.428  -0.834  -0.702  1.00  0.00    -0.017 A 
HETATM   14  C10 UNL     1       5.267  -1.294  -1.693  1.00  0.00     0.016 A 
HETATM   15  C11 UNL     1       6.617  -1.027  -1.687  1.00  0.00     0.040 A 
HETATM   16  C12 UNL     1       7.172  -0.282  -0.676  1.00  0.00     0.105 A 
HETATM   17  C13 UNL     1       6.360   0.195   0.333  1.00  0.00     0.105 A 
HETATM   18  O2  UNL     1       8.474   0.155  -0.387  1.00  0.00    -0.323 OA
HETATM   19  C14 UNL     1       4.989  -0.091   0.304  1.00  0.00     0.052 A 
HETATM   20  O1  UNL     1       7.164   0.900   1.203  1.00  0.00    -0.323 OA
HETATM   21  C15 UNL     1       8.348   1.251   0.514  1.00  0.00     0.352 C 
ENDBRANCH  11  13
ENDBRANCH   8  10
ENDBRANCH   5   8
BRANCH   1  22
HETATM   22  C2  UNL     1      -3.604   0.335   0.249  1.00  0.00    -0.043 C 
HETATM   23  C1  UNL     1      -4.773   0.029   0.215  1.00  0.00    -0.060 C 
BRANCH  23  24
HETATM   24  C16 UNL     1      -6.165  -0.321   0.155  1.00  0.00     0.018 A 
HETATM   25  C17 UNL     1      -6.595  -1.187  -0.806  1.00  0.00     0.020 A 
HETATM   26  C18 UNL     1      -7.928  -1.534  -0.878  1.00  0.00     0.001 A 
HETATM   27  C19 UNL     1      -8.847  -1.018   0.011  1.00  0.00     0.000 A 
HETATM   28  C20 UNL     1      -8.435  -0.148   0.982  1.00  0.00     0.001 A 
HETATM   29  C21 UNL     1      -7.093   0.191   1.041  1.00  0.00     0.020 A 
ENDBRANCH  23  24
ENDBRANCH   1  22
TORSDOF 5
