REMARK  4 active torsions:
REMARK  status: ('A' for Active; 'I' for Inactive)
REMARK    1  A    between atoms: C3_3  and  N1_4 
REMARK    2  A    between atoms: C6_7  and  C7_8 
REMARK    3  A    between atoms: C6_7  and  S1_20 
REMARK    4  A    between atoms: C7_8  and  N2_9 
REMARK       I    between atoms: N2_9  and  C8_11 
REMARK       I    between atoms: N4_13  and  C9_15 
ROOT
HETATM    1  C1  UNL     1      -3.382   1.584   3.399  1.00  0.00     0.013 C 
HETATM    2  C2  UNL     1      -3.544   0.746   2.543  1.00  0.00    -0.087 C 
HETATM    3  C3  UNL     1      -3.722  -0.271   1.482  1.00  0.00     0.364 C 
ENDROOT
BRANCH   3   4
HETATM    4  N1  UNL     1      -2.402  -0.547   0.965  1.00  0.00     0.100 N 
HETATM    5  C4  UNL     1      -2.357  -1.509  -0.075  1.00  0.00     0.275 C 
HETATM    6  C5  UNL     1      -1.660  -0.906  -1.245  1.00  0.00     0.054 C 
HETATM    7  C6  UNL     1      -1.110   0.407  -0.769  1.00  0.00     0.051 C 
HETATM    8  C11 UNL     1      -1.833   0.683   0.502  1.00  0.00     0.295 C 
BRANCH   7   9
HETATM    9  C7  UNL     1       0.379   0.376  -0.651  1.00  0.00     0.144 C 
BRANCH   9  10
HETATM   10  N2  UNL     1       0.896  -0.589   0.251  1.00  0.00    -0.363 N 
HETATM   11  C8  UNL     1       2.288  -0.703   0.436  1.00  0.00     0.190 C 
HETATM   12  N3  UNL     1       2.924  -1.911   0.785  1.00  0.00    -0.063 NA
HETATM   13  N4  UNL     1       3.009   0.361   0.276  1.00  0.00    -0.305 N 
HETATM   14  C9  UNL     1       4.412   0.337   0.442  1.00  0.00     0.188 C 
ATOM     15  H4  UNL     1       2.553   1.238   0.024  1.00  0.00     0.171 HD
HETATM   16  N5  UNL     1       5.119  -0.423  -0.306  1.00  0.00    -0.373 N 
HETATM   17  N6  UNL     1       5.040   1.133   1.415  1.00  0.00    -0.064 NA
ATOM     18  H52 UNL     1       4.663  -1.001  -1.012  1.00  0.00     0.158 HD
ATOM     19  H51 UNL     1       6.132  -0.440  -0.186  1.00  0.00     0.158 HD
ATOM     20  H2  UNL     1       0.261  -1.200   0.765  1.00  0.00     0.162 HD
ENDBRANCH   9  10
ENDBRANCH   7   9
BRANCH   7  21
HETATM   21  S1  UNL     1      -1.524   1.656  -2.040  1.00  0.00    -0.160 SA
HETATM   22  C10 UNL     1      -0.622   1.262  -3.536  1.00  0.00     0.090 C 
ENDBRANCH   7  21
ENDBRANCH   3   4
TORSDOF 4
