REMARK  10 active torsions:
REMARK  status: ('A' for Active; 'I' for Inactive)
REMARK    1  A    between atoms: C1_2  and  C2_3 
REMARK       I    between atoms: C1_2  and  N4_24 
REMARK    2  A    between atoms: C2_3  and  N1_4 
REMARK    3  A    between atoms: C5_7  and  N2_8 
REMARK    4  A    between atoms: N2_8  and  C6_10 
REMARK    5  A    between atoms: C6_10  and  C7_11 
REMARK    6  A    between atoms: C7_11  and  C8_12 
REMARK    7  A    between atoms: C8_12  and  C9_13 
REMARK    8  A    between atoms: C9_13  and  N3_14 
REMARK    9  A    between atoms: N3_14  and  C10_16 
REMARK   10  A    between atoms: N4_24  and  C18_26 
ROOT
HETATM    1  N1  UNL     1       2.520  -0.033   0.789  1.00  0.00     0.097 N 
HETATM    2  C3  UNL     1       2.553  -0.683  -0.477  1.00  0.00     0.275 C 
HETATM    3  C4  UNL     1       1.133  -0.968  -0.990  1.00  0.00     0.055 C 
HETATM    4  C5  UNL     1       0.330   0.318  -0.993  1.00  0.00     0.079 C 
HETATM    5  C16 UNL     1       0.289   0.931   0.382  1.00  0.00     0.055 C 
HETATM    6  C17 UNL     1       1.181   0.151   1.324  1.00  0.00     0.275 C 
ENDROOT
BRANCH   4   7
HETATM    7  N2  UNL     1      -0.984   0.098  -1.469  1.00  0.00    -0.417 N 
ATOM      8  H2  UNL     1      -1.327   0.554  -2.315  1.00  0.00     0.153 HD
BRANCH   7   9
HETATM    9  C6  UNL     1      -1.807  -0.788  -0.715  1.00  0.00     0.114 C 
BRANCH   9  10
HETATM   10  C7  UNL     1      -3.174  -0.791  -1.422  1.00  0.00     0.021 C 
BRANCH  10  11
HETATM   11  C8  UNL     1      -4.114  -1.693  -0.694  1.00  0.00     0.021 C 
BRANCH  11  12
HETATM   12  C9  UNL     1      -5.464  -1.656  -1.410  1.00  0.00     0.114 C 
BRANCH  12  13
HETATM   13  N3  UNL     1      -5.926  -0.301  -1.389  1.00  0.00    -0.417 N 
ATOM     14  H3  UNL     1      -6.005   0.260  -2.237  1.00  0.00     0.153 HD
BRANCH  13  15
HETATM   15  C10 UNL     1      -6.268   0.213  -0.102  1.00  0.00     0.076 C 
HETATM   16  C11 UNL     1      -6.812   1.629  -0.335  1.00  0.00     0.024 C 
HETATM   17  C12 UNL     1      -7.173   2.186   1.019  1.00  0.00     0.002 C 
HETATM   18  C13 UNL     1      -8.450   1.484   1.444  1.00  0.00     0.000 C 
HETATM   19  C14 UNL     1      -8.596   0.150   0.745  1.00  0.00     0.002 C 
HETATM   20  C15 UNL     1      -7.267  -0.579   0.671  1.00  0.00     0.024 C 
ENDBRANCH  13  15
ENDBRANCH  12  13
ENDBRANCH  11  12
ENDBRANCH  10  11
ENDBRANCH   9  10
ENDBRANCH   7   9
ENDBRANCH   4   7
BRANCH   1  21
HETATM   21  C2  UNL     1       3.259  -0.758   1.772  1.00  0.00     0.374 C 
BRANCH  21  22
HETATM   22  C1  UNL     1       4.706  -0.725   1.630  1.00  0.00     0.246 C 
HETATM   23  O1  UNL     1       5.387  -1.396   2.466  1.00  0.00    -0.272 OA
HETATM   24  N4  UNL     1       5.359   0.002   0.635  1.00  0.00    -0.355 N 
ATOM     25  H4  UNL     1       4.820   0.543  -0.041  1.00  0.00     0.162 HD
BRANCH  24  26
HETATM   26  C18 UNL     1       6.832  -0.014   0.563  1.00  0.00     0.084 C 
HETATM   27  C19 UNL     1       7.247   1.430   0.673  1.00  0.00     0.025 C 
HETATM   28  C20 UNL     1       8.559   1.702  -0.021  1.00  0.00     0.002 C 
HETATM   29  C21 UNL     1       9.366   0.400  -0.031  1.00  0.00     0.000 C 
HETATM   30  C22 UNL     1       8.694  -0.515  -1.032  1.00  0.00     0.002 C 
HETATM   31  C23 UNL     1       7.209  -0.623  -0.759  1.00  0.00     0.025 C 
ENDBRANCH  24  26
ENDBRANCH  21  22
ENDBRANCH   1  21
TORSDOF 10
