REMARK  6 active torsions:
REMARK  status: ('A' for Active; 'I' for Inactive)
REMARK       I    between atoms: C1_2  and  N1_3 
REMARK    1  A    between atoms: C1_2  and  C6_17 
REMARK    2  A    between atoms: N1_3  and  N2_5 
REMARK    3  A    between atoms: C2_7  and  C3_8 
REMARK    4  A    between atoms: C2_7  and  C5_12 
REMARK    5  A    between atoms: C5_12  and  O3_13 
REMARK    6  A    between atoms: C5_12  and  O4_15 
ROOT
HETATM    1  C3  UNL     1      -1.973  -0.736  -0.727  1.00  0.00    -0.017 C 
HETATM    2  C4  UNL     1      -1.801  -1.756  -1.367  1.00  0.00     0.058 C 
HETATM    3  O2  UNL     1      -1.611  -2.911  -2.088  1.00  0.00    -0.314 OA
ATOM      4  H2  UNL     1      -1.477  -3.708  -2.588  1.00  0.00     0.230 HD
ENDROOT
BRANCH   1   5
HETATM    5  C2  UNL     1      -2.192   0.455   0.039  1.00  0.00     0.136 C 
HETATM    6  N2  UNL     1      -1.238   1.012   0.695  1.00  0.00    -0.289 N 
ATOM      7  H2  UNL     1      -1.401   1.860   1.238  1.00  0.00     0.187 HD
BRANCH   6   8
HETATM    8  N1  UNL     1       0.048   0.416   0.643  1.00  0.00    -0.265 N 
HETATM    9  C1  UNL     1       1.015   0.950  -0.223  1.00  0.00     0.277 C 
HETATM   10  O1  UNL     1       0.809   1.938  -0.968  1.00  0.00    -0.265 OA
ATOM     11  H1  UNL     1       0.267  -0.391   1.228  1.00  0.00     0.190 HD
BRANCH   9  12
HETATM   12  C6  UNL     1       2.346   0.306  -0.255  1.00  0.00     0.074 A 
HETATM   13  C7  UNL     1       2.785  -0.768   0.461  1.00  0.00     0.025 A 
HETATM   14  C8  UNL     1       4.057  -1.174   0.255  1.00  0.00     0.009 A 
HETATM   15  C9  UNL     1       4.795  -0.473  -0.653  1.00  0.00     0.050 A 
HETATM   16  S1  UNL     1       3.718   0.722  -1.196  1.00  0.00    -0.097 SA
ENDBRANCH   9  12
ENDBRANCH   6   8
BRANCH   5  17
HETATM   17  C5  UNL     1      -3.534   1.082   0.097  1.00  0.00     0.315 C 
BRANCH  17  18
HETATM   18  O3  UNL     1      -3.952   1.453  -1.193  1.00  0.00    -0.365 OA
ATOM     19  H3  UNL     1      -4.812   1.855  -1.156  1.00  0.00     0.213 HD
ENDBRANCH  17  18
BRANCH  17  20
HETATM   20  O4  UNL     1      -4.470   0.121   0.545  1.00  0.00    -0.365 OA
ATOM     21  H4  UNL     1      -5.330   0.523   0.582  1.00  0.00     0.213 HD
ENDBRANCH  17  20
ENDBRANCH   5  17
ENDBRANCH   1   5
TORSDOF 6
