REMARK  5 active torsions:
REMARK  status: ('A' for Active; 'I' for Inactive)
REMARK    1  A    between atoms: C2_2  and  N1_4 
REMARK    2  A    between atoms: N1_4  and  C4_6 
REMARK    3  A    between atoms: C4_6  and  C7_9 
REMARK       I    between atoms: N2_12  and  C10_13 
REMARK    4  A    between atoms: C10_13  and  O2_15 
REMARK    5  A    between atoms: O2_15  and  C11_16 
ROOT
HETATM    1  C7  UNL     1      -1.131   0.048  -0.797  1.00  0.00     0.015 C 
HETATM    2  C8  UNL     1      -0.382  -0.964   0.028  1.00  0.00     0.027 C 
HETATM    3  C9  UNL     1       1.071  -0.794  -0.362  1.00  0.00     0.128 C 
HETATM    4  N2  UNL     1       1.460   0.550   0.010  1.00  0.00    -0.328 N 
HETATM    5  C10 UNL     1       2.847   0.746   0.265  1.00  0.00     0.363 C 
HETATM    6  O1  UNL     1       3.229   1.886   0.592  1.00  0.00    -0.238 OA
HETATM    7  C15 UNL     1       0.523   1.626   0.121  1.00  0.00     0.128 C 
HETATM    8  C16 UNL     1      -0.886   1.396  -0.210  1.00  0.00     0.027 C 
ENDROOT
BRANCH   1   9
HETATM    9  C4  UNL     1      -2.631  -0.283  -0.848  1.00  0.00     0.022 C 
HETATM   10  C5  UNL     1      -2.712  -1.730  -1.385  1.00  0.00     0.038 C 
HETATM   11  C6  UNL     1      -3.211   0.604  -1.902  1.00  0.00     0.038 C 
BRANCH   9  12
HETATM   12  N1  UNL     1      -3.195  -0.287   0.434  1.00  0.00    -0.410 N 
ATOM     13  H1  UNL     1      -2.626  -0.025   1.239  1.00  0.00     0.154 HD
BRANCH  12  14
HETATM   14  C2  UNL     1      -4.535  -0.648   0.617  1.00  0.00     0.069 C 
HETATM   15  C1  UNL     1      -5.537   0.292   0.000  1.00  0.00     0.031 C 
HETATM   16  C3  UNL     1      -4.873  -0.837   2.112  1.00  0.00     0.031 C 
ENDBRANCH  12  14
ENDBRANCH   9  12
ENDBRANCH   1   9
BRANCH   5  17
HETATM   17  O2  UNL     1       3.743  -0.257   0.163  1.00  0.00    -0.294 OA
BRANCH  17  18
HETATM   18  C11 UNL     1       5.119  -0.191   0.386  1.00  0.00     0.061 C 
HETATM   19  C12 UNL     1       5.704  -1.565   0.147  1.00  0.00     0.046 C 
HETATM   20  C13 UNL     1       5.777   0.747  -0.613  1.00  0.00     0.046 C 
HETATM   21  C14 UNL     1       5.519   0.257   1.757  1.00  0.00     0.046 C 
ENDBRANCH  17  18
ENDBRANCH   5  17
TORSDOF 5
