REMARK  7 active torsions:
REMARK  status: ('A' for Active; 'I' for Inactive)
REMARK    1  A    between atoms: C2_2  and  C3_3 
REMARK    2  A    between atoms: C2_2  and  C10_12 
REMARK    3  A    between atoms: C3_3  and  C4_4 
REMARK    4  A    between atoms: C4_4  and  C5_5 
REMARK    5  A    between atoms: C5_5  and  N1_6 
REMARK    6  A    between atoms: C10_12  and  C12_14 
REMARK    7  A    between atoms: C16_18  and  C17_19 
ROOT
HETATM    1  C12 UNL     1       0.260  -0.632  -0.765  1.00  0.00    -0.002 C 
HETATM    2  C13 UNL     1      -0.000  -2.040  -1.261  1.00  0.00     0.006 C 
HETATM    3  C14 UNL     1      -1.450  -2.303  -0.959  1.00  0.00     0.010 C 
HETATM    4  C15 UNL     1      -2.011  -0.941  -0.584  1.00  0.00     0.023 C 
HETATM    5  C16 UNL     1      -3.368  -0.753  -1.076  1.00  0.00    -0.074 C 
HETATM    6  C27 UNL     1      -3.495  -0.383  -2.373  1.00  0.00    -0.023 C 
HETATM    7  C28 UNL     1      -2.286  -0.199  -3.189  1.00  0.00     0.028 C 
HETATM    8  C29 UNL     1      -1.269   0.624  -2.383  1.00  0.00     0.014 C 
HETATM    9  C30 UNL     1      -0.979   0.092  -1.062  1.00  0.00    -0.032 C 
HETATM   10  C31 UNL     1      -1.076   1.232  -0.015  1.00  0.00     0.016 C 
ENDROOT
BRANCH   1  11
HETATM   11  C10 UNL     1       1.600  -0.111  -0.912  1.00  0.00    -0.010 C 
HETATM   12  C11 UNL     1       2.199   0.252  -2.206  1.00  0.00     0.011 C 
BRANCH  11  13
HETATM   13  C2  UNL     1       2.665  -0.922  -0.144  1.00  0.00    -0.014 C 
HETATM   14  C1  UNL     1       3.136  -2.134  -0.843  1.00  0.00     0.010 C 
BRANCH  13  15
HETATM   15  C3  UNL     1       3.741  -0.096   0.454  1.00  0.00     0.006 C 
BRANCH  15  16
HETATM   16  C4  UNL     1       4.784   0.465  -0.430  1.00  0.00     0.030 C 
BRANCH  16  17
HETATM   17  C5  UNL     1       5.749   1.239   0.487  1.00  0.00     0.272 C 
BRANCH  17  18
HETATM   18  N1  UNL     1       6.327   0.366   1.461  1.00  0.00     0.092 N 
HETATM   19  C6  UNL     1       7.229  -0.589   0.897  1.00  0.00     0.298 C 
HETATM   20  C7  UNL     1       8.470   0.049   0.291  1.00  0.00     0.198 C 
HETATM   21  O1  UNL     1       8.762   1.229   0.961  1.00  0.00    -0.388 OA
HETATM   22  C8  UNL     1       8.471   1.080   2.309  1.00  0.00     0.198 C 
HETATM   23  C9  UNL     1       6.961   1.081   2.541  1.00  0.00     0.298 C 
ENDBRANCH  17  18
ENDBRANCH  16  17
ENDBRANCH  15  16
ENDBRANCH  13  15
ENDBRANCH  11  13
ENDBRANCH   1  11
BRANCH   5  24
HETATM   24  C17 UNL     1      -4.600  -0.968  -0.342  1.00  0.00     0.023 C 
HETATM   25  C18 UNL     1      -4.793  -2.388   0.160  1.00  0.00     0.010 C 
HETATM   26  C19 UNL     1      -6.115  -2.254   0.892  1.00  0.00     0.006 C 
HETATM   27  C20 UNL     1      -6.283  -0.794   1.237  1.00  0.00     0.001 C 
HETATM   28  C21 UNL     1      -7.397  -0.108   0.522  1.00  0.00     0.083 C 
HETATM   29  C25 UNL     1      -4.915  -0.163   0.852  1.00  0.00    -0.032 C 
HETATM   30  C22 UNL     1      -7.423   1.301   1.037  1.00  0.00     0.127 C 
HETATM   31  O2  UNL     1      -8.431   1.939   1.121  1.00  0.00    -0.298 OA
HETATM   32  C23 UNL     1      -6.121   1.887   1.449  1.00  0.00     0.079 C 
HETATM   33  C24 UNL     1      -5.084   1.295   0.504  1.00  0.00     0.017 C 
HETATM   34  C26 UNL     1      -4.072  -0.333   2.063  1.00  0.00     0.016 C 
ENDBRANCH   5  24
TORSDOF 7
