REMARK  8 active torsions:
REMARK  status: ('A' for Active; 'I' for Inactive)
REMARK    1  A    between atoms: C2_2  and  O2_4 
REMARK    2  A    between atoms: O2_4  and  C3_5 
REMARK    3  A    between atoms: C3_5  and  C4_6 
REMARK    4  A    between atoms: C5_7  and  C6_8 
REMARK    5  A    between atoms: C7_9  and  C8_10 
REMARK    6  A    between atoms: C8_10  and  N3_16 
REMARK    7  A    between atoms: N1_11  and  N2_13 
REMARK    8  A    between atoms: N3_16  and  N4_18 
ROOT
HETATM    1  C6  UNL     1      -1.258  -1.395   0.068  1.00  0.00     0.133 A 
HETATM    2  C7  UNL     1      -2.399  -0.680   0.293  1.00  0.00     0.129 A 
HETATM    3  N5  UNL     1      -3.322  -1.575   0.707  1.00  0.00    -0.278 N 
ATOM      4  H5  UNL     1      -4.285  -1.350   0.956  1.00  0.00     0.184 HD
HETATM    5  N6  UNL     1      -2.793  -2.787   0.742  1.00  0.00    -0.019 NA
HETATM    6  N7  UNL     1      -1.531  -2.696   0.354  1.00  0.00    -0.270 N 
HETATM    7  C9  UNL     1      -0.573  -3.779   0.241  1.00  0.00     0.176 C 
ENDROOT
BRANCH   2   8
HETATM    8  C8  UNL     1      -2.642   0.735   0.142  1.00  0.00     0.165 C 
HETATM    9  N1  UNL     1      -3.501   1.306   0.894  1.00  0.00    -0.289 N 
ATOM     10  H1  UNL     1      -3.657   2.306   0.770  1.00  0.00     0.188 HD
BRANCH   9  11
HETATM   11  N2  UNL     1      -4.239   0.643   1.876  1.00  0.00    -0.344 N 
ATOM     12  H22 UNL     1      -4.070  -0.357   1.986  1.00  0.00     0.176 HD
ATOM     13  H21 UNL     1      -4.925   1.099   2.477  1.00  0.00     0.176 HD
ENDBRANCH   9  11
BRANCH   8  14
HETATM   14  N3  UNL     1      -1.952   1.502  -0.819  1.00  0.00    -0.289 N 
ATOM     15  H3  UNL     1      -1.617   1.045  -1.667  1.00  0.00     0.188 HD
BRANCH  14  16
HETATM   16  N4  UNL     1      -1.709   2.885  -0.646  1.00  0.00    -0.344 N 
ATOM     17  H42 UNL     1      -2.051   3.326   0.208  1.00  0.00     0.176 HD
ATOM     18  H41 UNL     1      -1.210   3.440  -1.341  1.00  0.00     0.176 HD
ENDBRANCH  14  16
ENDBRANCH   8  14
ENDBRANCH   2   8
BRANCH   1  19
HETATM   19  C5  UNL     1      -0.016  -0.838  -0.387  1.00  0.00    -0.043 C 
HETATM   20  C4  UNL     1       1.038  -0.387  -0.775  1.00  0.00    -0.073 C 
BRANCH  20  21
HETATM   21  C3  UNL     1       2.337   0.140  -1.242  1.00  0.00     0.272 C 
BRANCH  21  22
HETATM   22  O2  UNL     1       3.004   0.635  -0.099  1.00  0.00    -0.310 OA
BRANCH  22  23
HETATM   23  C2  UNL     1       4.262   1.189  -0.289  1.00  0.00     0.255 C 
HETATM   24  C1  UNL     1       5.060   1.744   0.848  1.00  0.00     0.126 C 
HETATM   25  O1  UNL     1       4.798   1.253  -1.432  1.00  0.00    -0.266 OA
ENDBRANCH  22  23
ENDBRANCH  21  22
ENDBRANCH  20  21
ENDBRANCH   1  19
TORSDOF 8
