REMARK  8 active torsions:
REMARK  status: ('A' for Active; 'I' for Inactive)
REMARK    1  A    between atoms: N5_15  and  C5_16 
REMARK    2  A    between atoms: C6_19  and  C7_20 
REMARK    3  A    between atoms: C7_20  and  C8_21 
REMARK    4  A    between atoms: C8_21  and  C9_22 
REMARK    5  A    between atoms: C12_32  and  C13_33 
REMARK    6  A    between atoms: C13_33  and  N11_34 
REMARK    7  A    between atoms: N11_34  and  N12_36 
REMARK    8  A    between atoms: C14_39  and  O3_40 
ROOT
HETATM    1  C7  UNL     1      -0.507   0.170  -2.302  1.00  0.00     0.059 C 
ENDROOT
BRANCH   1   2
HETATM    2  C6  UNL     1      -1.452  -0.881  -1.830  1.00  0.00     0.234 C 
HETATM    3  N7  UNL     1      -2.193  -1.640  -2.794  1.00  0.00    -0.112 NA
HETATM    4  N6  UNL     1      -3.471  -1.125  -2.803  1.00  0.00    -0.091 NA
HETATM    5  C5  UNL     1      -3.390   0.012  -1.891  1.00  0.00     0.362 C 
HETATM    6  O5  UNL     1      -2.413  -0.258  -0.960  1.00  0.00    -0.327 OA
BRANCH   5   7
HETATM    7  N5  UNL     1      -4.608   0.572  -1.467  1.00  0.00    -0.223 N 
HETATM    8  C3  UNL     1      -5.378   0.389  -0.382  1.00  0.00     0.170 A 
HETATM    9  C2  UNL     1      -5.205  -0.436   0.717  1.00  0.00     0.292 A 
HETATM   10  C4  UNL     1      -6.484   1.195  -0.458  1.00  0.00     0.171 A 
HETATM   11  N2  UNL     1      -6.135  -0.418   1.671  1.00  0.00    -0.154 N 
HETATM   12  O1  UNL     1      -4.222  -1.171   0.810  1.00  0.00    -0.265 OA
HETATM   13  C1  UNL     1      -7.246   0.376   1.612  1.00  0.00     0.680 A 
ATOM     14  H2  UNL     1      -6.012  -1.024   2.482  1.00  0.00     0.187 HD
HETATM   15  N1  UNL     1      -8.169   0.415   2.475  1.00  0.00    -0.234 N 
HETATM   16  N13 UNL     1      -7.389   1.187   0.513  1.00  0.00    -0.173 N 
ATOM     17  H12 UNL     1      -8.063  -0.187   3.291  1.00  0.00     0.174 HD
ATOM     18  H11 UNL     1      -8.998   1.008   2.431  1.00  0.00     0.174 HD
ATOM     19  H13 UNL     1      -8.205   1.794   0.442  1.00  0.00     0.186 HD
HETATM   20  N3  UNL     1      -6.383   1.882  -1.616  1.00  0.00    -0.268 N 
HETATM   21  N4  UNL     1      -5.284   1.501  -2.184  1.00  0.00    -0.235 N 
ATOM     22  H3  UNL     1      -7.046   2.569  -1.975  1.00  0.00     0.190 HD
ATOM     23  H4  UNL     1      -4.960   1.864  -3.081  1.00  0.00     0.208 HD
ENDBRANCH   5   7
ENDBRANCH   1   2
BRANCH   1  24
HETATM   24  C8  UNL     1       0.093   0.771  -1.003  1.00  0.00     0.090 C 
BRANCH  24  25
HETATM   25  C9  UNL     1       0.988  -0.220  -0.342  1.00  0.00     0.140 A 
HETATM   26  N8  UNL     1       0.906  -1.357   0.193  1.00  0.00    -0.281 N 
HETATM   27  N9  UNL     1       2.072  -1.764   0.658  1.00  0.00    -0.276 N 
ATOM     28  H8  UNL     1       0.043  -1.897   0.259  1.00  0.00     0.189 HD
HETATM   29  C10 UNL     1       2.960  -0.748   0.371  1.00  0.00     0.196 A 
ATOM     30  H9  UNL     1       2.274  -2.645   1.131  1.00  0.00     0.189 HD
HETATM   31  C11 UNL     1       4.363  -0.770   0.695  1.00  0.00     0.143 A 
HETATM   32  O4  UNL     1       2.309   0.188  -0.228  1.00  0.00    -0.276 OA
HETATM   33  N10 UNL     1       4.946  -1.832   1.305  1.00  0.00    -0.254 N 
HETATM   34  C14 UNL     1       5.309   0.212   0.575  1.00  0.00     0.132 A 
HETATM   35  O2  UNL     1       6.168  -1.556   1.555  1.00  0.00    -0.237 OA
ATOM     36  H10 UNL     1       4.482  -2.712   1.529  1.00  0.00     0.195 HD
HETATM   37  C12 UNL     1       6.440  -0.299   1.125  1.00  0.00     0.131 A 
BRANCH  37  38
HETATM   38  C13 UNL     1       7.792   0.331   1.295  1.00  0.00     0.208 C 
BRANCH  38  39
HETATM   39  N11 UNL     1       8.592  -0.691   1.871  1.00  0.00    -0.337 N 
ATOM     40  H11 UNL     1       8.886  -1.506   1.333  1.00  0.00     0.179 HD
BRANCH  39  41
HETATM   41  N12 UNL     1       8.955  -0.530   3.197  1.00  0.00    -0.349 N 
ATOM     42 2H12 UNL     1       8.653   0.291   3.722  1.00  0.00     0.176 HD
ATOM     43 1H12 UNL     1       9.530  -1.264   3.611  1.00  0.00     0.176 HD
ENDBRANCH  39  41
ENDBRANCH  38  39
ENDBRANCH  37  38
BRANCH  34  44
HETATM   44  O3  UNL     1       5.106   1.474   0.002  1.00  0.00    -0.356 OA
ATOM     45  H3  UNL     1       5.763   2.156  -0.081  1.00  0.00     0.218 HD
ENDBRANCH  34  44
ENDBRANCH  24  25
ENDBRANCH   1  24
TORSDOF 8
