REMARK  10 active torsions:
REMARK  status: ('A' for Active; 'I' for Inactive)
REMARK    1  A    between atoms: N2_7  and  O1_8 
REMARK    2  A    between atoms: C5_10  and  C6_11 
REMARK    3  A    between atoms: C6_11  and  O2_12 
REMARK    4  A    between atoms: C6_11  and  N3_14 
REMARK    5  A    between atoms: C7_16  and  C8_17 
REMARK    6  A    between atoms: C8_17  and  N4_18 
REMARK       I    between atoms: N4_18  and  C9_20 
REMARK    7  A    between atoms: C9_20  and  C10_22 
REMARK    8  A    between atoms: C13_30  and  O4_31 
REMARK    9  A    between atoms: C13_30  and  O5_33 
REMARK   10  A    between atoms: O5_33  and  N8_34 
ROOT
HETATM    1  N4  UNL     1       0.504   0.722  -1.283  1.00  0.00    -0.350 N 
ATOM      2  H4  UNL     1       0.302   0.491  -0.310  1.00  0.00     0.163 HD
HETATM    3  C9  UNL     1      -0.548   0.964  -2.189  1.00  0.00     0.287 C 
HETATM    4  O3  UNL     1      -0.288   1.252  -3.400  1.00  0.00    -0.264 OA
ENDROOT
BRANCH   3   5
HETATM    5  C10 UNL     1      -1.922   0.878  -1.714  1.00  0.00     0.191 A 
HETATM    6  N5  UNL     1      -3.061   1.074  -2.423  1.00  0.00    -0.324 N 
HETATM    7  C11 UNL     1      -4.099   0.895  -1.595  1.00  0.00     0.124 A 
ATOM      8  H5  UNL     1      -3.118   1.315  -3.412  1.00  0.00     0.169 HD
HETATM    9  N6  UNL     1      -3.623   0.589  -0.375  1.00  0.00    -0.269 N 
HETATM   10  C14 UNL     1      -5.577   0.955  -1.709  1.00  0.00     0.252 C 
HETATM   11  N7  UNL     1      -2.309   0.582  -0.461  1.00  0.00    -0.277 N 
HETATM   12  C12 UNL     1      -4.605   0.357   0.659  1.00  0.00     0.254 C 
ATOM     13  H7  UNL     1      -1.675   0.381   0.313  1.00  0.00     0.189 HD
HETATM   14  C13 UNL     1      -5.630  -0.582   0.040  1.00  0.00     0.318 C 
HETATM   15  O6  UNL     1      -6.252  -0.024  -1.041  1.00  0.00    -0.323 OA
BRANCH  14  16
HETATM   16  O4  UNL     1      -4.884  -1.686  -0.436  1.00  0.00    -0.341 OA
ATOM     17  H4  UNL     1      -5.524  -2.272  -0.822  1.00  0.00     0.215 HD
ENDBRANCH  14  16
BRANCH  14  18
HETATM   18  O5  UNL     1      -6.504  -1.088   0.983  1.00  0.00    -0.200 OA
BRANCH  18  19
HETATM   19  N8  UNL     1      -7.212  -0.164   1.628  1.00  0.00     0.029 NA
HETATM   20  N9  UNL     1      -7.996  -0.770   2.626  1.00  0.00     0.009 NA
HETATM   21  N10 UNL     1      -9.184  -0.450   1.956  1.00  0.00     0.001 NA
HETATM   22  N11 UNL     1      -8.404   0.233   1.009  1.00  0.00     0.009 NA
ENDBRANCH  18  19
ENDBRANCH  14  18
ENDBRANCH   3   5
BRANCH   1  23
HETATM   23  C8  UNL     1       1.868   0.804  -1.742  1.00  0.00     0.167 C 
BRANCH  23  24
HETATM   24  C7  UNL     1       2.789   0.516  -0.633  1.00  0.00     0.078 C 
HETATM   25  N3  UNL     1       3.728   1.321  -0.354  1.00  0.00    -0.370 N 
ATOM     26  H3  UNL     1       3.817   2.164  -0.921  1.00  0.00     0.161 HD
BRANCH  25  27
HETATM   27  C6  UNL     1       4.669   1.125   0.703  1.00  0.00     0.273 C 
BRANCH  27  28
HETATM   28  C5  UNL     1       5.730   0.142   0.305  1.00  0.00     0.112 A 
HETATM   29  C2  UNL     1       6.549  -0.563   1.161  1.00  0.00     0.036 A 
HETATM   30  C1  UNL     1       6.510  -0.460   2.653  1.00  0.00     0.070 C 
HETATM   31  N1  UNL     1       7.361  -1.336   0.413  1.00  0.00    -0.346 N 
HETATM   32  C3  UNL     1       7.085  -1.145  -0.887  1.00  0.00     0.106 A 
ATOM     33  H1  UNL     1       8.074  -1.968   0.778  1.00  0.00     0.167 HD
HETATM   34  C4  UNL     1       7.736  -1.791  -2.076  1.00  0.00     0.091 C 
HETATM   35  N2  UNL     1       6.080  -0.233  -0.936  1.00  0.00    -0.211 N 
BRANCH  35  36
HETATM   36  O1  UNL     1       5.508   0.233  -2.110  1.00  0.00    -0.281 OA
ATOM     37  H1  UNL     1       4.805   0.871  -2.144  1.00  0.00     0.245 HD
ENDBRANCH  35  36
ENDBRANCH  27  28
BRANCH  27  38
HETATM   38  O2  UNL     1       3.960   0.519   1.763  1.00  0.00    -0.371 OA
ATOM     39  H2  UNL     1       3.288   1.142   2.015  1.00  0.00     0.212 HD
ENDBRANCH  27  38
ENDBRANCH  25  27
ENDBRANCH  23  24
ENDBRANCH   1  23
TORSDOF 10
