REMARK  14 active torsions:
REMARK  status: ('A' for Active; 'I' for Inactive)
REMARK    1  A    between atoms: C2_2  and  C3_3 
REMARK    2  A    between atoms: C3_3  and  O1_4 
REMARK    3  A    between atoms: C3_3  and  C4_6 
REMARK    4  A    between atoms: C10_12  and  C11_13 
REMARK    5  A    between atoms: C11_13  and  C12_15 
REMARK    6  A    between atoms: C12_15  and  O3_16 
REMARK    7  A    between atoms: O3_16  and  C13_17 
REMARK    8  A    between atoms: C13_17  and  C14_19 
REMARK    9  A    between atoms: C14_19  and  C15_20 
REMARK   10  A    between atoms: C16_21  and  O5_22 
REMARK   11  A    between atoms: C19_28  and  C20_29 
REMARK   12  A    between atoms: C28_40  and  O6_41 
REMARK   13  A    between atoms: O6_41  and  C29_42 
REMARK   14  A    between atoms: C29_42  and  C30_44 
ROOT
HETATM    1  C4  UNL     1      -3.661  -0.215  -1.410  1.00  0.00     0.009 C 
HETATM    2  C5  UNL     1      -4.745  -1.200  -0.998  1.00  0.00     0.020 C 
HETATM    3  C6  UNL     1      -2.446  -1.090  -1.676  1.00  0.00     0.019 C 
HETATM    4  C7  UNL     1      -1.441  -1.117  -0.599  1.00  0.00    -0.005 C 
HETATM    5  C8  UNL     1      -0.644  -2.379  -0.486  1.00  0.00     0.006 C 
HETATM    6  C9  UNL     1       0.407  -1.892   0.489  1.00  0.00     0.013 C 
HETATM    7  C10 UNL     1       0.775  -0.452  -0.014  1.00  0.00     0.066 C 
HETATM    8  C24 UNL     1      -0.368  -0.108  -0.895  1.00  0.00    -0.030 C 
HETATM    9  C25 UNL     1       0.099  -0.262  -2.335  1.00  0.00     0.016 C 
HETATM   10  C26 UNL     1      -1.007   1.223  -0.780  1.00  0.00     0.013 C 
HETATM   11  C27 UNL     1      -2.223   1.365   0.036  1.00  0.00     0.034 C 
HETATM   12  C28 UNL     1      -3.515   0.770  -0.343  1.00  0.00     0.142 C 
ENDROOT
BRANCH   7  13
HETATM   13  C11 UNL     1       1.069   0.386   1.125  1.00  0.00     0.155 C 
HETATM   14  O2  UNL     1       0.329   0.215   2.127  1.00  0.00    -0.295 OA
BRANCH  13  15
HETATM   15  C12 UNL     1       2.070   1.411   1.327  1.00  0.00     0.257 C 
BRANCH  15  16
HETATM   16  O3  UNL     1       3.181   1.366   0.397  1.00  0.00    -0.314 OA
BRANCH  16  17
HETATM   17  C13 UNL     1       4.228   2.182   0.858  1.00  0.00     0.263 C 
HETATM   18  O4  UNL     1       4.082   2.835   1.934  1.00  0.00    -0.265 OA
BRANCH  17  19
HETATM   19  C14 UNL     1       5.544   2.359   0.201  1.00  0.00     0.155 C 
BRANCH  19  20
HETATM   20  C15 UNL     1       6.560   1.468   0.857  1.00  0.00     0.014 A 
HETATM   21  C16 UNL     1       6.944   1.528   2.168  1.00  0.00     0.148 A 
HETATM   22  N1  UNL     1       7.880   0.535   2.336  1.00  0.00    -0.336 N 
HETATM   23  C17 UNL     1       8.079  -0.110   1.204  1.00  0.00     0.045 A 
ATOM     24  H1  UNL     1       8.354   0.326   3.215  1.00  0.00     0.168 HD
HETATM   25  C18 UNL     1       8.923  -1.160   0.879  1.00  0.00     0.046 A 
HETATM   26  C23 UNL     1       7.248   0.470   0.234  1.00  0.00     0.002 A 
HETATM   27  C19 UNL     1       8.936  -1.617  -0.417  1.00  0.00     0.050 A 
HETATM   28  C21 UNL     1       8.132  -1.080  -1.406  1.00  0.00     0.017 A 
HETATM   29  C22 UNL     1       7.308  -0.045  -1.040  1.00  0.00     0.015 A 
BRANCH  21  30
HETATM   30  O5  UNL     1       6.528   2.384   3.194  1.00  0.00    -0.346 OA
ATOM     31  H5  UNL     1       6.795   2.426   4.105  1.00  0.00     0.219 HD
ENDBRANCH  21  30
BRANCH  27  32
HETATM   32  C20 UNL     1       9.842  -2.744  -0.773  1.00  0.00     0.417 C 
HETATM   33  F1  UNL     1      10.518  -3.256   0.308  1.00  0.00    -0.166 F 
HETATM   34  F2  UNL     1       9.087  -3.793  -1.289  1.00  0.00    -0.166 F 
HETATM   35  F3  UNL     1      10.792  -2.286  -1.651  1.00  0.00    -0.166 F 
ENDBRANCH  27  32
ENDBRANCH  19  20
ENDBRANCH  17  19
ENDBRANCH  16  17
ENDBRANCH  15  16
ENDBRANCH  13  15
ENDBRANCH   7  13
BRANCH   1  36
HETATM   36  C3  UNL     1      -4.074   0.471  -2.704  1.00  0.00     0.128 C 
BRANCH  36  37
HETATM   37  C2  UNL     1      -4.291  -0.378  -3.891  1.00  0.00     0.028 C 
HETATM   38  C1  UNL     1      -5.504  -1.204  -3.969  1.00  0.00     0.007 C 
ENDBRANCH  36  37
BRANCH  36  39
HETATM   39  O1  UNL     1      -5.116   1.370  -2.553  1.00  0.00    -0.395 OA
ATOM     40  H1  UNL     1      -4.976   1.917  -1.789  1.00  0.00     0.210 HD
ENDBRANCH  36  39
ENDBRANCH   1  36
BRANCH  12  41
HETATM   41  O6  UNL     1      -4.069   0.304   0.905  1.00  0.00    -0.315 OA
BRANCH  41  42
HETATM   42  C29 UNL     1      -5.068   0.896   1.584  1.00  0.00     0.267 C 
HETATM   43  O7  UNL     1      -5.583   1.945   1.100  1.00  0.00    -0.264 OA
BRANCH  42  44
HETATM   44  C30 UNL     1      -5.642   0.431   2.882  1.00  0.00     0.037 C 
HETATM   45  C31 UNL     1      -7.068  -0.068   2.717  1.00  0.00     0.025 C 
HETATM   46  C32 UNL     1      -5.721   1.632   3.789  1.00  0.00     0.025 C 
HETATM   47  C33 UNL     1      -4.796  -0.650   3.527  1.00  0.00     0.025 C 
ENDBRANCH  42  44
ENDBRANCH  41  42
ENDBRANCH  12  41
TORSDOF 14
