REMARK  12 active torsions:
REMARK  status: ('A' for Active; 'I' for Inactive)
REMARK    1  A    between atoms: C14_14  and  O1_15 
REMARK    2  A    between atoms: C23_25  and  C24_26 
REMARK    3  A    between atoms: C24_26  and  N1_27 
REMARK    4  A    between atoms: N1_27  and  C25_28 
REMARK    5  A    between atoms: N1_27  and  O3_41 
REMARK    6  A    between atoms: C25_28  and  C26_29 
REMARK    7  A    between atoms: C29_32  and  C30_33 
REMARK    8  A    between atoms: C32_38  and  O2_39 
REMARK    9  A    between atoms: O3_41  and  C33_42 
REMARK   10  A    between atoms: C33_42  and  C34_43 
REMARK   11  A    between atoms: C34_43  and  C35_44 
REMARK   12  A    between atoms: C35_44  and  O4_45 
ROOT
HETATM    1  C1  UNL     1      -1.941  -1.567  -4.056  1.00  0.00     0.016 C 
HETATM    2  C2  UNL     1      -1.144  -1.498  -2.698  1.00  0.00    -0.035 C 
HETATM    3  C3  UNL     1      -0.723  -2.833  -2.336  1.00  0.00     0.016 C 
HETATM    4  C4  UNL     1      -0.225  -0.303  -2.695  1.00  0.00     0.021 C 
HETATM    5  C5  UNL     1       1.076  -0.652  -3.123  1.00  0.00    -0.020 C 
HETATM    6  C6  UNL     1       2.358  -0.648  -2.749  1.00  0.00     0.003 C 
HETATM    7  C7  UNL     1       3.007  -0.183  -1.529  1.00  0.00    -0.057 C 
HETATM    8  C8  UNL     1       4.059   0.516  -1.959  1.00  0.00    -0.019 C 
HETATM    9  C9  UNL     1       4.909   1.121  -0.913  1.00  0.00     0.034 C 
HETATM   10  C10 UNL     1       5.065   0.029   0.123  1.00  0.00     0.008 C 
HETATM   11  C11 UNL     1       6.247   0.404   0.955  1.00  0.00    -0.017 C 
HETATM   12  C12 UNL     1       6.810  -0.642   1.849  1.00  0.00     0.018 C 
HETATM   13  C13 UNL     1       7.378   0.770  -0.020  1.00  0.00     0.018 C 
HETATM   14  C14 UNL     1       5.962   1.654   1.728  1.00  0.00     0.126 C 
HETATM   15  C15 UNL     1       4.689   1.558   2.486  1.00  0.00     0.033 C 
HETATM   16  C16 UNL     1       3.498   1.154   1.695  1.00  0.00     0.012 C 
HETATM   17  C17 UNL     1       3.739  -0.093   0.844  1.00  0.00    -0.032 C 
HETATM   18  C18 UNL     1       3.825  -1.230   1.881  1.00  0.00     0.016 C 
HETATM   19  C19 UNL     1       2.630  -0.367  -0.106  1.00  0.00     0.027 C 
HETATM   20  C20 UNL     1       1.315   0.291   0.108  1.00  0.00     0.010 C 
HETATM   21  C21 UNL     1       0.146  -0.665  -0.247  1.00  0.00     0.006 C 
HETATM   22  C22 UNL     1      -0.657  -0.080  -1.295  1.00  0.00    -0.000 C 
HETATM   23  C23 UNL     1      -2.032  -0.688  -1.738  1.00  0.00     0.014 C 
ENDROOT
BRANCH  23  24
HETATM   24  C24 UNL     1      -2.761  -1.438  -0.687  1.00  0.00     0.132 C 
BRANCH  24  25
HETATM   25  N1  UNL     1      -3.866  -0.629  -0.232  1.00  0.00    -0.172 NA
BRANCH  25  26
HETATM   26  C25 UNL     1      -3.536   0.629   0.260  1.00  0.00     0.104 C 
BRANCH  26  27
HETATM   27  C26 UNL     1      -4.684   1.534   0.549  1.00  0.00     0.010 A 
HETATM   28  C27 UNL     1      -4.947   2.103   1.769  1.00  0.00     0.016 A 
HETATM   29  C28 UNL     1      -5.713   3.285   1.801  1.00  0.00     0.017 A 
HETATM   30  C29 UNL     1      -6.198   3.855   0.638  1.00  0.00     0.050 A 
HETATM   31  C31 UNL     1      -5.944   3.268  -0.586  1.00  0.00     0.053 A 
HETATM   32  C32 UNL     1      -5.213   2.156  -0.591  1.00  0.00     0.077 A 
BRANCH  30  33
HETATM   33  C30 UNL     1      -6.865   5.191   0.573  1.00  0.00     0.417 C 
HETATM   34  F1  UNL     1      -7.412   5.578   1.726  1.00  0.00    -0.166 F 
HETATM   35  F2  UNL     1      -7.646   5.253  -0.546  1.00  0.00    -0.166 F 
HETATM   36  F3  UNL     1      -5.794   6.108   0.258  1.00  0.00    -0.166 F 
ENDBRANCH  30  33
BRANCH  32  37
HETATM   37  O2  UNL     1      -4.895   1.487  -1.778  1.00  0.00    -0.360 OA
ATOM     38  H2  UNL     1      -5.253   1.908  -2.550  1.00  0.00     0.217 HD
ENDBRANCH  32  37
ENDBRANCH  26  27
ENDBRANCH  25  26
BRANCH  25  39
HETATM   39  O3  UNL     1      -4.707  -1.324   0.646  1.00  0.00    -0.299 OA
BRANCH  39  40
HETATM   40  C33 UNL     1      -4.487  -2.693   0.407  1.00  0.00     0.196 C 
BRANCH  40  41
HETATM   41  C34 UNL     1      -4.090  -3.306   1.705  1.00  0.00     0.054 C 
BRANCH  41  42
HETATM   42  C35 UNL     1      -5.092  -3.718   2.695  1.00  0.00     0.166 C 
BRANCH  42  43
HETATM   43  O4  UNL     1      -6.013  -2.769   3.047  1.00  0.00    -0.401 OA
ATOM     44  H4  UNL     1      -6.662  -3.036   3.688  1.00  0.00     0.209 HD
ENDBRANCH  42  43
ENDBRANCH  41  42
ENDBRANCH  40  41
ENDBRANCH  39  40
ENDBRANCH  25  39
ENDBRANCH  24  25
ENDBRANCH  23  24
BRANCH  14  45
HETATM   45  O1  UNL     1       6.071   2.816   0.968  1.00  0.00    -0.395 OA
ATOM     46  H1  UNL     1       5.890   3.609   1.459  1.00  0.00     0.210 HD
ENDBRANCH  14  45
TORSDOF 12
