REMARK  9 active torsions:
REMARK  status: ('A' for Active; 'I' for Inactive)
REMARK    1  A    between atoms: C3_3  and  N1_4 
REMARK    2  A    between atoms: C3_3  and  C7_20 
REMARK       I    between atoms: N1_4  and  C4_6 
REMARK    3  A    between atoms: C4_6  and  C5_8 
REMARK    4  A    between atoms: C5_8  and  N2_9 
REMARK    5  A    between atoms: C5_8  and  C6_13 
REMARK    6  A    between atoms: C6_13  and  O2_14 
REMARK    7  A    between atoms: C6_13  and  N3_16 
REMARK    8  A    between atoms: N3_16  and  N4_17 
REMARK    9  A    between atoms: C7_20  and  C8_22 
ROOT
HETATM    1  C1  UNL     1      -0.494  -0.264  -2.625  1.00  0.00     0.014 C 
HETATM    2  C2  UNL     1      -0.055  -0.598  -1.538  1.00  0.00    -0.084 C 
HETATM    3  C3  UNL     1       0.516  -0.992  -0.213  1.00  0.00     0.235 C 
ENDROOT
BRANCH   3   4
HETATM    4  N1  UNL     1       1.898  -0.469  -0.278  1.00  0.00    -0.337 N 
HETATM    5  C4  UNL     1       2.994  -1.358  -0.280  1.00  0.00     0.253 C 
HETATM    6  O1  UNL     1       2.814  -2.626  -0.231  1.00  0.00    -0.271 OA
ATOM      7  H1  UNL     1       2.059   0.537  -0.322  1.00  0.00     0.164 HD
BRANCH   5   8
HETATM    8  C5  UNL     1       4.396  -0.894  -0.341  1.00  0.00     0.320 C 
BRANCH   8   9
HETATM    9  N2  UNL     1       5.299  -2.031  -0.515  1.00  0.00    -0.063 N 
ATOM     10  H23 UNL     1       5.163  -2.739   0.207  1.00  0.00     0.275 HD
ATOM     11  H22 UNL     1       5.049  -2.595  -1.327  1.00  0.00     0.275 HD
ATOM     12  H21 UNL     1       6.267  -1.711  -0.557  1.00  0.00     0.275 HD
ENDBRANCH   8   9
BRANCH   8  13
HETATM   13  C6  UNL     1       4.808  -0.120   0.917  1.00  0.00     0.270 C 
BRANCH  13  14
HETATM   14  O2  UNL     1       3.981   0.952   1.097  1.00  0.00    -0.375 OA
ATOM     15  H2  UNL     1       4.236   1.432   1.876  1.00  0.00     0.211 HD
ENDBRANCH  13  14
BRANCH  13  16
HETATM   16  N3  UNL     1       6.164   0.320   0.733  1.00  0.00    -0.114 NA
BRANCH  16  17
HETATM   17  N4  UNL     1       6.340   1.142  -0.359  1.00  0.00    -0.346 N 
ATOM     18  H42 UNL     1       5.568   1.405  -0.971  1.00  0.00     0.172 HD
ATOM     19  H41 UNL     1       7.302   1.454  -0.490  1.00  0.00     0.172 HD
ENDBRANCH  16  17
ENDBRANCH  13  16
ENDBRANCH   8  13
ENDBRANCH   5   8
ENDBRANCH   3   4
BRANCH   3  20
HETATM   20  C7  UNL     1      -0.243  -0.273   0.812  1.00  0.00     0.192 C 
HETATM   21  O3  UNL     1       0.327   0.709   1.329  1.00  0.00    -0.292 OA
BRANCH  20  22
HETATM   22  C8  UNL     1      -1.609  -0.593   1.296  1.00  0.00     0.240 C 
HETATM   23  N5  UNL     1      -2.046   0.401   2.239  1.00  0.00    -0.300 N 
HETATM   24  S1  UNL     1      -2.554   1.867   1.533  1.00  0.00     0.231 S 
ATOM     25  H5  UNL     1      -2.052   0.242   3.247  1.00  0.00     0.173 HD
HETATM   26  O4  UNL     1      -1.869   2.182   0.241  1.00  0.00    -0.206 OA
HETATM   27  O5  UNL     1      -2.388   3.036   2.462  1.00  0.00    -0.206 OA
HETATM   28  C9  UNL     1      -4.288   1.690   1.175  1.00  0.00     0.202 C 
HETATM   29  C10 UNL     1      -4.421   0.746   0.022  1.00  0.00    -0.029 A 
HETATM   30  C11 UNL     1      -5.509   1.188  -0.727  1.00  0.00     0.009 A 
HETATM   31  C15 UNL     1      -3.704  -0.350  -0.331  1.00  0.00     0.020 A 
HETATM   32  C12 UNL     1      -5.861   0.487  -1.857  1.00  0.00     0.001 A 
HETATM   33  C13 UNL     1      -5.174  -0.633  -2.269  1.00  0.00     0.001 A 
HETATM   34  C14 UNL     1      -4.111  -1.025  -1.495  1.00  0.00     0.016 A 
HETATM   35  C16 UNL     1      -2.563  -0.993   0.277  1.00  0.00     0.190 C 
HETATM   36  O6  UNL     1      -2.366  -2.164  -0.191  1.00  0.00    -0.290 OA
ENDBRANCH  20  22
ENDBRANCH   3  20
TORSDOF 9
