REMARK  4 active torsions:
REMARK  status: ('A' for Active; 'I' for Inactive)
REMARK    1  A    between atoms: C2_2  and  S1_3 
REMARK    2  A    between atoms: S1_3  and  C3_4 
REMARK    3  A    between atoms: C3_4  and  C4_5 
REMARK    4  A    between atoms: C10_11  and  O1_12 
ROOT
HETATM    1  C4  UNL     1       0.182  -0.747   0.760  1.00  0.00     0.032 C 
HETATM    2  C5  UNL     1      -1.055  -1.605   0.483  1.00  0.00     0.195 C 
HETATM    3  C6  UNL     1      -1.453  -1.513  -0.968  1.00  0.00     0.069 C 
HETATM    4  C7  UNL     1      -1.743  -0.062  -1.275  1.00  0.00     0.227 C 
HETATM    5  C8  UNL     1      -0.430   0.669  -1.214  1.00  0.00     0.043 C 
HETATM    6  C9  UNL     1       0.061   0.608   0.207  1.00  0.00     0.025 C 
HETATM    7  C10 UNL     1      -0.929   1.416   1.041  1.00  0.00     0.151 C 
HETATM    8  C11 UNL     1      -2.265   1.575   0.409  1.00  0.00     0.307 C 
HETATM    9  N1  UNL     1      -2.705   0.409  -0.317  1.00  0.00     0.121 N 
HETATM   10  C12 UNL     1      -3.201  -0.631   0.560  1.00  0.00     0.503 C 
HETATM   11  N2  UNL     1      -2.159  -1.243   1.354  1.00  0.00    -0.044 N 
ATOM     12  H21 UNL     1      -1.864  -0.652   2.131  1.00  0.00     0.279 HD
ATOM     13  H22 UNL     1      -2.500  -2.035   1.899  1.00  0.00     0.279 HD
ENDROOT
BRANCH   1  14
HETATM   14  C3  UNL     1       1.353  -1.547   0.306  1.00  0.00     0.081 C 
BRANCH  14  15
HETATM   15  S1  UNL     1       2.930  -0.832   0.511  1.00  0.00    -0.169 SA
BRANCH  15  16
HETATM   16  C2  UNL     1       3.491   0.480  -0.510  1.00  0.00     0.069 C 
HETATM   17  C1  UNL     1       4.989   0.715  -0.133  1.00  0.00     0.016 C 
ENDBRANCH  15  16
ENDBRANCH  14  15
ENDBRANCH   1  14
BRANCH   7  18
HETATM   18  O1  UNL     1      -0.384   2.703   1.261  1.00  0.00    -0.393 OA
ATOM     19  H1  UNL     1      -1.000   3.206   1.780  1.00  0.00     0.210 HD
ENDBRANCH   7  18
TORSDOF 4
