REMARK  7 active torsions:
REMARK  status: ('A' for Active; 'I' for Inactive)
REMARK    1  A    between atoms: N1_1  and  N2_4 
REMARK    2  A    between atoms: N2_4  and  C1_6 
REMARK    3  A    between atoms: C2_7  and  C3_8 
REMARK    4  A    between atoms: N3_9  and  N4_11 
REMARK       I    between atoms: N4_11  and  C4_13 
REMARK    5  A    between atoms: C5_18  and  C6_19 
REMARK       I    between atoms: C6_19  and  N7_21 
REMARK    6  A    between atoms: N7_21  and  N8_23 
REMARK    7  A    between atoms: N9_27  and  N10_28 
ROOT
HETATM    1  C1  UNL     1      -0.183   1.236  -0.674  1.00  0.00     0.169 A 
HETATM    2  C2  UNL     1       0.370   0.077  -0.169  1.00  0.00     0.097 A 
HETATM    3  N6  UNL     1      -0.439  -0.935   0.164  1.00  0.00    -0.346 N 
ATOM      4  H6  UNL     1      -0.020  -1.787   0.537  1.00  0.00     0.166 HD
HETATM    5  C5  UNL     1      -1.767  -0.886   0.033  1.00  0.00     0.120 A 
HETATM    6  C7  UNL     1      -2.287   0.292  -0.477  1.00  0.00     0.153 A 
HETATM    7  N9  UNL     1      -1.520   1.350  -0.831  1.00  0.00    -0.252 N 
ENDROOT
BRANCH   2   8
HETATM    8  C3  UNL     1       1.821  -0.060   0.007  1.00  0.00     0.140 C 
HETATM    9  N3  UNL     1       2.349  -1.136   0.477  1.00  0.00    -0.306 N 
ATOM     10  H3  UNL     1       1.743  -1.915   0.734  1.00  0.00     0.186 HD
BRANCH   9  11
HETATM   11  N4  UNL     1       3.728  -1.266   0.645  1.00  0.00    -0.254 N 
HETATM   12  C4  UNL     1       4.460  -0.246   1.353  1.00  0.00     0.347 C 
HETATM   13  N5  UNL     1       5.863  -0.378   1.524  1.00  0.00    -0.038 NA
HETATM   14  O1  UNL     1       3.853   0.743   1.811  1.00  0.00    -0.249 OA
ATOM     15  H4  UNL     1       4.216  -2.079   0.269  1.00  0.00     0.191 HD
ENDBRANCH   9  11
ENDBRANCH   2   8
BRANCH   1  16
HETATM   16  N2  UNL     1       0.641   2.182  -0.979  1.00  0.00    -0.289 N 
ATOM     17  H2  UNL     1       1.635   2.012  -0.829  1.00  0.00     0.188 HD
BRANCH  16  18
HETATM   18  N1  UNL     1       0.268   3.411  -1.496  1.00  0.00    -0.344 N 
ATOM     19  H12 UNL     1      -0.730   3.563  -1.640  1.00  0.00     0.176 HD
ATOM     20  H11 UNL     1       0.919   4.158  -1.737  1.00  0.00     0.176 HD
ENDBRANCH  16  18
ENDBRANCH   1  16
BRANCH   7  21
HETATM   21  N10 UNL     1      -2.057   2.527  -1.342  1.00  0.00    -0.337 N 
ATOM     22 2H10 UNL     1      -1.479   3.324  -1.609  1.00  0.00     0.177 HD
ATOM     23 1H10 UNL     1      -3.066   2.613  -1.461  1.00  0.00     0.177 HD
ENDBRANCH   7  21
BRANCH   5  24
HETATM   24  C6  UNL     1      -2.585  -2.026   0.415  1.00  0.00     0.287 C 
HETATM   25  O2  UNL     1      -1.963  -3.047   0.871  1.00  0.00    -0.264 OA
HETATM   26  N7  UNL     1      -4.006  -2.044   0.302  1.00  0.00    -0.271 N 
ATOM     27  H7  UNL     1      -4.492  -1.225  -0.063  1.00  0.00     0.189 HD
BRANCH  26  28
HETATM   28  N8  UNL     1      -4.734  -3.157   0.681  1.00  0.00    -0.342 N 
ATOM     29  H82 UNL     1      -4.232  -3.967   1.044  1.00  0.00     0.176 HD
ATOM     30  H81 UNL     1      -5.751  -3.170   0.600  1.00  0.00     0.176 HD
ENDBRANCH  26  28
ENDBRANCH   5  24
TORSDOF 7
