REMARK  9 active torsions:
REMARK  status: ('A' for Active; 'I' for Inactive)
REMARK    1  A    between atoms: N1_2  and  C2_3 
REMARK    2  A    between atoms: N1_2  and  C4_13 
REMARK    3  A    between atoms: C2_3  and  C3_4 
REMARK    4  A    between atoms: C3_4  and  N2_5 
REMARK    5  A    between atoms: C3_4  and  N3_9 
REMARK    6  A    between atoms: N3_9  and  N4_10 
REMARK    7  A    between atoms: C6_19  and  N7_20 
REMARK    8  A    between atoms: N8_23  and  N9_24 
REMARK    9  A    between atoms: C7_27  and  N10_28 
ROOT
HETATM    1  C4  UNL     1      -0.452  -1.031  -0.070  1.00  0.00     0.684 A 
HETATM    2  N5  UNL     1       0.271   0.099  -0.149  1.00  0.00    -0.175 N 
ATOM      3  H5  UNL     1      -0.223   0.970  -0.342  1.00  0.00     0.186 HD
HETATM    4  C5  UNL     1       1.592   0.152   0.009  1.00  0.00     0.156 A 
HETATM    5  N6  UNL     1       2.259   1.335  -0.085  1.00  0.00    -0.173 N 
ATOM      6  H6  UNL     1       1.754   2.200  -0.279  1.00  0.00     0.186 HD
HETATM    7  C6  UNL     1       3.580   1.346   0.080  1.00  0.00     0.700 A 
HETATM    8  N8  UNL     1       4.260   0.215   0.336  1.00  0.00    -0.076 N 
HETATM    9  C7  UNL     1       3.632  -0.965   0.435  1.00  0.00     0.158 A 
HETATM   10  C8  UNL     1       2.262  -1.025   0.271  1.00  0.00     0.123 A 
HETATM   11  C9  UNL     1       1.551  -2.184   0.356  1.00  0.00     0.277 A 
HETATM   12  O1  UNL     1       2.159  -3.252   0.593  1.00  0.00    -0.266 OA
HETATM   13  N11 UNL     1       0.200  -2.166   0.183  1.00  0.00    -0.155 N 
ATOM     14  H11 UNL     1      -0.324  -3.039   0.248  1.00  0.00     0.187 HD
ENDROOT
BRANCH   1  15
HETATM   15  N1  UNL     1      -1.850  -0.939  -0.257  1.00  0.00    -0.218 N 
HETATM   16  C1  UNL     1      -2.680  -2.122  -0.217  1.00  0.00     0.168 C 
BRANCH  15  17
HETATM   17  C2  UNL     1      -2.504   0.320  -0.488  1.00  0.00     0.192 C 
BRANCH  17  18
HETATM   18  C3  UNL     1      -3.373   0.754   0.656  1.00  0.00     0.313 C 
BRANCH  18  19
HETATM   19  N2  UNL     1      -4.433  -0.143   0.983  1.00  0.00    -0.058 N 
ATOM     20  H23 UNL     1      -5.004  -0.329   0.158  1.00  0.00     0.276 HD
ATOM     21  H22 UNL     1      -4.062  -1.077   1.157  1.00  0.00     0.276 HD
ATOM     22  H21 UNL     1      -5.024   0.152   1.761  1.00  0.00     0.276 HD
ENDBRANCH  18  19
BRANCH  18  23
HETATM   23  N3  UNL     1      -3.977   2.040   0.324  1.00  0.00    -0.113 NA
BRANCH  23  24
HETATM   24  N4  UNL     1      -3.021   3.037   0.102  1.00  0.00    -0.346 N 
ATOM     25  H42 UNL     1      -2.017   2.868   0.169  1.00  0.00     0.172 HD
ATOM     26  H41 UNL     1      -3.443   3.936  -0.130  1.00  0.00     0.172 HD
ENDBRANCH  23  24
ENDBRANCH  18  23
ENDBRANCH  17  18
ENDBRANCH  15  17
ENDBRANCH   1  15
BRANCH   7  27
HETATM   27  N7  UNL     1       4.233   2.480  -0.007  1.00  0.00    -0.233 N 
ATOM     28  H72 UNL     1       3.717   3.338  -0.201  1.00  0.00     0.174 HD
ATOM     29  H71 UNL     1       5.245   2.488   0.119  1.00  0.00     0.174 HD
ENDBRANCH   7  27
BRANCH   9  30
HETATM   30  N10 UNL     1       4.258  -2.074   0.680  1.00  0.00    -0.383 N 
ATOM     31 2H10 UNL     1       5.270  -2.030   0.801  1.00  0.00     0.157 HD
ATOM     32 1H10 UNL     1       3.780  -2.972   0.755  1.00  0.00     0.157 HD
ENDBRANCH   9  30
BRANCH   8  33
HETATM   33  N9  UNL     1       5.646   0.239   0.507  1.00  0.00    -0.322 N 
ATOM     34  H92 UNL     1       6.124   1.137   0.432  1.00  0.00     0.178 HD
ATOM     35  H91 UNL     1       6.162  -0.619   0.701  1.00  0.00     0.178 HD
ENDBRANCH   8  33
TORSDOF 9
