REMARK  6 active torsions:
REMARK  status: ('A' for Active; 'I' for Inactive)
REMARK    1  A    between atoms: C2_2  and  C3_3 
REMARK       I    between atoms: C3_3  and  N1_5 
REMARK    2  A    between atoms: N1_5  and  C4_7 
REMARK    3  A    between atoms: N2_10  and  C6_11 
REMARK    4  A    between atoms: C6_11  and  C7_12 
REMARK    5  A    between atoms: C7_12  and  N3_14 
REMARK    6  A    between atoms: N3_14  and  C9_16 
ROOT
HETATM    1  C4  UNL     1      -1.463  -0.211  -0.352  1.00  0.00     0.241 C 
HETATM    2  S1  UNL     1      -1.449  -1.668   0.733  1.00  0.00    -0.114 SA
HETATM    3  C5  UNL     1      -0.188  -1.057   1.922  1.00  0.00     0.202 C 
HETATM    4  N2  UNL     1       0.472  -0.067   1.097  1.00  0.00    -0.339 N 
HETATM    5  C10 UNL     1      -0.442   0.650   0.294  1.00  0.00     0.253 C 
HETATM    6  O3  UNL     1      -0.458   1.917   0.091  1.00  0.00    -0.270 OA
ENDROOT
BRANCH   4   7
HETATM    7  C6  UNL     1       1.899   0.175   1.092  1.00  0.00     0.151 C 
BRANCH   7   8
HETATM    8  C7  UNL     1       2.646  -0.653   0.094  1.00  0.00     0.097 C 
HETATM    9  C8  UNL     1       2.180  -0.397  -1.328  1.00  0.00     0.034 C 
BRANCH   8  10
HETATM   10  N3  UNL     1       4.034  -0.236   0.144  1.00  0.00    -0.362 N 
ATOM     11  H3  UNL     1       4.284   0.735  -0.046  1.00  0.00     0.162 HD
BRANCH  10  12
HETATM   12  C9  UNL     1       5.047  -1.185   0.459  1.00  0.00     0.348 C 
HETATM   13  O2  UNL     1       4.815  -2.383   0.703  1.00  0.00    -0.284 OA
ENDBRANCH  10  12
ENDBRANCH   8  10
ENDBRANCH   7   8
ENDBRANCH   4   7
BRANCH   1  14
HETATM   14  N1  UNL     1      -2.789   0.405  -0.304  1.00  0.00    -0.336 N 
HETATM   15  C3  UNL     1      -3.441   0.623  -1.538  1.00  0.00     0.241 C 
HETATM   16  O1  UNL     1      -2.888   0.295  -2.642  1.00  0.00    -0.269 OA
ATOM     17  H1  UNL     1      -3.224   0.666   0.581  1.00  0.00     0.164 HD
BRANCH  15  18
HETATM   18  C2  UNL     1      -4.764   1.234  -1.540  1.00  0.00     0.064 C 
HETATM   19  C1  UNL     1      -5.418   1.606  -0.471  1.00  0.00     0.017 C 
ENDBRANCH  15  18
ENDBRANCH   1  14
TORSDOF 6
