REMARK  8 active torsions:
REMARK  status: ('A' for Active; 'I' for Inactive)
REMARK    1  A    between atoms: C2_4  and  C3_5 
REMARK    2  A    between atoms: C2_4  and  N5_24 
REMARK    3  A    between atoms: C3_5  and  N2_6 
REMARK    4  A    between atoms: N2_6  and  C4_8 
REMARK    5  A    between atoms: C8_15  and  N4_16 
REMARK    6  A    between atoms: N5_24  and  C13_26 
REMARK    7  A    between atoms: C18_33  and  O3_34 
REMARK    8  A    between atoms: C20_36  and  O4_37 
ROOT
HETATM    1  C1  UNL     1      -1.272  -4.724   0.722  1.00  0.00     0.147 C 
HETATM    2  N1  UNL     1      -0.131  -3.860   0.603  1.00  0.00    -0.383 N 
ATOM      3  H1  UNL     1       0.749  -4.168   1.017  1.00  0.00     0.160 HD
HETATM    4  C2  UNL     1      -0.152  -2.719   0.005  1.00  0.00     0.095 C 
ENDROOT
BRANCH   4   5
HETATM    5  C3  UNL     1      -1.450  -2.293  -0.591  1.00  0.00     0.196 C 
BRANCH   5   6
HETATM    6  N2  UNL     1      -1.820  -1.005  -0.094  1.00  0.00    -0.382 N 
ATOM      7  H2  UNL     1      -1.226  -0.503   0.566  1.00  0.00     0.160 HD
BRANCH   6   8
HETATM    8  C4  UNL     1      -2.941  -0.496  -0.513  1.00  0.00     0.044 A 
HETATM    9  C5  UNL     1      -3.743  -1.167  -1.402  1.00  0.00     0.072 A 
HETATM   10  C6  UNL     1      -4.914  -0.580  -1.811  1.00  0.00     0.106 A 
HETATM   11 CL1  UNL     1      -5.999  -1.372  -2.948  1.00  0.00    -0.064 Cl
HETATM   12  N3  UNL     1      -5.304   0.651  -1.361  1.00  0.00    -0.344 N 
HETATM   13  C7  UNL     1      -4.533   1.320  -0.492  1.00  0.00     0.079 A 
ATOM     14  H3  UNL     1      -6.180   1.060  -1.686  1.00  0.00     0.167 HD
HETATM   15  C8  UNL     1      -4.893   2.572  -0.020  1.00  0.00     0.132 A 
HETATM   16  C12 UNL     1      -3.343   0.763  -0.054  1.00  0.00     0.021 A 
HETATM   17  C9  UNL     1      -4.052   3.227   0.872  1.00  0.00     0.062 A 
HETATM   18  C10 UNL     1      -2.877   2.654   1.291  1.00  0.00     0.037 A 
HETATM   19 CL2  UNL     1      -1.838   3.522   2.425  1.00  0.00    -0.084 Cl
HETATM   20  C11 UNL     1      -2.521   1.412   0.822  1.00  0.00     0.040 A 
BRANCH  15  21
HETATM   21  N4  UNL     1      -6.067   3.240  -0.385  1.00  0.00    -0.113 N 
HETATM   22  O1  UNL     1      -6.002   4.526  -0.391  1.00  0.00    -0.532 OA
HETATM   23  O2  UNL     1      -7.273   2.743  -0.744  1.00  0.00    -0.532 OA
ENDBRANCH  15  21
ENDBRANCH   6   8
ENDBRANCH   5   6
ENDBRANCH   4   5
BRANCH   4  24
HETATM   24  N5  UNL     1       0.956  -1.860  -0.138  1.00  0.00    -0.344 N 
ATOM     25  H5  UNL     1       1.313  -1.666  -1.073  1.00  0.00     0.167 HD
BRANCH  24  26
HETATM   26  C13 UNL     1       1.525  -1.318   0.864  1.00  0.00     0.047 A 
HETATM   27  C14 UNL     1       1.150  -1.488   2.173  1.00  0.00     0.047 A 
HETATM   28  C15 UNL     1       1.891  -0.825   3.146  1.00  0.00     0.090 A 
HETATM   29  N6  UNL     1       2.943  -0.037   2.870  1.00  0.00    -0.365 N 
HETATM   30  C16 UNL     1       3.332   0.146   1.607  1.00  0.00     0.047 A 
ATOM     31  H6  UNL     1       3.446   0.423   3.629  1.00  0.00     0.165 HD
HETATM   32  C17 UNL     1       4.411   0.956   1.285  1.00  0.00     0.070 A 
HETATM   33  C23 UNL     1       2.623  -0.496   0.592  1.00  0.00     0.020 A 
HETATM   34  C18 UNL     1       4.775   1.122  -0.035  1.00  0.00     0.103 A 
HETATM   35  C20 UNL     1       4.096   0.503  -1.059  1.00  0.00     0.102 A 
HETATM   36  C22 UNL     1       3.024  -0.300  -0.716  1.00  0.00     0.055 A 
BRANCH  34  37
HETATM   37  O3  UNL     1       5.840   1.924  -0.344  1.00  0.00    -0.353 OA
HETATM   38  C19 UNL     1       6.614   2.617   0.636  1.00  0.00     0.210 C 
ENDBRANCH  34  37
BRANCH  35  39
HETATM   39  O4  UNL     1       4.455   0.663  -2.400  1.00  0.00    -0.353 OA
HETATM   40  C21 UNL     1       3.721   0.010  -3.422  1.00  0.00     0.210 C 
ENDBRANCH  35  39
ENDBRANCH  24  26
ENDBRANCH   4  24
TORSDOF 8
