REMARK  2 active torsions:
REMARK  status: ('A' for Active; 'I' for Inactive)
REMARK    1  A    between atoms: C4_4  and  N1_5 
REMARK    2  A    between atoms: N1_5  and  C5_7 
ROOT
HETATM    1  C5  UNL     1       1.099   0.031  -0.094  1.00  0.00     0.399 C 
HETATM    2  N2  UNL     1       1.500  -1.286  -0.526  1.00  0.00    -0.075 NA
HETATM    3  N3  UNL     1       0.462  -2.194  -0.456  1.00  0.00    -0.034 NA
HETATM    4  N4  UNL     1      -0.571  -1.737  -1.243  1.00  0.00    -0.090 NA
HETATM    5  C6  UNL     1      -1.184  -0.562  -0.597  1.00  0.00     0.215 C 
HETATM    6  C7  UNL     1      -1.514  -0.999   0.778  1.00  0.00     0.058 C 
HETATM    7  C8  UNL     1      -2.151  -0.083   1.702  1.00  0.00     0.004 C 
HETATM    8  C9  UNL     1      -2.817   1.140   1.188  1.00  0.00     0.000 C 
HETATM    9  C10 UNL     1      -4.080   0.932   0.436  1.00  0.00     0.000 C 
HETATM   10  C11 UNL     1      -4.348  -0.474   0.006  1.00  0.00     0.000 C 
HETATM   11  C12 UNL     1      -3.547  -0.961  -1.141  1.00  0.00     0.004 C 
HETATM   12  C13 UNL     1      -2.325  -0.164  -1.463  1.00  0.00     0.058 C 
HETATM   13  N5  UNL     1      -0.155   0.461  -0.601  1.00  0.00    -0.014 N 
ATOM     14  H51 UNL     1      -0.046   0.852  -1.537  1.00  0.00     0.283 HD
ATOM     15  H52 UNL     1      -0.476   1.291  -0.101  1.00  0.00     0.283 HD
ENDROOT
BRANCH   1  16
HETATM   16  N1  UNL     1       2.134   0.959  -0.490  1.00  0.00    -0.349 N 
ATOM     17  H1  UNL     1       1.892   1.704  -1.143  1.00  0.00     0.163 HD
BRANCH  16  18
HETATM   18  C4  UNL     1       3.469   0.886  -0.016  1.00  0.00     0.030 A 
HETATM   19  C3  UNL     1       3.926  -0.031   0.900  1.00  0.00     0.029 A 
HETATM   20  C2  UNL     1       5.219  -0.084   1.341  1.00  0.00     0.002 A 
HETATM   21  C1  UNL     1       6.135   0.815   0.861  1.00  0.00     0.000 A 
HETATM   22  C15 UNL     1       5.726   1.769  -0.072  1.00  0.00     0.002 A 
HETATM   23  C14 UNL     1       4.398   1.785  -0.492  1.00  0.00     0.029 A 
ENDBRANCH  16  18
ENDBRANCH   1  16
TORSDOF 2
