REMARK  5 active torsions:
REMARK  status: ('A' for Active; 'I' for Inactive)
REMARK    1  A    between atoms: C9_10  and  N1_11 
REMARK       I    between atoms: N1_11  and  C10_13 
REMARK    2  A    between atoms: C10_13  and  C11_15 
REMARK    3  A    between atoms: C11_15  and  S2_16 
REMARK    4  A    between atoms: S2_16  and  C12_17 
REMARK    5  A    between atoms: C13_22  and  C14_23 
ROOT
HETATM    1  N1  UNL     1      -1.041  -1.632  -0.706  1.00  0.00    -0.320 N 
ATOM      2  H1  UNL     1      -1.199  -1.712  -1.710  1.00  0.00     0.169 HD
HETATM    3  C10 UNL     1       0.117  -2.210  -0.120  1.00  0.00     0.232 C 
HETATM    4  O1  UNL     1       0.387  -2.143   1.085  1.00  0.00    -0.272 OA
ENDROOT
BRANCH   3   5
HETATM    5  C11 UNL     1       1.025  -2.931  -1.040  1.00  0.00     0.185 C 
BRANCH   5   6
HETATM    6  S2  UNL     1       2.149  -1.947  -1.985  1.00  0.00    -0.082 SA
BRANCH   6   7
HETATM    7  C12 UNL     1       3.473  -1.173  -1.098  1.00  0.00     0.174 A 
HETATM    8  N2  UNL     1       3.434   0.052  -0.558  1.00  0.00    -0.277 N 
HETATM    9  N3  UNL     1       4.495   0.584   0.075  1.00  0.00    -0.286 N 
ATOM     10  H2  UNL     1       2.575   0.597  -0.629  1.00  0.00     0.189 HD
HETATM   11  C13 UNL     1       5.649  -0.077   0.200  1.00  0.00     0.114 A 
ATOM     12  H3  UNL     1       4.416   1.520   0.472  1.00  0.00     0.188 HD
HETATM   13  N4  UNL     1       5.698  -1.327  -0.345  1.00  0.00    -0.286 N 
HETATM   14  N5  UNL     1       4.664  -1.845  -0.960  1.00  0.00    -0.277 N 
ATOM     15  H4  UNL     1       6.558  -1.870  -0.272  1.00  0.00     0.188 HD
ATOM     16  H5  UNL     1       4.746  -2.783  -1.352  1.00  0.00     0.189 HD
BRANCH  11  17
HETATM   17  C14 UNL     1       6.854   0.494   0.862  1.00  0.00     0.048 C 
HETATM   18  C15 UNL     1       6.725   1.959   1.169  1.00  0.00     0.017 C 
HETATM   19  C16 UNL     1       8.046   0.310  -0.064  1.00  0.00     0.017 C 
ENDBRANCH  11  17
ENDBRANCH   6   7
ENDBRANCH   5   6
ENDBRANCH   3   5
BRANCH   1  20
HETATM   20  C9  UNL     1      -1.998  -0.928   0.127  1.00  0.00     0.088 A 
HETATM   21  S1  UNL     1      -1.964  -0.689   1.807  1.00  0.00    -0.076 SA
HETATM   22  C7  UNL     1      -3.423   0.197   1.980  1.00  0.00    -0.007 A 
HETATM   23  C6  UNL     1      -3.889   0.277   0.697  1.00  0.00    -0.004 A 
HETATM   24  C8  UNL     1      -3.984   0.716   3.283  1.00  0.00     0.057 C 
HETATM   25  C4  UNL     1      -5.075   0.920   0.299  1.00  0.00    -0.049 A 
HETATM   26  C17 UNL     1      -3.155  -0.305  -0.266  1.00  0.00     0.010 A 
HETATM   27  C3  UNL     1      -5.498   0.968  -1.021  1.00  0.00     0.014 A 
HETATM   28  C5  UNL     1      -5.949   1.616   1.280  1.00  0.00     0.049 C 
HETATM   29  C2  UNL     1      -4.750   0.376  -1.989  1.00  0.00    -0.061 A 
HETATM   30  C1  UNL     1      -5.177   0.413  -3.425  1.00  0.00     0.048 C 
HETATM   31  C18 UNL     1      -3.594  -0.249  -1.608  1.00  0.00     0.022 A 
ENDBRANCH   1  20
TORSDOF 5
