REMARK  7 active torsions:
REMARK  status: ('A' for Active; 'I' for Inactive)
REMARK    1  A    between atoms: C3_3  and  C4_4 
REMARK    2  A    between atoms: C4_4  and  O2_6 
REMARK    3  A    between atoms: O2_6  and  C5_7 
REMARK    4  A    between atoms: C5_7  and  C6_8 
REMARK    5  A    between atoms: C10_13  and  N1_14 
REMARK    6  A    between atoms: N1_14  and  C11_16 
REMARK    7  A    between atoms: C17_23  and  C18_24 
ROOT
HETATM    1  C1  UNL     1       2.678   2.475   2.133  1.00  0.00     0.074 C 
HETATM    2  C2  UNL     1       1.834   1.811   1.088  1.00  0.00     0.073 A 
HETATM    3  C3  UNL     1       2.262   1.039   0.028  1.00  0.00     0.177 A 
HETATM    4  O3  UNL     1       1.164   0.685  -0.600  1.00  0.00    -0.282 OA
HETATM    5  C9  UNL     1       0.111   1.188   0.005  1.00  0.00     0.199 A 
HETATM    6  C10 UNL     1      -1.302   1.275  -0.024  1.00  0.00     0.107 A 
HETATM    7  C17 UNL     1      -1.684   2.029   1.017  1.00  0.00     0.064 A 
HETATM    8  N2  UNL     1      -0.534   2.400   1.675  1.00  0.00    -0.293 N 
ATOM      9  H2  UNL     1      -0.494   2.980   2.513  1.00  0.00     0.187 HD
HETATM   10  N3  UNL     1       0.487   1.898   1.065  1.00  0.00    -0.233 N 
ENDROOT
BRANCH   6  11
HETATM   11  N1  UNL     1      -2.045   0.691  -1.079  1.00  0.00    -0.378 N 
ATOM     12  H1  UNL     1      -2.325   1.341  -1.814  1.00  0.00     0.160 HD
BRANCH  11  13
HETATM   13  C11 UNL     1      -2.461  -0.639  -1.280  1.00  0.00     0.113 C 
HETATM   14  C12 UNL     1      -1.527  -1.704  -0.736  1.00  0.00     0.059 C 
HETATM   15  C13 UNL     1      -2.469  -2.644  -0.040  1.00  0.00     0.120 C 
HETATM   16  C14 UNL     1      -2.679  -3.926  -0.809  1.00  0.00     0.039 C 
HETATM   17  O4  UNL     1      -3.665  -1.978   0.159  1.00  0.00    -0.379 OA
HETATM   18  C15 UNL     1      -3.807  -1.096  -0.913  1.00  0.00     0.140 C 
HETATM   19  C16 UNL     1      -4.530  -1.834  -2.023  1.00  0.00     0.041 C 
ENDBRANCH  11  13
ENDBRANCH   6  11
BRANCH   7  20
HETATM   20  C18 UNL     1      -2.990   2.457   1.530  1.00  0.00    -0.005 C 
HETATM   21  C19 UNL     1      -3.828   1.290   1.956  1.00  0.00     0.021 C 
HETATM   22  C20 UNL     1      -2.861   3.357   2.748  1.00  0.00     0.021 C 
HETATM   23  C21 UNL     1      -3.720   3.305   0.486  1.00  0.00     0.021 C 
ENDBRANCH   7  20
BRANCH   3  24
HETATM   24  C4  UNL     1       3.644   0.707  -0.297  1.00  0.00     0.319 C 
HETATM   25  O1  UNL     1       4.548   1.157   0.446  1.00  0.00    -0.257 OA
BRANCH  24  26
HETATM   26  O2  UNL     1       4.007  -0.062  -1.360  1.00  0.00    -0.316 OA
BRANCH  26  27
HETATM   27  C5  UNL     1       5.276  -0.447  -1.768  1.00  0.00     0.183 C 
BRANCH  27  28
HETATM   28  C6  UNL     1       5.936  -1.272  -0.689  1.00  0.00     0.002 C 
HETATM   29  C7  UNL     1       5.098  -2.507  -0.416  1.00  0.00     0.011 C 
HETATM   30  C8  UNL     1       7.339  -1.683  -1.108  1.00  0.00     0.011 C 
ENDBRANCH  27  28
ENDBRANCH  26  27
ENDBRANCH  24  26
ENDBRANCH   3  24
TORSDOF 7
