REMARK  17 active torsions:
REMARK  status: ('A' for Active; 'I' for Inactive)
REMARK    1  A    between atoms: C2_2  and  O2_4 
REMARK    2  A    between atoms: O2_4  and  C3_5 
REMARK    3  A    between atoms: C3_5  and  C4_6 
REMARK    4  A    between atoms: C4_6  and  O3_7 
REMARK    5  A    between atoms: C4_6  and  O4_9 
REMARK    6  A    between atoms: O4_9  and  C5_10 
REMARK    7  A    between atoms: C9_14  and  O5_15 
REMARK    8  A    between atoms: O5_15  and  C10_16 
REMARK    9  A    between atoms: C12_19  and  O7_21 
REMARK   10  A    between atoms: C14_23  and  O8_24 
REMARK   11  A    between atoms: O8_24  and  C15_25 
REMARK   12  A    between atoms: C17_28  and  O10_29 
REMARK   13  A    between atoms: O10_29  and  C18_30 
REMARK   14  A    between atoms: C20_33  and  O12_34 
REMARK   15  A    between atoms: O12_34  and  C21_35 
REMARK   16  A    between atoms: C23_38  and  O14_39 
REMARK   17  A    between atoms: C24_41  and  O15_42 
ROOT
HETATM    1  C10 UNL     1       1.385  -2.520  -0.040  1.00  0.00     0.294 C 
HETATM    2  O6  UNL     1       1.108  -3.860  -0.048  1.00  0.00    -0.355 OA
HETATM    3  C11 UNL     1      -0.152  -4.188   0.388  1.00  0.00     0.211 C 
HETATM    4  C12 UNL     1      -1.238  -3.279  -0.148  1.00  0.00     0.104 C 
HETATM    5  C13 UNL     1      -2.548  -3.795   0.439  1.00  0.00     0.051 C 
HETATM    6  C14 UNL     1      -0.984  -1.898   0.354  1.00  0.00     0.194 C 
HETATM    7  C24 UNL     1       0.445  -1.720   0.835  1.00  0.00     0.205 C 
ENDROOT
BRANCH   6   8
HETATM    8  O8  UNL     1      -1.180  -0.973  -0.663  1.00  0.00    -0.347 OA
BRANCH   8   9
HETATM    9  C15 UNL     1      -2.088  -0.037  -0.258  1.00  0.00     0.291 C 
HETATM   10  O9  UNL     1      -1.490   1.221  -0.105  1.00  0.00    -0.356 OA
HETATM   11  C16 UNL     1      -2.412   2.241  -0.066  1.00  0.00     0.206 C 
HETATM   12  C17 UNL     1      -3.766   1.872   0.438  1.00  0.00     0.188 C 
HETATM   13  C20 UNL     1      -4.384   0.695  -0.269  1.00  0.00     0.197 C 
HETATM   14  C23 UNL     1      -3.298   0.114  -1.157  1.00  0.00     0.205 C 
BRANCH  12  15
HETATM   15  O10 UNL     1      -3.675   1.664   1.838  1.00  0.00    -0.311 OA
BRANCH  15  16
HETATM   16  C18 UNL     1      -4.331   2.450   2.765  1.00  0.00     0.255 C 
HETATM   17  C19 UNL     1      -4.179   2.162   4.197  1.00  0.00     0.126 C 
HETATM   18  O11 UNL     1      -5.040   3.394   2.329  1.00  0.00    -0.266 OA
ENDBRANCH  15  16
ENDBRANCH  12  15
BRANCH  13  19
HETATM   19  O12 UNL     1      -5.568   0.949  -0.941  1.00  0.00    -0.311 OA
BRANCH  19  20
HETATM   20  C21 UNL     1      -6.746   0.280  -0.628  1.00  0.00     0.255 C 
HETATM   21  C22 UNL     1      -8.008   0.550  -1.345  1.00  0.00     0.126 C 
HETATM   22  O13 UNL     1      -6.699  -0.560   0.280  1.00  0.00    -0.266 OA
ENDBRANCH  19  20
ENDBRANCH  13  19
BRANCH  14  23
HETATM   23  O14 UNL     1      -3.735  -1.091  -1.678  1.00  0.00    -0.388 OA
ATOM     24  H14 UNL     1      -4.494  -0.996  -2.242  1.00  0.00     0.210 HD
ENDBRANCH  14  23
ENDBRANCH   8   9
ENDBRANCH   6   8
BRANCH   4  25
HETATM   25  O7  UNL     1      -1.261  -3.386  -1.532  1.00  0.00    -0.385 OA
ATOM     26  H7  UNL     1      -1.942  -2.816  -1.868  1.00  0.00     0.210 HD
ENDBRANCH   4  25
BRANCH   7  27
HETATM   27  O15 UNL     1       0.562  -2.010   2.177  1.00  0.00    -0.388 OA
ATOM     28  H15 UNL     1      -0.028  -1.508   2.726  1.00  0.00     0.210 HD
ENDBRANCH   7  27
BRANCH   1  29
HETATM   29  O5  UNL     1       2.675  -2.191   0.285  1.00  0.00    -0.329 OA
BRANCH  29  30
HETATM   30  C9  UNL     1       3.344  -1.510  -0.725  1.00  0.00     0.266 C 
HETATM   31  C8  UNL     1       4.604  -2.270  -1.169  1.00  0.00     0.061 C 
HETATM   32  C7  UNL     1       4.852  -1.734  -2.580  1.00  0.00     0.010 C 
HETATM   33  C6  UNL     1       4.303  -0.333  -2.715  1.00  0.00     0.061 C 
HETATM   34  C5  UNL     1       4.318   0.419  -1.406  1.00  0.00     0.266 C 
HETATM   35  O16 UNL     1       3.789  -0.256  -0.338  1.00  0.00    -0.331 OA
BRANCH  34  36
HETATM   36  O4  UNL     1       5.604   0.898  -1.170  1.00  0.00    -0.330 OA
BRANCH  36  37
HETATM   37  C4  UNL     1       5.716   2.280  -1.226  1.00  0.00     0.284 C 
BRANCH  37  38
HETATM   38  C3  UNL     1       6.275   2.748   0.095  1.00  0.00     0.239 C 
BRANCH  38  39
HETATM   39  O2  UNL     1       5.453   2.464   1.192  1.00  0.00    -0.317 OA
BRANCH  39  40
HETATM   40  C2  UNL     1       4.180   2.919   1.401  1.00  0.00     0.254 C 
HETATM   41  C1  UNL     1       3.373   2.563   2.602  1.00  0.00     0.126 C 
HETATM   42  O1  UNL     1       3.672   3.674   0.535  1.00  0.00    -0.266 OA
ENDBRANCH  39  40
ENDBRANCH  38  39
ENDBRANCH  37  38
BRANCH  37  43
HETATM   43  O3  UNL     1       6.676   2.664  -2.191  1.00  0.00    -0.369 OA
ATOM     44  H3  UNL     1       6.324   2.369  -3.023  1.00  0.00     0.212 HD
ENDBRANCH  37  43
ENDBRANCH  36  37
ENDBRANCH  34  36
ENDBRANCH  29  30
ENDBRANCH   1  29
TORSDOF 17
