REMARK  3 active torsions:
REMARK  status: ('A' for Active; 'I' for Inactive)
REMARK    1  A    between atoms: C7_7  and  N1_8 
REMARK    2  A    between atoms: N1_8  and  C8_10 
REMARK    3  A    between atoms: N3_18  and  C13_19 
ROOT
HETATM    1  C8  UNL     1      -1.327   0.143  -0.392  1.00  0.00     0.125 A 
HETATM    2  N2  UNL     1      -0.773  -1.062  -0.183  1.00  0.00    -0.325 N 
ATOM      3  H2  UNL     1      -1.396  -1.867  -0.113  1.00  0.00     0.169 HD
HETATM    4  C9  UNL     1       0.542  -1.278  -0.061  1.00  0.00     0.140 A 
HETATM    5  C10 UNL     1       1.415  -0.211  -0.151  1.00  0.00     0.085 A 
HETATM    6  C11 UNL     1       0.895   1.044  -0.364  1.00  0.00     0.061 A 
HETATM    7  C12 UNL     1      -0.465   1.216  -0.483  1.00  0.00     0.080 A 
HETATM    8 CL1  UNL     1      -1.112   2.841  -0.758  1.00  0.00    -0.080 Cl
HETATM    9  N3  UNL     1       2.673  -0.664   0.000  1.00  0.00    -0.291 N 
HETATM   10  C19 UNL     1       2.543  -2.004   0.180  1.00  0.00     0.331 A 
HETATM   11  O1  UNL     1       3.509  -2.816   0.362  1.00  0.00    -0.246 OA
HETATM   12  N4  UNL     1       1.276  -2.395   0.147  1.00  0.00    -0.288 N 
HETATM   13  C20 UNL     1       0.774  -3.751   0.303  1.00  0.00     0.163 C 
ENDROOT
BRANCH   1  14
HETATM   14  N1  UNL     1      -2.718   0.356  -0.524  1.00  0.00    -0.370 N 
ATOM     15  H1  UNL     1      -3.033   1.312  -0.690  1.00  0.00     0.161 HD
BRANCH  14  16
HETATM   16  C7  UNL     1      -3.730  -0.674  -0.443  1.00  0.00     0.086 C 
HETATM   17  C2  UNL     1      -5.116  -0.106  -0.688  1.00  0.00     0.004 C 
HETATM   18  C1  UNL     1      -5.374   0.236  -2.117  1.00  0.00     0.012 C 
HETATM   19  C3  UNL     1      -5.331   1.068   0.204  1.00  0.00     0.006 C 
HETATM   20  C4  UNL     1      -4.614   1.044   1.506  1.00  0.00     0.001 C 
HETATM   21  C5  UNL     1      -4.161  -0.281   1.994  1.00  0.00     0.002 C 
HETATM   22  C6  UNL     1      -3.768  -1.258   0.939  1.00  0.00     0.025 C 
ENDBRANCH  14  16
ENDBRANCH   1  14
BRANCH   9  23
HETATM   23  C13 UNL     1       3.903   0.080  -0.019  1.00  0.00     0.095 C 
HETATM   24  C14 UNL     1       4.050   1.055   1.116  1.00  0.00     0.026 C 
HETATM   25  C15 UNL     1       5.447   1.613   1.066  1.00  0.00     0.002 C 
HETATM   26  C16 UNL     1       6.301   1.006  -0.006  1.00  0.00     0.000 C 
HETATM   27  C17 UNL     1       5.686   1.031  -1.368  1.00  0.00     0.002 C 
HETATM   28  C18 UNL     1       4.169   0.804  -1.312  1.00  0.00     0.026 C 
ENDBRANCH   9  23
TORSDOF 3
