REMARK  11 active torsions:
REMARK  status: ('A' for Active; 'I' for Inactive)
REMARK    1  A    between atoms: N1_1  and  C1_5 
REMARK    2  A    between atoms: C1_5  and  C2_6 
REMARK    3  A    between atoms: C2_6  and  N2_7 
REMARK    4  A    between atoms: N2_7  and  C3_9 
REMARK    5  A    between atoms: C4_12  and  N4_13 
REMARK    6  A    between atoms: N4_13  and  N5_15 
REMARK    7  A    between atoms: C5_22  and  N8_23 
REMARK    8  A    between atoms: N8_23  and  N9_25 
REMARK    9  A    between atoms: N10_26  and  O1_27 
REMARK   10  A    between atoms: C6_29  and  N11_30 
REMARK   11  A    between atoms: N11_30  and  C7_32 
ROOT
HETATM    1  C3  UNL     1       2.052   0.130   0.280  1.00  0.00     0.164 A 
HETATM    2  N3  UNL     1       2.976   1.071   0.120  1.00  0.00    -0.170 N 
ATOM      3  H3  UNL     1       3.833   0.870  -0.395  1.00  0.00     0.186 HD
HETATM    4  C4  UNL     1       2.769   2.293   0.645  1.00  0.00     0.712 A 
HETATM    5  N6  UNL     1       1.651   2.603   1.332  1.00  0.00    -0.129 N 
ATOM      6  H6  UNL     1       1.515   3.536   1.720  1.00  0.00     0.205 HD
HETATM    7  N7  UNL     1       0.736   1.660   1.487  1.00  0.00    -0.267 N 
ATOM      8  H7  UNL     1      -0.116   1.877   2.004  1.00  0.00     0.189 HD
HETATM    9  C5  UNL     1       0.895   0.424   0.983  1.00  0.00     0.178 A 
ENDROOT
BRANCH   9  10
HETATM   10  N8  UNL     1      -0.110  -0.576   1.165  1.00  0.00    -0.265 N 
ATOM     11  H8  UNL     1       0.016  -1.512   0.781  1.00  0.00     0.185 HD
BRANCH  10  12
HETATM   12  N9  UNL     1      -1.266  -0.251   1.877  1.00  0.00     0.040 NA
HETATM   13  N10 UNL     1      -2.128   0.430   1.003  1.00  0.00     0.030 N 
HETATM   14  C6  UNL     1      -2.786  -0.389   0.093  1.00  0.00     0.729 C 
HETATM   15  N12 UNL     1      -2.948  -1.612   0.455  1.00  0.00    -0.098 N 
HETATM   16  S1  UNL     1      -2.218  -1.716   2.044  1.00  0.00     0.354 S 
ATOM     17  H12 UNL     1      -3.403  -2.359  -0.069  1.00  0.00     0.199 HD
HETATM   18  O2  UNL     1      -3.276  -1.565   3.067  1.00  0.00    -0.184 OA
HETATM   19  O3  UNL     1      -1.371  -2.911   2.186  1.00  0.00    -0.184 OA
BRANCH  13  20
HETATM   20  O1  UNL     1      -2.258   1.796   1.101  1.00  0.00    -0.256 OA
ATOM     21  H1  UNL     1      -2.841   2.257   0.510  1.00  0.00     0.247 HD
ENDBRANCH  13  20
BRANCH  14  22
HETATM   22  N11 UNL     1      -3.266   0.076  -1.181  1.00  0.00    -0.218 N 
ATOM     23  H11 UNL     1      -2.623   0.132  -1.971  1.00  0.00     0.178 HD
BRANCH  22  24
HETATM   24  C7  UNL     1      -4.658   0.468  -1.359  1.00  0.00     0.099 A 
HETATM   25  C8  UNL     1      -5.740  -0.501  -1.123  1.00  0.00     0.028 A 
HETATM   26  C9  UNL     1      -5.531   0.602  -0.158  1.00  0.00     0.028 A 
ENDBRANCH  22  24
ENDBRANCH  14  22
ENDBRANCH  10  12
ENDBRANCH   9  10
BRANCH   1  27
HETATM   27  N2  UNL     1       2.155  -1.078  -0.186  1.00  0.00    -0.371 N 
ATOM     28  H2  UNL     1       1.421  -1.771  -0.040  1.00  0.00     0.161 HD
BRANCH  27  29
HETATM   29  C2  UNL     1       3.363  -1.396  -0.923  1.00  0.00     0.148 C 
BRANCH  29  30
HETATM   30  C1  UNL     1       3.446  -2.896  -1.185  1.00  0.00     0.249 C 
BRANCH  30  31
HETATM   31  N1  UNL     1       4.673  -3.129  -1.921  1.00  0.00    -0.078 N 
ATOM     32  H13 UNL     1       4.744  -2.569  -2.771  1.00  0.00     0.274 HD
ATOM     33  H12 UNL     1       5.499  -2.758  -1.452  1.00  0.00     0.274 HD
ATOM     34  H11 UNL     1       4.729  -4.132  -2.096  1.00  0.00     0.274 HD
ENDBRANCH  30  31
ENDBRANCH  29  30
ENDBRANCH  27  29
ENDBRANCH   1  27
BRANCH   4  35
HETATM   35  N4  UNL     1       3.698   3.174   0.462  1.00  0.00    -0.137 N 
ATOM     36  H4  UNL     1       4.541   2.932  -0.059  1.00  0.00     0.205 HD
BRANCH  35  37
HETATM   37  N5  UNL     1       3.538   4.444   0.978  1.00  0.00    -0.331 N 
ATOM     38  H52 UNL     1       2.689   4.669   1.496  1.00  0.00     0.177 HD
ATOM     39  H51 UNL     1       4.271   5.139   0.834  1.00  0.00     0.177 HD
ENDBRANCH  35  37
ENDBRANCH   4  35
TORSDOF 11
