REMARK  5 active torsions:
REMARK  status: ('A' for Active; 'I' for Inactive)
REMARK    1  A    between atoms: C3_6  and  N2_7 
REMARK    2  A    between atoms: N2_7  and  O2_8 
REMARK    3  A    between atoms: N2_7  and  O3_10 
REMARK    4  A    between atoms: C4_12  and  N3_13 
REMARK    5  A    between atoms: N3_13  and  C5_15 
ROOT
HETATM    1  O1  UNL     1      -2.505  -2.520   2.082  1.00  0.00    -0.247 OA
HETATM    2  C1  UNL     1      -2.299  -1.569   1.282  1.00  0.00     0.325 A 
HETATM    3  N1  UNL     1      -3.296  -0.757   0.927  1.00  0.00    -0.317 N 
ATOM      4  H1  UNL     1      -4.224  -0.924   1.317  1.00  0.00     0.170 HD
HETATM    5  C2  UNL     1      -3.128   0.283   0.068  1.00  0.00     0.125 A 
HETATM    6  C3  UNL     1      -1.879   0.521  -0.468  1.00  0.00     0.125 A 
HETATM    7  C4  UNL     1      -0.850  -0.329  -0.092  1.00  0.00     0.135 A 
HETATM    8  N6  UNL     1      -1.061  -1.355   0.768  1.00  0.00    -0.293 N 
ATOM      9  H6  UNL     1      -0.288  -1.967   1.029  1.00  0.00     0.172 HD
ENDROOT
BRANCH   7  10
HETATM   10  N3  UNL     1       0.310  -0.100  -0.596  1.00  0.00    -0.325 N 
ATOM     11  H3  UNL     1       0.451   0.676  -1.243  1.00  0.00     0.165 HD
BRANCH  10  12
HETATM   12  C5  UNL     1       1.399  -0.953  -0.234  1.00  0.00     0.486 C 
HETATM   13  N4  UNL     1       1.935  -0.686   1.087  1.00  0.00    -0.027 N 
HETATM   14  C6  UNL     1       2.865   0.404   0.960  1.00  0.00     0.264 C 
ATOM     15  H42 UNL     1       1.210  -0.513   1.784  1.00  0.00     0.281 HD
ATOM     16  H41 UNL     1       2.345  -1.511   1.525  1.00  0.00     0.281 HD
HETATM   17  C7  UNL     1       3.108   0.501  -0.534  1.00  0.00     0.264 C 
HETATM   18  N5  UNL     1       2.521  -0.687  -1.114  1.00  0.00    -0.027 N 
ATOM     19  H52 UNL     1       3.166  -1.468  -1.232  1.00  0.00     0.281 HD
ATOM     20  H51 UNL     1       2.279  -0.605  -2.102  1.00  0.00     0.281 HD
ENDBRANCH  10  12
ENDBRANCH   7  10
BRANCH   6  21
HETATM   21  N2  UNL     1      -1.593   1.567  -1.365  1.00  0.00    -0.031 NA
BRANCH  21  22
HETATM   22  O2  UNL     1      -0.401   2.151  -1.136  1.00  0.00    -0.284 OA
ATOM     23  H2  UNL     1      -0.208   2.857  -1.742  1.00  0.00     0.240 HD
ENDBRANCH  21  22
BRANCH  21  24
HETATM   24  O3  UNL     1      -2.601   2.484  -1.278  1.00  0.00    -0.284 OA
ATOM     25  H3  UNL     1      -2.408   3.190  -1.884  1.00  0.00     0.240 HD
ENDBRANCH  21  24
ENDBRANCH   6  21
TORSDOF 5
