REMARK  3 active torsions:
REMARK  status: ('A' for Active; 'I' for Inactive)
REMARK    1  A    between atoms: C3_3  and  C4_4 
REMARK    2  A    between atoms: C4_4  and  N1_5 
REMARK    3  A    between atoms: N1_5  and  C5_7 
ROOT
HETATM    1  C5  UNL     1      -0.340  -0.141   0.489  1.00  0.00     0.318 C 
HETATM    2  C6  UNL     1      -1.061  -1.228  -0.292  1.00  0.00     0.061 C 
HETATM    3  C7  UNL     1      -2.444  -0.671  -0.669  1.00  0.00    -0.008 C 
HETATM    4  C8  UNL     1      -3.271  -0.735   0.602  1.00  0.00     0.035 C 
HETATM    5  C9  UNL     1      -2.429  -0.029   1.663  1.00  0.00     0.275 C 
HETATM    6  N2  UNL     1      -1.321   0.711   1.079  1.00  0.00     0.111 N 
HETATM    7  C10 UNL     1      -1.803   1.602   0.041  1.00  0.00     0.275 C 
HETATM    8  C11 UNL     1      -2.395   0.770  -1.075  1.00  0.00     0.035 C 
ENDROOT
BRANCH   1   9
HETATM    9  N1  UNL     1       0.513   0.560  -0.414  1.00  0.00    -0.391 N 
ATOM     10  H1  UNL     1       0.341   1.533  -0.666  1.00  0.00     0.155 HD
BRANCH   9  11
HETATM   11  C4  UNL     1       1.616  -0.165  -0.947  1.00  0.00     0.147 C 
BRANCH  11  12
HETATM   12  C3  UNL     1       2.673  -0.327   0.164  1.00  0.00     0.140 C 
HETATM   13  C2  UNL     1       4.005  -0.616  -0.467  1.00  0.00     0.060 C 
HETATM   14  C1  UNL     1       4.360   0.693   0.149  1.00  0.00     0.170 C 
HETATM   15  O1  UNL     1       3.063   0.977   0.528  1.00  0.00    -0.384 OA
ENDBRANCH  11  12
ENDBRANCH   9  11
ENDBRANCH   1   9
TORSDOF 3
