REMARK  3 active torsions:
REMARK  status: ('A' for Active; 'I' for Inactive)
REMARK    1  A    between atoms: C2_2  and  C3_3 
REMARK    2  A    between atoms: C3_3  and  O1_4 
REMARK    3  A    between atoms: C3_3  and  C4_6 
ROOT
HETATM    1  C4  UNL     1      -1.785  -0.176   0.252  1.00  0.00     0.189 C 
HETATM    2  C5  UNL     1      -0.945  -1.305   0.838  1.00  0.00     0.044 C 
HETATM    3  C6  UNL     1       0.377  -0.652   1.260  1.00  0.00     0.083 C 
HETATM    4  C7  UNL     1       0.965  -0.083  -0.040  1.00  0.00     0.258 C 
HETATM    5  O2  UNL     1       1.270   1.247   0.235  1.00  0.00    -0.347 OA
HETATM    6  C8  UNL     1       2.413   1.677  -0.422  1.00  0.00     0.172 C 
HETATM    7  C9  UNL     1       3.655   1.373   0.362  1.00  0.00     0.027 C 
HETATM    8  C10 UNL     1       4.321   0.088  -0.117  1.00  0.00     0.010 C 
HETATM    9  C11 UNL     1       3.426  -1.050   0.313  1.00  0.00     0.084 C 
HETATM   10  C12 UNL     1       2.125  -0.896  -0.383  1.00  0.00     0.191 C 
HETATM   11  O3  UNL     1       2.022  -1.555  -1.397  1.00  0.00    -0.292 OA
HETATM   12  O4  UNL     1      -0.013  -0.206  -1.012  1.00  0.00    -0.192 OA
HETATM   13  O5  UNL     1      -1.027   0.542  -0.687  1.00  0.00    -0.229 OA
ENDROOT
BRANCH   1  14
HETATM   14  C3  UNL     1      -2.955  -0.781  -0.457  1.00  0.00     0.149 C 
BRANCH  14  15
HETATM   15  C2  UNL     1      -3.797   0.295  -1.118  1.00  0.00     0.030 C 
HETATM   16  C1  UNL     1      -4.358   1.248  -0.091  1.00  0.00     0.007 C 
ENDBRANCH  14  15
BRANCH  14  17
HETATM   17  O1  UNL     1      -3.731  -1.499   0.434  1.00  0.00    -0.393 OA
ATOM     18  H1  UNL     1      -3.204  -2.172   0.848  1.00  0.00     0.210 HD
ENDBRANCH  14  17
ENDBRANCH   1  14
TORSDOF 3
