REMARK  4 active torsions:
REMARK  status: ('A' for Active; 'I' for Inactive)
REMARK    1  A    between atoms: C2_2  and  C4_4 
REMARK    2  A    between atoms: C4_4  and  N1_5 
REMARK    3  A    between atoms: N1_5  and  O1_6 
REMARK    4  A    between atoms: N1_5  and  C5_8 
ROOT
HETATM    1  C5  UNL     1      -0.062  -0.725   0.424  1.00  0.00     0.118 C 
HETATM    2  N2  UNL     1      -0.609   0.102   1.203  1.00  0.00    -0.375 N 
ATOM      3  H2  UNL     1      -0.004   0.494   1.925  1.00  0.00     0.160 HD
HETATM    4  C6  UNL     1      -1.966   0.568   1.214  1.00  0.00     0.140 C 
HETATM    5  C7  UNL     1      -2.514   1.005  -0.102  1.00  0.00     0.018 C 
HETATM    6  C8  UNL     1      -4.006   0.662  -0.131  1.00  0.00     0.028 C 
HETATM    7  C9  UNL     1      -2.294   2.485  -0.256  1.00  0.00     0.028 C 
HETATM    8  S1  UNL     1      -1.760   0.048  -1.458  1.00  0.00    -0.141 SA
HETATM    9  C10 UNL     1      -0.894  -1.329  -0.651  1.00  0.00     0.061 C 
HETATM   10  C11 UNL     1      -1.929  -2.264  -0.060  1.00  0.00     0.035 C 
HETATM   11  C12 UNL     1      -0.065  -2.114  -1.635  1.00  0.00     0.035 C 
ENDROOT
BRANCH   1  12
HETATM   12  N1  UNL     1       1.312  -1.043   0.601  1.00  0.00    -0.247 N 
BRANCH  12  13
HETATM   13  C4  UNL     1       2.394  -0.508  -0.138  1.00  0.00     0.161 C 
BRANCH  13  14
HETATM   14  C2  UNL     1       2.737   0.921   0.068  1.00  0.00    -0.002 C 
HETATM   15  C1  UNL     1       3.927   1.215  -0.859  1.00  0.00     0.011 C 
HETATM   16  C3  UNL     1       3.221   1.233   1.473  1.00  0.00     0.011 C 
ENDBRANCH  13  14
ENDBRANCH  12  13
BRANCH  12  17
HETATM   17  O1  UNL     1       1.562  -1.963   1.583  1.00  0.00    -0.286 OA
ATOM     18  H1  UNL     1       0.836  -2.322   2.079  1.00  0.00     0.244 HD
ENDBRANCH  12  17
ENDBRANCH   1  12
TORSDOF 4
