REMARK  5 active torsions:
REMARK  status: ('A' for Active; 'I' for Inactive)
REMARK    1  A    between atoms: C2_2  and  C3_3 
REMARK    2  A    between atoms: C3_3  and  C4_4 
REMARK    3  A    between atoms: C4_4  and  C5_5 
REMARK    4  A    between atoms: C5_5  and  C6_6 
REMARK    5  A    between atoms: C9_12  and  C10_13 
ROOT
HETATM    1  C6  UNL     1       0.053   0.813  -0.077  1.00  0.00     0.212 C 
HETATM    2  C7  UNL     1      -0.301   1.469  -1.401  1.00  0.00     0.265 C 
HETATM    3  N1  UNL     1      -1.045   0.545  -2.232  1.00  0.00    -0.071 N 
ATOM      4  H11 UNL     1      -0.587  -0.360  -2.333  1.00  0.00     0.277 HD
ATOM      5  H12 UNL     1      -1.043   0.803  -3.219  1.00  0.00     0.277 HD
HETATM    6  C8  UNL     1      -2.378   0.448  -1.672  1.00  0.00     0.273 C 
HETATM    7  C9  UNL     1      -2.259   0.598  -0.173  1.00  0.00     0.281 C 
HETATM    8  N6  UNL     1      -1.037  -0.039   0.289  1.00  0.00    -0.057 N 
ATOM      9  H61 UNL     1      -1.054  -0.259   1.285  1.00  0.00     0.278 HD
ATOM     10  H62 UNL     1      -0.930  -0.993  -0.055  1.00  0.00     0.278 HD
ENDROOT
BRANCH   7  11
HETATM   11  C10 UNL     1      -3.462   0.048   0.470  1.00  0.00     0.143 A 
HETATM   12  N2  UNL     1      -4.588  -0.264  -0.187  1.00  0.00    -0.273 N 
HETATM   13  N3  UNL     1      -5.481  -0.729   0.637  1.00  0.00    -0.225 N 
ATOM     14  H2  UNL     1      -4.725  -0.153  -1.192  1.00  0.00     0.189 HD
HETATM   15  N4  UNL     1      -4.952  -0.728   1.848  1.00  0.00    -0.005 NA
ATOM     16  H3  UNL     1      -6.421  -1.039   0.392  1.00  0.00     0.205 HD
HETATM   17  N5  UNL     1      -3.711  -0.253   1.761  1.00  0.00    -0.269 N 
ATOM     18  H5  UNL     1      -3.060  -0.137   2.538  1.00  0.00     0.185 HD
ENDBRANCH   7  11
BRANCH   1  19
HETATM   19  C5  UNL     1       1.349   0.071  -0.285  1.00  0.00     0.035 C 
BRANCH  19  20
HETATM   20  C4  UNL     1       1.822  -0.633   0.958  1.00  0.00     0.006 C 
BRANCH  20  21
HETATM   21  C3  UNL     1       3.116  -1.339   0.646  1.00  0.00     0.026 C 
BRANCH  21  22
HETATM   22  C2  UNL     1       4.183  -0.436   0.204  1.00  0.00    -0.037 C 
HETATM   23  C1  UNL     1       5.307  -0.366   0.901  1.00  0.00     0.007 C 
ENDBRANCH  21  22
ENDBRANCH  20  21
ENDBRANCH  19  20
ENDBRANCH   1  19
TORSDOF 5
