REMARK  6 active torsions:
REMARK  status: ('A' for Active; 'I' for Inactive)
REMARK    1  A    between atoms: C2_2  and  C3_4 
REMARK    2  A    between atoms: C3_4  and  C4_5 
REMARK    3  A    between atoms: C4_5  and  C5_6 
REMARK    4  A    between atoms: C5_6  and  O2_7 
REMARK    5  A    between atoms: C21_25  and  C23_27 
REMARK    6  A    between atoms: C23_27  and  O4_28 
ROOT
HETATM    1  C5  UNL     1       1.414   0.457  -1.054  1.00  0.00     0.063 C 
HETATM    2  C6  UNL     1       0.435   1.638  -1.499  1.00  0.00     0.042 C 
HETATM    3  C7  UNL     1      -0.135   2.147  -0.246  1.00  0.00     0.036 C 
HETATM    4  C8  UNL     1      -1.454   2.784  -0.204  1.00  0.00    -0.087 C 
HETATM    5  C9  UNL     1      -1.411   4.221   0.358  1.00  0.00     0.043 C 
HETATM    6  C10 UNL     1      -2.644   2.373  -0.548  1.00  0.00    -0.024 C 
HETATM    7  C11 UNL     1      -3.121   1.111  -1.113  1.00  0.00     0.030 C 
HETATM    8  C12 UNL     1      -3.866   0.155  -0.313  1.00  0.00     0.044 C 
HETATM    9  C13 UNL     1      -3.515  -0.309   1.014  1.00  0.00     0.084 A 
HETATM   10  C14 UNL     1      -4.644  -0.495   2.063  1.00  0.00     0.049 C 
HETATM   11  O3  UNL     1      -2.383   0.117   1.598  1.00  0.00    -0.370 OA
HETATM   12  C15 UNL     1      -2.319  -1.173   1.244  1.00  0.00     0.157 A 
HETATM   13  C16 UNL     1      -1.890  -1.876   0.054  1.00  0.00     0.040 C 
HETATM   14  C17 UNL     1      -0.593  -2.515  -0.111  1.00  0.00    -0.001 C 
HETATM   15  C18 UNL     1      -0.327  -2.731  -1.601  1.00  0.00     0.006 C 
HETATM   16  C19 UNL     1       0.466  -1.524  -2.050  1.00  0.00     0.009 C 
HETATM   17  C20 UNL     1       0.608  -0.660  -0.756  1.00  0.00     0.030 C 
HETATM   18  C21 UNL     1       0.690  -1.718   0.216  1.00  0.00    -0.013 C 
HETATM   19  C22 UNL     1       0.787  -1.445   1.671  1.00  0.00     0.018 C 
ENDROOT
BRANCH   1  20
HETATM   20  C4  UNL     1       2.349   1.169  -0.185  1.00  0.00     0.045 C 
BRANCH  20  21
HETATM   21  C3  UNL     1       3.690   0.526   0.093  1.00  0.00     0.081 C 
BRANCH  21  22
HETATM   22  C2  UNL     1       4.516   1.434   0.983  1.00  0.00     0.123 C 
HETATM   23  C1  UNL     1       5.878   1.055   1.416  1.00  0.00     0.091 C 
HETATM   24  O1  UNL     1       3.992   2.479   1.312  1.00  0.00    -0.298 OA
ENDBRANCH  21  22
ENDBRANCH  20  21
ENDBRANCH   1  20
BRANCH   1  25
HETATM   25  O2  UNL     1       2.100   0.273  -2.301  1.00  0.00    -0.389 OA
ATOM     26  H2  UNL     1       1.492  -0.190  -2.866  1.00  0.00     0.210 HD
ENDBRANCH   1  25
BRANCH  18  27
HETATM   27  C23 UNL     1       1.731  -2.817  -0.028  1.00  0.00     0.174 C 
BRANCH  27  28
HETATM   28  O4  UNL     1       1.462  -3.906   0.845  1.00  0.00    -0.400 OA
ATOM     29  H4  UNL     1       2.107  -4.587   0.694  1.00  0.00     0.209 HD
ENDBRANCH  27  28
ENDBRANCH  18  27
TORSDOF 6
