REMARK  8 active torsions:
REMARK  status: ('A' for Active; 'I' for Inactive)
REMARK    1  A    between atoms: C4_4  and  C5_5 
REMARK    2  A    between atoms: C5_5  and  C6_6 
REMARK    3  A    between atoms: C6_6  and  S1_7 
REMARK    4  A    between atoms: S1_7  and  C7_8 
REMARK    5  A    between atoms: C12_14  and  N1_15 
REMARK       I    between atoms: N1_15  and  C13_17 
REMARK       I    between atoms: C13_17  and  N2_19 
REMARK    6  A    between atoms: N2_19  and  C14_21 
REMARK    7  A    between atoms: C14_21  and  C15_22 
REMARK    8  A    between atoms: C15_22  and  N3_23 
REMARK       I    between atoms: N3_23  and  C16_25 
ROOT
HETATM    1  C7  UNL     1      -2.554   1.470  -1.481  1.00  0.00     0.020 A 
HETATM    2  C8  UNL     1      -2.346   2.219  -0.327  1.00  0.00     0.028 A 
HETATM    3  C9  UNL     1      -1.101   2.096   0.234  1.00  0.00    -0.041 A 
HETATM    4  C10 UNL     1      -0.689   2.814   1.464  1.00  0.00     0.049 C 
HETATM    5  C11 UNL     1      -0.123   1.266  -0.336  1.00  0.00     0.042 A 
HETATM    6  S2  UNL     1       1.486   0.856   0.057  1.00  0.00    -0.051 SA
HETATM    7  C12 UNL     1       1.796  -0.215  -1.236  1.00  0.00     0.153 A 
HETATM    8  N6  UNL     1       0.645  -0.211  -1.915  1.00  0.00    -0.334 N 
ATOM      9  H6  UNL     1       0.533  -0.774  -2.758  1.00  0.00     0.168 HD
HETATM   10  C17 UNL     1      -0.340   0.537  -1.469  1.00  0.00     0.070 A 
HETATM   11  C18 UNL     1      -1.620   0.658  -2.053  1.00  0.00     0.056 A 
HETATM   12 BR1  UNL     1      -2.115  -0.278  -3.635  1.00  0.00    -0.047 Br
ENDROOT
BRANCH   7  13
HETATM   13  N1  UNL     1       2.875  -0.889  -1.504  1.00  0.00    -0.288 N 
HETATM   14  C13 UNL     1       3.991  -0.726  -0.591  1.00  0.00     0.325 C 
HETATM   15  O1  UNL     1       4.411  -1.795  -0.121  1.00  0.00    -0.247 OA
HETATM   16  N2  UNL     1       4.529   0.515  -0.280  1.00  0.00    -0.321 N 
ATOM     17  H2  UNL     1       4.057   1.288  -0.748  1.00  0.00     0.169 HD
ATOM     18  H1  UNL     1       2.934  -1.503  -2.317  1.00  0.00     0.172 HD
BRANCH  16  19
HETATM   19  C14 UNL     1       5.588   0.929   0.545  1.00  0.00     0.085 C 
BRANCH  19  20
HETATM   20  C15 UNL     1       6.976   0.521   0.274  1.00  0.00     0.166 C 
BRANCH  20  21
HETATM   21  N3  UNL     1       7.320  -0.849   0.405  1.00  0.00    -0.360 N 
HETATM   22  C16 UNL     1       8.573  -1.364  -0.102  1.00  0.00     0.182 C 
HETATM   23  N4  UNL     1       9.661  -0.741   0.110  1.00  0.00    -0.374 N 
HETATM   24  N5  UNL     1       8.545  -2.567  -0.831  1.00  0.00    -0.064 NA
ATOM     25  H42 UNL     1       9.681   0.131   0.639  1.00  0.00     0.158 HD
ATOM     26  H41 UNL     1      10.545  -1.104  -0.248  1.00  0.00     0.158 HD
ATOM     27  H3  UNL     1       6.670  -1.485   0.867  1.00  0.00     0.162 HD
ENDBRANCH  20  21
ENDBRANCH  19  20
ENDBRANCH  16  19
ENDBRANCH   7  13
BRANCH   1  28
HETATM   28  S1  UNL     1      -4.191   1.605  -2.223  1.00  0.00    -0.128 SA
BRANCH  28  29
HETATM   29  C6  UNL     1      -5.258   0.269  -1.503  1.00  0.00     0.083 C 
BRANCH  29  30
HETATM   30  C5  UNL     1      -5.435   0.630  -0.074  1.00  0.00     0.038 C 
BRANCH  30  31
HETATM   31  C4  UNL     1      -6.242  -0.221   0.783  1.00  0.00    -0.024 C 
HETATM   32  C2  UNL     1      -6.894  -1.323   0.538  1.00  0.00    -0.091 C 
HETATM   33  C1  UNL     1      -6.990  -2.026  -0.739  1.00  0.00     0.042 C 
HETATM   34  C3  UNL     1      -7.643  -1.955   1.707  1.00  0.00     0.042 C 
ENDBRANCH  30  31
ENDBRANCH  29  30
ENDBRANCH  28  29
ENDBRANCH   1  28
TORSDOF 8
