REMARK  2 active torsions:
REMARK  status: ('A' for Active; 'I' for Inactive)
REMARK    1  A    between atoms: N2_5  and  N3_7 
REMARK    2  A    between atoms: N3_7  and  C4_9 
ROOT
HETATM    1  C1  UNL     1       4.449  -0.878  -0.461  1.00  0.00     0.082 C 
HETATM    2  C2  UNL     1       4.061   0.523  -0.721  1.00  0.00     0.101 C 
HETATM    3  C3  UNL     1       5.034   1.447  -1.217  1.00  0.00     0.114 C 
HETATM    4  N1  UNL     1       5.816   2.200  -1.613  1.00  0.00    -0.190 NA
HETATM    5  N2  UNL     1       2.866   0.939  -0.515  1.00  0.00    -0.298 N 
ATOM      6  H2  UNL     1       2.612   1.909  -0.700  1.00  0.00     0.187 HD
ENDROOT
BRANCH   5   7
HETATM    7  N3  UNL     1       1.919   0.032  -0.031  1.00  0.00    -0.325 N 
ATOM      8  H3  UNL     1       2.192  -0.633   0.693  1.00  0.00     0.181 HD
BRANCH   7   9
HETATM    9  C4  UNL     1       0.550   0.011  -0.534  1.00  0.00     0.145 C 
HETATM   10  C5  UNL     1      -0.130   1.316  -0.301  1.00  0.00     0.041 C 
HETATM   11  C6  UNL     1      -1.560   1.300   0.031  1.00  0.00    -0.044 C 
HETATM   12  C7  UNL     1      -2.384   1.537  -1.227  1.00  0.00     0.015 C 
HETATM   13  C8  UNL     1      -1.869   2.540   0.884  1.00  0.00     0.015 C 
HETATM   14  C9  UNL     1      -2.119   0.130   0.746  1.00  0.00     0.023 C 
HETATM   15  C10 UNL     1      -1.490  -1.184   0.507  1.00  0.00    -0.007 C 
HETATM   16  C11 UNL     1      -2.294  -2.037  -0.483  1.00  0.00     0.021 C 
HETATM   17  C12 UNL     1      -1.472  -2.004   1.806  1.00  0.00     0.021 C 
HETATM   18  C13 UNL     1      -0.098  -1.164   0.033  1.00  0.00     0.012 C 
HETATM   19  N4  UNL     1       0.566  -2.253   0.132  1.00  0.00    -0.403 N 
ATOM     20  H42 UNL     1       1.531  -2.239  -0.197  1.00  0.00     0.155 HD
ATOM     21  H41 UNL     1       0.112  -3.076   0.529  1.00  0.00     0.155 HD
ENDBRANCH   7   9
ENDBRANCH   5   7
TORSDOF 2
