REMARK  9 active torsions:
REMARK  status: ('A' for Active; 'I' for Inactive)
REMARK    1  A    between atoms: N1_1  and  C1_4 
REMARK    2  A    between atoms: C3_10  and  N4_11 
REMARK    3  A    between atoms: N4_11  and  C4_13 
REMARK    4  A    between atoms: C5_16  and  N6_17 
REMARK    5  A    between atoms: N6_17  and  C6_19 
REMARK    6  A    between atoms: C6_19  and  C7_20 
REMARK    7  A    between atoms: C7_20  and  O1_21 
REMARK    8  A    between atoms: C8_25  and  N8_26 
REMARK    9  A    between atoms: C9_29  and  N9_30 
ROOT
HETATM    1  C4  UNL     1      -0.486  -1.250   0.443  1.00  0.00     0.173 A 
HETATM    2  N5  UNL     1       0.214  -0.190   0.903  1.00  0.00    -0.173 N 
ATOM      3  H5  UNL     1      -0.270   0.508   1.468  1.00  0.00     0.186 HD
HETATM    4  C5  UNL     1       1.514  -0.018   0.649  1.00  0.00     0.681 A 
HETATM    5  N7  UNL     1       2.219  -0.890  -0.083  1.00  0.00    -0.175 N 
ATOM      6  H7  UNL     1       3.211  -0.743  -0.267  1.00  0.00     0.186 HD
HETATM    7  C8  UNL     1       1.575  -1.965  -0.567  1.00  0.00     0.151 A 
HETATM    8  C9  UNL     1       0.213  -2.166  -0.314  1.00  0.00     0.191 A 
ENDROOT
BRANCH   1   9
HETATM    9  N4  UNL     1      -1.868  -1.421   0.722  1.00  0.00    -0.173 N 
ATOM     10  H4  UNL     1      -2.131  -2.287   1.193  1.00  0.00     0.186 HD
BRANCH   9  11
HETATM   11  C3  UNL     1      -2.809  -0.621   0.452  1.00  0.00     0.699 A 
HETATM   12  N3  UNL     1      -4.058  -0.969   0.802  1.00  0.00    -0.186 N 
HETATM   13  C2  UNL     1      -5.119  -0.180   0.554  1.00  0.00     0.215 A 
ATOM     14  H3  UNL     1      -4.207  -1.862   1.272  1.00  0.00     0.185 HD
HETATM   15  N2  UNL     1      -4.912   1.007  -0.071  1.00  0.00    -0.187 N 
HETATM   16  C1  UNL     1      -3.676   1.369  -0.425  1.00  0.00     0.691 A 
ATOM     17  H2  UNL     1      -5.700   1.623  -0.270  1.00  0.00     0.185 HD
HETATM   18  N10 UNL     1      -2.646   0.558  -0.162  1.00  0.00    -0.022 N 
ATOM     19  H10 UNL     1      -1.707   0.846  -0.438  1.00  0.00     0.203 HD
BRANCH  16  20
HETATM   20  N1  UNL     1      -3.497   2.494  -1.016  1.00  0.00    -0.234 N 
ATOM     21  H12 UNL     1      -4.283   3.113  -1.217  1.00  0.00     0.174 HD
ATOM     22  H11 UNL     1      -2.553   2.770  -1.286  1.00  0.00     0.174 HD
ENDBRANCH  16  20
ENDBRANCH   9  11
ENDBRANCH   1   9
BRANCH   8  23
HETATM   23  N9  UNL     1      -0.452  -3.297  -0.826  1.00  0.00    -0.108 N 
HETATM   24  O2  UNL     1      -1.253  -3.247  -1.774  1.00  0.00    -0.531 OA
HETATM   25  O3  UNL     1      -0.200  -4.517  -0.248  1.00  0.00    -0.531 OA
ENDBRANCH   8  23
BRANCH   4  26
HETATM   26  N6  UNL     1       2.104   1.026   1.128  1.00  0.00    -0.224 N 
ATOM     27  H6  UNL     1       1.534   1.666   1.680  1.00  0.00     0.177 HD
BRANCH  26  28
HETATM   28  C6  UNL     1       3.474   1.367   0.958  1.00  0.00     0.164 C 
BRANCH  28  29
HETATM   29  C7  UNL     1       3.778   2.071  -0.332  1.00  0.00     0.184 C 
BRANCH  29  30
HETATM   30  O1  UNL     1       5.135   2.359  -0.399  1.00  0.00    -0.399 OA
ATOM     31  H1  UNL     1       5.327   2.805  -1.216  1.00  0.00     0.209 HD
ENDBRANCH  29  30
ENDBRANCH  28  29
ENDBRANCH  26  28
ENDBRANCH   4  26
BRANCH   7  32
HETATM   32  N8  UNL     1       2.219  -2.820  -1.271  1.00  0.00    -0.383 N 
ATOM     33  H82 UNL     1       3.211  -2.674  -1.455  1.00  0.00     0.157 HD
ATOM     34  H81 UNL     1       1.730  -3.636  -1.638  1.00  0.00     0.157 HD
ENDBRANCH   7  32
TORSDOF 9
