REMARK  7 active torsions:
REMARK  status: ('A' for Active; 'I' for Inactive)
REMARK    1  A    between atoms: N1_1  and  O1_4 
REMARK    2  A    between atoms: O1_4  and  C1_5 
REMARK    3  A    between atoms: C1_5  and  N2_6 
REMARK    4  A    between atoms: N2_6  and  C2_8 
REMARK    5  A    between atoms: C2_8  and  C3_9 
REMARK    6  A    between atoms: C2_8  and  C10_16 
REMARK    7  A    between atoms: C3_9  and  C4_10 
ROOT
HETATM    1  C2  UNL     1      -1.233   1.118   0.188  1.00  0.00     0.095 C 
ENDROOT
BRANCH   1   2
HETATM    2  N2  UNL     1      -2.467   0.660  -0.244  1.00  0.00    -0.341 N 
ATOM      3  H2  UNL     1      -2.989   1.266  -0.878  1.00  0.00     0.167 HD
BRANCH   2   4
HETATM    4  C1  UNL     1      -3.065  -0.555   0.107  1.00  0.00     0.259 C 
BRANCH   4   5
HETATM    5  O1  UNL     1      -4.354  -0.528  -0.522  1.00  0.00    -0.240 OA
BRANCH   5   6
HETATM    6  N1  UNL     1      -5.066  -1.606  -0.231  1.00  0.00    -0.305 N 
ATOM      7  H12 UNL     1      -4.725  -2.356   0.370  1.00  0.00     0.184 HD
ATOM      8  H11 UNL     1      -5.983  -1.587  -0.678  1.00  0.00     0.184 HD
ENDBRANCH   5   6
ENDBRANCH   4   5
ENDBRANCH   2   4
ENDBRANCH   1   2
BRANCH   1   9
HETATM    9  C3  UNL     1      -0.000   0.770  -0.506  1.00  0.00     0.012 C 
BRANCH   9  10
HETATM   10  C4  UNL     1       0.933  -0.263  -0.095  1.00  0.00     0.010 C 
HETATM   11  C5  UNL     1       1.662   0.131   1.207  1.00  0.00     0.008 C 
HETATM   12  C6  UNL     1       2.634  -0.986   1.520  1.00  0.00     0.001 C 
HETATM   13  C7  UNL     1       3.635  -1.212   0.436  1.00  0.00     0.000 C 
HETATM   14  C8  UNL     1       2.877  -1.562  -0.840  1.00  0.00     0.001 C 
HETATM   15  C9  UNL     1       2.009  -0.393  -1.143  1.00  0.00     0.008 C 
ENDBRANCH   9  10
ENDBRANCH   1   9
BRANCH   1  16
HETATM   16  C10 UNL     1      -1.205   2.478   0.711  1.00  0.00     0.281 C 
HETATM   17  N3  UNL     1      -1.258   3.408  -0.474  1.00  0.00    -0.056 NA
HETATM   18  O2  UNL     1      -1.108   2.988   1.725  1.00  0.00    -0.269 OA
ENDBRANCH   1  16
TORSDOF 7
