REMARK  3 active torsions:
REMARK  status: ('A' for Active; 'I' for Inactive)
REMARK    1  A    between atoms: S1_3  and  C2_4 
REMARK    2  A    between atoms: C2_4  and  C3_5 
REMARK    3  A    between atoms: C4_7  and  O2_8 
ROOT
HETATM    1  N1  UNL     1       5.918   0.274  -1.682  1.00  0.00    -0.184 NA
HETATM    2  C1  UNL     1       5.171   0.136  -0.807  1.00  0.00     0.134 C 
HETATM    3  S1  UNL     1       4.026  -0.107   0.532  1.00  0.00    -0.044 SA
ENDROOT
BRANCH   3   4
HETATM    4  C2  UNL     1       2.483  -0.681  -0.164  1.00  0.00     0.158 C 
BRANCH   4   5
HETATM    5  C3  UNL     1       1.295  -0.015   0.434  1.00  0.00     0.100 A 
HETATM    6  O1  UNL     1       1.183   0.897   1.355  1.00  0.00    -0.288 OA
HETATM    7  C4  UNL     1      -0.060   1.213   1.601  1.00  0.00     0.192 A 
HETATM    8  C5  UNL     1      -0.873   0.456   0.781  1.00  0.00     0.036 A 
HETATM    9  C6  UNL     1      -0.009  -0.321   0.038  1.00  0.00     0.110 A 
HETATM   10  C9  UNL     1      -2.339   0.308   0.548  1.00  0.00     0.048 C 
HETATM   11  O3  UNL     1      -0.519  -1.199  -0.896  1.00  0.00    -0.348 OA
HETATM   12  C7  UNL     1      -1.842  -1.153  -1.387  1.00  0.00     0.176 C 
HETATM   13  C8  UNL     1      -2.571   0.071  -0.922  1.00  0.00     0.031 C 
BRANCH   7  14
HETATM   14  O2  UNL     1      -0.547   2.138   2.508  1.00  0.00    -0.340 OA
ATOM     15  H2  UNL     1      -1.451   2.368   2.687  1.00  0.00     0.220 HD
ENDBRANCH   7  14
ENDBRANCH   4   5
ENDBRANCH   3   4
TORSDOF 3
