REMARK  3 active torsions:
REMARK  status: ('A' for Active; 'I' for Inactive)
REMARK    1  A    between atoms: C3_5  and  S1_6 
REMARK    2  A    between atoms: S1_6  and  C4_7 
REMARK    3  A    between atoms: C9_13  and  C11_16 
ROOT
HETATM    1  C1  UNL     1      -2.210   3.138  -0.348  1.00  0.00     0.146 C 
HETATM    2  N1  UNL     1      -1.002   2.372  -0.223  1.00  0.00    -0.395 N 
ATOM      3  H1  UNL     1      -0.112   2.827  -0.425  1.00  0.00     0.159 HD
HETATM    4  C2  UNL     1      -0.996   1.158   0.127  1.00  0.00     0.043 C 
HETATM    5  C3  UNL     1       0.200   0.298   0.280  1.00  0.00     0.043 C 
HETATM    6  C7  UNL     1      -0.186  -0.935   0.302  1.00  0.00     0.066 C 
HETATM    7  C8  UNL     1       0.647  -2.128   0.439  1.00  0.00     0.098 C 
HETATM    8  N2  UNL     1       1.277  -3.088   0.563  1.00  0.00    -0.192 NA
HETATM    9  C9  UNL     1      -1.660  -1.051   0.171  1.00  0.00     0.120 C 
HETATM   10  C10 UNL     1      -2.170  -1.981   1.180  1.00  0.00     0.077 C 
HETATM   11  N3  UNL     1      -2.562  -2.720   1.984  1.00  0.00    -0.196 NA
HETATM   12  C13 UNL     1      -2.168   0.323   0.459  1.00  0.00     0.172 C 
HETATM   13  C14 UNL     1      -2.495   0.540   1.863  1.00  0.00     0.072 C 
HETATM   14  N5  UNL     1      -2.737   0.708   2.990  1.00  0.00    -0.196 NA
ENDROOT
BRANCH   5  15
HETATM   15  S1  UNL     1       1.804   1.022   0.433  1.00  0.00    -0.123 SA
BRANCH  15  16
HETATM   16  C4  UNL     1       3.202  -0.046   0.305  1.00  0.00     0.044 C 
HETATM   17  C5  UNL     1       3.363  -0.574  -1.127  1.00  0.00     0.021 C 
HETATM   18  C6  UNL     1       4.475   0.792   0.535  1.00  0.00     0.021 C 
ENDBRANCH  15  16
ENDBRANCH   5  15
BRANCH   9  19
HETATM   19  C11 UNL     1      -2.079  -1.572  -1.191  1.00  0.00     0.156 C 
HETATM   20  C12 UNL     1      -3.540  -1.638  -1.189  1.00  0.00     0.061 C 
HETATM   21  N4  UNL     1      -4.703  -1.681  -1.170  1.00  0.00    -0.197 NA
ENDBRANCH   9  19
TORSDOF 3
