REMARK  4 active torsions:
REMARK  status: ('A' for Active; 'I' for Inactive)
REMARK    1  A    between atoms: N1_1  and  S1_4 
REMARK    2  A    between atoms: S1_4  and  N2_7 
REMARK    3  A    between atoms: N2_7  and  N3_9 
REMARK    4  A    between atoms: N3_9  and  C1_11 
ROOT
HETATM    1  N2  UNL     1       1.154  -0.105  -0.839  1.00  0.00    -0.209 N 
ATOM      2  H2  UNL     1       0.979  -0.609  -1.708  1.00  0.00     0.201 HD
ENDROOT
BRANCH   1   3
HETATM    3  S1  UNL     1       2.512   0.929  -0.468  1.00  0.00     0.330 S 
HETATM    4  O1  UNL     1       3.127   1.480  -1.723  1.00  0.00    -0.181 OA
HETATM    5  O2  UNL     1       2.017   2.006   0.449  1.00  0.00    -0.181 OA
BRANCH   3   6
HETATM    6  N1  UNL     1       3.674  -0.077   0.364  1.00  0.00    -0.310 N 
ATOM      7  H12 UNL     1       4.623  -0.254   0.034  1.00  0.00     0.170 HD
ATOM      8  H11 UNL     1       3.256  -0.451   1.216  1.00  0.00     0.170 HD
ENDBRANCH   3   6
ENDBRANCH   1   3
BRANCH   1   9
HETATM    9  N3  UNL     1       0.353  -0.093   0.319  1.00  0.00    -0.275 N 
ATOM     10  H3  UNL     1       0.779  -0.055   1.245  1.00  0.00     0.189 HD
BRANCH   9  11
HETATM   11  C1  UNL     1      -1.066  -0.135   0.174  1.00  0.00     0.120 A 
HETATM   12  C2  UNL     1      -1.801  -1.308   0.012  1.00  0.00     0.051 A 
HETATM   13  C3  UNL     1      -3.114  -0.918  -0.077  1.00  0.00     0.021 A 
HETATM   14  C4  UNL     1      -3.142   0.456   0.030  1.00  0.00     0.090 A 
HETATM   15  N4  UNL     1      -1.892   0.930   0.184  1.00  0.00    -0.351 N 
ATOM     16  H4  UNL     1      -1.621   1.908   0.288  1.00  0.00     0.166 HD
ENDBRANCH   9  11
ENDBRANCH   1   9
TORSDOF 4
