REMARK  4 active torsions:
REMARK  status: ('A' for Active; 'I' for Inactive)
REMARK    1  A    between atoms: N1_1  and  C1_5 
REMARK    2  A    between atoms: C5_11  and  N3_12 
REMARK    3  A    between atoms: C6_16  and  C7_17 
REMARK    4  A    between atoms: C7_17  and  C8_19 
ROOT
HETATM    1  C1  UNL     1      -0.638   0.710  -0.678  1.00  0.00     0.198 C 
HETATM    2  C2  UNL     1      -1.551   1.551   0.225  1.00  0.00     0.052 C 
HETATM    3  C3  UNL     1      -2.613   0.659   0.834  1.00  0.00     0.115 C 
HETATM    4  N2  UNL     1      -2.893  -0.499   0.030  1.00  0.00    -0.419 N 
ATOM      5  H2  UNL     1      -3.588  -0.487  -0.716  1.00  0.00     0.153 HD
HETATM    6  C4  UNL     1      -2.139  -1.662   0.342  1.00  0.00     0.147 C 
HETATM    7  C5  UNL     1      -0.750  -1.682  -0.272  1.00  0.00     0.214 C 
HETATM    8  C6  UNL     1      -0.071  -0.407   0.162  1.00  0.00     0.118 C 
ENDROOT
BRANCH   8   9
HETATM    9  C7  UNL     1       1.397  -0.495   0.122  1.00  0.00     0.139 C 
HETATM   10  O1  UNL     1       1.968  -1.499  -0.311  1.00  0.00    -0.297 OA
BRANCH   9  11
HETATM   11  C8  UNL     1       2.258   0.616   0.597  1.00  0.00     0.056 A 
HETATM   12  C9  UNL     1       3.476   0.217   1.441  1.00  0.00     0.013 A 
HETATM   13  C10 UNL     1       3.622   0.804   0.049  1.00  0.00     0.013 A 
ENDBRANCH   9  11
ENDBRANCH   8   9
BRANCH   1  14
HETATM   14  N1  UNL     1       0.375   1.598  -1.198  1.00  0.00    -0.074 N 
ATOM     15  H13 UNL     1      -0.012   2.415  -1.669  1.00  0.00     0.274 HD
ATOM     16  H12 UNL     1       0.883   2.097  -0.468  1.00  0.00     0.274 HD
ATOM     17  H11 UNL     1       0.982   1.039  -1.798  1.00  0.00     0.274 HD
ENDBRANCH   1  14
BRANCH   7  18
HETATM   18  N3  UNL     1      -0.816  -1.854  -1.684  1.00  0.00    -0.073 N 
ATOM     19  H33 UNL     1      -1.350  -2.685  -1.937  1.00  0.00     0.274 HD
ATOM     20  H32 UNL     1      -1.410  -1.149  -2.121  1.00  0.00     0.274 HD
ATOM     21  H31 UNL     1       0.117  -1.867  -2.096  1.00  0.00     0.274 HD
ENDBRANCH   7  18
TORSDOF 4
