REMARK  4 active torsions:
REMARK  status: ('A' for Active; 'I' for Inactive)
REMARK    1  A    between atoms: N1_1  and  C1_5 
REMARK    2  A    between atoms: C1_5  and  C2_6 
REMARK    3  A    between atoms: C6_10  and  C7_11 
REMARK       I    between atoms: C7_11  and  N2_13 
REMARK       I    between atoms: N2_13  and  C8_15 
REMARK       I    between atoms: C8_15  and  N3_17 
REMARK    4  A    between atoms: N3_17  and  N4_19 
ROOT
HETATM    1  C7  UNL     1       0.928  -0.048   0.729  1.00  0.00     0.230 C 
HETATM    2  O1  UNL     1       1.538   0.623   1.593  1.00  0.00    -0.273 OA
HETATM    3  N2  UNL     1       1.590  -0.643  -0.365  1.00  0.00    -0.278 N 
ATOM      4  H2  UNL     1       1.004  -1.167  -1.014  1.00  0.00     0.173 HD
HETATM    5  C8  UNL     1       2.948  -0.599  -0.663  1.00  0.00     0.341 C 
HETATM    6  O2  UNL     1       3.323  -1.226  -1.728  1.00  0.00    -0.245 OA
HETATM    7  N3  UNL     1       3.975   0.041   0.045  1.00  0.00    -0.258 N 
ATOM      8  H3  UNL     1       3.740   0.553   0.895  1.00  0.00     0.191 HD
ENDROOT
BRANCH   1   9
HETATM    9  C6  UNL     1      -0.539  -0.185   0.916  1.00  0.00     0.084 C 
HETATM   10  C2  UNL     1      -1.330   0.347  -0.228  1.00  0.00     0.024 C 
HETATM   11  C3  UNL     1      -2.526  -0.573  -0.406  1.00  0.00     0.007 C 
HETATM   12  C4  UNL     1      -2.452  -1.527   0.780  1.00  0.00     0.001 C 
HETATM   13  C5  UNL     1      -0.930  -1.665   0.921  1.00  0.00     0.014 C 
BRANCH  10  14
HETATM   14  C1  UNL     1      -1.855   1.746   0.025  1.00  0.00     0.235 C 
BRANCH  14  15
HETATM   15  N1  UNL     1      -2.660   2.214  -1.082  1.00  0.00    -0.079 N 
ATOM     16  H13 UNL     1      -2.151   2.159  -1.964  1.00  0.00     0.274 HD
ATOM     17  H12 UNL     1      -3.416   1.564  -1.296  1.00  0.00     0.274 HD
ATOM     18  H11 UNL     1      -3.013   3.156  -0.912  1.00  0.00     0.274 HD
ENDBRANCH  14  15
ENDBRANCH  10  14
ENDBRANCH   1   9
BRANCH   7  19
HETATM   19  N4  UNL     1       5.305   0.004  -0.369  1.00  0.00    -0.341 N 
ATOM     20  H42 UNL     1       5.523  -0.512  -1.221  1.00  0.00     0.177 HD
ATOM     21  H41 UNL     1       6.052   0.470   0.146  1.00  0.00     0.177 HD
ENDBRANCH   7  19
TORSDOF 4
