REMARK  2 active torsions:
REMARK  status: ('A' for Active; 'I' for Inactive)
REMARK    1  A    between atoms: N3_4  and  N4_6 
REMARK    2  A    between atoms: N4_6  and  C2_8 
ROOT
HETATM    1  C2  UNL     1       1.222  -0.462   0.095  1.00  0.00     0.722 A 
HETATM    2  N5  UNL     1       1.124   0.647  -0.671  1.00  0.00    -0.115 N 
ATOM      3  H5  UNL     1       0.306   0.921  -1.215  1.00  0.00     0.202 HD
HETATM    4  N6  UNL     1       2.262   1.320  -0.601  1.00  0.00     0.006 NA
HETATM    5  N7  UNL     1       3.086   0.662   0.194  1.00  0.00     0.006 NA
HETATM    6  N8  UNL     1       2.460  -0.420   0.620  1.00  0.00    -0.115 N 
ATOM      7  H8  UNL     1       2.855  -1.117   1.251  1.00  0.00     0.202 HD
ENDROOT
BRANCH   1   8
HETATM    8  N4  UNL     1       0.310  -1.366   0.277  1.00  0.00    -0.128 N 
ATOM      9  H4  UNL     1       0.507  -2.162   0.883  1.00  0.00     0.205 HD
BRANCH   8  10
HETATM   10  N3  UNL     1      -0.916  -1.270  -0.332  1.00  0.00    -0.262 N 
HETATM   11  C1  UNL     1      -1.816  -0.391  -0.062  1.00  0.00     0.216 C 
HETATM   12  N1  UNL     1      -1.597   0.593   0.935  1.00  0.00    -0.065 NA
HETATM   13  N2  UNL     1      -3.065  -0.359  -0.741  1.00  0.00    -0.065 NA
ATOM     14  H3  UNL     1      -1.132  -1.952  -1.059  1.00  0.00     0.190 HD
ENDBRANCH   8  10
ENDBRANCH   1   8
TORSDOF 2
