REMARK  4 active torsions:
REMARK  status: ('A' for Active; 'I' for Inactive)
REMARK    1  A    between atoms: C2_2  and  C3_4 
REMARK    2  A    between atoms: C3_4  and  N5_12 
REMARK    3  A    between atoms: N1_5  and  N2_7 
REMARK    4  A    between atoms: N5_12  and  N6_14 
ROOT
HETATM    1  C3  UNL     1      -1.191  -0.079   0.449  1.00  0.00     0.180 C 
HETATM    2  N1  UNL     1      -0.076   0.486   0.472  1.00  0.00    -0.279 N 
ATOM      3  H1  UNL     1       0.142   0.993   1.330  1.00  0.00     0.189 HD
ENDROOT
BRANCH   1   4
HETATM    4  C2  UNL     1      -1.695  -0.848  -0.663  1.00  0.00     0.191 C 
HETATM    5  C1  UNL     1      -0.890  -1.015  -1.883  1.00  0.00     0.100 C 
HETATM    6  O1  UNL     1      -2.831  -1.393  -0.619  1.00  0.00    -0.289 OA
ENDBRANCH   1   4
BRANCH   1   7
HETATM    7  N5  UNL     1      -2.039   0.038   1.607  1.00  0.00    -0.288 N 
ATOM      8  H5  UNL     1      -2.238  -0.792   2.166  1.00  0.00     0.188 HD
BRANCH   7   9
HETATM    9  N6  UNL     1      -2.588   1.247   1.976  1.00  0.00    -0.343 N 
ATOM     10  H62 UNL     1      -2.379   2.067   1.406  1.00  0.00     0.176 HD
ATOM     11  H61 UNL     1      -3.189   1.330   2.796  1.00  0.00     0.176 HD
ENDBRANCH   7   9
ENDBRANCH   1   7
BRANCH   2  12
HETATM   12  N2  UNL     1       0.887   0.519  -0.487  1.00  0.00    -0.274 N 
HETATM   13  C4  UNL     1       2.120   0.319  -0.196  1.00  0.00     0.215 C 
HETATM   14  N3  UNL     1       2.504   0.059   1.134  1.00  0.00    -0.065 NA
HETATM   15  N4  UNL     1       3.109   0.359  -1.221  1.00  0.00    -0.065 NA
ATOM     16  H2  UNL     1       0.624   0.706  -1.455  1.00  0.00     0.189 HD
ENDBRANCH   2  12
TORSDOF 4
