REMARK  2 active torsions:
REMARK  status: ('A' for Active; 'I' for Inactive)
REMARK    1  A    between atoms: C2_5  and  N3_6 
REMARK    2  A    between atoms: N3_6  and  N4_8 
ROOT
HETATM    1  C1  UNL     1      -2.246  -0.821   0.279  1.00  0.00     0.183 C 
HETATM    2  N1  UNL     1      -1.071   0.009   0.257  1.00  0.00    -0.232 N 
HETATM    3  N2  UNL     1       0.144  -0.413   0.052  1.00  0.00    -0.125 N 
ATOM      4  H2  UNL     1       0.389  -1.389  -0.116  1.00  0.00     0.206 HD
HETATM    5  C2  UNL     1       1.041   0.595   0.089  1.00  0.00     0.715 A 
HETATM    6  N5  UNL     1       0.314   1.698   0.332  1.00  0.00    -0.137 N 
ATOM      7  H5  UNL     1       0.681   2.645   0.423  1.00  0.00     0.189 HD
HETATM    8  C3  UNL     1      -0.979   1.343   0.435  1.00  0.00     0.355 A 
HETATM    9  O1  UNL     1      -1.984   2.091   0.661  1.00  0.00    -0.244 OA
ENDROOT
BRANCH   5  10
HETATM   10  N3  UNL     1       2.337   0.504  -0.078  1.00  0.00    -0.137 N 
ATOM     11  H3  UNL     1       2.930   1.333  -0.031  1.00  0.00     0.205 HD
BRANCH  10  12
HETATM   12  N4  UNL     1       2.882  -0.745  -0.320  1.00  0.00    -0.331 N 
ATOM     13  H42 UNL     1       2.276  -1.564  -0.364  1.00  0.00     0.177 HD
ATOM     14  H41 UNL     1       3.891  -0.816  -0.450  1.00  0.00     0.177 HD
ENDBRANCH  10  12
ENDBRANCH   5  10
TORSDOF 2
