REMARK  3 active torsions:
REMARK  status: ('A' for Active; 'I' for Inactive)
REMARK       I    between atoms: C2_2  and  N1_4 
REMARK       I    between atoms: N2_7  and  C5_8 
REMARK    1  A    between atoms: C5_8  and  C6_10 
REMARK    2  A    between atoms: C10_17  and  C11_18 
REMARK       I    between atoms: C11_18  and  N4_20 
REMARK    3  A    between atoms: N4_20  and  C12_22 
ROOT
HETATM    1  C6  UNL     1      -1.516   0.218  -1.998  1.00  0.00     0.123 C 
HETATM    2  C7  UNL     1      -1.983   1.657  -1.991  1.00  0.00     0.202 C 
HETATM    3  C8  UNL     1      -0.880   2.312  -1.175  1.00  0.00     0.067 C 
HETATM    4  C9  UNL     1      -0.081   1.937  -2.393  1.00  0.00     0.202 C 
HETATM    5  N3  UNL     1      -1.303   2.273  -3.148  1.00  0.00    -0.065 N 
ATOM      6  H31 UNL     1      -1.511   3.216  -3.476  1.00  0.00     0.278 HD
ATOM      7  H32 UNL     1      -1.461   1.971  -4.109  1.00  0.00     0.278 HD
HETATM    8  C10 UNL     1      -0.127   0.422  -2.526  1.00  0.00     0.123 C 
ENDROOT
BRANCH   8   9
HETATM    9  C11 UNL     1       0.969  -0.253  -1.887  1.00  0.00     0.225 C 
HETATM   10  O3  UNL     1       1.141  -1.495  -2.158  1.00  0.00    -0.273 OA
HETATM   11  N4  UNL     1       1.911   0.285  -0.971  1.00  0.00    -0.355 N 
ATOM     12  H4  UNL     1       1.822   1.270  -0.723  1.00  0.00     0.162 HD
BRANCH  11  13
HETATM   13  C12 UNL     1       2.976  -0.458  -0.372  1.00  0.00     0.092 C 
HETATM   14  C13 UNL     1       3.023  -0.288   1.116  1.00  0.00     0.009 C 
HETATM   15  C14 UNL     1       3.503   1.115   1.501  1.00  0.00     0.011 C 
HETATM   16  C18 UNL     1       3.986  -1.241   1.772  1.00  0.00     0.011 C 
HETATM   17  C15 UNL     1       4.890   1.372   0.963  1.00  0.00    -0.013 C 
HETATM   18  C16 UNL     1       5.902   0.364   1.464  1.00  0.00     0.009 C 
HETATM   19  C21 UNL     1       4.835   1.226  -0.545  1.00  0.00     0.011 C 
HETATM   20  C17 UNL     1       5.350  -1.004   1.197  1.00  0.00    -0.013 C 
HETATM   21  C19 UNL     1       5.286  -1.161  -0.319  1.00  0.00     0.011 C 
HETATM   22  C20 UNL     1       4.340  -0.133  -0.929  1.00  0.00     0.009 C 
ENDBRANCH  11  13
ENDBRANCH   8   9
BRANCH   1  23
HETATM   23  C5  UNL     1      -1.661  -0.455  -0.725  1.00  0.00     0.227 C 
HETATM   24  N2  UNL     1      -2.951  -0.772  -0.216  1.00  0.00    -0.347 N 
HETATM   25  C4  UNL     1      -4.191  -0.454  -0.937  1.00  0.00     0.145 C 
HETATM   26  C22 UNL     1      -3.098  -1.445   1.052  1.00  0.00     0.167 C 
HETATM   27  C3  UNL     1      -5.225  -1.537  -0.566  1.00  0.00     0.147 C 
HETATM   28  N1  UNL     1      -5.491  -1.258   0.856  1.00  0.00    -0.332 N 
HETATM   29  C2  UNL     1      -6.834  -1.251   1.315  1.00  0.00     0.217 C 
HETATM   30  C23 UNL     1      -4.375  -1.005   1.731  1.00  0.00     0.202 C 
HETATM   31  C1  UNL     1      -7.248  -0.970   2.701  1.00  0.00     0.117 C 
HETATM   32  O1  UNL     1      -7.789  -1.501   0.494  1.00  0.00    -0.274 OA
HETATM   33 CL1  UNL     1      -4.542  -1.812   3.315  1.00  0.00    -0.101 Cl
HETATM   34  O2  UNL     1      -0.675  -0.776  -0.039  1.00  0.00    -0.273 OA
ENDBRANCH   1  23
TORSDOF 3
