REMARK  4 active torsions:
REMARK  status: ('A' for Active; 'I' for Inactive)
REMARK       I    between atoms: N1_2  and  C2_4 
REMARK    1  A    between atoms: C2_4  and  C3_6 
REMARK    2  A    between atoms: C3_6  and  N2_7 
REMARK    3  A    between atoms: N2_7  and  C4_10 
REMARK    4  A    between atoms: C13_20  and  O2_21 
ROOT
HETATM    1  C4  UNL     1       0.174   0.252  -0.941  1.00  0.00     0.195 C 
HETATM    2  C5  UNL     1      -0.162   1.673  -0.604  1.00  0.00     0.018 C 
HETATM    3  C6  UNL     1      -0.504   1.918   0.818  1.00  0.00     0.008 C 
HETATM    4  C7  UNL     1      -1.937   1.490   0.979  1.00  0.00     0.022 C 
HETATM    5  C8  UNL     1      -2.409   1.285  -0.401  1.00  0.00     0.022 C 
HETATM    6 BR1  UNL     1      -4.237   1.923  -0.630  1.00  0.00    -0.085 Br
HETATM    7  C9  UNL     1      -1.465   2.088  -1.309  1.00  0.00     0.028 C 
HETATM    8  C10 UNL     1      -2.323  -0.135  -0.938  1.00  0.00     0.011 C 
HETATM    9  C11 UNL     1      -3.410  -0.928  -0.317  1.00  0.00     0.009 C 
HETATM   10  C12 UNL     1      -3.018  -2.297   0.159  1.00  0.00     0.032 C 
HETATM   11  C13 UNL     1      -1.681  -2.289   0.853  1.00  0.00     0.118 C 
HETATM   12  C14 UNL     1      -0.672  -1.924  -0.184  1.00  0.00     0.039 C 
HETATM   13  C15 UNL     1      -0.964  -0.712  -1.014  1.00  0.00     0.024 C 
ENDROOT
BRANCH   1  14
HETATM   14  N2  UNL     1       1.319  -0.152  -0.190  1.00  0.00    -0.062 N 
ATOM     15  H22 UNL     1       1.485  -1.155  -0.270  1.00  0.00     0.278 HD
ATOM     16  H21 UNL     1       1.146  -0.102   0.814  1.00  0.00     0.278 HD
BRANCH  14  17
HETATM   17  C3  UNL     1       2.490   0.614  -0.568  1.00  0.00     0.335 C 
BRANCH  17  18
HETATM   18  C2  UNL     1       3.685   0.175   0.199  1.00  0.00     0.242 C 
HETATM   19  N1  UNL     1       4.965   0.740   0.024  1.00  0.00    -0.364 N 
HETATM   20  C1  UNL     1       6.100   0.306   0.769  1.00  0.00     0.149 C 
ATOM     21  H1  UNL     1       5.083   1.487  -0.661  1.00  0.00     0.161 HD
HETATM   22  O1  UNL     1       3.522  -0.748   1.040  1.00  0.00    -0.272 OA
ENDBRANCH  17  18
ENDBRANCH  14  17
ENDBRANCH   1  14
BRANCH  11  23
HETATM   23  O2  UNL     1      -1.420  -3.595   1.267  1.00  0.00    -0.396 OA
ATOM     24  H2  UNL     1      -0.577  -3.590   1.705  1.00  0.00     0.210 HD
ENDBRANCH  11  23
TORSDOF 4
