REMARK  4 active torsions:
REMARK  status: ('A' for Active; 'I' for Inactive)
REMARK    1  A    between atoms: C3_11  and  C4_12 
REMARK    2  A    between atoms: C4_12  and  C5_13 
REMARK    3  A    between atoms: C5_13  and  C6_14 
REMARK    4  A    between atoms: C6_14  and  N5_15 
ROOT
HETATM    1  N1  UNL     1      -2.818  -2.413   0.393  1.00  0.00    -0.234 N 
ATOM      2  H11 UNL     1      -2.230  -3.233   0.246  1.00  0.00     0.174 HD
ATOM      3  H12 UNL     1      -3.811  -2.524   0.600  1.00  0.00     0.174 HD
HETATM    4  C1  UNL     1      -2.343  -1.197   0.327  1.00  0.00     0.679 A 
HETATM    5  N2  UNL     1      -3.119  -0.115   0.521  1.00  0.00    -0.164 N 
ATOM      6  H2  UNL     1      -4.111  -0.236   0.727  1.00  0.00     0.187 HD
HETATM    7  C2  UNL     1      -2.599   1.130   0.446  1.00  0.00     0.208 A 
HETATM    8  N3  UNL     1      -3.422   2.278   0.652  1.00  0.00    -0.063 NA
HETATM    9  N4  UNL     1      -1.289   1.224   0.172  1.00  0.00    -0.319 N 
ATOM     10  H4  UNL     1      -0.877   2.155   0.111  1.00  0.00     0.169 HD
HETATM   11  C3  UNL     1      -0.491   0.168  -0.026  1.00  0.00     0.099 A 
HETATM   12  N6  UNL     1      -1.037  -1.051   0.055  1.00  0.00    -0.181 N 
ATOM     13  H6  UNL     1      -0.456  -1.876  -0.091  1.00  0.00     0.185 HD
ENDROOT
BRANCH  11  14
HETATM   14  C4  UNL     1       0.938   0.436  -0.320  1.00  0.00     0.079 C 
BRANCH  14  15
HETATM   15  C5  UNL     1       1.725  -0.839  -0.522  1.00  0.00     0.034 C 
BRANCH  15  16
HETATM   16  C6  UNL     1       3.167  -0.403  -0.815  1.00  0.00     0.230 C 
BRANCH  16  17
HETATM   17  N5  UNL     1       3.704   0.358   0.293  1.00  0.00    -0.079 N 
ATOM     18  H53 UNL     1       3.109   1.152   0.531  1.00  0.00     0.274 HD
ATOM     19  H52 UNL     1       3.634  -0.154   1.173  1.00  0.00     0.274 HD
ATOM     20  H51 UNL     1       4.662   0.648   0.098  1.00  0.00     0.274 HD
ENDBRANCH  16  17
ENDBRANCH  15  16
ENDBRANCH  14  15
ENDBRANCH  11  14
TORSDOF 4
