REMARK  2 active torsions:
REMARK  status: ('A' for Active; 'I' for Inactive)
REMARK       I    between atoms: C1_2  and  N1_3 
REMARK    1  A    between atoms: C1_2  and  C6_10 
REMARK    2  A    between atoms: N1_3  and  C2_5 
ROOT
HETATM    1  O1  UNL     1      -0.251  -0.008  -1.808  1.00  0.00    -0.273 OA
HETATM    2  C1  UNL     1       0.001   0.213  -0.575  1.00  0.00     0.223 C 
HETATM    3  N1  UNL     1      -1.042   0.185   0.386  1.00  0.00    -0.334 N 
ATOM      4  H1  UNL     1      -0.843   0.360   1.371  1.00  0.00     0.165 HD
ENDROOT
BRANCH   2   5
HETATM    5  C6  UNL     1       1.407   0.499  -0.160  1.00  0.00     0.078 C 
HETATM    6  C7  UNL     1       2.299   0.472  -1.328  1.00  0.00     0.014 C 
HETATM    7  C8  UNL     1       3.605  -0.215  -1.160  1.00  0.00     0.001 C 
HETATM    8  C9  UNL     1       4.106   0.119   0.250  1.00  0.00     0.000 C 
HETATM    9  C10 UNL     1       3.191  -0.709   1.148  1.00  0.00     0.001 C 
HETATM   10  C11 UNL     1       1.762  -0.363   0.997  1.00  0.00     0.014 C 
ENDBRANCH   2   5
BRANCH   3  11
HETATM   11  C2  UNL     1      -2.382  -0.094  -0.048  1.00  0.00     0.223 C 
HETATM   12  C3  UNL     1      -3.338   1.045   0.315  1.00  0.00     0.056 C 
HETATM   13  C4  UNL     1      -4.677   0.351   0.127  1.00  0.00     0.031 C 
HETATM   14  C5  UNL     1      -4.301  -1.101   0.219  1.00  0.00     0.170 C 
HETATM   15  O2  UNL     1      -2.965  -1.155   0.622  1.00  0.00    -0.367 OA
ENDBRANCH   3  11
TORSDOF 2
