REMARK  10 active torsions:
REMARK  status: ('A' for Active; 'I' for Inactive)
REMARK    1  A    between atoms: C2_7  and  C3_8 
REMARK    2  A    between atoms: C4_13  and  O1_14 
REMARK    3  A    between atoms: O1_14  and  C5_15 
REMARK    4  A    between atoms: C9_21  and  N7_22 
REMARK    5  A    between atoms: N10_32  and  O3_34 
REMARK    6  A    between atoms: N11_36  and  C12_37 
REMARK    7  A    between atoms: C12_37  and  C13_38 
REMARK    8  A    between atoms: C13_38  and  O4_39 
REMARK    9  A    between atoms: C13_38  and  C14_41 
REMARK   10  A    between atoms: C14_41  and  O5_42 
ROOT
HETATM    1  C3  UNL     1       2.482  -0.163   1.736  1.00  0.00     0.173 A 
HETATM    2  N4  UNL     1       1.451  -0.065   2.626  1.00  0.00    -0.279 N 
ATOM      3  H4  UNL     1       1.549  -0.004   3.639  1.00  0.00     0.189 HD
HETATM    4  N5  UNL     1       0.305  -0.062   1.966  1.00  0.00    -0.263 N 
ATOM      5  H5  UNL     1      -0.621   0.002   2.388  1.00  0.00     0.190 HD
HETATM    6  C4  UNL     1       0.557  -0.156   0.654  1.00  0.00     0.243 A 
HETATM    7  N11 UNL     1       1.893  -0.218   0.529  1.00  0.00    -0.291 N 
ENDROOT
BRANCH   6   8
HETATM    8  O1  UNL     1      -0.363  -0.185  -0.348  1.00  0.00    -0.307 OA
BRANCH   8   9
HETATM    9  C5  UNL     1      -1.759  -0.123  -0.168  1.00  0.00     0.205 C 
HETATM   10  C6  UNL     1      -2.474  -1.336  -0.649  1.00  0.00     0.088 C 
HETATM   11  C7  UNL     1      -3.927  -1.191  -0.378  1.00  0.00     0.058 A 
HETATM   12  C8  UNL     1      -4.561   0.031  -0.348  1.00  0.00     0.134 A 
HETATM   13  C10 UNL     1      -4.703  -2.340  -0.151  1.00  0.00     0.269 A 
HETATM   14  N6  UNL     1      -5.889   0.160  -0.111  1.00  0.00    -0.176 N 
HETATM   15  N9  UNL     1      -3.778   1.217  -0.566  1.00  0.00    -0.328 N 
HETATM   16  C9  UNL     1      -6.595  -0.954   0.100  1.00  0.00     0.680 A 
ATOM     17  H6  UNL     1      -6.335   1.077  -0.094  1.00  0.00     0.186 HD
HETATM   18  N8  UNL     1      -6.011  -2.165   0.079  1.00  0.00    -0.156 N 
ATOM     19  H8  UNL     1      -6.590  -2.988   0.246  1.00  0.00     0.187 HD
HETATM   20  C11 UNL     1      -2.386   1.056  -0.800  1.00  0.00     0.133 C 
ATOM     21  H9  UNL     1      -4.207   2.142  -0.553  1.00  0.00     0.169 HD
HETATM   22  N10 UNL     1      -1.763   1.905  -1.519  1.00  0.00    -0.254 N 
ATOM     23  H10 UNL     1      -0.764   1.762  -1.669  1.00  0.00     0.195 HD
HETATM   24  O2  UNL     1      -4.130  -3.459  -0.177  1.00  0.00    -0.267 OA
BRANCH  16  25
HETATM   25  N7  UNL     1      -7.862  -0.876   0.330  1.00  0.00    -0.234 N 
ATOM     26  H72 UNL     1      -8.305   0.043   0.346  1.00  0.00     0.174 HD
ATOM     27  H71 UNL     1      -8.401  -1.727   0.491  1.00  0.00     0.174 HD
ENDBRANCH  16  25
BRANCH  22  28
HETATM   28  O3  UNL     1      -2.348   2.992  -2.100  1.00  0.00    -0.288 OA
ATOM     29  H3  UNL     1      -1.884   3.625  -2.636  1.00  0.00     0.244 HD
ENDBRANCH  22  28
ENDBRANCH   8   9
ENDBRANCH   6   8
BRANCH   7  30
HETATM   30  C12 UNL     1       2.616  -0.330  -0.741  1.00  0.00     0.168 C 
BRANCH  30  31
HETATM   31  C13 UNL     1       2.941   1.041  -1.294  1.00  0.00     0.160 C 
BRANCH  31  32
HETATM   32  O4  UNL     1       1.778   1.778  -1.523  1.00  0.00    -0.392 OA
ATOM     33  H4  UNL     1       1.982   2.638  -1.870  1.00  0.00     0.210 HD
ENDBRANCH  31  32
BRANCH  31  34
HETATM   34  C14 UNL     1       3.664   0.947  -2.613  1.00  0.00     0.197 C 
BRANCH  34  35
HETATM   35  O5  UNL     1       2.828   0.305  -3.522  1.00  0.00    -0.398 OA
ATOM     36  H5  UNL     1       3.284   0.246  -4.353  1.00  0.00     0.209 HD
ENDBRANCH  34  35
ENDBRANCH  31  34
ENDBRANCH  30  31
ENDBRANCH   7  30
BRANCH   1  37
HETATM   37  C2  UNL     1       3.907  -0.199   2.071  1.00  0.00     0.184 A 
HETATM   38  N3  UNL     1       4.967  -0.292   1.267  1.00  0.00    -0.265 N 
HETATM   39  N2  UNL     1       6.040  -0.286   2.022  1.00  0.00    -0.225 N 
ATOM     40  H3  UNL     1       4.947  -0.356   0.249  1.00  0.00     0.190 HD
HETATM   41  N1  UNL     1       5.697  -0.192   3.276  1.00  0.00    -0.223 N 
ATOM     42  H2  UNL     1       6.999  -0.346   1.679  1.00  0.00     0.210 HD
HETATM   43  C1  UNL     1       6.530  -0.147   4.481  1.00  0.00     0.202 C 
HETATM   44  N12 UNL     1       4.384  -0.137   3.324  1.00  0.00    -0.264 N 
ATOM     45  H12 UNL     1       3.822  -0.060   4.172  1.00  0.00     0.190 HD
ENDBRANCH   1  37
TORSDOF 10
