REMARK  1 active torsions:
REMARK  status: ('A' for Active; 'I' for Inactive)
REMARK    1  A    between atoms: N1_2  and  N2_4 
ROOT
HETATM    1  N2  UNL     1      -1.551   0.301   1.033  1.00  0.00    -0.302 N 
ATOM      2  H2  UNL     1      -1.699   0.916   1.833  1.00  0.00     0.187 HD
HETATM    3  C2  UNL     1      -0.334   0.109   0.652  1.00  0.00     0.076 C 
HETATM    4  S1  UNL     1       1.051   0.892   1.494  1.00  0.00    -0.099 SA
HETATM    5  C3  UNL     1       2.114   1.269   0.046  1.00  0.00     0.111 C 
HETATM    6  C4  UNL     1       3.555   1.350   0.433  1.00  0.00     0.033 C 
HETATM    7  S2  UNL     1       1.744  -0.189  -0.970  1.00  0.00    -0.142 SA
HETATM    8  C5  UNL     1       0.126  -0.720  -0.454  1.00  0.00     0.102 C 
HETATM    9  C6  UNL     1       0.046  -2.185  -0.093  1.00  0.00     0.028 C 
ENDROOT
BRANCH   1  10
HETATM   10  N1  UNL     1      -2.663  -0.253   0.452  1.00  0.00    -0.340 N 
HETATM   11  C1  UNL     1      -3.378   0.434  -0.579  1.00  0.00     0.167 C 
ATOM     12  H1  UNL     1      -2.986  -1.170   0.760  1.00  0.00     0.179 HD
ENDBRANCH   1  10
TORSDOF 1
