REMARK  3 active torsions:
REMARK  status: ('A' for Active; 'I' for Inactive)
REMARK    1  A    between atoms: C3_5  and  N2_6 
REMARK    2  A    between atoms: C4_8  and  C5_9 
REMARK    3  A    between atoms: C5_9  and  N3_10 
ROOT
HETATM    1  C1  UNL     1      -3.158   3.571  -0.864  1.00  0.00     0.089 C 
HETATM    2  C2  UNL     1      -2.554   2.259  -0.483  1.00  0.00     0.080 A 
HETATM    3  N1  UNL     1      -1.276   2.121  -0.144  1.00  0.00    -0.332 N 
ATOM      4  H1  UNL     1      -0.679   2.948  -0.146  1.00  0.00     0.168 HD
HETATM    5  C3  UNL     1      -0.720   0.904   0.212  1.00  0.00     0.116 A 
HETATM    6  C8  UNL     1      -1.564  -0.181   0.200  1.00  0.00     0.030 A 
HETATM    7  C9  UNL     1      -2.895  -0.015  -0.159  1.00  0.00     0.112 A 
HETATM    8  N4  UNL     1      -3.382   1.202  -0.497  1.00  0.00    -0.332 N 
ATOM      9  H4  UNL     1      -4.362   1.314  -0.758  1.00  0.00     0.168 HD
HETATM   10  N5  UNL     1      -3.766  -1.105  -0.184  1.00  0.00    -0.376 N 
ATOM     11  H5  UNL     1      -4.765  -0.940  -0.309  1.00  0.00     0.161 HD
HETATM   12  C10 UNL     1      -3.297  -2.440  -0.040  1.00  0.00     0.121 C 
HETATM   13  C11 UNL     1      -2.065  -2.568   0.797  1.00  0.00     0.024 C 
HETATM   14  C12 UNL     1      -1.044  -1.489   0.572  1.00  0.00     0.048 C 
ENDROOT
BRANCH   5  15
HETATM   15  N2  UNL     1       0.454   0.880   0.499  1.00  0.00    -0.354 N 
HETATM   16  C4  UNL     1       1.592   0.249   0.888  1.00  0.00     0.092 C 
ATOM     17  H2  UNL     1       0.745   1.852   0.392  1.00  0.00     0.166 HD
BRANCH  16  18
HETATM   18  C5  UNL     1       2.882   0.792   0.271  1.00  0.00     0.315 C 
BRANCH  18  19
HETATM   19  N3  UNL     1       4.008   0.065   0.753  1.00  0.00     0.084 N 
HETATM   20  C6  UNL     1       4.102  -1.299   0.330  1.00  0.00     0.309 C 
HETATM   21  C7  UNL     1       5.263   0.720   0.416  1.00  0.00     0.309 C 
ENDBRANCH  18  19
ENDBRANCH  16  18
ENDBRANCH   5  15
TORSDOF 3
