REMARK  4 active torsions:
REMARK  status: ('A' for Active; 'I' for Inactive)
REMARK    1  A    between atoms: C2_2  and  C6_12 
REMARK    2  A    between atoms: N1_3  and  N2_5 
REMARK    3  A    between atoms: N2_5  and  C3_7 
REMARK    4  A    between atoms: C3_7  and  N3_9 
ROOT
HETATM    1  C1  UNL     1       0.103   1.034   1.271  1.00  0.00     0.070 C 
HETATM    2  C2  UNL     1      -0.426  -0.037   0.383  1.00  0.00     0.036 C 
HETATM    3  N1  UNL     1       0.488  -0.906  -0.005  1.00  0.00    -0.302 N 
ATOM      4  H1  UNL     1       0.187  -1.665  -0.616  1.00  0.00     0.186 HD
ENDROOT
BRANCH   2   5
HETATM    5  C6  UNL     1      -1.788  -0.154  -0.037  1.00  0.00     0.035 A 
HETATM    6  C7  UNL     1      -2.293  -1.139  -0.859  1.00  0.00     0.036 A 
HETATM    7  C8  UNL     1      -1.547  -2.242  -1.455  1.00  0.00     0.070 C 
HETATM    8  N4  UNL     1      -3.608  -0.911  -1.024  1.00  0.00    -0.302 N 
HETATM    9  N5  UNL     1      -3.953   0.171  -0.343  1.00  0.00    -0.300 N 
ATOM     10  H4  UNL     1      -4.240  -1.482  -1.585  1.00  0.00     0.186 HD
HETATM   11  C9  UNL     1      -5.276   0.755  -0.257  1.00  0.00     0.177 C 
HETATM   12  C10 UNL     1      -2.834   0.662   0.281  1.00  0.00     0.038 A 
HETATM   13  C11 UNL     1      -2.843   1.851   1.120  1.00  0.00     0.071 C 
ENDBRANCH   2   5
BRANCH   3  14
HETATM   14  N2  UNL     1       1.807  -0.866   0.349  1.00  0.00    -0.276 N 
ATOM     15  H2  UNL     1       2.113  -1.205   1.261  1.00  0.00     0.189 HD
BRANCH  14  16
HETATM   16  C3  UNL     1       2.755  -0.334  -0.596  1.00  0.00     0.188 C 
HETATM   17  S1  UNL     1       2.252   0.209  -2.060  1.00  0.00    -0.039 SA
BRANCH  16  18
HETATM   18  N3  UNL     1       4.129  -0.258  -0.308  1.00  0.00    -0.366 N 
HETATM   19  C4  UNL     1       5.045   0.276  -1.267  1.00  0.00     0.151 C 
HETATM   20  C5  UNL     1       4.611  -0.722   0.964  1.00  0.00     0.151 C 
ENDBRANCH  16  18
ENDBRANCH  14  16
ENDBRANCH   3  14
TORSDOF 4
