REMARK  5 active torsions:
REMARK  status: ('A' for Active; 'I' for Inactive)
REMARK    1  A    between atoms: C11_11  and  N1_12 
REMARK    2  A    between atoms: N1_12  and  C12_14 
REMARK    3  A    between atoms: C19_22  and  C21_24 
REMARK    4  A    between atoms: C21_24  and  O1_25 
REMARK    5  A    between atoms: C21_24  and  C22_27 
ROOT
HETATM    1  C12 UNL     1      -5.809   1.048  -1.272  1.00  0.00     0.239 C 
HETATM    2  C13 UNL     1      -6.658   2.102  -0.713  1.00  0.00     0.078 C 
HETATM    3  N2  UNL     1      -7.342   2.953  -0.279  1.00  0.00    -0.196 NA
ENDROOT
BRANCH   1   4
HETATM    4  N1  UNL     1      -4.582   1.048  -0.559  1.00  0.00    -0.405 N 
ATOM      5  H1  UNL     1      -4.397   1.702   0.202  1.00  0.00     0.154 HD
BRANCH   4   6
HETATM    6  C11 UNL     1      -3.614   0.067  -0.977  1.00  0.00     0.086 C 
HETATM    7  C9  UNL     1      -2.417   0.266  -0.082  1.00  0.00    -0.016 C 
HETATM    8  C8  UNL     1      -1.554   1.297  -0.780  1.00  0.00     0.012 C 
HETATM    9  C10 UNL     1      -2.847   0.909   1.241  1.00  0.00     0.018 C 
HETATM   10  C17 UNL     1      -1.684  -0.991   0.247  1.00  0.00    -0.031 C 
HETATM   11  C7  UNL     1      -0.237   1.537  -0.073  1.00  0.00     0.007 C 
HETATM   12  C6  UNL     1       0.495   0.204  -0.108  1.00  0.00     0.002 C 
HETATM   13  C5  UNL     1      -0.280  -0.733   0.729  1.00  0.00    -0.001 C 
HETATM   14  C19 UNL     1       1.948   0.311   0.285  1.00  0.00    -0.007 C 
HETATM   15  C4  UNL     1       0.424  -1.999   1.069  1.00  0.00     0.006 C 
HETATM   16  C3  UNL     1       1.666  -1.690   1.814  1.00  0.00     0.005 C 
HETATM   17  C2  UNL     1       2.278  -0.359   1.567  1.00  0.00    -0.007 C 
HETATM   18  C1  UNL     1       2.129   0.563   2.792  1.00  0.00     0.011 C 
HETATM   19  C20 UNL     1       2.323   1.785   0.535  1.00  0.00     0.019 C 
HETATM   20  C16 UNL     1      -1.750  -1.917  -0.914  1.00  0.00     0.010 C 
HETATM   21  C18 UNL     1      -2.406  -1.654   1.430  1.00  0.00     0.016 C 
HETATM   22  C15 UNL     1      -3.175  -2.397  -1.108  1.00  0.00     0.003 C 
HETATM   23  C14 UNL     1      -4.181  -1.306  -1.013  1.00  0.00     0.026 C 
BRANCH  14  24
HETATM   24  C21 UNL     1       2.768  -0.091  -0.911  1.00  0.00     0.160 C 
BRANCH  24  25
HETATM   25  O1  UNL     1       2.668  -1.463  -1.222  1.00  0.00    -0.390 OA
ATOM     26  H1  UNL     1       3.186  -1.717  -1.977  1.00  0.00     0.210 HD
ENDBRANCH  24  25
BRANCH  24  27
HETATM   27  C22 UNL     1       4.171   0.287  -0.927  1.00  0.00    -0.029 A 
HETATM   28  C23 UNL     1       4.608   1.475  -1.495  1.00  0.00     0.013 A 
HETATM   29  C24 UNL     1       5.966   1.820  -1.514  1.00  0.00     0.043 A 
HETATM   30  C25 UNL     1       6.905   0.993  -0.972  1.00  0.00     0.116 A 
HETATM   31  F1  UNL     1       8.216   1.326  -0.990  1.00  0.00    -0.206 F 
HETATM   32  C26 UNL     1       6.509  -0.181  -0.407  1.00  0.00     0.043 A 
HETATM   33  C27 UNL     1       5.168  -0.505  -0.397  1.00  0.00     0.013 A 
ENDBRANCH  24  27
ENDBRANCH  14  24
ENDBRANCH   4   6
ENDBRANCH   1   4
TORSDOF 5
