REMARK  9 active torsions:
REMARK  status: ('A' for Active; 'I' for Inactive)
REMARK    1  A    between atoms: C2_2  and  N1_3 
REMARK       I    between atoms: N1_3  and  C3_5 
REMARK    2  A    between atoms: C3_5  and  C4_7 
REMARK    3  A    between atoms: C4_7  and  C5_8 
REMARK    4  A    between atoms: C7_10  and  C8_11 
REMARK       I    between atoms: N2_14  and  C11_15 
REMARK    5  A    between atoms: C11_15  and  C12_17 
REMARK    6  A    between atoms: C12_17  and  N3_19 
REMARK    7  A    between atoms: N3_19  and  C14_21 
REMARK    8  A    between atoms: C14_21  and  C16_23 
REMARK    9  A    between atoms: C16_23  and  C17_24 
ROOT
HETATM    1  C5  UNL     1       4.190  -0.955  -1.890  1.00  0.00     0.089 C 
HETATM    2  C6  UNL     1       4.458  -1.937  -0.767  1.00  0.00     0.041 C 
HETATM    3  C7  UNL     1       3.038  -2.533  -0.687  1.00  0.00     0.100 C 
HETATM    4  N2  UNL     1       2.240  -1.349  -0.604  1.00  0.00    -0.281 N 
HETATM    5  C11 UNL     1       0.980  -1.148   0.062  1.00  0.00     0.249 C 
HETATM    6  O2  UNL     1       0.550  -2.183   0.609  1.00  0.00    -0.271 OA
HETATM    7  C27 UNL     1       2.898  -0.348  -1.354  1.00  0.00     0.231 C 
HETATM    8  O3  UNL     1       2.634   0.841  -1.634  1.00  0.00    -0.273 OA
ENDROOT
BRANCH   5   9
HETATM    9  C12 UNL     1       0.244   0.087   0.124  1.00  0.00     0.170 C 
HETATM   10  C13 UNL     1       0.954   0.983   1.205  1.00  0.00     0.042 C 
BRANCH   9  11
HETATM   11  N3  UNL     1      -1.135   0.176   0.275  1.00  0.00    -0.384 N 
ATOM     12  H3  UNL     1      -1.618   0.572  -0.531  1.00  0.00     0.160 HD
BRANCH  11  13
HETATM   13  C14 UNL     1      -1.965  -0.172   1.312  1.00  0.00    -0.021 C 
HETATM   14  C15 UNL     1      -2.214  -1.611   1.670  1.00  0.00     0.062 C 
BRANCH  13  15
HETATM   15  C16 UNL     1      -3.177   0.689   1.534  1.00  0.00     0.061 C 
BRANCH  15  16
HETATM   16  C17 UNL     1      -4.180   0.881   0.494  1.00  0.00    -0.035 C 
HETATM   17  C18 UNL     1      -3.807   1.516  -0.784  1.00  0.00     0.014 C 
HETATM   18  C19 UNL     1      -5.073   1.675  -1.644  1.00  0.00    -0.013 C 
HETATM   19  C20 UNL     1      -6.093   2.565  -1.017  1.00  0.00     0.009 C 
HETATM   20  C24 UNL     1      -5.698   0.326  -1.903  1.00  0.00     0.009 C 
HETATM   21  C21 UNL     1      -6.464   1.944   0.313  1.00  0.00    -0.013 C 
HETATM   22  C22 UNL     1      -7.127   0.618   0.127  1.00  0.00     0.009 C 
HETATM   23  C26 UNL     1      -5.246   1.791   1.147  1.00  0.00     0.014 C 
HETATM   24  C23 UNL     1      -6.144  -0.282  -0.597  1.00  0.00    -0.013 C 
HETATM   25  C25 UNL     1      -4.918  -0.450   0.276  1.00  0.00     0.014 C 
ENDBRANCH  15  16
ENDBRANCH  13  15
ENDBRANCH  11  13
ENDBRANCH   9  11
ENDBRANCH   5   9
BRANCH   3  26
HETATM   26  C8  UNL     1       2.923  -3.559   0.352  1.00  0.00     0.001 C 
HETATM   27  C9  UNL     1       3.950  -4.653  -0.030  1.00  0.00     0.011 C 
HETATM   28  C10 UNL     1       3.294  -3.123   1.736  1.00  0.00     0.011 C 
ENDBRANCH   3  26
BRANCH   1  29
HETATM   29  C4  UNL     1       5.240   0.027  -2.172  1.00  0.00     0.117 C 
BRANCH  29  30
HETATM   30  C3  UNL     1       5.617   0.958  -1.112  1.00  0.00     0.218 C 
HETATM   31  N1  UNL     1       6.688   1.898  -1.249  1.00  0.00    -0.361 N 
ATOM     32  H1  UNL     1       7.208   1.912  -2.127  1.00  0.00     0.162 HD
HETATM   33  O1  UNL     1       5.011   0.983  -0.007  1.00  0.00    -0.274 OA
BRANCH  31  34
HETATM   34  C2  UNL     1       7.069   2.818  -0.223  1.00  0.00     0.118 C 
HETATM   35  C1  UNL     1       5.975   3.790   0.174  1.00  0.00     0.026 C 
ENDBRANCH  31  34
ENDBRANCH  29  30
ENDBRANCH   1  29
TORSDOF 9
