REMARK  9 active torsions:
REMARK  status: ('A' for Active; 'I' for Inactive)
REMARK    1  A    between atoms: C4_4  and  C5_5 
REMARK    2  A    between atoms: C5_5  and  C6_6 
REMARK       I    between atoms: C6_6  and  N1_8 
REMARK    3  A    between atoms: N1_8  and  C7_10 
REMARK    4  A    between atoms: C13_17  and  N3_18 
REMARK    5  A    between atoms: N3_18  and  C15_20 
REMARK    6  A    between atoms: C15_20  and  C16_21 
REMARK    7  A    between atoms: C20_25  and  C21_26 
REMARK       I    between atoms: C21_26  and  N4_28 
REMARK    8  A    between atoms: N4_28  and  C22_30 
REMARK    9  A    between atoms: C22_30  and  C24_32 
ROOT
HETATM    1  C7  UNL     1       1.603  -0.456   0.297  1.00  0.00     0.111 C 
HETATM    2  C8  UNL     1       0.967  -1.652  -0.369  1.00  0.00     0.013 C 
HETATM    3  C9  UNL     1       0.894  -2.646   0.769  1.00  0.00     0.009 C 
HETATM    4  C10 UNL     1       0.760  -1.823   2.029  1.00  0.00     0.027 C 
HETATM    5  C11 UNL     1       0.736  -0.400   1.550  1.00  0.00     0.103 C 
HETATM    6  N2  UNL     1      -0.547   0.060   1.210  1.00  0.00    -0.387 N 
HETATM    7  C12 UNL     1      -0.740   1.478   1.222  1.00  0.00     0.154 C 
HETATM    8  C13 UNL     1      -1.876   1.763   0.319  1.00  0.00     0.242 C 
HETATM    9  C19 UNL     1      -1.924   0.626  -0.617  1.00  0.00     0.078 C 
HETATM   10  C20 UNL     1      -1.234  -0.544   0.127  1.00  0.00     0.112 C 
HETATM   11  C27 UNL     1      -0.395  -1.251  -0.865  1.00  0.00     0.047 C 
ENDROOT
BRANCH   1  12
HETATM   12  N1  UNL     1       2.965  -0.800   0.633  1.00  0.00    -0.354 N 
HETATM   13  C6  UNL     1       4.108  -0.036   0.290  1.00  0.00     0.221 C 
HETATM   14  O1  UNL     1       3.932   1.025  -0.357  1.00  0.00    -0.273 OA
ATOM     15  H1  UNL     1       3.116  -1.661   1.159  1.00  0.00     0.163 HD
BRANCH  13  16
HETATM   16  C5  UNL     1       5.465  -0.485   0.691  1.00  0.00     0.130 C 
BRANCH  16  17
HETATM   17  C4  UNL     1       6.548   0.434   0.323  1.00  0.00    -0.016 C 
HETATM   18  C2  UNL     1       7.579   0.183  -0.441  1.00  0.00    -0.091 C 
HETATM   19  C1  UNL     1       8.578   1.241  -0.704  1.00  0.00     0.042 C 
HETATM   20  C3  UNL     1       7.769  -1.146  -1.054  1.00  0.00     0.042 C 
ENDBRANCH  16  17
ENDBRANCH  13  16
ENDBRANCH   1  12
BRANCH  10  21
HETATM   21  C21 UNL     1      -2.357  -1.414   0.563  1.00  0.00     0.246 C 
HETATM   22  O2  UNL     1      -2.629  -1.436   1.810  1.00  0.00    -0.271 OA
HETATM   23  N4  UNL     1      -3.148  -2.216  -0.268  1.00  0.00    -0.354 N 
ATOM     24  H4  UNL     1      -2.956  -2.219  -1.270  1.00  0.00     0.162 HD
BRANCH  23  25
HETATM   25  C22 UNL     1      -4.228  -3.043   0.234  1.00  0.00     0.083 C 
HETATM   26  C23 UNL     1      -5.546  -2.651  -0.392  1.00  0.00     0.032 C 
BRANCH  25  27
HETATM   27  C24 UNL     1      -4.006  -4.509  -0.008  1.00  0.00    -0.000 C 
HETATM   28  C25 UNL     1      -5.169  -5.296   0.546  1.00  0.00     0.011 C 
HETATM   29  C26 UNL     1      -3.886  -4.786  -1.487  1.00  0.00     0.011 C 
ENDBRANCH  25  27
ENDBRANCH  23  25
ENDBRANCH  10  21
BRANCH   8  30
HETATM   30  N3  UNL     1      -1.777   3.032  -0.416  1.00  0.00     0.090 N 
HETATM   31  C14 UNL     1      -0.575   2.994  -1.232  1.00  0.00     0.310 C 
BRANCH  30  32
HETATM   32  C15 UNL     1      -1.876   4.134   0.473  1.00  0.00     0.276 C 
BRANCH  32  33
HETATM   33  C16 UNL     1      -2.190   5.429  -0.170  1.00  0.00     0.006 C 
HETATM   34  C17 UNL     1      -2.283   6.530   0.913  1.00  0.00     0.011 C 
HETATM   35  C18 UNL     1      -1.360   5.897  -1.300  1.00  0.00     0.011 C 
ENDBRANCH  32  33
ENDBRANCH  30  32
ENDBRANCH   8  30
TORSDOF 9
