REMARK  6 active torsions:
REMARK  status: ('A' for Active; 'I' for Inactive)
REMARK    1  A    between atoms: C3_11  and  C4_12 
REMARK    2  A    between atoms: C5_13  and  S1_14 
REMARK    3  A    between atoms: S1_14  and  N4_15 
REMARK    4  A    between atoms: N6_22  and  C6_23 
REMARK    5  A    between atoms: C6_23  and  N7_24 
REMARK       I    between atoms: N7_24  and  C7_25 
REMARK       I    between atoms: C7_25  and  N8_27 
REMARK    6  A    between atoms: N8_27  and  N9_28 
ROOT
HETATM    1  N1  UNL     1       2.065  -1.317  -1.711  1.00  0.00    -0.231 N 
ATOM      2  H11 UNL     1       2.668  -1.567  -0.928  1.00  0.00     0.174 HD
ATOM      3  H12 UNL     1       2.275  -1.638  -2.656  1.00  0.00     0.174 HD
HETATM    4  C1  UNL     1       1.046  -0.626  -1.501  1.00  0.00     0.713 C 
HETATM    5  N2  UNL     1       0.188  -0.270  -2.615  1.00  0.00    -0.128 N 
ATOM      6  H2  UNL     1       0.658  -0.136  -3.510  1.00  0.00     0.205 HD
HETATM    7  N3  UNL     1      -1.212  -0.084  -2.624  1.00  0.00    -0.250 N 
ATOM      8  H3  UNL     1      -1.636   0.209  -3.504  1.00  0.00     0.191 HD
HETATM    9  C2  UNL     1      -2.091  -0.271  -1.504  1.00  0.00     0.288 C 
HETATM   10  O1  UNL     1      -3.246  -0.679  -1.733  1.00  0.00    -0.264 OA
HETATM   11  C3  UNL     1      -1.717  -0.014  -0.118  1.00  0.00     0.119 C 
HETATM   12  N5  UNL     1      -0.500   0.020   0.422  1.00  0.00    -0.273 N 
ATOM     13  H5  UNL     1      -0.474   0.219   1.422  1.00  0.00     0.188 HD
HETATM   14  N6  UNL     1       0.752  -0.177  -0.181  1.00  0.00    -0.067 N 
ENDROOT
BRANCH  11  15
HETATM   15  C4  UNL     1      -2.746   0.266   0.835  1.00  0.00     0.050 C 
HETATM   16  C5  UNL     1      -4.043   0.352   0.688  1.00  0.00     0.133 C 
BRANCH  16  17
HETATM   17  S1  UNL     1      -5.054   0.704   2.067  1.00  0.00     0.246 S 
HETATM   18  O2  UNL     1      -5.618   2.097   1.927  1.00  0.00    -0.202 OA
HETATM   19  O3  UNL     1      -4.215   0.576   3.313  1.00  0.00    -0.202 OA
BRANCH  17  20
HETATM   20  N4  UNL     1      -6.409  -0.350   2.217  1.00  0.00    -0.325 N 
ATOM     21  H42 UNL     1      -6.589  -1.104   1.554  1.00  0.00     0.169 HD
ATOM     22  H41 UNL     1      -7.000  -0.144   3.023  1.00  0.00     0.169 HD
ENDBRANCH  17  20
ENDBRANCH  16  17
ENDBRANCH  11  15
BRANCH  14  23
HETATM   23  C6  UNL     1       1.922   0.138   0.645  1.00  0.00     0.324 C 
BRANCH  23  24
HETATM   24  N7  UNL     1       3.149   0.180   0.145  1.00  0.00    -0.331 NA
HETATM   25  C7  UNL     1       4.458   0.236  -0.403  1.00  0.00     0.492 C 
HETATM   26  O4  UNL     1       4.722   0.879  -1.464  1.00  0.00    -0.212 OA
HETATM   27  N8  UNL     1       5.438  -0.439   0.312  1.00  0.00    -0.260 NA
BRANCH  27  28
HETATM   28  N9  UNL     1       6.359  -1.074   0.984  1.00  0.00    -0.274 N 
ATOM     29  H92 UNL     1       5.630  -0.597   0.454  1.00  0.00     0.192 HD
ATOM     30  H91 UNL     1       7.079  -1.570   1.509  1.00  0.00     0.192 HD
ENDBRANCH  27  28
ENDBRANCH  23  24
ENDBRANCH  14  23
TORSDOF 6
