REMARK  10 active torsions:
REMARK  status: ('A' for Active; 'I' for Inactive)
REMARK    1  A    between atoms: C5_5  and  C6_6 
REMARK    2  A    between atoms: C6_6  and  C7_7 
REMARK    3  A    between atoms: C7_7  and  C8_8 
REMARK    4  A    between atoms: C8_8  and  N1_9 
REMARK    5  A    between atoms: N1_9  and  C9_12 
REMARK    6  A    between atoms: C9_12  and  C10_13 
REMARK    7  A    between atoms: C10_13  and  C11_14 
REMARK    8  A    between atoms: C11_14  and  C12_15 
REMARK    9  A    between atoms: C12_15  and  O2_17 
REMARK   10  A    between atoms: O2_17  and  C13_18 
ROOT
HETATM    1  N1  UNL     1      -0.997  -0.819   0.542  1.00  0.00    -0.075 N 
ATOM      2  H11 UNL     1      -0.334  -1.258   1.181  1.00  0.00     0.277 HD
ATOM      3  H12 UNL     1      -1.705  -1.551   0.497  1.00  0.00     0.277 HD
ENDROOT
BRANCH   1   4
HETATM    4  C8  UNL     1      -0.401  -0.623  -0.737  1.00  0.00     0.232 C 
BRANCH   4   5
HETATM    5  C7  UNL     1       0.866   0.202  -0.727  1.00  0.00     0.028 C 
BRANCH   5   6
HETATM    6  C6  UNL     1       1.871  -0.501   0.136  1.00  0.00     0.006 C 
BRANCH   6   7
HETATM    7  C5  UNL     1       3.189   0.226   0.215  1.00  0.00    -0.012 C 
HETATM    8  C4  UNL     1       3.846   0.391  -1.124  1.00  0.00     0.005 C 
HETATM    9  C3  UNL     1       5.221  -0.231  -1.212  1.00  0.00     0.007 C 
HETATM   10  C2  UNL     1       6.107   0.134  -0.065  1.00  0.00     0.015 C 
HETATM   11  C1  UNL     1       6.921   1.394  -0.357  1.00  0.00     0.012 C 
HETATM   12  C18 UNL     1       5.388   0.295   1.246  1.00  0.00     0.174 C 
HETATM   13  C17 UNL     1       4.102  -0.504   1.175  1.00  0.00     0.042 C 
HETATM   14  F1  UNL     1       5.103   1.651   1.407  1.00  0.00    -0.249 F 
ENDBRANCH   6   7
ENDBRANCH   5   6
ENDBRANCH   4   5
ENDBRANCH   1   4
BRANCH   1  15
HETATM   15  C9  UNL     1      -1.547   0.381   1.129  1.00  0.00     0.232 C 
BRANCH  15  16
HETATM   16  C10 UNL     1      -2.151  -0.070   2.471  1.00  0.00     0.037 C 
BRANCH  16  17
HETATM   17  C11 UNL     1      -3.208  -1.122   2.123  1.00  0.00     0.113 C 
BRANCH  17  18
HETATM   18  C12 UNL     1      -4.187  -0.430   1.258  1.00  0.00     0.259 C 
HETATM   19  O1  UNL     1      -4.788   0.619   1.606  1.00  0.00    -0.265 OA
BRANCH  18  20
HETATM   20  O2  UNL     1      -4.458  -0.951   0.007  1.00  0.00    -0.311 OA
BRANCH  20  21
HETATM   21  C13 UNL     1      -5.362  -0.379  -0.886  1.00  0.00     0.060 C 
HETATM   22  C14 UNL     1      -5.012   1.052  -1.257  1.00  0.00     0.045 C 
HETATM   23  C15 UNL     1      -6.744  -0.485  -0.316  1.00  0.00     0.045 C 
HETATM   24  C16 UNL     1      -5.240  -1.163  -2.202  1.00  0.00     0.045 C 
ENDBRANCH  20  21
ENDBRANCH  18  20
ENDBRANCH  17  18
ENDBRANCH  16  17
ENDBRANCH  15  16
ENDBRANCH   1  15
TORSDOF 10
