REMARK  0 active torsions:
REMARK  status: ('A' for Active; 'I' for Inactive)
ROOT
HETATM    1  C1  UNL     1      -1.800  -0.890  -0.146  1.00  0.00     0.043 C 
HETATM    2  C2  UNL     1      -0.657   0.084  -0.066  1.00  0.00    -0.082 A 
HETATM    3  C3  UNL     1       0.638  -0.114   0.049  1.00  0.00    -0.082 A 
HETATM    4  C4  UNL     1       1.566  -1.295   0.150  1.00  0.00     0.043 C 
HETATM    5  C5  UNL     1       0.883   1.335   0.044  1.00  0.00     0.038 A 
HETATM    6  C6  UNL     1      -0.577   1.551  -0.085  1.00  0.00     0.038 A 
ENDROOT
TORSDOF 0
