REMARK  6 active torsions:
REMARK  status: ('A' for Active; 'I' for Inactive)
REMARK    1  A    between atoms: C6_9  and  N3_10 
REMARK    2  A    between atoms: N4_13  and  C9_14 
REMARK    3  A    between atoms: C9_14  and  C10_15 
REMARK    4  A    between atoms: N5_19  and  C14_20 
REMARK    5  A    between atoms: C14_20  and  C15_21 
REMARK    6  A    between atoms: C15_21  and  O1_22 
ROOT
HETATM    1  N1  UNL     1      11.164  -0.098  -1.153  1.00  0.00    -0.191 NA
HETATM    2  C1  UNL     1      10.075   0.162  -0.866  1.00  0.00     0.099 C 
HETATM    3  C2  UNL     1       8.713   0.500  -0.502  1.00  0.00     0.045 A 
HETATM    4  C3  UNL     1       8.478   1.673   0.193  1.00  0.00     0.025 A 
HETATM    5  C4  UNL     1       7.183   1.992   0.538  1.00  0.00     0.032 A 
HETATM    6  C5  UNL     1       6.139   1.156   0.197  1.00  0.00     0.044 A 
HETATM    7  N2  UNL     1       4.801   1.242   0.415  1.00  0.00    -0.342 N 
ATOM      8  H2  UNL     1       4.349   2.012   0.908  1.00  0.00     0.167 HD
HETATM    9  C6  UNL     1       4.152   0.194  -0.097  1.00  0.00     0.104 A 
HETATM   10  C20 UNL     1       5.118  -0.612  -0.676  1.00  0.00     0.062 A 
HETATM   11  C21 UNL     1       6.348  -0.019  -0.496  1.00  0.00    -0.004 A 
HETATM   12  C22 UNL     1       7.650  -0.324  -0.834  1.00  0.00     0.036 A 
ENDROOT
BRANCH   9  13
HETATM   13  N3  UNL     1       2.738  -0.094  -0.085  1.00  0.00    -0.364 N 
HETATM   14  C7  UNL     1       1.835   0.839   0.550  1.00  0.00     0.154 C 
HETATM   15  C8  UNL     1       0.901   0.058   1.412  1.00  0.00     0.292 C 
HETATM   16  N4  UNL     1       0.160  -0.851   0.591  1.00  0.00     0.095 N 
HETATM   17  C18 UNL     1       0.949  -1.806  -0.113  1.00  0.00     0.292 C 
HETATM   18  C19 UNL     1       2.223  -1.275  -0.688  1.00  0.00     0.154 C 
BRANCH  16  19
HETATM   19  C9  UNL     1      -0.844  -0.212  -0.221  1.00  0.00     0.300 C 
BRANCH  19  20
HETATM   20  C10 UNL     1      -1.973   0.359   0.528  1.00  0.00     0.006 C 
HETATM   21  C11 UNL     1      -3.234  -0.018   0.335  1.00  0.00    -0.079 C 
HETATM   22  C12 UNL     1      -4.361   0.591   1.124  1.00  0.00     0.064 C 
HETATM   23  C17 UNL     1      -3.648  -1.048  -0.656  1.00  0.00     0.064 C 
HETATM   24  C13 UNL     1      -5.421  -0.436   1.360  1.00  0.00     0.277 C 
HETATM   25  N5  UNL     1      -5.945  -0.988   0.148  1.00  0.00     0.091 N 
HETATM   26  C16 UNL     1      -5.121  -0.786  -1.001  1.00  0.00     0.277 C 
BRANCH  25  27
HETATM   27  C14 UNL     1      -7.306  -0.635  -0.110  1.00  0.00     0.298 C 
BRANCH  27  28
HETATM   28  C15 UNL     1      -7.517   0.814  -0.425  1.00  0.00     0.194 C 
BRANCH  28  29
HETATM   29  O1  UNL     1      -8.881   1.023  -0.653  1.00  0.00    -0.399 OA
ATOM     30  H1  UNL     1      -9.015   1.942  -0.853  1.00  0.00     0.209 HD
ENDBRANCH  28  29
ENDBRANCH  27  28
ENDBRANCH  25  27
ENDBRANCH  19  20
ENDBRANCH  16  19
ENDBRANCH   9  13
TORSDOF 6
