REMARK  13 active torsions:
REMARK  status: ('A' for Active; 'I' for Inactive)
REMARK    1  A    between atoms: C2_2  and  S1_4 
REMARK    2  A    between atoms: S1_4  and  C4_7 
REMARK    3  A    between atoms: C9_12  and  N1_13 
REMARK    4  A    between atoms: N1_13  and  C10_15 
REMARK    5  A    between atoms: C11_18  and  N3_19 
REMARK    6  A    between atoms: N3_19  and  C12_21 
REMARK    7  A    between atoms: C12_21  and  C13_22 
REMARK    8  A    between atoms: C13_22  and  C14_23 
REMARK    9  A    between atoms: C14_23  and  N4_24 
REMARK   10  A    between atoms: C17_29  and  N6_30 
REMARK   11  A    between atoms: N6_30  and  C18_32 
REMARK   12  A    between atoms: C23_41  and  C24_42 
REMARK   13  A    between atoms: C24_42  and  C25_43 
ROOT
HETATM    1  C10 UNL     1      -0.649  -1.369  -0.730  1.00  0.00     0.711 A 
HETATM    2  N2  UNL     1      -1.280  -0.226  -0.994  1.00  0.00    -0.021 N 
ATOM      3  H2  UNL     1      -2.186  -0.234  -1.462  1.00  0.00     0.203 HD
HETATM    4  C11 UNL     1      -0.703   0.952  -0.632  1.00  0.00     0.707 A 
HETATM    5  N5  UNL     1       0.488   0.967  -0.016  1.00  0.00    -0.021 N 
ATOM      6  H5  UNL     1       0.902   1.862   0.245  1.00  0.00     0.203 HD
HETATM    7  C17 UNL     1       1.146  -0.164   0.265  1.00  0.00     0.711 A 
HETATM    8  N10 UNL     1       0.565  -1.313  -0.098  1.00  0.00    -0.021 N 
ATOM      9  H10 UNL     1       1.048  -2.188   0.105  1.00  0.00     0.203 HD
ENDROOT
BRANCH   7  10
HETATM   10  N6  UNL     1       2.302  -0.201   0.874  1.00  0.00    -0.190 N 
ATOM     11  H6  UNL     1       2.754  -1.097   1.058  1.00  0.00     0.184 HD
BRANCH  10  12
HETATM   12  C18 UNL     1       2.919   0.991   1.274  1.00  0.00     0.063 A 
HETATM   13  C19 UNL     1       2.417   1.755   2.320  1.00  0.00     0.031 A 
HETATM   14  C20 UNL     1       2.979   2.943   2.709  1.00  0.00     0.005 A 
HETATM   15  C21 UNL     1       4.087   3.398   2.034  1.00  0.00     0.032 A 
HETATM   16  C22 UNL     1       4.620   2.680   0.996  1.00  0.00     0.062 A 
HETATM   17  N7  UNL     1       5.680   2.907   0.174  1.00  0.00    -0.300 N 
HETATM   18  C30 UNL     1       4.048   1.479   0.608  1.00  0.00     0.043 A 
HETATM   19  N8  UNL     1       5.776   1.922  -0.670  1.00  0.00    -0.303 N 
ATOM     20  H7  UNL     1       6.298   3.717   0.213  1.00  0.00     0.187 HD
HETATM   21  C23 UNL     1       4.775   0.993  -0.441  1.00  0.00     0.044 A 
ATOM     22  H8  UNL     1       6.487   1.845  -1.397  1.00  0.00     0.186 HD
BRANCH  21  23
HETATM   23  C24 UNL     1       4.685  -0.268  -1.188  1.00  0.00     0.099 C 
BRANCH  23  24
HETATM   24  C25 UNL     1       5.429  -1.399  -0.598  1.00  0.00    -0.037 A 
HETATM   25  C26 UNL     1       6.818  -1.370  -0.497  1.00  0.00     0.010 A 
HETATM   26  C27 UNL     1       7.460  -2.464   0.016  1.00  0.00     0.018 A 
HETATM   27  C28 UNL     1       6.789  -3.588   0.434  1.00  0.00     0.087 A 
HETATM   28  N9  UNL     1       5.450  -3.598   0.328  1.00  0.00    -0.375 N 
HETATM   29  C29 UNL     1       4.802  -2.527  -0.175  1.00  0.00     0.095 A 
ATOM     30  H9  UNL     1       4.922  -4.417   0.629  1.00  0.00     0.164 HD
ENDBRANCH  23  24
ENDBRANCH  21  23
ENDBRANCH  10  12
ENDBRANCH   7  10
BRANCH   4  31
HETATM   31  N3  UNL     1      -1.294   2.088  -0.876  1.00  0.00    -0.225 N 
ATOM     32  H3  UNL     1      -0.825   2.947  -0.588  1.00  0.00     0.177 HD
BRANCH  31  33
HETATM   33  C12 UNL     1      -2.563   2.198  -1.525  1.00  0.00     0.140 C 
BRANCH  33  34
HETATM   34  C13 UNL     1      -2.981   3.662  -1.475  1.00  0.00     0.050 C 
BRANCH  34  35
HETATM   35  C14 UNL     1      -3.076   4.083  -0.026  1.00  0.00     0.273 C 
BRANCH  35  36
HETATM   36  N4  UNL     1      -3.463   5.445   0.140  1.00  0.00     0.080 N 
HETATM   37  C15 UNL     1      -2.483   6.392  -0.296  1.00  0.00     0.309 C 
HETATM   38  C16 UNL     1      -4.004   5.755   1.425  1.00  0.00     0.309 C 
ENDBRANCH  35  36
ENDBRANCH  34  35
ENDBRANCH  33  34
ENDBRANCH  31  33
ENDBRANCH   4  31
BRANCH   1  39
HETATM   39  N1  UNL     1      -1.072  -2.517  -1.034  1.00  0.00    -0.189 N 
ATOM     40  H1  UNL     1      -0.467  -3.290  -0.756  1.00  0.00     0.184 HD
BRANCH  39  41
HETATM   41  C9  UNL     1      -2.243  -2.888  -1.694  1.00  0.00     0.070 A 
HETATM   42  C4  UNL     1      -3.085  -3.843  -1.203  1.00  0.00     0.086 A 
HETATM   43  C5  UNL     1      -4.204  -4.167  -2.000  1.00  0.00     0.026 A 
HETATM   44  C6  UNL     1      -4.468  -3.581  -3.203  1.00  0.00     0.002 A 
HETATM   45  C7  UNL     1      -3.594  -2.625  -3.657  1.00  0.00     0.002 A 
HETATM   46  C8  UNL     1      -2.495  -2.268  -2.936  1.00  0.00     0.031 A 
BRANCH  42  47
HETATM   47  S1  UNL     1      -2.946  -4.690   0.297  1.00  0.00     0.181 S 
HETATM   48  O1  UNL     1      -1.516  -5.243   0.344  1.00  0.00    -0.222 OA
HETATM   49  O2  UNL     1      -3.872  -5.901   0.297  1.00  0.00    -0.222 OA
BRANCH  47  50
HETATM   50  C2  UNL     1      -3.299  -3.783   1.750  1.00  0.00     0.105 C 
HETATM   51  C1  UNL     1      -3.486  -4.857   2.902  1.00  0.00     0.026 C 
HETATM   52  C3  UNL     1      -2.154  -2.977   2.233  1.00  0.00     0.026 C 
ENDBRANCH  47  50
ENDBRANCH  42  47
ENDBRANCH  39  41
ENDBRANCH   1  39
TORSDOF 13
