REMARK  10 active torsions:
REMARK  status: ('A' for Active; 'I' for Inactive)
REMARK    1  A    between atoms: C2_2  and  N1_3 
REMARK       I    between atoms: N1_3  and  C3_4 
REMARK    2  A    between atoms: N1_3  and  C15_20 
REMARK    3  A    between atoms: C3_4  and  C4_6 
REMARK    4  A    between atoms: C4_6  and  C5_7 
REMARK    5  A    between atoms: C5_7  and  C6_8 
REMARK    6  A    between atoms: C6_8  and  N2_9 
REMARK    7  A    between atoms: N4_23  and  C17_24 
REMARK    8  A    between atoms: C17_24  and  C18_25 
REMARK    9  A    between atoms: N6_35  and  C25_37 
REMARK   10  A    between atoms: C25_37  and  C26_38 
ROOT
HETATM    1  C15 UNL     1      -1.080   0.140  -0.461  1.00  0.00     0.134 A 
HETATM    2  C16 UNL     1      -1.127  -1.145   0.020  1.00  0.00     0.164 A 
HETATM    3  N3  UNL     1      -0.045  -1.994  -0.314  1.00  0.00    -0.079 NA
HETATM    4  N4  UNL     1      -2.158  -1.565   0.765  1.00  0.00    -0.271 N 
HETATM    5  N5  UNL     1      -3.126  -0.729   1.030  1.00  0.00    -0.278 N 
ATOM      6  H5  UNL     1      -3.904  -1.064   1.599  1.00  0.00     0.189 HD
HETATM    7  C24 UNL     1      -3.163   0.570   0.592  1.00  0.00     0.173 A 
HETATM    8  N6  UNL     1      -4.165   1.286   0.915  1.00  0.00    -0.347 N 
ATOM      9  H6  UNL     1      -4.887   0.847   1.486  1.00  0.00     0.167 HD
HETATM   10  C32 UNL     1      -2.111   1.011  -0.172  1.00  0.00     0.247 A 
HETATM   11  O4  UNL     1      -2.071   2.204  -0.617  1.00  0.00    -0.282 OA
ENDROOT
BRANCH   1  12
HETATM   12  N1  UNL     1       0.003   0.621  -1.242  1.00  0.00    -0.312 N 
HETATM   13  C3  UNL     1       1.280   0.717  -0.596  1.00  0.00     0.224 C 
HETATM   14  O1  UNL     1       1.439   0.398   0.614  1.00  0.00    -0.273 OA
BRANCH  12  15
HETATM   15  C2  UNL     1      -0.150   1.005  -2.609  1.00  0.00     0.128 C 
HETATM   16  C1  UNL     1       0.076  -0.094  -3.602  1.00  0.00     0.027 C 
ENDBRANCH  12  15
BRANCH  13  17
HETATM   17  C4  UNL     1       2.493   1.204  -1.330  1.00  0.00     0.105 C 
BRANCH  17  18
HETATM   18  C5  UNL     1       3.705   0.904  -0.474  1.00  0.00     0.029 C 
BRANCH  18  19
HETATM   19  C6  UNL     1       4.970   1.373  -1.147  1.00  0.00     0.136 C 
BRANCH  19  20
HETATM   20  N2  UNL     1       6.115   1.038  -0.282  1.00  0.00    -0.280 N 
HETATM   21  C7  UNL     1       6.716   1.800   0.748  1.00  0.00     0.261 A 
HETATM   22  O2  UNL     1       6.358   2.938   1.107  1.00  0.00    -0.267 OA
HETATM   23  C8  UNL     1       7.832   1.034   1.327  1.00  0.00     0.048 A 
HETATM   24  C9  UNL     1       8.749   1.276   2.335  1.00  0.00     0.018 A 
HETATM   25  C13 UNL     1       7.906  -0.175   0.657  1.00  0.00     0.048 A 
HETATM   26  C10 UNL     1       9.728   0.372   2.703  1.00  0.00     0.001 A 
HETATM   27  C11 UNL     1       9.782  -0.830   2.019  1.00  0.00     0.001 A 
HETATM   28  C12 UNL     1       8.889  -1.108   1.010  1.00  0.00     0.018 A 
HETATM   29  C14 UNL     1       6.846  -0.187  -0.344  1.00  0.00     0.261 A 
HETATM   30  O3  UNL     1       6.629  -1.149  -1.136  1.00  0.00    -0.267 OA
ENDBRANCH  19  20
ENDBRANCH  18  19
ENDBRANCH  17  18
ENDBRANCH  13  17
ENDBRANCH   1  12
BRANCH   4  31
HETATM   31  C17 UNL     1      -2.222  -2.892   1.277  1.00  0.00     0.189 C 
BRANCH  31  32
HETATM   32  C18 UNL     1      -2.932  -3.868   0.409  1.00  0.00    -0.038 A 
HETATM   33  C19 UNL     1      -2.304  -4.736  -0.454  1.00  0.00     0.012 A 
HETATM   34  C20 UNL     1      -3.006  -5.643  -1.258  1.00  0.00     0.043 A 
HETATM   35  C21 UNL     1      -4.380  -5.693  -1.208  1.00  0.00     0.116 A 
HETATM   36  F1  UNL     1      -5.079  -6.559  -1.973  1.00  0.00    -0.206 F 
HETATM   37  C22 UNL     1      -5.021  -4.831  -0.348  1.00  0.00     0.043 A 
HETATM   38  C23 UNL     1      -4.334  -3.941   0.441  1.00  0.00     0.012 A 
ENDBRANCH  31  32
ENDBRANCH   4  31
BRANCH   8  39
HETATM   39  C25 UNL     1      -4.361   2.632   0.551  1.00  0.00     0.101 C 
BRANCH  39  40
HETATM   40  C26 UNL     1      -5.663   3.141   1.138  1.00  0.00    -0.021 A 
HETATM   41  C27 UNL     1      -6.064   4.409   0.870  1.00  0.00     0.016 A 
HETATM   42  C28 UNL     1      -7.243   4.881   1.399  1.00  0.00     0.043 A 
HETATM   43  C29 UNL     1      -8.025   4.085   2.199  1.00  0.00     0.116 A 
HETATM   44  F2  UNL     1      -9.201   4.543   2.732  1.00  0.00    -0.206 F 
HETATM   45  C30 UNL     1      -7.617   2.791   2.473  1.00  0.00     0.043 A 
HETATM   46  C31 UNL     1      -6.427   2.330   1.933  1.00  0.00     0.016 A 
ENDBRANCH  39  40
ENDBRANCH   8  39
TORSDOF 10
