REMARK  7 active torsions:
REMARK  status: ('A' for Active; 'I' for Inactive)
REMARK    1  A    between atoms: C2_2  and  C3_3 
REMARK    2  A    between atoms: C3_3  and  C4_4 
REMARK    3  A    between atoms: C4_4  and  C5_5 
REMARK    4  A    between atoms: C5_5  and  N1_6 
REMARK    5  A    between atoms: N3_15  and  C11_16 
REMARK    6  A    between atoms: C11_16  and  C12_17 
REMARK    7  A    between atoms: C15_23  and  N5_24 
ROOT
HETATM    1  N1  UNL     1       0.567  -0.290  -0.601  1.00  0.00    -0.226 N 
ATOM      2  H1  UNL     1       0.175  -1.154  -0.227  1.00  0.00     0.177 HD
HETATM    3  C6  UNL     1      -0.025   0.783  -0.292  1.00  0.00     0.675 C 
HETATM    4  N2  UNL     1       0.514   1.993  -0.805  1.00  0.00    -0.226 N 
ATOM      5  H2  UNL     1       1.521   2.056  -0.954  1.00  0.00     0.177 HD
HETATM    6  C7  UNL     1      -0.326   3.164  -1.132  1.00  0.00     0.138 C 
HETATM    7  C8  UNL     1      -0.863   3.807   0.091  1.00  0.00     0.022 C 
HETATM    8  C9  UNL     1      -1.119   2.927   1.256  1.00  0.00     0.022 C 
HETATM    9  C10 UNL     1      -1.979   1.741   1.039  1.00  0.00     0.147 C 
HETATM   10  N3  UNL     1      -1.204   0.622   0.564  1.00  0.00    -0.193 N 
ENDROOT
BRANCH  10  11
HETATM   11  C11 UNL     1      -1.517  -0.712   0.890  1.00  0.00     0.126 C 
BRANCH  11  12
HETATM   12  C12 UNL     1      -2.198  -1.531  -0.097  1.00  0.00     0.057 A 
HETATM   13  C13 UNL     1      -2.477  -2.899   0.123  1.00  0.00     0.088 A 
HETATM   14  C14 UNL     1      -2.092  -3.682   1.351  1.00  0.00     0.080 C 
HETATM   15  O1  UNL     1      -3.106  -3.323  -0.910  1.00  0.00    -0.240 OA
HETATM   16  N4  UNL     1      -3.281  -2.408  -1.787  1.00  0.00    -0.244 N 
HETATM   17  C15 UNL     1      -2.723  -1.245  -1.320  1.00  0.00     0.133 A 
ATOM     18  H4  UNL     1      -3.755  -2.524  -2.682  1.00  0.00     0.196 HD
BRANCH  17  19
HETATM   19  N5  UNL     1      -2.820  -0.185  -2.026  1.00  0.00    -0.383 N 
ATOM     20  H52 UNL     1      -2.405   0.680  -1.679  1.00  0.00     0.157 HD
ATOM     21  H51 UNL     1      -3.213   0.029  -2.942  1.00  0.00     0.157 HD
ENDBRANCH  17  19
ENDBRANCH  11  12
ENDBRANCH  10  11
BRANCH   1  22
HETATM   22  C5  UNL     1       1.716  -0.413  -1.411  1.00  0.00     0.138 C 
BRANCH  22  23
HETATM   23  C4  UNL     1       2.883  -0.941  -0.591  1.00  0.00     0.024 C 
BRANCH  23  24
HETATM   24  C3  UNL     1       3.218  -0.031   0.561  1.00  0.00     0.028 C 
BRANCH  24  25
HETATM   25  C2  UNL     1       4.351  -0.606   1.313  1.00  0.00    -0.037 C 
HETATM   26  C1  UNL     1       4.897  -1.735   0.953  1.00  0.00     0.007 C 
ENDBRANCH  24  25
ENDBRANCH  23  24
ENDBRANCH  22  23
ENDBRANCH   1  22
TORSDOF 7
