REMARK  6 active torsions:
REMARK  status: ('A' for Active; 'I' for Inactive)
REMARK    1  A    between atoms: C2_2  and  C4_4 
REMARK    2  A    between atoms: C11_11  and  O1_12 
REMARK    3  A    between atoms: C12_14  and  O2_16 
REMARK    4  A    between atoms: C14_18  and  O3_19 
REMARK    5  A    between atoms: O3_19  and  C15_20 
REMARK    6  A    between atoms: C15_20  and  C16_22 
ROOT
HETATM    1  C4  UNL     1      -2.620  -0.932   0.183  1.00  0.00     0.022 C 
HETATM    2  C5  UNL     1      -3.818  -0.014  -0.032  1.00  0.00     0.010 C 
HETATM    3  C6  UNL     1      -3.607   1.425  -0.025  1.00  0.00     0.001 C 
HETATM    4  C7  UNL     1      -2.271   1.993   0.267  1.00  0.00     0.010 C 
HETATM    5  C8  UNL     1      -1.264   0.990   0.690  1.00  0.00    -0.029 C 
HETATM    6  C9  UNL     1      -1.708   0.609   2.121  1.00  0.00     0.016 C 
HETATM    7  C10 UNL     1       0.127   1.362   0.814  1.00  0.00     0.037 C 
HETATM    8  C11 UNL     1       0.793   2.403   0.046  1.00  0.00     0.160 C 
HETATM    9  C12 UNL     1       2.259   1.890   0.165  1.00  0.00     0.107 C 
HETATM   10  C13 UNL     1       3.041   2.756  -0.755  1.00  0.00     0.051 C 
HETATM   11  C14 UNL     1       2.019   0.505  -0.297  1.00  0.00     0.177 C 
HETATM   12  C18 UNL     1       0.856   0.051   0.589  1.00  0.00    -0.007 C 
HETATM   13  C19 UNL     1       1.333  -0.614   1.841  1.00  0.00     0.018 C 
HETATM   14  C20 UNL     1      -0.096  -0.865  -0.111  1.00  0.00     0.023 C 
HETATM   15  C21 UNL     1      -1.423  -0.186  -0.267  1.00  0.00    -0.028 C 
HETATM   16  C22 UNL     1      -1.632   0.185  -1.684  1.00  0.00     0.016 C 
ENDROOT
BRANCH  11  17
HETATM   17  O3  UNL     1       3.048  -0.382  -0.377  1.00  0.00    -0.312 OA
BRANCH  17  18
HETATM   18  C15 UNL     1       3.533  -1.100  -1.414  1.00  0.00     0.258 C 
HETATM   19  O4  UNL     1       2.943  -0.928  -2.493  1.00  0.00    -0.265 OA
BRANCH  18  20
HETATM   20  C16 UNL     1       4.671  -2.040  -1.368  1.00  0.00     0.106 C 
HETATM   21  C17 UNL     1       5.261  -2.114   0.038  1.00  0.00     0.015 C 
ENDBRANCH  18  20
ENDBRANCH  17  18
ENDBRANCH  11  17
BRANCH   9  22
HETATM   22  O2  UNL     1       2.539   2.039   1.497  1.00  0.00    -0.385 OA
ATOM     23  H2  UNL     1       3.433   1.726   1.570  1.00  0.00     0.210 HD
ENDBRANCH   9  22
BRANCH   8  24
HETATM   24  O1  UNL     1       0.594   2.621  -1.252  1.00  0.00    -0.392 OA
ATOM     25  H1  UNL     1       1.029   3.301  -1.753  1.00  0.00     0.210 HD
ENDBRANCH   8  24
BRANCH   1  26
HETATM   26  C2  UNL     1      -2.870  -2.259  -0.434  1.00  0.00    -0.088 C 
HETATM   27  C1  UNL     1      -2.188  -2.878  -1.355  1.00  0.00     0.014 C 
HETATM   28  C3  UNL     1      -4.084  -3.046   0.067  1.00  0.00     0.043 C 
ENDBRANCH   1  26
TORSDOF 6
