REMARK  4 active torsions:
REMARK  status: ('A' for Active; 'I' for Inactive)
REMARK    1  A    between atoms: N1_2  and  C2_4 
REMARK    2  A    between atoms: C2_4  and  C4_6 
REMARK       I    between atoms: C4_6  and  N2_8 
REMARK    3  A    between atoms: N2_8  and  C5_10 
REMARK    4  A    between atoms: C5_10  and  C6_11 
ROOT
HETATM    1  C5  UNL     1      -0.709   0.398  -0.152  1.00  0.00     0.207 C 
HETATM    2  C7  UNL     1      -0.953  -1.068  -0.342  1.00  0.00     0.202 C 
HETATM    3  O3  UNL     1      -0.221  -1.974  -0.549  1.00  0.00    -0.292 OA
HETATM    4  C8  UNL     1      -2.438  -1.260  -0.211  1.00  0.00     0.182 C 
HETATM    5  C9  UNL     1      -2.897  -1.923  -1.480  1.00  0.00     0.054 C 
HETATM    6  C10 UNL     1      -2.703  -2.272   0.907  1.00  0.00     0.054 C 
HETATM    7  N4  UNL     1      -3.002   0.017   0.026  1.00  0.00    -0.048 N 
ATOM      8  H41 UNL     1      -3.796  -0.011   0.666  1.00  0.00     0.279 HD
ATOM      9  H42 UNL     1      -3.497   0.390  -0.784  1.00  0.00     0.279 HD
HETATM   10  C11 UNL     1      -1.902   0.911   0.500  1.00  0.00     0.161 C 
HETATM   11  C12 UNL     1      -2.369   2.295   0.126  1.00  0.00     0.049 C 
HETATM   12  C13 UNL     1      -1.880   0.855   2.013  1.00  0.00     0.049 C 
ENDROOT
BRANCH   1  13
HETATM   13  N2  UNL     1       0.549   0.474   0.572  1.00  0.00    -0.333 N 
HETATM   14  C4  UNL     1       1.706   0.064  -0.091  1.00  0.00     0.241 C 
HETATM   15  O1  UNL     1       1.795  -0.345  -1.289  1.00  0.00    -0.271 OA
ATOM     16  H2  UNL     1       0.585   0.816   1.532  1.00  0.00     0.164 HD
BRANCH  14  17
HETATM   17  C2  UNL     1       3.098   0.053   0.575  1.00  0.00     0.165 C 
HETATM   18  C3  UNL     1       3.821   1.150  -0.224  1.00  0.00     0.042 C 
BRANCH  17  19
HETATM   19  N1  UNL     1       3.587  -1.230   0.145  1.00  0.00    -0.414 N 
HETATM   20  C1  UNL     1       4.957  -1.504   0.236  1.00  0.00     0.140 C 
ATOM     21  H1  UNL     1       2.943  -1.931  -0.222  1.00  0.00     0.153 HD
ENDBRANCH  17  19
ENDBRANCH  14  17
ENDBRANCH   1  13
BRANCH   1  22
HETATM   22  C6  UNL     1      -0.423   1.097  -1.434  1.00  0.00     0.270 C 
HETATM   23  N3  UNL     1      -0.098   2.511  -1.352  1.00  0.00    -0.059 NA
HETATM   24  O2  UNL     1      -0.428   0.615  -2.569  1.00  0.00    -0.273 OA
ENDBRANCH   1  22
TORSDOF 4
