REMARK  6 active torsions:
REMARK  status: ('A' for Active; 'I' for Inactive)
REMARK    1  A    between atoms: C2_2  and  C3_4 
REMARK    2  A    between atoms: C3_4  and  N1_5 
REMARK       I    between atoms: N1_5  and  C4_7 
REMARK    3  A    between atoms: C4_7  and  C5_9 
REMARK    4  A    between atoms: C5_9  and  O3_10 
REMARK    5  A    between atoms: C8_14  and  O4_15 
REMARK    6  A    between atoms: C8_14  and  N2_17 
REMARK       I    between atoms: N2_17  and  C9_19 
ROOT
HETATM    1  C5  UNL     1       0.295   0.038   0.795  1.00  0.00     0.149 C 
HETATM    2  C6  UNL     1      -0.264  -0.312   2.130  1.00  0.00     0.053 C 
HETATM    3  C7  UNL     1      -1.528   0.528   2.108  1.00  0.00     0.065 C 
HETATM    4  C8  UNL     1      -1.935   0.639   0.626  1.00  0.00     0.144 C 
HETATM    5  C11 UNL     1      -0.905  -0.202  -0.099  1.00  0.00     0.043 C 
HETATM    6  C12 UNL     1      -0.539   0.273  -1.460  1.00  0.00     0.023 C 
HETATM    7  C13 UNL     1      -1.380  -1.617  -0.093  1.00  0.00     0.023 C 
ENDROOT
BRANCH   1   8
HETATM    8  C4  UNL     1       1.520  -0.617   0.398  1.00  0.00     0.253 C 
HETATM    9  N1  UNL     1       2.683   0.138   0.067  1.00  0.00    -0.351 N 
ATOM     10  H1  UNL     1       2.629   1.155   0.117  1.00  0.00     0.162 HD
HETATM   11  O2  UNL     1       1.644  -1.868   0.318  1.00  0.00    -0.270 OA
BRANCH   9  12
HETATM   12  C3  UNL     1       3.925  -0.457  -0.333  1.00  0.00     0.200 C 
BRANCH  12  13
HETATM   13  C2  UNL     1       4.953   0.580  -0.613  1.00  0.00     0.140 C 
HETATM   14  C1  UNL     1       6.318   0.192  -1.044  1.00  0.00     0.092 C 
HETATM   15  O1  UNL     1       4.726   1.778  -0.504  1.00  0.00    -0.297 OA
ENDBRANCH  12  13
ENDBRANCH   9  12
ENDBRANCH   1   8
BRANCH   1  16
HETATM   16  O3  UNL     1       0.486   1.439   0.788  1.00  0.00    -0.379 OA
ATOM     17  H3  UNL     1      -0.320   1.870   1.049  1.00  0.00     0.211 HD
ENDBRANCH   1  16
BRANCH   4  18
HETATM   18  O4  UNL     1      -1.886   1.972   0.224  1.00  0.00    -0.370 OA
ATOM     19  H4  UNL     1      -2.137   2.040  -0.690  1.00  0.00     0.212 HD
ENDBRANCH   4  18
BRANCH   4  20
HETATM   20  N2  UNL     1      -3.280   0.180   0.510  1.00  0.00    -0.329 N 
HETATM   21  C9  UNL     1      -4.060   0.139  -0.661  1.00  0.00     0.215 C 
HETATM   22  C10 UNL     1      -5.444  -0.366  -0.642  1.00  0.00     0.117 C 
HETATM   23  O5  UNL     1      -3.579   0.536  -1.742  1.00  0.00    -0.274 OA
ATOM     24  H2  UNL     1      -3.724  -0.154   1.366  1.00  0.00     0.165 HD
ENDBRANCH   4  20
TORSDOF 6
