REMARK  9 active torsions:
REMARK  status: ('A' for Active; 'I' for Inactive)
REMARK    1  A    between atoms: C2_2  and  O1_3 
REMARK    2  A    between atoms: O1_3  and  C3_4 
REMARK    3  A    between atoms: C3_4  and  C4_6 
REMARK    4  A    between atoms: C4_6  and  N1_7 
REMARK    5  A    between atoms: N1_7  and  C5_9 
REMARK    6  A    between atoms: C5_9  and  N2_11 
REMARK    7  A    between atoms: N2_11  and  N3_13 
REMARK       I    between atoms: N3_13  and  C6_15 
REMARK       I    between atoms: C6_15  and  N4_17 
REMARK    8  A    between atoms: N4_17  and  C7_19 
REMARK    9  A    between atoms: C7_19  and  C8_21 
ROOT
HETATM    1  N2  UNL     1      -0.973  -0.668   1.902  1.00  0.00    -0.272 N 
ATOM      2  H2  UNL     1      -1.818  -0.798   2.459  1.00  0.00     0.189 HD
ENDROOT
BRANCH   1   3
HETATM    3  C5  UNL     1       0.222  -0.904   2.556  1.00  0.00     0.187 C 
HETATM    4  S1  UNL     1       0.067  -1.376   4.190  1.00  0.00    -0.040 SA
BRANCH   3   5
HETATM    5  N1  UNL     1       1.520  -0.810   2.063  1.00  0.00    -0.357 N 
ATOM      6  H1  UNL     1       2.261  -1.033   2.728  1.00  0.00     0.162 HD
BRANCH   5   7
HETATM    7  C4  UNL     1       1.958  -0.444   0.751  1.00  0.00     0.233 C 
BRANCH   7   8
HETATM    8  C3  UNL     1       3.462  -0.462   0.661  1.00  0.00     0.276 C 
HETATM    9  O2  UNL     1       4.102  -0.780   1.690  1.00  0.00    -0.263 OA
BRANCH   8  10
HETATM   10  O1  UNL     1       4.146  -0.149  -0.486  1.00  0.00    -0.321 OA
BRANCH  10  11
HETATM   11  C2  UNL     1       5.572  -0.170  -0.559  1.00  0.00     0.174 C 
HETATM   12  C1  UNL     1       6.020   0.212  -1.930  1.00  0.00     0.034 C 
ENDBRANCH  10  11
ENDBRANCH   8  10
ENDBRANCH   7   8
ENDBRANCH   5   7
ENDBRANCH   3   5
ENDBRANCH   1   3
BRANCH   1  13
HETATM   13  N3  UNL     1      -1.167  -0.283   0.604  1.00  0.00    -0.249 N 
HETATM   14  C6  UNL     1      -2.532  -0.123   0.116  1.00  0.00     0.339 C 
HETATM   15  O3  UNL     1      -3.446  -0.351   0.932  1.00  0.00    -0.245 OA
HETATM   16  N4  UNL     1      -2.787   0.271  -1.220  1.00  0.00    -0.302 N 
ATOM     17  H4  UNL     1      -1.975   0.432  -1.815  1.00  0.00     0.171 HD
ATOM     18  H3  UNL     1      -0.372  -0.111  -0.011  1.00  0.00     0.192 HD
BRANCH  16  19
HETATM   19  C7  UNL     1      -4.048   0.461  -1.805  1.00  0.00     0.081 C 
HETATM   20  S2  UNL     1      -4.079   0.919  -3.396  1.00  0.00    -0.065 SA
BRANCH  19  21
HETATM   21  C8  UNL     1      -5.323   0.314  -1.128  1.00  0.00     0.065 C 
HETATM   22  C9  UNL     1      -5.649   1.404  -0.131  1.00  0.00     0.012 C 
ENDBRANCH  19  21
ENDBRANCH  16  19
ENDBRANCH   1  13
TORSDOF 9
