REMARK  10 active torsions:
REMARK  status: ('A' for Active; 'I' for Inactive)
REMARK    1  A    between atoms: C2_2  and  C3_3 
REMARK    2  A    between atoms: C3_3  and  N1_4 
REMARK    3  A    between atoms: C3_3  and  C4_8 
REMARK       I    between atoms: C4_8  and  N2_10 
REMARK    4  A    between atoms: N2_10  and  C5_12 
REMARK    5  A    between atoms: C5_12  and  C7_15 
REMARK    6  A    between atoms: C5_12  and  C12_27 
REMARK       I    between atoms: C7_15  and  N4_17 
REMARK    7  A    between atoms: N4_17  and  C8_19 
REMARK    8  A    between atoms: C8_19  and  C9_20 
REMARK    9  A    between atoms: C8_19  and  C11_24 
REMARK   10  A    between atoms: C9_20  and  C10_21 
ROOT
HETATM    1  C5  UNL     1      -0.040  -0.536   0.424  1.00  0.00     0.210 C 
HETATM    2  C6  UNL     1      -0.650  -1.245   1.619  1.00  0.00     0.102 C 
HETATM    3  N3  UNL     1      -1.117  -1.767   2.541  1.00  0.00    -0.194 NA
ENDROOT
BRANCH   1   4
HETATM    4  N2  UNL     1       1.124   0.156   0.961  1.00  0.00    -0.329 N 
HETATM    5  C4  UNL     1       1.974   1.063   0.358  1.00  0.00     0.250 C 
HETATM    6  O1  UNL     1       1.835   1.451  -0.822  1.00  0.00    -0.271 OA
ATOM      7  H2  UNL     1       1.346  -0.063   1.932  1.00  0.00     0.164 HD
BRANCH   5   8
HETATM    8  C3  UNL     1       3.147   1.664   1.083  1.00  0.00     0.274 C 
BRANCH   8   9
HETATM    9  C2  UNL     1       4.091   0.613   1.587  1.00  0.00     0.038 C 
HETATM   10  C1  UNL     1       4.730  -0.174   0.468  1.00  0.00     0.007 C 
ENDBRANCH   8   9
BRANCH   8  11
HETATM   11  N1  UNL     1       3.871   2.571   0.253  1.00  0.00    -0.067 N 
ATOM     12  H13 UNL     1       4.682   2.970   0.726  1.00  0.00     0.275 HD
ATOM     13  H12 UNL     1       4.367   2.098  -0.502  1.00  0.00     0.275 HD
ATOM     14  H11 UNL     1       3.229   3.286  -0.090  1.00  0.00     0.275 HD
ENDBRANCH   8  11
ENDBRANCH   5   8
ENDBRANCH   1   4
BRANCH   1  15
HETATM   15  C7  UNL     1      -1.074   0.421   0.011  1.00  0.00     0.262 C 
HETATM   16  O2  UNL     1      -0.806   1.689   0.008  1.00  0.00    -0.269 OA
HETATM   17  N4  UNL     1      -2.377   0.103  -0.393  1.00  0.00    -0.343 N 
ATOM     18  H4  UNL     1      -2.668  -0.875  -0.410  1.00  0.00     0.163 HD
BRANCH  17  19
HETATM   19  C8  UNL     1      -3.339   1.147  -0.794  1.00  0.00     0.195 C 
BRANCH  19  20
HETATM   20  C9  UNL     1      -4.624   1.002  -0.052  1.00  0.00     0.149 C 
BRANCH  20  21
HETATM   21  C10 UNL     1      -4.530   1.098   1.404  1.00  0.00     0.175 C 
HETATM   22  O3  UNL     1      -5.627   0.975   2.042  1.00  0.00    -0.648 OA
HETATM   23  O4  UNL     1      -3.405   1.304   2.153  1.00  0.00    -0.648 OA
ENDBRANCH  20  21
ENDBRANCH  19  20
BRANCH  19  24
HETATM   24  C11 UNL     1      -3.625   0.918  -2.233  1.00  0.00     0.197 C 
HETATM   25  O5  UNL     1      -3.143   0.026  -2.937  1.00  0.00    -0.646 OA
HETATM   26  O6  UNL     1      -4.534   1.814  -2.826  1.00  0.00    -0.646 OA
ENDBRANCH  19  24
ENDBRANCH  17  19
ENDBRANCH   1  15
BRANCH   1  27
HETATM   27  C12 UNL     1       0.325  -1.644  -0.483  1.00  0.00    -0.003 C 
HETATM   28  C13 UNL     1      -0.843  -2.441  -1.060  1.00  0.00     0.018 C 
HETATM   29  C14 UNL     1       1.219  -1.366  -1.646  1.00  0.00     0.018 C 
HETATM   30  C15 UNL     1       1.098  -2.734   0.328  1.00  0.00     0.018 C 
ENDBRANCH   1  27
TORSDOF 10
