REMARK  13 active torsions:
REMARK  status: ('A' for Active; 'I' for Inactive)
REMARK    1  A    between atoms: C2_2  and  C3_3 
REMARK    2  A    between atoms: C2_2  and  C15_26 
REMARK    3  A    between atoms: C3_3  and  C4_4 
REMARK    4  A    between atoms: C4_4  and  O1_5 
REMARK    5  A    between atoms: C4_4  and  C5_7 
REMARK    6  A    between atoms: C5_7  and  O2_8 
REMARK    7  A    between atoms: C5_7  and  C6_10 
REMARK    8  A    between atoms: C6_10  and  C8_12 
REMARK    9  A    between atoms: C8_12  and  O3_13 
REMARK   10  A    between atoms: C8_12  and  C9_15 
REMARK   11  A    between atoms: C9_15  and  C10_16 
REMARK   12  A    between atoms: C9_15  and  S1_19 
REMARK   13  A    between atoms: S1_19  and  C11_22 
ROOT
HETATM    1  C6  UNL     1       0.424   0.564   0.237  1.00  0.00     0.043 C 
HETATM    2  C7  UNL     1       0.129   1.258  -1.071  1.00  0.00     0.015 C 
ENDROOT
BRANCH   1   3
HETATM    3  C5  UNL     1       1.642  -0.331   0.138  1.00  0.00     0.153 C 
BRANCH   3   4
HETATM    4  C4  UNL     1       2.863   0.468  -0.239  1.00  0.00     0.148 C 
BRANCH   4   5
HETATM    5  C3  UNL     1       4.103  -0.372  -0.185  1.00  0.00     0.049 C 
BRANCH   5   6
HETATM    6  C2  UNL     1       5.287   0.555  -0.467  1.00  0.00     0.085 C 
HETATM    7  C1  UNL     1       5.147   1.191  -1.832  1.00  0.00     0.021 C 
BRANCH   6   8
HETATM    8  C15 UNL     1       6.574  -0.172  -0.336  1.00  0.00     0.176 C 
HETATM    9  O8  UNL     1       7.417  -0.230  -1.266  1.00  0.00    -0.648 OA
HETATM   10  O9  UNL     1       6.874  -0.818   0.849  1.00  0.00    -0.648 OA
ENDBRANCH   6   8
ENDBRANCH   5   6
ENDBRANCH   4   5
BRANCH   4  11
HETATM   11  O1  UNL     1       3.009   1.461   0.757  1.00  0.00    -0.393 OA
ATOM     12  H1  UNL     1       2.223   1.993   0.723  1.00  0.00     0.210 HD
ENDBRANCH   4  11
ENDBRANCH   3   4
BRANCH   3  13
HETATM   13  O2  UNL     1       1.871  -0.887   1.393  1.00  0.00    -0.393 OA
ATOM     14  H2  UNL     1       1.101  -1.391   1.631  1.00  0.00     0.210 HD
ENDBRANCH   3  13
ENDBRANCH   1   3
BRANCH   1  15
HETATM   15  C8  UNL     1      -0.744  -0.342   0.540  1.00  0.00     0.153 C 
BRANCH  15  16
HETATM   16  O3  UNL     1      -0.480  -0.986   1.747  1.00  0.00    -0.393 OA
ATOM     17  H3  UNL     1      -1.215  -1.556   1.938  1.00  0.00     0.210 HD
ENDBRANCH  15  16
BRANCH  15  18
HETATM   18  C9  UNL     1      -2.081   0.320   0.482  1.00  0.00     0.238 C 
BRANCH  18  19
HETATM   19  C10 UNL     1      -2.245   1.428   1.435  1.00  0.00     0.194 C 
HETATM   20  O4  UNL     1      -1.410   1.745   2.315  1.00  0.00    -0.647 OA
HETATM   21  O5  UNL     1      -3.400   2.207   1.392  1.00  0.00    -0.647 OA
ENDBRANCH  18  19
BRANCH  18  22
HETATM   22  S1  UNL     1      -3.349  -0.931   0.690  1.00  0.00     0.165 S 
HETATM   23  O6  UNL     1      -3.258  -1.549   2.056  1.00  0.00    -0.226 OA
HETATM   24  O7  UNL     1      -3.150  -2.038  -0.305  1.00  0.00    -0.226 OA
BRANCH  22  25
HETATM   25  C11 UNL     1      -4.935  -0.223   0.398  1.00  0.00     0.109 C 
HETATM   26  C12 UNL     1      -6.040  -1.240   0.178  1.00  0.00     0.020 C 
HETATM   27  C13 UNL     1      -6.457  -0.460  -1.069  1.00  0.00     0.002 C 
HETATM   28  C14 UNL     1      -5.102   0.219  -1.043  1.00  0.00     0.020 C 
ENDBRANCH  22  25
ENDBRANCH  18  22
ENDBRANCH  15  18
ENDBRANCH   1  15
TORSDOF 13
