REMARK  4 active torsions:
REMARK  status: ('A' for Active; 'I' for Inactive)
REMARK    1  A    between atoms: N1_1  and  C1_4 
REMARK    2  A    between atoms: C2_7  and  O1_8 
REMARK    3  A    between atoms: O1_8  and  C3_9 
REMARK       I    between atoms: C3_9  and  N3_11 
REMARK    4  A    between atoms: N3_11  and  N4_13 
ROOT
HETATM    1  C1  UNL     1      -2.490  -0.200  -0.983  1.00  0.00     0.683 A 
HETATM    2  N2  UNL     1      -1.175  -0.477  -1.019  1.00  0.00    -0.154 N 
ATOM      3  H2  UNL     1      -0.731  -0.634  -1.924  1.00  0.00     0.188 HD
HETATM    4  C2  UNL     1      -0.421  -0.555   0.096  1.00  0.00     0.251 A 
HETATM    5  N5  UNL     1      -1.060  -0.338   1.262  1.00  0.00    -0.273 N 
ATOM      6  H5  UNL     1      -0.532  -0.385   2.134  1.00  0.00     0.174 HD
HETATM    7  C4  UNL     1      -2.381  -0.060   1.307  1.00  0.00     0.341 A 
HETATM    8  O3  UNL     1      -2.963   0.142   2.427  1.00  0.00    -0.246 OA
HETATM    9  N6  UNL     1      -3.119   0.014   0.186  1.00  0.00    -0.141 N 
ATOM     10  H6  UNL     1      -4.117   0.224   0.221  1.00  0.00     0.189 HD
ENDROOT
BRANCH   4  11
HETATM   11  O1  UNL     1       0.939  -0.841   0.051  1.00  0.00    -0.226 OA
BRANCH  11  12
HETATM   12  C3  UNL     1       1.924   0.103  -0.053  1.00  0.00     0.386 C 
HETATM   13  O2  UNL     1       1.595   1.313  -0.113  1.00  0.00    -0.236 OA
HETATM   14  N3  UNL     1       3.284  -0.311  -0.089  1.00  0.00    -0.252 N 
ATOM     15  H3  UNL     1       3.534  -1.299  -0.038  1.00  0.00     0.191 HD
BRANCH  14  16
HETATM   16  N4  UNL     1       4.271   0.678  -0.196  1.00  0.00    -0.341 N 
ATOM     17  H42 UNL     1       4.005   1.661  -0.246  1.00  0.00     0.177 HD
ATOM     18  H41 UNL     1       5.246   0.381  -0.222  1.00  0.00     0.177 HD
ENDBRANCH  14  16
ENDBRANCH  11  12
ENDBRANCH   4  11
BRANCH   1  19
HETATM   19  N1  UNL     1      -3.218  -0.126  -2.065  1.00  0.00    -0.234 N 
ATOM     20  H12 UNL     1      -2.741  -0.288  -2.952  1.00  0.00     0.174 HD
ATOM     21  H11 UNL     1      -4.216   0.084  -2.038  1.00  0.00     0.174 HD
ENDBRANCH   1  19
TORSDOF 4
