REMARK  3 active torsions:
REMARK  status: ('A' for Active; 'I' for Inactive)
REMARK       I    between atoms: C2_2  and  N1_4 
REMARK       I    between atoms: C3_6  and  N2_7 
REMARK       I    between atoms: C3_6  and  N4_11 
REMARK    1  A    between atoms: N4_11  and  C5_13 
REMARK    2  A    between atoms: C10_18  and  C11_19 
REMARK       I    between atoms: C11_19  and  N5_21 
REMARK    3  A    between atoms: N5_21  and  N6_23 
ROOT
HETATM    1  C1  UNL     1      -4.616   1.232  -0.728  1.00  0.00     0.118 C 
HETATM    2  C2  UNL     1      -3.658   0.137  -1.023  1.00  0.00     0.231 C 
HETATM    3  O1  UNL     1      -4.085  -0.949  -1.512  1.00  0.00    -0.273 OA
HETATM    4  N1  UNL     1      -2.297   0.354  -0.745  1.00  0.00    -0.159 N 
ATOM      5  H1  UNL     1      -1.704   0.573  -1.546  1.00  0.00     0.187 HD
HETATM    6  C3  UNL     1      -1.719   0.310   0.381  1.00  0.00     0.694 C 
HETATM    7  N2  UNL     1      -2.450   0.015   1.548  1.00  0.00    -0.126 N 
ATOM      8  H2  UNL     1      -2.469   0.687   2.315  1.00  0.00     0.197 HD
HETATM    9  C4  UNL     1      -3.150  -1.189   1.665  1.00  0.00     0.196 C 
HETATM   10  N3  UNL     1      -3.738  -2.203   1.785  1.00  0.00    -0.171 NA
HETATM   11  N4  UNL     1      -0.289   0.580   0.429  1.00  0.00    -0.190 N 
ATOM     12  H4  UNL     1       0.039   1.488   0.758  1.00  0.00     0.184 HD
ENDROOT
BRANCH  11  13
HETATM   13  C5  UNL     1       0.640  -0.382   0.032  1.00  0.00     0.065 A 
HETATM   14  C6  UNL     1       0.166  -1.637  -0.429  1.00  0.00     0.031 A 
HETATM   15  C7  UNL     1       0.993  -2.637  -0.842  1.00  0.00     0.002 A 
HETATM   16  C8  UNL     1       2.351  -2.438  -0.817  1.00  0.00     0.001 A 
HETATM   17  C9  UNL     1       2.843  -1.227  -0.374  1.00  0.00     0.019 A 
HETATM   18  C10 UNL     1       1.990  -0.191   0.054  1.00  0.00     0.061 A 
BRANCH  18  19
HETATM   19  C11 UNL     1       2.583   1.037   0.508  1.00  0.00     0.277 C 
HETATM   20  O2  UNL     1       1.971   2.054   0.931  1.00  0.00    -0.266 OA
HETATM   21  N5  UNL     1       4.014   1.203   0.510  1.00  0.00    -0.205 N 
ATOM     22  H5  UNL     1       4.634   0.458   0.191  1.00  0.00     0.196 HD
BRANCH  21  23
HETATM   23  N6  UNL     1       4.527   2.440   0.972  1.00  0.00    -0.036 N 
HETATM   24  O3  UNL     1       4.189   3.485   0.412  1.00  0.00    -0.516 OA
HETATM   25  O4  UNL     1       5.384   2.419   2.033  1.00  0.00    -0.516 OA
ENDBRANCH  21  23
ENDBRANCH  18  19
ENDBRANCH  11  13
TORSDOF 3
