REMARK  5 active torsions:
REMARK  status: ('A' for Active; 'I' for Inactive)
REMARK    1  A    between atoms: N2_7  and  C5_8 
REMARK    2  A    between atoms: C5_8  and  C6_9 
REMARK    3  A    between atoms: C6_9  and  C7_10 
REMARK    4  A    between atoms: C7_10  and  N3_11 
REMARK    5  A    between atoms: C12_19  and  N5_20 
ROOT
HETATM    1  C1  UNL     1      -5.344   1.886  -0.008  1.00  0.00     0.089 C 
HETATM    2  C2  UNL     1      -3.972   1.313   0.170  1.00  0.00     0.074 C 
HETATM    3  N1  UNL     1      -3.773   0.101   0.540  1.00  0.00    -0.343 N 
ATOM      4  H1  UNL     1      -4.555  -0.524   0.734  1.00  0.00     0.167 HD
HETATM    5  C3  UNL     1      -2.405  -0.353   0.674  1.00  0.00     0.089 A 
HETATM    6  C4  UNL     1      -1.319   0.427   0.421  1.00  0.00     0.069 A 
HETATM    7  N2  UNL     1      -0.157  -0.243   0.721  1.00  0.00    -0.340 N 
HETATM    8  C10 UNL     1      -0.560  -1.458   1.161  1.00  0.00     0.134 A 
HETATM    9  C11 UNL     1       0.131  -2.581   1.604  1.00  0.00     0.289 A 
HETATM   10  O1  UNL     1       1.361  -2.629   1.669  1.00  0.00    -0.265 OA
HETATM   11  N4  UNL     1      -0.570  -3.685   1.986  1.00  0.00    -0.154 N 
ATOM     12  H4  UNL     1      -0.055  -4.504   2.310  1.00  0.00     0.187 HD
HETATM   13  C12 UNL     1      -1.909  -3.739   1.954  1.00  0.00     0.679 A 
HETATM   14  N6  UNL     1      -2.608  -2.668   1.529  1.00  0.00    -0.187 N 
ATOM     15  H6  UNL     1      -3.627  -2.686   1.495  1.00  0.00     0.184 HD
HETATM   16  C13 UNL     1      -1.922  -1.575   1.151  1.00  0.00     0.110 A 
HETATM   17  C14 UNL     1      -1.548   1.744  -0.172  1.00  0.00     0.069 C 
HETATM   18  C15 UNL     1      -0.540   2.810   0.136  1.00  0.00     0.045 C 
HETATM   19  C16 UNL     1      -1.402   1.512  -1.708  1.00  0.00     0.045 C 
HETATM   20  N7  UNL     1      -2.888   2.185  -0.019  1.00  0.00    -0.366 N 
ATOM     21  H7  UNL     1      -3.073   3.188  -0.048  1.00  0.00     0.162 HD
ENDROOT
BRANCH   7  22
HETATM   22  C5  UNL     1       1.210   0.215   0.615  1.00  0.00     0.131 C 
BRANCH  22  23
HETATM   23  C6  UNL     1       1.896  -0.075  -0.671  1.00  0.00     0.050 C 
BRANCH  23  24
HETATM   24  C7  UNL     1       3.324   0.491  -0.544  1.00  0.00     0.273 C 
BRANCH  24  25
HETATM   25  N3  UNL     1       3.994   0.203  -1.796  1.00  0.00     0.080 N 
HETATM   26  C8  UNL     1       4.248  -1.191  -2.013  1.00  0.00     0.309 C 
HETATM   27  C9  UNL     1       5.193   0.999  -1.972  1.00  0.00     0.309 C 
ENDBRANCH  24  25
ENDBRANCH  23  24
ENDBRANCH  22  23
ENDBRANCH   7  22
BRANCH  13  28
HETATM   28  N5  UNL     1      -2.564  -4.794   2.319  1.00  0.00    -0.234 N 
ATOM     29  H52 UNL     1      -2.035  -5.605   2.641  1.00  0.00     0.174 HD
ATOM     30  H51 UNL     1      -3.583  -4.835   2.295  1.00  0.00     0.174 HD
ENDBRANCH  13  28
TORSDOF 5
