REMARK  8 active torsions:
REMARK  status: ('A' for Active; 'I' for Inactive)
REMARK    1  A    between atoms: N1_1  and  C1_4 
REMARK    2  A    between atoms: C2_7  and  C3_8 
REMARK    3  A    between atoms: C4_13  and  N5_14 
REMARK    4  A    between atoms: C5_21  and  N9_22 
REMARK       I    between atoms: N9_22  and  C6_24 
REMARK       I    between atoms: C6_24  and  N10_26 
REMARK    5  A    between atoms: N10_26  and  C7_28 
REMARK    6  A    between atoms: C7_28  and  C8_29 
REMARK    7  A    between atoms: C8_29  and  N11_30 
REMARK       I    between atoms: N11_30  and  C9_32 
REMARK    8  A    between atoms: C9_32  and  C10_34 
ROOT
HETATM    1  N5  UNL     1       2.854  -1.383  -1.031  1.00  0.00     0.108 N 
HETATM    2  N6  UNL     1       3.198  -2.461  -1.717  1.00  0.00    -0.191 N 
ATOM      3  H6  UNL     1       3.881  -2.480  -2.474  1.00  0.00     0.211 HD
HETATM    4  N7  UNL     1       2.527  -3.506  -1.276  1.00  0.00    -0.212 N 
ATOM      5  H7  UNL     1       2.606  -4.458  -1.635  1.00  0.00     0.210 HD
HETATM    6  N8  UNL     1       1.737  -3.118  -0.294  1.00  0.00    -0.114 N 
ATOM      7  H8  UNL     1       1.101  -3.710   0.240  1.00  0.00     0.207 HD
HETATM    8  C5  UNL     1       1.925  -1.805  -0.128  1.00  0.00     0.739 A 
ENDROOT
BRANCH   8   9
HETATM    9  N9  UNL     1       1.365  -1.011   0.709  1.00  0.00    -0.138 N 
HETATM   10  C6  UNL     1       0.403  -1.432   1.647  1.00  0.00     0.334 C 
HETATM   11  O2  UNL     1       0.482  -1.193   2.879  1.00  0.00    -0.247 OA
HETATM   12  N10 UNL     1      -0.731  -2.172   1.185  1.00  0.00    -0.341 N 
ATOM     13  H10 UNL     1      -0.794  -2.371   0.187  1.00  0.00     0.164 HD
ATOM     14  H9  UNL     1       1.630  -0.026   0.695  1.00  0.00     0.189 HD
BRANCH  12  15
HETATM   15  C7  UNL     1      -1.770  -2.646   2.019  1.00  0.00     0.144 C 
BRANCH  15  16
HETATM   16  C8  UNL     1      -2.621  -1.590   2.625  1.00  0.00     0.142 C 
BRANCH  16  17
HETATM   17  N11 UNL     1      -3.485  -0.844   1.781  1.00  0.00    -0.355 N 
HETATM   18  C9  UNL     1      -3.272   0.008   0.715  1.00  0.00     0.254 C 
HETATM   19  O3  UNL     1      -2.131   0.310   0.307  1.00  0.00    -0.268 OA
ATOM     20  H11 UNL     1      -4.472  -0.962   2.010  1.00  0.00     0.162 HD
BRANCH  18  21
HETATM   21  C10 UNL     1      -4.363   0.639  -0.034  1.00  0.00     0.066 A 
HETATM   22  C11 UNL     1      -4.185   1.987  -0.354  1.00  0.00     0.021 A 
HETATM   23  C12 UNL     1      -5.184   2.683  -1.003  1.00  0.00     0.018 A 
HETATM   24  C13 UNL     1      -6.327   1.986  -1.304  1.00  0.00     0.089 A 
HETATM   25  N12 UNL     1      -6.470   0.708  -0.990  1.00  0.00    -0.359 N 
HETATM   26  C14 UNL     1      -5.504  -0.015  -0.349  1.00  0.00     0.095 A 
ATOM     27  H12 UNL     1      -7.342   0.241  -1.238  1.00  0.00     0.166 HD
HETATM   28 BR1  UNL     1      -5.746  -1.860  -0.010  1.00  0.00    -0.030 Br
ENDBRANCH  18  21
ENDBRANCH  16  17
ENDBRANCH  15  16
ENDBRANCH  12  15
ENDBRANCH   8   9
BRANCH   1  29
HETATM   29  C4  UNL     1       3.337  -0.056  -1.161  1.00  0.00     0.736 A 
HETATM   30  N4  UNL     1       4.636   0.210  -0.883  1.00  0.00    -0.168 N 
HETATM   31  C2  UNL     1       5.150   1.468  -0.987  1.00  0.00     0.201 A 
ATOM     32  H4  UNL     1       5.246  -0.552  -0.588  1.00  0.00     0.186 HD
HETATM   33  N2  UNL     1       4.350   2.474  -1.376  1.00  0.00    -0.171 N 
HETATM   34  C1  UNL     1       3.063   2.232  -1.656  1.00  0.00     0.692 A 
ATOM     35  H2  UNL     1       4.722   3.420  -1.458  1.00  0.00     0.186 HD
HETATM   36  N13 UNL     1       2.569   0.972  -1.546  1.00  0.00    -0.020 N 
ATOM     37  H13 UNL     1       1.587   0.804  -1.762  1.00  0.00     0.203 HD
BRANCH  31  38
HETATM   38  C3  UNL     1       6.536   1.749  -0.686  1.00  0.00     0.299 C 
HETATM   39  N3  UNL     1       7.391   0.700  -0.292  1.00  0.00    -0.054 NA
HETATM   40  O1  UNL     1       6.981   2.911  -0.771  1.00  0.00    -0.268 OA
ENDBRANCH  31  38
BRANCH  34  41
HETATM   41  N1  UNL     1       2.316   3.194  -2.023  1.00  0.00    -0.234 N 
ATOM     42  H12 UNL     1       2.687   4.141  -2.106  1.00  0.00     0.174 HD
ATOM     43  H11 UNL     1       1.336   3.010  -2.236  1.00  0.00     0.174 HD
ENDBRANCH  34  41
ENDBRANCH   1  29
TORSDOF 8
