REMARK  7 active torsions:
REMARK  status: ('A' for Active; 'I' for Inactive)
REMARK       I    between atoms: C1_2  and  N1_3 
REMARK    1  A    between atoms: C1_2  and  C16_25 
REMARK    2  A    between atoms: N1_3  and  O2_5 
REMARK    3  A    between atoms: O2_5  and  C2_6 
REMARK    4  A    between atoms: C2_6  and  C3_8 
REMARK    5  A    between atoms: C6_11  and  C7_12 
REMARK       I    between atoms: C7_12  and  N2_14 
REMARK    6  A    between atoms: N2_14  and  C8_16 
REMARK       I    between atoms: C16_25  and  N3_27 
REMARK    7  A    between atoms: N3_27  and  C17_29 
ROOT
HETATM    1  C2  UNL     1       0.672  -2.009  -0.242  1.00  0.00     0.315 C 
HETATM    2  O3  UNL     1       1.172  -2.968  -0.862  1.00  0.00    -0.257 OA
ENDROOT
BRANCH   1   3
HETATM    3  O2  UNL     1       1.487  -1.176   0.487  1.00  0.00    -0.192 OA
BRANCH   3   4
HETATM    4  N1  UNL     1       2.825  -1.278   0.612  1.00  0.00    -0.217 N 
HETATM    5  C1  UNL     1       3.647  -0.185   0.226  1.00  0.00     0.333 C 
HETATM    6  O1  UNL     1       3.118   0.883  -0.237  1.00  0.00    -0.260 OA
ATOM      7  H1  UNL     1       3.244  -2.132   0.980  1.00  0.00     0.198 HD
BRANCH   5   8
HETATM    8  C16 UNL     1       5.085  -0.222   0.332  1.00  0.00     0.316 C 
HETATM    9  O5  UNL     1       5.658  -1.235   0.783  1.00  0.00    -0.262 OA
HETATM   10  N3  UNL     1       5.859   0.885  -0.073  1.00  0.00    -0.314 N 
ATOM     11  H3  UNL     1       5.367   1.700  -0.439  1.00  0.00     0.169 HD
BRANCH  10  12
HETATM   12  C17 UNL     1       7.269   0.943  -0.007  1.00  0.00     0.113 A 
HETATM   13  C18 UNL     1       7.928   1.430   1.119  1.00  0.00     0.146 A 
HETATM   14  F1  UNL     1       7.182   1.852   2.163  1.00  0.00    -0.204 F 
HETATM   15  C19 UNL     1       9.301   1.467   1.135  1.00  0.00     0.045 A 
HETATM   16  C20 UNL     1      10.066   1.033   0.063  1.00  0.00     0.006 A 
HETATM   17  C21 UNL     1       9.389   0.555  -1.039  1.00  0.00     0.045 A 
HETATM   18  C22 UNL     1       8.009   0.514  -1.067  1.00  0.00     0.146 A 
HETATM   19  F2  UNL     1       7.336   0.038  -2.162  1.00  0.00    -0.204 F 
ENDBRANCH  10  12
ENDBRANCH   5   8
ENDBRANCH   3   4
ENDBRANCH   1   3
BRANCH   1  20
HETATM   20  C3  UNL     1      -0.747  -1.773  -0.288  1.00  0.00     0.041 A 
HETATM   21  C4  UNL     1      -1.625  -2.565  -1.000  1.00  0.00     0.018 A 
HETATM   22  C5  UNL     1      -2.969  -2.275  -1.005  1.00  0.00     0.018 A 
HETATM   23  C6  UNL     1      -3.508  -1.207  -0.319  1.00  0.00     0.032 A 
HETATM   24  C14 UNL     1      -2.636  -0.426   0.385  1.00  0.00     0.018 A 
HETATM   25  C15 UNL     1      -1.267  -0.702   0.403  1.00  0.00     0.018 A 
BRANCH  23  26
HETATM   26  C7  UNL     1      -4.971  -0.940  -0.359  1.00  0.00     0.256 C 
HETATM   27  O4  UNL     1      -5.692  -1.853  -0.833  1.00  0.00    -0.267 OA
HETATM   28  N2  UNL     1      -5.511   0.249   0.100  1.00  0.00    -0.323 N 
ATOM     29  H2  UNL     1      -4.846   0.932   0.462  1.00  0.00     0.169 HD
BRANCH  28  30
HETATM   30  C8  UNL     1      -6.856   0.629   0.128  1.00  0.00     0.035 A 
HETATM   31  C9  UNL     1      -7.199   1.970   0.382  1.00  0.00     0.031 A 
HETATM   32  C10 UNL     1      -8.499   2.413   0.439  1.00  0.00     0.026 A 
HETATM   33  C11 UNL     1      -9.534   1.540   0.243  1.00  0.00     0.034 A 
HETATM   34 CL1  UNL     1     -11.177   2.167   0.327  1.00  0.00    -0.084 Cl
HETATM   35  C12 UNL     1      -9.251   0.243  -0.004  1.00  0.00     0.026 A 
HETATM   36  C13 UNL     1      -7.925  -0.206  -0.061  1.00  0.00     0.031 A 
ENDBRANCH  28  30
ENDBRANCH  23  26
ENDBRANCH   1  20
TORSDOF 7
