REMARK  2 active torsions:
REMARK  status: ('A' for Active; 'I' for Inactive)
REMARK    1  A    between atoms: C4_4  and  C5_5 
REMARK    2  A    between atoms: N1_6  and  N2_8 
ROOT
HETATM    1  C1  UNL     1      -0.957   2.860   1.523  1.00  0.00     0.018 C 
HETATM    2  C2  UNL     1      -1.383   1.848   1.070  1.00  0.00    -0.070 C 
HETATM    3  C3  UNL     1      -1.903   0.598   0.537  1.00  0.00     0.113 A 
HETATM    4  C4  UNL     1      -1.062  -0.431   0.189  1.00  0.00     0.077 A 
HETATM    5  N5  UNL     1      -1.559  -1.575  -0.301  1.00  0.00    -0.306 N 
ATOM      6  H5  UNL     1      -0.928  -2.335  -0.557  1.00  0.00     0.171 HD
HETATM    7  C7  UNL     1      -2.886  -1.725  -0.456  1.00  0.00     0.327 A 
HETATM    8  O1  UNL     1      -3.382  -2.798  -0.918  1.00  0.00    -0.247 OA
HETATM    9  N6  UNL     1      -3.723  -0.713  -0.115  1.00  0.00    -0.274 N 
ATOM     10  H6  UNL     1      -4.728  -0.835  -0.236  1.00  0.00     0.173 HD
HETATM   11  C8  UNL     1      -3.260   0.437   0.375  1.00  0.00     0.270 A 
HETATM   12  O2  UNL     1      -4.075   1.355   0.680  1.00  0.00    -0.266 OA
ENDROOT
BRANCH   4  13
HETATM   13  C5  UNL     1       0.376  -0.302   0.344  1.00  0.00     0.138 C 
HETATM   14  N1  UNL     1       1.148  -1.278   0.012  1.00  0.00    -0.308 N 
ATOM     15  H1  UNL     1       0.713  -2.124  -0.356  1.00  0.00     0.186 HD
BRANCH  14  16
HETATM   16  N2  UNL     1       2.522  -1.257   0.120  1.00  0.00    -0.276 N 
HETATM   17  C6  UNL     1       3.239  -0.318  -0.378  1.00  0.00     0.215 C 
HETATM   18  N3  UNL     1       4.648  -0.331  -0.247  1.00  0.00    -0.065 NA
HETATM   19  N4  UNL     1       2.617   0.748  -1.069  1.00  0.00    -0.065 NA
ATOM     20  H2  UNL     1       2.986  -2.018   0.615  1.00  0.00     0.189 HD
ENDBRANCH  14  16
ENDBRANCH   4  13
TORSDOF 2
