REMARK  16 active torsions:
REMARK  status: ('A' for Active; 'I' for Inactive)
REMARK    1  A    between atoms: C2_2  and  C4_4 
REMARK    2  A    between atoms: C9_10  and  O1_11 
REMARK    3  A    between atoms: C12_15  and  O2_16 
REMARK    4  A    between atoms: C15_20  and  O3_21 
REMARK    5  A    between atoms: C16_23  and  O4_24 
REMARK    6  A    between atoms: C16_23  and  C17_26 
REMARK    7  A    between atoms: C20_29  and  C21_30 
REMARK    8  A    between atoms: C22_31  and  C23_32 
REMARK    9  A    between atoms: C23_32  and  O5_33 
REMARK   10  A    between atoms: O5_33  and  C24_34 
REMARK   11  A    between atoms: C24_34  and  C25_36 
REMARK   12  A    between atoms: C26_37  and  C27_38 
REMARK   13  A    between atoms: C27_38  and  C28_39 
REMARK   14  A    between atoms: C30_41  and  C31_42 
REMARK   15  A    between atoms: C31_42  and  O8_44 
REMARK   16  A    between atoms: O8_44  and  O9_45 
ROOT
HETATM    1  C4  UNL     1      -3.869  -0.175   1.095  1.00  0.00    -0.050 C 
HETATM    2  C5  UNL     1      -5.252  -0.302   0.461  1.00  0.00     0.039 C 
HETATM    3  C6  UNL     1      -5.471   0.301  -0.840  1.00  0.00     0.051 C 
HETATM    4  C7  UNL     1      -4.436   1.212  -1.420  1.00  0.00     0.132 C 
HETATM    5  C8  UNL     1      -4.603   1.127  -2.911  1.00  0.00     0.055 C 
HETATM    6  F1  UNL     1      -4.973   2.512  -1.167  1.00  0.00    -0.240 F 
HETATM    7  C9  UNL     1      -3.065   1.117  -0.842  1.00  0.00     0.117 C 
HETATM    8  C10 UNL     1      -2.083   1.370  -1.970  1.00  0.00     0.046 C 
HETATM    9  C11 UNL     1      -0.871   2.151  -1.649  1.00  0.00     0.046 C 
HETATM   10  C12 UNL     1       0.271   1.490  -0.943  1.00  0.00     0.084 C 
HETATM   11  C13 UNL     1       0.139   1.850   0.511  1.00  0.00     0.046 C 
HETATM   12  C14 UNL     1      -0.829   1.041   1.290  1.00  0.00     0.046 C 
HETATM   13  C15 UNL     1      -1.407  -0.188   0.623  1.00  0.00     0.117 C 
HETATM   14  C16 UNL     1      -0.266  -0.838  -0.075  1.00  0.00     0.119 C 
HETATM   15  C20 UNL     1       0.411   0.048  -1.140  1.00  0.00    -0.009 C 
HETATM   16  C30 UNL     1      -2.777  -0.044   0.054  1.00  0.00     0.142 C 
ENDROOT
BRANCH  15  17
HETATM   17  C21 UNL     1       1.726  -0.413  -1.543  1.00  0.00     0.007 C 
HETATM   18  C22 UNL     1       2.927   0.075  -1.495  1.00  0.00     0.000 C 
BRANCH  18  19
HETATM   19  C23 UNL     1       4.102  -0.733  -2.040  1.00  0.00     0.206 C 
BRANCH  19  20
HETATM   20  O5  UNL     1       5.002  -0.949  -0.998  1.00  0.00    -0.314 OA
BRANCH  20  21
HETATM   21  C24 UNL     1       6.160  -1.647  -1.183  1.00  0.00     0.282 C 
HETATM   22  O6  UNL     1       6.369  -2.092  -2.369  1.00  0.00    -0.260 OA
BRANCH  21  23
HETATM   23  C25 UNL     1       7.162  -1.938  -0.207  1.00  0.00     0.078 C 
HETATM   24  C26 UNL     1       7.126  -1.575   1.041  1.00  0.00    -0.021 C 
BRANCH  24  25
HETATM   25  C27 UNL     1       6.130  -0.813   1.796  1.00  0.00     0.027 C 
BRANCH  25  26
HETATM   26  C28 UNL     1       6.772   0.469   2.364  1.00  0.00    -0.001 C 
HETATM   27  C29 UNL     1       7.279   1.289   1.214  1.00  0.00     0.005 C 
ENDBRANCH  25  26
ENDBRANCH  24  25
ENDBRANCH  21  23
ENDBRANCH  20  21
ENDBRANCH  19  20
ENDBRANCH  18  19
ENDBRANCH  15  17
BRANCH  10  28
HETATM   28  O2  UNL     1       1.383   2.246  -1.359  1.00  0.00    -0.385 OA
ATOM     29  H2  UNL     1       2.108   1.826  -0.911  1.00  0.00     0.211 HD
ENDBRANCH  10  28
BRANCH  14  30
HETATM   30  O4  UNL     1      -0.718  -1.921  -0.905  1.00  0.00    -0.382 OA
ATOM     31  H4  UNL     1       0.011  -2.336  -1.351  1.00  0.00     0.211 HD
ENDBRANCH  14  30
BRANCH  14  32
HETATM   32  C17 UNL     1       0.708  -1.681   0.657  1.00  0.00     0.020 C 
HETATM   33  C18 UNL     1       0.209  -2.964   1.319  1.00  0.00     0.013 C 
HETATM   34  C19 UNL     1       1.590  -1.125   1.715  1.00  0.00     0.013 C 
ENDBRANCH  14  32
BRANCH  13  35
HETATM   35  O3  UNL     1      -1.606  -1.009   1.748  1.00  0.00    -0.385 OA
ATOM     36  H3  UNL     1      -1.969  -1.781   1.329  1.00  0.00     0.210 HD
ENDBRANCH  13  35
BRANCH  16  37
HETATM   37  C31 UNL     1      -3.135  -1.277  -0.767  1.00  0.00     0.308 C 
HETATM   38  O7  UNL     1      -3.527  -2.364  -0.204  1.00  0.00    -0.261 OA
BRANCH  37  39
HETATM   39  O8  UNL     1      -3.106  -1.431  -2.112  1.00  0.00    -0.160 OA
BRANCH  39  40
HETATM   40  O9  UNL     1      -3.418  -2.494  -2.819  1.00  0.00    -0.242 OA
ATOM     41  H9  UNL     1      -3.398  -2.602  -3.763  1.00  0.00     0.254 HD
ENDBRANCH  39  40
ENDBRANCH  37  39
ENDBRANCH  16  37
BRANCH   7  42
HETATM   42  O1  UNL     1      -2.847   2.335  -0.154  1.00  0.00    -0.385 OA
ATOM     43  H1  UNL     1      -1.973   2.274   0.214  1.00  0.00     0.210 HD
ENDBRANCH   7  42
BRANCH   1  44
HETATM   44  C2  UNL     1      -4.032   0.593   2.300  1.00  0.00    -0.068 C 
HETATM   45  C1  UNL     1      -3.946   0.007   3.522  1.00  0.00     0.018 C 
HETATM   46  C3  UNL     1      -4.390   2.028   2.477  1.00  0.00     0.047 C 
ENDBRANCH   1  44
TORSDOF 16
