REMARK  1 active torsions:
REMARK  status: ('A' for Active; 'I' for Inactive)
REMARK    1  A    between atoms: N1_1  and  C1_5 
ROOT
HETATM    1  C1  UNL     1       1.479  -0.250  -0.071  1.00  0.00     0.191 C 
HETATM    2  C2  UNL     1       0.637   0.308  -1.191  1.00  0.00     0.018 C 
HETATM    3  C3  UNL     1      -0.511  -0.568  -1.571  1.00  0.00     0.011 C 
HETATM    4  C4  UNL     1      -1.410  -0.777  -0.352  1.00  0.00    -0.012 C 
HETATM    5  C5  UNL     1      -0.572  -1.497   0.672  1.00  0.00     0.011 C 
HETATM    6  C6  UNL     1       0.594  -0.643   1.074  1.00  0.00     0.018 C 
HETATM    7  C7  UNL     1       0.002   0.664   1.624  1.00  0.00     0.032 C 
HETATM    8  C8  UNL     1      -0.714   1.411   0.543  1.00  0.00     0.038 C 
HETATM    9 CL1  UNL     1      -1.235   2.970   1.192  1.00  0.00    -0.119 Cl
HETATM   10  C9  UNL     1      -1.909   0.551   0.121  1.00  0.00     0.030 C 
HETATM   11  C10 UNL     1       0.104   1.655  -0.684  1.00  0.00     0.032 C 
ENDROOT
BRANCH   1  12
HETATM   12  N1  UNL     1       2.395  -1.263  -0.485  1.00  0.00    -0.074 N 
ATOM     13  H13 UNL     1       1.904  -2.013  -0.972  1.00  0.00     0.274 HD
ATOM     14  H12 UNL     1       2.987  -0.923  -1.243  1.00  0.00     0.274 HD
ATOM     15  H11 UNL     1       2.964  -1.640   0.272  1.00  0.00     0.274 HD
ENDBRANCH   1  12
TORSDOF 1
