REMARK  12 active torsions:
REMARK  status: ('A' for Active; 'I' for Inactive)
REMARK    1  A    between atoms: O1_2  and  C2_3 
REMARK    2  A    between atoms: C5_7  and  O2_8 
REMARK    3  A    between atoms: O2_8  and  C6_9 
REMARK    4  A    between atoms: C7_10  and  N1_11 
REMARK    5  A    between atoms: C9_16  and  N2_17 
REMARK    6  A    between atoms: N2_17  and  C10_19 
REMARK    7  A    between atoms: C11_21  and  O4_22 
REMARK    8  A    between atoms: C12_24  and  N3_25 
REMARK    9  A    between atoms: N3_25  and  N4_27 
REMARK   10  A    between atoms: N4_27  and  N5_28 
REMARK   11  A    between atoms: C13_32  and  O6_33 
REMARK   12  A    between atoms: C14_35  and  N6_36 
REMARK       I    between atoms: N6_36  and  C15_38 
ROOT
HETATM    1  C6  UNL     1       1.767  -0.545  -0.091  1.00  0.00     0.182 C 
HETATM    2  C7  UNL     1       2.767  -1.115  -1.044  1.00  0.00     0.216 C 
HETATM    3  C8  UNL     1       3.669   0.002  -1.520  1.00  0.00     0.063 C 
HETATM    4  C9  UNL     1       4.354   0.697  -0.396  1.00  0.00     0.116 C 
HETATM    5  C11 UNL     1       3.909   0.258   0.968  1.00  0.00     0.168 C 
HETATM    6  C12 UNL     1       2.432   0.144   1.091  1.00  0.00     0.176 C 
ENDROOT
BRANCH   1   7
HETATM    7  O2  UNL     1       1.002   0.397  -0.733  1.00  0.00    -0.350 OA
BRANCH   7   8
HETATM    8  C5  UNL     1      -0.346   0.185  -0.753  1.00  0.00     0.278 C 
HETATM    9  C4  UNL     1      -0.973   0.053  -2.093  1.00  0.00     0.116 C 
HETATM   10  C3  UNL     1      -2.462   0.365  -1.922  1.00  0.00     0.055 C 
HETATM   11  S1  UNL     1      -0.859  -1.669  -2.712  1.00  0.00    -0.087 SA
HETATM   12  C2  UNL     1      -3.119  -0.518  -0.926  1.00  0.00     0.149 C 
HETATM   13  C14 UNL     1      -3.130   0.001   0.474  1.00  0.00     0.168 C 
HETATM   14  C13 UNL     1      -1.871   0.654   0.923  1.00  0.00     0.285 C 
HETATM   15  O5  UNL     1      -1.064   1.154  -0.042  1.00  0.00    -0.328 OA
BRANCH  12  16
HETATM   16  O1  UNL     1      -4.425  -0.760  -1.352  1.00  0.00    -0.388 OA
HETATM   17  C1  UNL     1      -4.653  -2.089  -1.668  1.00  0.00     0.202 C 
ENDBRANCH  12  16
BRANCH  13  18
HETATM   18  N6  UNL     1      -4.203   0.961   0.603  1.00  0.00    -0.349 N 
HETATM   19  C15 UNL     1      -5.310   0.750   1.457  1.00  0.00     0.214 C 
HETATM   20  C16 UNL     1      -6.393   1.756   1.565  1.00  0.00     0.117 C 
HETATM   21  O7  UNL     1      -5.417  -0.299   2.155  1.00  0.00    -0.274 OA
ATOM     22  H6  UNL     1      -4.160   1.822   0.058  1.00  0.00     0.163 HD
ENDBRANCH  13  18
BRANCH  14  23
HETATM   23  O6  UNL     1      -2.189   1.694   1.819  1.00  0.00    -0.369 OA
ATOM     24  H6  UNL     1      -2.755   1.343   2.496  1.00  0.00     0.212 HD
ENDBRANCH  14  23
ENDBRANCH   7   8
ENDBRANCH   1   7
BRANCH   2  25
HETATM   25  N1  UNL     1       3.509  -2.231  -0.496  1.00  0.00    -0.072 N 
ATOM     26  H13 UNL     1       3.954  -1.973   0.385  1.00  0.00     0.274 HD
ATOM     27  H12 UNL     1       2.876  -2.956  -0.158  1.00  0.00     0.274 HD
ATOM     28  H11 UNL     1       4.192  -2.620  -1.146  1.00  0.00     0.274 HD
ENDBRANCH   2  25
BRANCH   6  29
HETATM   29  N3  UNL     1       2.129  -0.535   2.351  1.00  0.00    -0.243 N 
ATOM     30  H3  UNL     1       1.162  -0.564   2.673  1.00  0.00     0.197 HD
BRANCH  29  31
HETATM   31  N4  UNL     1       2.996  -1.071   3.035  1.00  0.00    -0.248 NA
BRANCH  31  32
HETATM   32  N5  UNL     1       3.821  -1.748   3.622  1.00  0.00    -0.261 N 
ATOM     33  H52 UNL     1       3.521  -2.516   3.021  1.00  0.00     0.193 HD
ATOM     34  H51 UNL     1       4.541  -2.193   4.190  1.00  0.00     0.193 HD
ENDBRANCH  31  32
ENDBRANCH  29  31
ENDBRANCH   6  29
BRANCH   5  35
HETATM   35  O4  UNL     1       4.321   1.273   1.866  1.00  0.00    -0.391 OA
ATOM     36  H4  UNL     1       4.039   0.995   2.730  1.00  0.00     0.210 HD
ENDBRANCH   5  35
BRANCH   4  37
HETATM   37  N2  UNL     1       5.779   0.561  -0.554  1.00  0.00    -0.361 N 
ATOM     38  H2  UNL     1       6.177  -0.377  -0.510  1.00  0.00     0.162 HD
BRANCH  37  39
HETATM   39  C10 UNL     1       6.659   1.642  -0.766  1.00  0.00     0.348 C 
HETATM   40  O3  UNL     1       6.267   2.831  -0.835  1.00  0.00    -0.284 OA
ENDBRANCH  37  39
ENDBRANCH   4  37
TORSDOF 12
