REMARK  7 active torsions:
REMARK  status: ('A' for Active; 'I' for Inactive)
REMARK       I    between atoms: C3_3  and  N1_5 
REMARK    1  A    between atoms: N1_5  and  C4_7 
REMARK    2  A    between atoms: C4_7  and  C5_8 
REMARK    3  A    between atoms: C5_8  and  C6_9 
REMARK    4  A    between atoms: C6_9  and  N2_10 
REMARK       I    between atoms: N2_10  and  C7_11 
REMARK    5  A    between atoms: N2_10  and  C21_28 
REMARK       I    between atoms: C7_11  and  N3_13 
REMARK    6  A    between atoms: N3_13  and  C8_15 
REMARK    7  A    between atoms: C8_15  and  C11_18 
ROOT
HETATM    1  C1  UNL     1       7.219   4.580   3.361  1.00  0.00     0.022 C 
HETATM    2  C2  UNL     1       6.411   3.682   3.348  1.00  0.00    -0.017 C 
HETATM    3  C3  UNL     1       5.431   2.610   3.344  1.00  0.00     0.295 C 
HETATM    4  O1  UNL     1       5.205   2.068   4.456  1.00  0.00    -0.258 OA
HETATM    5  N1  UNL     1       4.790   2.226   2.143  1.00  0.00    -0.350 N 
ATOM      6  H1  UNL     1       5.002   2.691   1.260  1.00  0.00     0.163 HD
ENDROOT
BRANCH   5   7
HETATM    7  C4  UNL     1       3.827   1.155   2.208  1.00  0.00     0.125 C 
BRANCH   7   8
HETATM    8  C5  UNL     1       3.221   0.849   0.854  1.00  0.00     0.040 C 
BRANCH   8   9
HETATM    9  C6  UNL     1       2.244  -0.272   1.047  1.00  0.00     0.129 C 
BRANCH   9  10
HETATM   10  N2  UNL     1       1.585  -0.666  -0.193  1.00  0.00    -0.329 N 
HETATM   11  C7  UNL     1       0.371  -0.042  -0.603  1.00  0.00     0.319 C 
HETATM   12  O2  UNL     1      -0.121  -0.455  -1.670  1.00  0.00    -0.247 OA
HETATM   13  N3  UNL     1      -0.272   0.983   0.118  1.00  0.00    -0.334 N 
ATOM     14  H3  UNL     1       0.202   1.283   0.970  1.00  0.00     0.165 HD
BRANCH  13  15
HETATM   15  C8  UNL     1      -1.475   1.650  -0.172  1.00  0.00     0.031 C 
HETATM   16  C9  UNL     1      -1.563   2.920   0.778  1.00  0.00     0.038 C 
HETATM   17  C10 UNL     1      -1.470   2.211  -1.556  1.00  0.00     0.038 C 
BRANCH  15  18
HETATM   18  C11 UNL     1      -2.785   0.997   0.084  1.00  0.00     0.021 C 
HETATM   19  C12 UNL     1      -3.082   0.624   1.510  1.00  0.00    -0.007 C 
HETATM   20  C13 UNL     1      -4.598   0.898   1.677  1.00  0.00     0.010 C 
HETATM   21  C17 UNL     1      -2.946  -0.812   1.869  1.00  0.00     0.010 C 
HETATM   22  C14 UNL     1      -5.326   0.072   0.662  1.00  0.00    -0.013 C 
HETATM   23  C15 UNL     1      -5.141  -1.394   0.993  1.00  0.00     0.009 C 
HETATM   24  C20 UNL     1      -4.911   0.289  -0.764  1.00  0.00     0.010 C 
HETATM   25  C16 UNL     1      -3.648  -1.693   0.892  1.00  0.00    -0.013 C 
HETATM   26  C18 UNL     1      -3.278  -1.429  -0.535  1.00  0.00     0.010 C 
HETATM   27  C19 UNL     1      -3.367   0.040  -0.870  1.00  0.00    -0.007 C 
ENDBRANCH  15  18
ENDBRANCH  13  15
BRANCH  10  28
HETATM   28  C21 UNL     1       2.235  -1.700  -0.953  1.00  0.00     0.088 C 
HETATM   29  C22 UNL     1       2.721  -1.089  -2.272  1.00  0.00     0.025 C 
HETATM   30  C23 UNL     1       2.706  -2.098  -3.380  1.00  0.00     0.002 C 
HETATM   31  C24 UNL     1       3.290  -3.384  -2.824  1.00  0.00     0.000 C 
HETATM   32  C25 UNL     1       2.411  -3.979  -1.750  1.00  0.00     0.002 C 
HETATM   33  C26 UNL     1       1.430  -2.925  -1.209  1.00  0.00     0.025 C 
ENDBRANCH  10  28
ENDBRANCH   9  10
ENDBRANCH   8   9
ENDBRANCH   7   8
ENDBRANCH   5   7
TORSDOF 7
