REMARK  11 active torsions:
REMARK  status: ('A' for Active; 'I' for Inactive)
REMARK    1  A    between atoms: C3_3  and  C4_4 
REMARK    2  A    between atoms: C4_4  and  C5_5 
REMARK    3  A    between atoms: C6_6  and  C7_7 
REMARK    4  A    between atoms: C7_7  and  N1_8 
REMARK    5  A    between atoms: N1_8  and  C9_10 
REMARK    6  A    between atoms: C9_10  and  C11_12 
REMARK    7  A    between atoms: C11_12  and  C12_13 
REMARK       I    between atoms: C12_13  and  N2_15 
REMARK    8  A    between atoms: N2_15  and  C13_17 
REMARK    9  A    between atoms: C13_17  and  O2_18 
REMARK   10  A    between atoms: C13_17  and  N3_20 
REMARK   11  A    between atoms: N3_20  and  C14_22 
ROOT
HETATM    1  C1  UNL     1      11.160   3.644  -0.264  1.00  0.00     0.012 C 
HETATM    2  C2  UNL     1      10.159   2.967  -0.414  1.00  0.00    -0.117 C 
HETATM    3  C3  UNL     1       8.958   2.169  -0.618  1.00  0.00     0.105 C 
ENDROOT
BRANCH   3   4
HETATM    4  C4  UNL     1       9.215   0.678  -0.499  1.00  0.00     0.106 C 
BRANCH   4   5
HETATM    5  C5  UNL     1       7.978  -0.080  -0.713  1.00  0.00    -0.100 C 
HETATM    6  C6  UNL     1       6.959  -0.687  -0.910  1.00  0.00    -0.062 C 
BRANCH   6   7
HETATM    7  C7  UNL     1       5.737  -1.440  -1.179  1.00  0.00     0.151 C 
BRANCH   7   8
HETATM    8  N1  UNL     1       4.866  -1.596  -0.099  1.00  0.00    -0.383 N 
HETATM    9  C8  UNL     1       5.247  -2.385   0.996  1.00  0.00     0.150 C 
BRANCH   8  10
HETATM   10  C9  UNL     1       3.603  -0.962  -0.077  1.00  0.00     0.088 C 
HETATM   11  C10 UNL     1       3.380  -0.313   1.270  1.00  0.00     0.033 C 
BRANCH  10  12
HETATM   12  C11 UNL     1       2.551  -1.943  -0.467  1.00  0.00     0.128 C 
BRANCH  12  13
HETATM   13  C12 UNL     1       1.176  -1.340  -0.425  1.00  0.00     0.226 C 
HETATM   14  O1  UNL     1       1.049  -0.158  -0.035  1.00  0.00    -0.273 OA
HETATM   15  N2  UNL     1       0.055  -2.088  -0.809  1.00  0.00    -0.293 N 
ATOM     16  H2  UNL     1       0.258  -2.990  -1.239  1.00  0.00     0.172 HD
BRANCH  15  17
HETATM   17  C13 UNL     1      -1.290  -1.776  -0.687  1.00  0.00     0.220 C 
BRANCH  17  18
HETATM   18  O2  UNL     1      -2.096  -2.727  -1.074  1.00  0.00    -0.332 OA
ATOM     19  H2  UNL     1      -3.018  -2.513  -0.990  1.00  0.00     0.220 HD
ENDBRANCH  17  18
BRANCH  17  20
HETATM   20  N3  UNL     1      -1.912  -0.636  -0.214  1.00  0.00    -0.347 N 
ATOM     21  H3  UNL     1      -1.289   0.132   0.037  1.00  0.00     0.163 HD
BRANCH  20  22
HETATM   22  C14 UNL     1      -3.316  -0.382  -0.027  1.00  0.00     0.035 C 
HETATM   23  C15 UNL     1      -3.786  -1.440   0.955  1.00  0.00     0.035 C 
HETATM   24  C16 UNL     1      -5.173  -1.107   1.390  1.00  0.00    -0.011 C 
HETATM   25  C17 UNL     1      -6.119  -1.067   0.243  1.00  0.00     0.010 C 
HETATM   26  C25 UNL     1      -5.147   0.177   2.131  1.00  0.00     0.014 C 
HETATM   27  C18 UNL     1      -5.616  -0.339  -0.966  1.00  0.00    -0.008 C 
HETATM   28  C19 UNL     1      -4.146  -0.476  -1.249  1.00  0.00     0.036 C 
HETATM   29  C20 UNL     1      -6.136   1.065  -0.902  1.00  0.00    -0.014 C 
HETATM   30  C21 UNL     1      -5.858   1.890  -2.138  1.00  0.00     0.010 C 
HETATM   31  C22 UNL     1      -5.898   1.780   0.369  1.00  0.00     0.014 C 
HETATM   32  C23 UNL     1      -4.742   1.328   1.195  1.00  0.00    -0.041 C 
HETATM   33  C24 UNL     1      -4.441   2.490   2.162  1.00  0.00     0.015 C 
HETATM   34  C26 UNL     1      -3.481   1.030   0.493  1.00  0.00     0.040 C 
ENDBRANCH  20  22
ENDBRANCH  17  20
ENDBRANCH  15  17
ENDBRANCH  12  13
ENDBRANCH  10  12
ENDBRANCH   8  10
ENDBRANCH   7   8
ENDBRANCH   6   7
ENDBRANCH   4   5
ENDBRANCH   3   4
TORSDOF 11
