REMARK  18 active torsions:
REMARK  status: ('A' for Active; 'I' for Inactive)
REMARK       I    between atoms: N1_2  and  C2_4 
REMARK    1  A    between atoms: C2_4  and  O2_6 
REMARK    2  A    between atoms: O2_6  and  C3_7 
REMARK    3  A    between atoms: C3_7  and  C4_8 
REMARK    4  A    between atoms: C4_8  and  O3_9 
REMARK    5  A    between atoms: C5_11  and  O4_12 
REMARK    6  A    between atoms: O4_12  and  C6_13 
REMARK    7  A    between atoms: C6_13  and  C7_15 
REMARK    8  A    between atoms: C10_18  and  N2_19 
REMARK    9  A    between atoms: C13_24  and  O8_25 
REMARK   10  A    between atoms: C13_24  and  C14_27 
REMARK   11  A    between atoms: C15_30  and  C16_31 
REMARK   12  A    between atoms: C16_31  and  O11_32 
REMARK   13  A    between atoms: C16_31  and  C17_34 
REMARK   14  A    between atoms: C17_34  and  O12_35 
REMARK   15  A    between atoms: C18_38  and  C20_40 
REMARK   16  A    between atoms: C20_40  and  O14_41 
REMARK   17  A    between atoms: O14_41  and  C21_42 
REMARK   18  A    between atoms: C21_42  and  C22_44 
ROOT
HETATM    1  C4  UNL     1       0.282  -1.121  -0.339  1.00  0.00     0.142 C 
HETATM    2  C5  UNL     1       1.355  -0.703  -1.369  1.00  0.00     0.219 C 
HETATM    3  C13 UNL     1       0.668  -0.288  -2.620  1.00  0.00     0.204 C 
HETATM    4  C15 UNL     1      -0.514   0.623  -2.367  1.00  0.00     0.201 C 
HETATM    5  O13 UNL     1      -1.342   0.106  -1.419  1.00  0.00    -0.363 OA
HETATM    6  C18 UNL     1      -0.762  -0.093  -0.167  1.00  0.00     0.115 C 
HETATM    7  C19 UNL     1      -0.373   1.175   0.512  1.00  0.00     0.052 C 
ENDROOT
BRANCH   2   8
HETATM    8  O4  UNL     1       2.298   0.027  -0.776  1.00  0.00    -0.305 OA
BRANCH   8   9
HETATM    9  C6  UNL     1       3.607  -0.197  -0.486  1.00  0.00     0.293 C 
HETATM   10  O5  UNL     1       3.932  -1.321  -0.878  1.00  0.00    -0.259 OA
BRANCH   9  11
HETATM   11  C7  UNL     1       4.510   0.728   0.183  1.00  0.00     0.039 A 
HETATM   12  C8  UNL     1       5.803   0.353   0.403  1.00  0.00     0.020 A 
HETATM   13  C9  UNL     1       6.696   1.207   1.038  1.00  0.00     0.037 A 
HETATM   14  C10 UNL     1       6.305   2.456   1.464  1.00  0.00     0.102 A 
HETATM   15  C11 UNL     1       4.997   2.824   1.237  1.00  0.00     0.037 A 
HETATM   16  C12 UNL     1       4.103   1.972   0.602  1.00  0.00     0.020 A 
BRANCH  14  17
HETATM   17  N2  UNL     1       7.204   3.346   2.117  1.00  0.00    -0.116 N 
HETATM   18  O6  UNL     1       6.813   4.456   2.483  1.00  0.00    -0.532 OA
HETATM   19  O7  UNL     1       8.513   3.007   2.357  1.00  0.00    -0.532 OA
ENDBRANCH  14  17
ENDBRANCH   9  11
ENDBRANCH   8   9
ENDBRANCH   2   8
BRANCH   1  20
HETATM   20  C3  UNL     1       0.931  -1.665   0.888  1.00  0.00     0.224 C 
BRANCH  20  21
HETATM   21  O2  UNL     1       0.035  -2.290   1.740  1.00  0.00    -0.301 OA
BRANCH  21  22
HETATM   22  C2  UNL     1       0.317  -2.883   2.935  1.00  0.00     0.360 C 
HETATM   23  N1  UNL     1      -0.699  -3.495   3.721  1.00  0.00    -0.341 N 
HETATM   24  C1  UNL     1      -0.404  -4.127   4.991  1.00  0.00     0.151 C 
ATOM     25  H1  UNL     1      -1.661  -3.489   3.381  1.00  0.00     0.164 HD
HETATM   26  O1  UNL     1       1.522  -2.875   3.326  1.00  0.00    -0.239 OA
ENDBRANCH  21  22
ENDBRANCH  20  21
ENDBRANCH   1  20
BRANCH   1  27
HETATM   27  O3  UNL     1      -0.342  -2.234  -0.965  1.00  0.00    -0.382 OA
ATOM     28  H3  UNL     1      -0.756  -1.887  -1.747  1.00  0.00     0.211 HD
ENDBRANCH   1  27
BRANCH   3  29
HETATM   29  O8  UNL     1       0.079  -1.445  -3.137  1.00  0.00    -0.374 OA
ATOM     30  H8  UNL     1      -0.360  -1.180  -3.937  1.00  0.00     0.211 HD
ENDBRANCH   3  29
BRANCH   3  31
HETATM   31  C14 UNL     1       1.568   0.186  -3.656  1.00  0.00     0.214 C 
HETATM   32  O9  UNL     1       1.658  -0.458  -4.732  1.00  0.00    -0.646 OA
HETATM   33  O10 UNL     1       2.376   1.311  -3.598  1.00  0.00    -0.646 OA
ENDBRANCH   3  31
BRANCH   6  34
HETATM   34  C20 UNL     1      -1.902  -0.661   0.666  1.00  0.00     0.219 C 
BRANCH  34  35
HETATM   35  O14 UNL     1      -2.922   0.369   0.556  1.00  0.00    -0.318 OA
BRANCH  35  36
HETATM   36  C21 UNL     1      -4.145   0.202   1.203  1.00  0.00     0.262 C 
HETATM   37  O15 UNL     1      -4.281  -0.864   1.858  1.00  0.00    -0.265 OA
BRANCH  36  38
HETATM   38  C22 UNL     1      -5.226   1.229   1.123  1.00  0.00     0.077 C 
HETATM   39  C23 UNL     1      -5.672   1.468  -0.287  1.00  0.00     0.020 C 
HETATM   40  C24 UNL     1      -6.400   0.737   1.930  1.00  0.00     0.020 C 
ENDBRANCH  36  38
ENDBRANCH  35  36
ENDBRANCH  34  35
ENDBRANCH   6  34
BRANCH   4  41
HETATM   41  C16 UNL     1      -1.346   0.944  -3.553  1.00  0.00     0.174 C 
BRANCH  41  42
HETATM   42  O11 UNL     1      -2.296   1.895  -3.080  1.00  0.00    -0.391 OA
ATOM     43  H11 UNL     1      -2.829   2.101  -3.839  1.00  0.00     0.210 HD
ENDBRANCH  41  42
BRANCH  41  44
HETATM   44  C17 UNL     1      -2.152  -0.150  -4.151  1.00  0.00     0.198 C 
BRANCH  44  45
HETATM   45  O12 UNL     1      -3.014  -0.784  -3.271  1.00  0.00    -0.398 OA
ATOM     46  H12 UNL     1      -3.530  -1.484  -3.654  1.00  0.00     0.209 HD
ENDBRANCH  44  45
ENDBRANCH  41  44
ENDBRANCH   4  41
TORSDOF 18
