REMARK  19 active torsions:
REMARK  status: ('A' for Active; 'I' for Inactive)
REMARK    1  A    between atoms: O1_2  and  C2_3 
REMARK    2  A    between atoms: C2_3  and  O2_4 
REMARK    3  A    between atoms: C2_3  and  C3_6 
REMARK    4  A    between atoms: C3_6  and  O3_7 
REMARK    5  A    between atoms: C3_6  and  C4_9 
REMARK    6  A    between atoms: C5_10  and  C6_11 
REMARK    7  A    between atoms: C7_12  and  C8_13 
REMARK    8  A    between atoms: C8_13  and  C10_15 
REMARK    9  A    between atoms: C8_13  and  O5_18 
REMARK   10  A    between atoms: C10_15  and  O4_16 
REMARK   11  A    between atoms: O5_18  and  C11_19 
REMARK   12  A    between atoms: C16_25  and  O7_26 
REMARK   13  A    between atoms: C17_28  and  O8_29 
REMARK   14  A    between atoms: O8_29  and  C18_30 
REMARK   15  A    between atoms: C18_30  and  C19_32 
REMARK   16  A    between atoms: C25_38  and  O10_39 
REMARK   17  A    between atoms: C26_41  and  O11_42 
REMARK   18  A    between atoms: C26_41  and  C27_44 
REMARK   19  A    between atoms: C27_44  and  C28_46 
ROOT
HETATM    1  C4  UNL     1      -0.711  -1.161  -0.215  1.00  0.00    -0.003 C 
HETATM    2  C5  UNL     1      -1.211   0.021  -0.522  1.00  0.00    -0.048 C 
HETATM    3  C13 UNL     1      -0.216   0.813  -1.389  1.00  0.00     0.040 C 
HETATM    4  C14 UNL     1       0.509  -0.380  -1.977  1.00  0.00     0.025 C 
HETATM    5  C15 UNL     1       0.698  -1.138  -0.693  1.00  0.00     0.060 C 
HETATM    6  C16 UNL     1       1.544  -0.317   0.315  1.00  0.00     0.167 C 
HETATM    7  C17 UNL     1       2.825  -0.246  -0.471  1.00  0.00     0.194 C 
HETATM    8  C25 UNL     1       2.926  -1.601  -1.076  1.00  0.00     0.194 C 
HETATM    9  C26 UNL     1       1.536  -2.295  -0.839  1.00  0.00     0.171 C 
ENDROOT
BRANCH   1  10
HETATM   10  C3  UNL     1      -1.380  -2.217   0.517  1.00  0.00     0.105 C 
BRANCH  10  11
HETATM   11  C2  UNL     1      -2.651  -2.305   1.224  1.00  0.00     0.314 C 
BRANCH  11  12
HETATM   12  O1  UNL     1      -3.721  -2.618   0.386  1.00  0.00    -0.360 OA
HETATM   13  C1  UNL     1      -4.292  -3.842   0.660  1.00  0.00     0.205 C 
ENDBRANCH  11  12
BRANCH  11  14
HETATM   14  O2  UNL     1      -2.929  -1.294   2.135  1.00  0.00    -0.365 OA
ATOM     15  H2  UNL     1      -2.200  -1.081   2.706  1.00  0.00     0.213 HD
ENDBRANCH  11  14
ENDBRANCH  10  11
BRANCH  10  16
HETATM   16  O3  UNL     1      -0.746  -3.371   0.599  1.00  0.00    -0.359 OA
ATOM     17  H3  UNL     1       0.083  -3.314   0.138  1.00  0.00     0.217 HD
ENDBRANCH  10  16
ENDBRANCH   1  10
BRANCH   6  18
HETATM   18  O7  UNL     1       1.724  -1.109   1.449  1.00  0.00    -0.392 OA
ATOM     19  H7  UNL     1       2.242  -0.606   2.066  1.00  0.00     0.210 HD
ENDBRANCH   6  18
BRANCH   9  20
HETATM   20  O11 UNL     1       1.819  -3.068   0.264  1.00  0.00    -0.378 OA
ATOM     21  H11 UNL     1       2.373  -3.833   0.167  1.00  0.00     0.211 HD
ENDBRANCH   9  20
BRANCH   9  22
HETATM   22  C27 UNL     1       1.345  -3.206  -1.989  1.00  0.00     0.263 C 
HETATM   23  O12 UNL     1       1.052  -2.773  -3.130  1.00  0.00    -0.282 OA
BRANCH  22  24
HETATM   24  C28 UNL     1       1.482  -4.655  -1.884  1.00  0.00     0.250 C 
HETATM   25  O13 UNL     1       1.779  -5.192  -0.762  1.00  0.00    -0.642 OA
HETATM   26  O14 UNL     1       1.305  -5.501  -2.958  1.00  0.00    -0.642 OA
ENDBRANCH  22  24
ENDBRANCH   9  22
BRANCH   2  27
HETATM   27  C6  UNL     1      -2.500   0.620  -0.255  1.00  0.00     0.007 C 
HETATM   28  C7  UNL     1      -2.785   1.876  -0.644  1.00  0.00     0.014 C 
BRANCH  28  29
HETATM   29  C8  UNL     1      -4.088   2.528  -0.394  1.00  0.00     0.106 C 
HETATM   30  C9  UNL     1      -4.940   2.466  -1.664  1.00  0.00     0.053 C 
BRANCH  29  31
HETATM   31  C10 UNL     1      -3.823   3.994  -0.132  1.00  0.00     0.206 C 
BRANCH  31  32
HETATM   32  O4  UNL     1      -2.991   4.177   0.969  1.00  0.00    -0.398 OA
ATOM     33  H4  UNL     1      -2.825   5.098   1.134  1.00  0.00     0.209 HD
ENDBRANCH  31  32
ENDBRANCH  29  31
BRANCH  29  34
HETATM   34  O5  UNL     1      -4.705   1.878   0.676  1.00  0.00    -0.304 OA
BRANCH  34  35
HETATM   35  C11 UNL     1      -5.931   2.190   1.210  1.00  0.00     0.255 C 
HETATM   36  C12 UNL     1      -6.451   1.391   2.360  1.00  0.00     0.126 C 
HETATM   37  O6  UNL     1      -6.574   3.135   0.714  1.00  0.00    -0.266 OA
ENDBRANCH  34  35
ENDBRANCH  29  34
ENDBRANCH  28  29
ENDBRANCH   2  27
BRANCH   7  38
HETATM   38  O8  UNL     1       3.938   0.066   0.353  1.00  0.00    -0.307 OA
BRANCH  38  39
HETATM   39  C18 UNL     1       4.705   1.206   0.181  1.00  0.00     0.293 C 
HETATM   40  O9  UNL     1       4.381   1.980  -0.749  1.00  0.00    -0.259 OA
BRANCH  39  41
HETATM   41  C19 UNL     1       5.847   1.538   1.017  1.00  0.00     0.039 A 
HETATM   42  C20 UNL     1       6.264   0.737   2.060  1.00  0.00     0.017 A 
HETATM   43  C21 UNL     1       7.361   1.159   2.780  1.00  0.00     0.001 A 
HETATM   44  C22 UNL     1       8.045   2.326   2.507  1.00  0.00     0.000 A 
HETATM   45  C23 UNL     1       7.622   3.120   1.465  1.00  0.00     0.001 A 
HETATM   46  C24 UNL     1       6.531   2.705   0.744  1.00  0.00     0.017 A 
ENDBRANCH  39  41
ENDBRANCH  38  39
ENDBRANCH   7  38
BRANCH   8  47
HETATM   47  O10 UNL     1       3.263  -1.545  -2.391  1.00  0.00    -0.389 OA
ATOM     48  H10 UNL     1       3.328  -2.410  -2.777  1.00  0.00     0.210 HD
ENDBRANCH   8  47
TORSDOF 19
