REMARK  17 active torsions:
REMARK  status: ('A' for Active; 'I' for Inactive)
REMARK    1  A    between atoms: C2_2  and  C3_3 
REMARK    2  A    between atoms: C2_2  and  C5_9 
REMARK    3  A    between atoms: C3_3  and  O1_4 
REMARK    4  A    between atoms: C3_3  and  C4_6 
REMARK    5  A    between atoms: C5_9  and  O4_10 
REMARK    6  A    between atoms: C5_9  and  C10_17 
REMARK    7  A    between atoms: O4_10  and  C6_11 
REMARK    8  A    between atoms: C6_11  and  C9_14 
REMARK    9  A    between atoms: C9_14  and  O5_15 
REMARK   10  A    between atoms: C10_17  and  O6_18 
REMARK   11  A    between atoms: C10_17  and  C11_20 
REMARK   12  A    between atoms: C11_20  and  O7_21 
REMARK   13  A    between atoms: O7_21  and  C12_22 
REMARK   14  A    between atoms: C16_28  and  O10_29 
REMARK   15  A    between atoms: C21_35  and  O11_36 
REMARK   16  A    between atoms: O11_36  and  C22_37 
REMARK   17  A    between atoms: C28_45  and  O14_46 
ROOT
HETATM    1  C12 UNL     1      -0.619  -0.364  -0.936  1.00  0.00     0.257 A 
HETATM    2  O8  UNL     1       0.128  -1.225  -1.738  1.00  0.00    -0.303 OA
HETATM    3  C13 UNL     1      -0.822  -1.690  -0.899  1.00  0.00     0.258 A 
HETATM    4  O9  UNL     1      -1.791  -2.428  -1.458  1.00  0.00    -0.332 OA
HETATM    5  C14 UNL     1      -2.173  -2.890  -0.254  1.00  0.00     0.119 C 
HETATM    6  C15 UNL     1      -2.214  -4.435  -0.308  1.00  0.00     0.052 C 
HETATM    7  C16 UNL     1      -3.292  -2.270   0.465  1.00  0.00     0.166 C 
HETATM    8  C17 UNL     1      -4.012  -1.094  -0.000  1.00  0.00     0.080 C 
HETATM    9  C18 UNL     1      -3.672   0.069   0.875  1.00  0.00    -0.075 C 
HETATM   10  C19 UNL     1      -4.310   0.010   2.240  1.00  0.00     0.044 C 
HETATM   11  C20 UNL     1      -2.910   1.131   0.652  1.00  0.00     0.011 C 
HETATM   12  C21 UNL     1      -2.139   1.539  -0.521  1.00  0.00     0.189 C 
HETATM   13  C24 UNL     1      -1.806   0.414  -1.471  1.00  0.00     0.224 C 
HETATM   14  O13 UNL     1      -2.789  -0.328  -1.959  1.00  0.00    -0.366 OA
HETATM   15  C25 UNL     1      -3.955  -0.639  -1.394  1.00  0.00     0.064 C 
HETATM   16  C26 UNL     1      -4.928   0.509  -1.597  1.00  0.00     0.046 C 
HETATM   17  C27 UNL     1      -4.617  -1.776  -2.226  1.00  0.00     0.046 C 
HETATM   18  C28 UNL     1      -0.786  -2.520   0.272  1.00  0.00     0.223 C 
ENDROOT
BRANCH   1  19
HETATM   19  O7  UNL     1       0.280   0.290  -0.056  1.00  0.00    -0.346 OA
BRANCH  19  20
HETATM   20  C11 UNL     1       1.178   0.961  -0.875  1.00  0.00     0.206 C 
BRANCH  20  21
HETATM   21  C10 UNL     1       2.174   1.723  -0.035  1.00  0.00     0.175 C 
BRANCH  21  22
HETATM   22  C5  UNL     1       3.233   0.858   0.590  1.00  0.00     0.184 C 
BRANCH  22  23
HETATM   23  C2  UNL     1       2.684   0.050   1.697  1.00  0.00    -0.019 C 
HETATM   24  C1  UNL     1       2.633  -1.296   1.611  1.00  0.00     0.020 C 
BRANCH  23  25
HETATM   25  C3  UNL     1       2.172   0.663   2.935  1.00  0.00     0.249 C 
BRANCH  25  26
HETATM   26  O1  UNL     1       1.652  -0.351   3.788  1.00  0.00    -0.380 OA
ATOM     27  H1  UNL     1       1.322   0.044   4.586  1.00  0.00     0.211 HD
ENDBRANCH  25  26
BRANCH  25  28
HETATM   28  C4  UNL     1       3.222   1.359   3.701  1.00  0.00     0.207 C 
HETATM   29  O2  UNL     1       3.854   2.315   3.219  1.00  0.00    -0.646 OA
HETATM   30  O3  UNL     1       3.523   0.955   4.978  1.00  0.00    -0.646 OA
ENDBRANCH  25  28
ENDBRANCH  23  25
ENDBRANCH  22  23
BRANCH  22  31
HETATM   31  O4  UNL     1       3.701   0.031  -0.442  1.00  0.00    -0.366 OA
BRANCH  31  32
HETATM   32  C6  UNL     1       4.994   0.264  -0.814  1.00  0.00     0.076 C 
HETATM   33  C7  UNL     1       5.249   1.672  -1.312  1.00  0.00     0.048 C 
HETATM   34  C8  UNL     1       5.243  -0.644  -2.033  1.00  0.00     0.048 C 
BRANCH  32  35
HETATM   35  C9  UNL     1       6.049  -0.067   0.183  1.00  0.00     0.201 C 
BRANCH  35  36
HETATM   36  O5  UNL     1       6.079  -1.411   0.542  1.00  0.00    -0.398 OA
ATOM     37  H5  UNL     1       6.752  -1.622   1.178  1.00  0.00     0.209 HD
ENDBRANCH  35  36
ENDBRANCH  32  35
ENDBRANCH  31  32
ENDBRANCH  22  31
ENDBRANCH  21  22
BRANCH  21  38
HETATM   38  O6  UNL     1       1.576   2.631   0.797  1.00  0.00    -0.391 OA
ATOM     39  H6  UNL     1       0.907   3.178   0.402  1.00  0.00     0.210 HD
ENDBRANCH  21  38
ENDBRANCH  20  21
ENDBRANCH  19  20
ENDBRANCH   1  19
BRANCH  18  40
HETATM   40  O14 UNL     1       0.158  -3.544   0.188  1.00  0.00    -0.387 OA
ATOM     41  H14 UNL     1       0.182  -4.093   0.963  1.00  0.00     0.210 HD
ENDBRANCH  18  40
BRANCH  12  42
HETATM   42  O11 UNL     1      -2.693   2.651  -1.203  1.00  0.00    -0.309 OA
BRANCH  42  43
HETATM   43  C22 UNL     1      -2.153   3.894  -1.319  1.00  0.00     0.255 C 
HETATM   44  C23 UNL     1      -2.801   5.017  -2.058  1.00  0.00     0.126 C 
HETATM   45  O12 UNL     1      -1.043   4.072  -0.760  1.00  0.00    -0.266 OA
ENDBRANCH  42  43
ENDBRANCH  12  42
BRANCH   7  46
HETATM   46  O10 UNL     1      -2.832  -2.045   1.789  1.00  0.00    -0.392 OA
ATOM     47  H10 UNL     1      -3.556  -1.644   2.254  1.00  0.00     0.210 HD
ENDBRANCH   7  46
TORSDOF 17
