REMARK  16 active torsions:
REMARK  status: ('A' for Active; 'I' for Inactive)
REMARK    1  A    between atoms: C2_2  and  C4_4 
REMARK    2  A    between atoms: C5_5  and  C6_6 
REMARK    3  A    between atoms: C10_10  and  O1_11 
REMARK    4  A    between atoms: C10_10  and  C11_13 
REMARK    5  A    between atoms: C11_13  and  O2_14 
REMARK    6  A    between atoms: C11_13  and  C12_16 
REMARK    7  A    between atoms: C12_16  and  O3_17 
REMARK    8  A    between atoms: C12_16  and  C13_19 
REMARK    9  A    between atoms: C13_19  and  N1_20 
REMARK   10  A    between atoms: C13_19  and  C18_31 
REMARK   11  A    between atoms: N1_20  and  N2_21 
REMARK   12  A    between atoms: N2_21  and  S1_23 
REMARK   13  A    between atoms: S1_23  and  O6_26 
REMARK   14  A    between atoms: O6_26  and  C14_27 
REMARK   15  A    between atoms: C22_41  and  C24_43 
REMARK   16  A    between atoms: C24_43  and  O9_44 
ROOT
HETATM    1  C11 UNL     1      -0.039  -0.405   0.179  1.00  0.00     0.109 C 
ENDROOT
BRANCH   1   2
HETATM    2  C10 UNL     1      -1.227  -1.099  -0.350  1.00  0.00     0.120 C 
HETATM    3  C6  UNL     1      -2.495  -0.504   0.348  1.00  0.00     0.112 C 
HETATM    4  C7  UNL     1      -3.307   0.045  -0.800  1.00  0.00     0.174 C 
HETATM    5  C8  UNL     1      -3.030  -0.967  -1.873  1.00  0.00     0.073 C 
HETATM    6  O8  UNL     1      -4.622   0.086  -0.398  1.00  0.00    -0.353 OA
HETATM    7  O10 UNL     1      -2.768   1.244  -1.163  1.00  0.00    -0.353 OA
HETATM    8  C9  UNL     1      -1.493  -0.949  -1.820  1.00  0.00     0.051 C 
HETATM    9  C21 UNL     1      -5.483   0.668  -1.295  1.00  0.00     0.185 C 
HETATM   10  C22 UNL     1      -4.990   1.995  -1.804  1.00  0.00     0.021 C 
HETATM   11  C23 UNL     1      -5.294   2.048  -3.292  1.00  0.00     0.022 C 
HETATM   12  C25 UNL     1      -3.568   2.269  -1.498  1.00  0.00     0.185 C 
BRANCH   3  13
HETATM   13  C5  UNL     1      -3.294  -1.575   0.971  1.00  0.00    -0.013 C 
HETATM   14  C4  UNL     1      -3.657  -1.793   2.176  1.00  0.00     0.002 C 
BRANCH  14  15
HETATM   15  C2  UNL     1      -3.462  -1.123   3.415  1.00  0.00    -0.072 C 
HETATM   16  C1  UNL     1      -4.003  -1.649   4.534  1.00  0.00     0.018 C 
HETATM   17  C3  UNL     1      -2.705   0.121   3.556  1.00  0.00     0.047 C 
ENDBRANCH  14  15
ENDBRANCH   3  13
BRANCH  10  18
HETATM   18  C24 UNL     1      -5.827   3.116  -1.169  1.00  0.00     0.177 C 
BRANCH  18  19
HETATM   19  O9  UNL     1      -7.167   2.999  -1.481  1.00  0.00    -0.400 OA
ATOM     20  H9  UNL     1      -7.685   3.692  -1.088  1.00  0.00     0.209 HD
ENDBRANCH  18  19
ENDBRANCH  10  18
BRANCH   2  21
HETATM   21  O1  UNL     1      -1.308  -2.446  -0.047  1.00  0.00    -0.382 OA
ATOM     22  H1  UNL     1      -0.538  -2.807  -0.471  1.00  0.00     0.211 HD
ENDBRANCH   2  21
ENDBRANCH   1   2
BRANCH   1  23
HETATM   23  O2  UNL     1      -0.041   0.920  -0.298  1.00  0.00    -0.359 OA
ATOM     24  H2  UNL     1       0.725   1.367   0.043  1.00  0.00     0.217 HD
ENDBRANCH   1  23
BRANCH   1  25
HETATM   25  C12 UNL     1       1.279  -1.021   0.286  1.00  0.00     0.103 C 
BRANCH  25  26
HETATM   26  O3  UNL     1       1.430  -2.285   0.748  1.00  0.00    -0.360 OA
ATOM     27  H3  UNL     1       2.288  -2.686   0.818  1.00  0.00     0.217 HD
ENDBRANCH  25  26
BRANCH  25  28
HETATM   28  C13 UNL     1       2.277  -0.734  -0.803  1.00  0.00     0.228 C 
BRANCH  28  29
HETATM   29  N1  UNL     1       3.667  -0.714  -0.302  1.00  0.00    -0.110 NA
BRANCH  29  30
HETATM   30  N2  UNL     1       3.780   0.276   0.673  1.00  0.00    -0.207 N 
ATOM     31  H2  UNL     1       3.148   1.073   0.755  1.00  0.00     0.197 HD
BRANCH  30  32
HETATM   32  S1  UNL     1       5.113  -0.009   1.721  1.00  0.00     0.373 S 
HETATM   33  O4  UNL     1       4.787   0.515   3.104  1.00  0.00    -0.174 OA
HETATM   34  O5  UNL     1       5.274  -1.505   1.876  1.00  0.00    -0.174 OA
BRANCH  32  35
HETATM   35  O6  UNL     1       6.454   0.720   1.080  1.00  0.00    -0.248 OA
BRANCH  35  36
HETATM   36  C14 UNL     1       6.985   1.735   1.833  1.00  0.00     0.071 C 
HETATM   37  C15 UNL     1       7.416   1.267   3.199  1.00  0.00     0.047 C 
HETATM   38  C16 UNL     1       6.080   2.947   1.913  1.00  0.00     0.047 C 
HETATM   39  C17 UNL     1       8.249   2.210   1.109  1.00  0.00     0.047 C 
ENDBRANCH  35  36
ENDBRANCH  32  35
ENDBRANCH  30  32
ENDBRANCH  29  30
ENDBRANCH  28  29
BRANCH  28  40
HETATM   40  C18 UNL     1       2.339  -1.825  -1.844  1.00  0.00     0.131 A 
HETATM   41  N3  UNL     1       3.272  -1.852  -2.842  1.00  0.00    -0.245 N 
HETATM   42  O7  UNL     1       3.079  -2.923  -3.551  1.00  0.00    -0.223 OA
ATOM     43  H3  UNL     1       3.996  -1.151  -3.003  1.00  0.00     0.196 HD
HETATM   44  C19 UNL     1       2.078  -3.614  -3.090  1.00  0.00     0.144 A 
HETATM   45  C20 UNL     1       1.515  -4.892  -3.588  1.00  0.00     0.100 C 
HETATM   46  N4  UNL     1       1.627  -2.926  -2.035  1.00  0.00    -0.325 N 
ATOM     47  H4  UNL     1       0.839  -3.211  -1.454  1.00  0.00     0.169 HD
ENDBRANCH  28  40
ENDBRANCH  25  28
ENDBRANCH   1  25
TORSDOF 16
