REMARK  18 active torsions:
REMARK  status: ('A' for Active; 'I' for Inactive)
REMARK    1  A    between atoms: C2_2  and  O1_3 
REMARK    2  A    between atoms: O1_3  and  N1_4 
REMARK    3  A    between atoms: N1_4  and  C3_6 
REMARK    4  A    between atoms: C3_6  and  C4_7 
REMARK    5  A    between atoms: C3_6  and  C26_47 
REMARK       I    between atoms: C4_7  and  N2_9 
REMARK    6  A    between atoms: N2_9  and  C5_11 
REMARK    7  A    between atoms: N3_14  and  O3_15 
REMARK    8  A    between atoms: O3_15  and  C8_16 
REMARK    9  A    between atoms: C11_19  and  O4_20 
REMARK   10  A    between atoms: C13_22  and  O5_23 
REMARK   11  A    between atoms: C20_30  and  C21_31 
REMARK   12  A    between atoms: C22_33  and  C23_34 
REMARK   13  A    between atoms: C23_34  and  O6_35 
REMARK   14  A    between atoms: C23_34  and  N4_37 
REMARK   15  A    between atoms: N4_37  and  O7_39 
REMARK   16  A    between atoms: C25_42  and  O8_43 
REMARK   17  A    between atoms: C26_47  and  O9_48 
REMARK   18  A    between atoms: C26_47  and  O10_50 
ROOT
HETATM    1  C8  UNL     1      -2.639  -0.047  -0.968  1.00  0.00     0.102 A 
HETATM    2  C9  UNL     1      -3.511  -1.062  -0.785  1.00  0.00     0.010 A 
HETATM    3  C10 UNL     1      -2.913  -2.315  -0.860  1.00  0.00     0.054 A 
HETATM    4  C11 UNL     1      -3.601  -3.501  -0.695  1.00  0.00     0.102 A 
HETATM    5  C13 UNL     1      -4.965  -3.397  -0.440  1.00  0.00     0.102 A 
HETATM    6  C15 UNL     1      -5.570  -2.159  -0.365  1.00  0.00     0.052 A 
HETATM    7  C16 UNL     1      -4.857  -0.982  -0.536  1.00  0.00    -0.021 A 
HETATM    8  C17 UNL     1      -5.595   0.119  -0.464  1.00  0.00     0.012 A 
HETATM    9  C18 UNL     1      -5.228   1.513  -0.622  1.00  0.00    -0.002 A 
HETATM   10  C19 UNL     1      -4.050   2.019  -0.836  1.00  0.00    -0.010 A 
HETATM   11  C20 UNL     1      -2.741   1.393  -0.984  1.00  0.00     0.111 A 
ENDROOT
BRANCH   1  12
HETATM   12  O3  UNL     1      -1.380  -0.564  -1.182  1.00  0.00    -0.218 OA
BRANCH  12  13
HETATM   13  N3  UNL     1      -0.244  -0.011  -1.573  1.00  0.00    -0.166 N 
HETATM   14  C7  UNL     1       0.017   0.623  -2.724  1.00  0.00     0.148 A 
HETATM   15  C6  UNL     1       1.323   1.049  -2.758  1.00  0.00     0.071 A 
HETATM   16  C5  UNL     1       1.872   0.635  -1.537  1.00  0.00     0.126 A 
HETATM   17  N5  UNL     1       0.903   0.012  -0.871  1.00  0.00    -0.259 N 
ATOM     18  H5  UNL     1       1.016  -0.397   0.056  1.00  0.00     0.191 HD
BRANCH  16  19
HETATM   19  N2  UNL     1       3.093   0.881  -1.253  1.00  0.00    -0.307 N 
HETATM   20  C4  UNL     1       3.800   0.546  -0.094  1.00  0.00     0.276 C 
HETATM   21  O2  UNL     1       3.211  -0.034   0.868  1.00  0.00    -0.266 OA
ATOM     22  H2  UNL     1       3.621   1.388  -1.964  1.00  0.00     0.170 HD
BRANCH  20  23
HETATM   23  C3  UNL     1       5.246   0.848   0.059  1.00  0.00     0.154 C 
BRANCH  23  24
HETATM   24  N1  UNL     1       5.793   0.508   1.123  1.00  0.00    -0.261 N 
ATOM     25  H1  UNL     1       5.110   0.061   1.735  1.00  0.00     0.194 HD
BRANCH  24  26
HETATM   26  O1  UNL     1       6.958   0.538   1.709  1.00  0.00    -0.280 OA
BRANCH  26  27
HETATM   27  C2  UNL     1       8.096  -0.274   1.558  1.00  0.00     0.196 C 
HETATM   28  C1  UNL     1       9.153   0.193   2.560  1.00  0.00     0.036 C 
ENDBRANCH  26  27
ENDBRANCH  24  26
ENDBRANCH  23  24
BRANCH  23  29
HETATM   29  C26 UNL     1       5.942   1.538  -1.041  1.00  0.00     0.312 C 
BRANCH  29  30
HETATM   30  O9  UNL     1       7.222   1.943  -0.763  1.00  0.00    -0.366 OA
ATOM     31  H9  UNL     1       7.671   2.388  -1.472  1.00  0.00     0.213 HD
ENDBRANCH  29  30
BRANCH  29  32
HETATM   32  O10 UNL     1       5.863   0.744  -2.198  1.00  0.00    -0.366 OA
ATOM     33  H10 UNL     1       6.312   1.189  -2.907  1.00  0.00     0.213 HD
ENDBRANCH  29  32
ENDBRANCH  23  29
ENDBRANCH  20  23
ENDBRANCH  16  19
ENDBRANCH  12  13
ENDBRANCH   1  12
BRANCH  11  34
HETATM   34  C21 UNL     1      -1.880   1.964   0.133  1.00  0.00     0.031 A 
HETATM   35  S1  UNL     1      -1.720   1.401   1.737  1.00  0.00    -0.086 SA
HETATM   36  C22 UNL     1      -0.607   2.550   2.323  1.00  0.00     0.060 A 
HETATM   37  C24 UNL     1      -0.392   3.349   1.233  1.00  0.00     0.061 A 
HETATM   38  C25 UNL     1      -1.045   3.052   0.104  1.00  0.00     0.081 A 
BRANCH  36  39
HETATM   39  C23 UNL     1      -0.030   2.651   3.655  1.00  0.00     0.177 C 
BRANCH  39  40
HETATM   40  O6  UNL     1       0.846   3.666   3.933  1.00  0.00    -0.344 OA
ATOM     41  H6  UNL     1       1.223   3.732   4.803  1.00  0.00     0.219 HD
ENDBRANCH  39  40
BRANCH  39  42
HETATM   42  N4  UNL     1      -0.340   1.800   4.555  1.00  0.00    -0.246 N 
ATOM     43  H4  UNL     1       0.076   1.891   5.482  1.00  0.00     0.196 HD
BRANCH  42  44
HETATM   44  O7  UNL     1      -1.225   0.752   4.317  1.00  0.00    -0.288 OA
ATOM     45  H7  UNL     1      -1.456   0.119   4.987  1.00  0.00     0.244 HD
ENDBRANCH  42  44
ENDBRANCH  39  42
ENDBRANCH  36  39
BRANCH  38  46
HETATM   46  O8  UNL     1      -0.924   3.785  -1.102  1.00  0.00    -0.360 OA
ATOM     47  H8  UNL     1      -0.346   4.538  -1.122  1.00  0.00     0.217 HD
ENDBRANCH  38  46
ENDBRANCH  11  34
BRANCH   4  48
HETATM   48  O4  UNL     1      -2.975  -4.741  -0.778  1.00  0.00    -0.353 OA
HETATM   49  C12 UNL     1      -1.581  -4.827  -1.044  1.00  0.00     0.210 C 
ENDBRANCH   4  48
BRANCH   5  50
HETATM   50  O5  UNL     1      -5.679  -4.579  -0.268  1.00  0.00    -0.353 OA
HETATM   51  C14 UNL     1      -7.060  -4.631  -0.009  1.00  0.00     0.210 C 
ENDBRANCH   5  50
TORSDOF 18
