REMARK  16 active torsions:
REMARK  status: ('A' for Active; 'I' for Inactive)
REMARK    1  A    between atoms: O1_2  and  C2_3 
REMARK    2  A    between atoms: C3_4  and  O2_5 
REMARK    3  A    between atoms: C4_7  and  C5_8 
REMARK    4  A    between atoms: C5_8  and  O3_9 
REMARK    5  A    between atoms: C6_12  and  O5_13 
REMARK    6  A    between atoms: O5_13  and  C7_14 
REMARK    7  A    between atoms: C13_21  and  C14_22 
REMARK    8  A    between atoms: C14_22  and  O7_23 
REMARK    9  A    between atoms: O7_23  and  C15_24 
REMARK   10  A    between atoms: C15_24  and  O8_25 
REMARK   11  A    between atoms: C15_24  and  C16_27 
REMARK   12  A    between atoms: C17_28  and  C18_29 
REMARK   13  A    between atoms: C24_36  and  C25_37 
REMARK   14  A    between atoms: C25_37  and  O10_38 
REMARK   15  A    between atoms: C26_40  and  O11_41 
REMARK   16  A    between atoms: C27_43  and  O12_44 
ROOT
HETATM    1  C7  UNL     1      -1.264   0.561  -1.412  1.00  0.00     0.156 C 
HETATM    2  C8  UNL     1      -1.624   1.193  -2.744  1.00  0.00     0.045 C 
HETATM    3  C9  UNL     1      -0.769   0.592  -3.852  1.00  0.00    -0.024 C 
HETATM    4  C10 UNL     1      -1.531  -0.503  -4.559  1.00  0.00     0.017 C 
HETATM    5  C11 UNL     1      -0.485   1.682  -4.856  1.00  0.00     0.017 C 
HETATM    6  C12 UNL     1       0.502   0.004  -3.262  1.00  0.00     0.177 C 
HETATM    7  O6  UNL     1       0.952   0.904  -2.326  1.00  0.00    -0.380 OA
HETATM    8  C13 UNL     1       0.213   0.789  -1.174  1.00  0.00     0.174 C 
ENDROOT
BRANCH   8   9
HETATM    9  C14 UNL     1       0.474   1.993  -0.320  1.00  0.00     0.205 C 
BRANCH   9  10
HETATM   10  O7  UNL     1       1.753   2.064   0.066  1.00  0.00    -0.358 OA
BRANCH  10  11
HETATM   11  C15 UNL     1       2.314   1.131   0.873  1.00  0.00     0.266 C 
BRANCH  11  12
HETATM   12  O8  UNL     1       2.265   1.795   2.187  1.00  0.00    -0.371 OA
ATOM     13  H8  UNL     1       2.658   1.141   2.753  1.00  0.00     0.212 HD
ENDBRANCH  11  12
BRANCH  11  14
HETATM   14  C16 UNL     1       3.723   0.773   0.701  1.00  0.00     0.105 C 
HETATM   15  C17 UNL     1       4.307  -0.231   1.603  1.00  0.00     0.166 C 
HETATM   16  O9  UNL     1       5.609  -0.384   1.129  1.00  0.00    -0.371 OA
HETATM   17  C24 UNL     1       5.662  -0.051  -0.192  1.00  0.00     0.175 C 
HETATM   18  C26 UNL     1       4.252   0.408  -0.626  1.00  0.00     0.161 C 
BRANCH  15  19
HETATM   19  C18 UNL     1       3.633  -1.479   1.875  1.00  0.00    -0.029 A 
HETATM   20  C19 UNL     1       2.690  -1.578   2.869  1.00  0.00     0.010 A 
HETATM   21  C20 UNL     1       2.031  -2.767   3.194  1.00  0.00     0.001 A 
HETATM   22  C21 UNL     1       2.353  -3.889   2.474  1.00  0.00     0.000 A 
HETATM   23  C22 UNL     1       3.295  -3.807   1.476  1.00  0.00     0.001 A 
HETATM   24  C23 UNL     1       3.926  -2.624   1.180  1.00  0.00     0.010 A 
ENDBRANCH  15  19
BRANCH  17  25
HETATM   25  C25 UNL     1       6.637   1.128  -0.333  1.00  0.00     0.198 C 
BRANCH  25  26
HETATM   26  O10 UNL     1       6.706   1.485  -1.674  1.00  0.00    -0.398 OA
ATOM     27  H10 UNL     1       7.309   2.214  -1.761  1.00  0.00     0.209 HD
ENDBRANCH  25  26
ENDBRANCH  17  25
BRANCH  18  28
HETATM   28  O11 UNL     1       3.726  -0.622  -1.315  1.00  0.00    -0.392 OA
ATOM     29  H11 UNL     1       4.067  -0.857  -2.170  1.00  0.00     0.210 HD
ENDBRANCH  18  28
ENDBRANCH  11  14
ENDBRANCH  10  11
ENDBRANCH   9  10
ENDBRANCH   8   9
BRANCH   1  30
HETATM   30  O5  UNL     1      -1.984   1.153  -0.418  1.00  0.00    -0.351 OA
BRANCH  30  31
HETATM   31  C6  UNL     1      -2.781   0.244   0.327  1.00  0.00     0.292 C 
HETATM   32  O4  UNL     1      -2.279   0.229   1.578  1.00  0.00    -0.348 OA
HETATM   33  C4  UNL     1      -3.043   0.274   2.671  1.00  0.00     0.179 C 
HETATM   34  C3  UNL     1      -4.480   0.647   2.498  1.00  0.00     0.180 C 
HETATM   35  C2  UNL     1      -5.036   0.061   1.232  1.00  0.00     0.185 C 
HETATM   36  C27 UNL     1      -4.190   0.624   0.109  1.00  0.00     0.204 C 
BRANCH  33  37
HETATM   37  C5  UNL     1      -3.001  -1.011   3.510  1.00  0.00     0.198 C 
BRANCH  37  38
HETATM   38  O3  UNL     1      -3.423  -2.116   2.821  1.00  0.00    -0.398 OA
ATOM     39  H3  UNL     1      -3.397  -2.911   3.340  1.00  0.00     0.209 HD
ENDBRANCH  37  38
ENDBRANCH  33  37
BRANCH  34  40
HETATM   40  O2  UNL     1      -4.525   2.055   2.372  1.00  0.00    -0.390 OA
ATOM     41  H2  UNL     1      -4.173   2.426   3.173  1.00  0.00     0.210 HD
ENDBRANCH  34  40
BRANCH  35  42
HETATM   42  O1  UNL     1      -6.378   0.408   1.081  1.00  0.00    -0.385 OA
HETATM   43  C1  UNL     1      -7.118  -0.750   0.941  1.00  0.00     0.202 C 
ENDBRANCH  35  42
BRANCH  36  44
HETATM   44  O12 UNL     1      -4.622   0.132  -1.131  1.00  0.00    -0.388 OA
ATOM     45  H12 UNL     1      -4.091   0.485  -1.835  1.00  0.00     0.210 HD
ENDBRANCH  36  44
ENDBRANCH  30  31
ENDBRANCH   1  30
TORSDOF 16
