REMARK  4 active torsions:
REMARK  status: ('A' for Active; 'I' for Inactive)
REMARK    1  A    between atoms: C2_2  and  C3_4 
REMARK    2  A    between atoms: C4_5  and  N1_6 
REMARK    3  A    between atoms: C13_16  and  O2_17 
REMARK    4  A    between atoms: C15_21  and  O3_22 
ROOT
HETATM    1  C3  UNL     1       0.105   0.435  -0.510  1.00  0.00    -0.003 C 
HETATM    2  C4  UNL     1      -0.810  -0.417  -0.163  1.00  0.00     0.016 C 
HETATM    3  C9  UNL     1      -0.360  -1.869  -0.010  1.00  0.00     0.062 C 
HETATM    4  C10 UNL     1       0.886  -1.968   0.765  1.00  0.00     0.050 C 
HETATM    5  C11 UNL     1       1.916  -1.073   0.198  1.00  0.00     0.008 A 
HETATM    6  C12 UNL     1       1.575   0.132  -0.350  1.00  0.00     0.035 A 
HETATM    7  C13 UNL     1       2.729   0.794  -0.721  1.00  0.00     0.155 A 
HETATM    8  N2  UNL     1       3.759  -0.026  -0.395  1.00  0.00    -0.312 N 
HETATM    9  C14 UNL     1       5.147   0.274  -0.612  1.00  0.00     0.160 C 
HETATM   10  C15 UNL     1       3.307  -1.152   0.156  1.00  0.00     0.151 A 
ENDROOT
BRANCH   2  11
HETATM   11  N1  UNL     1      -2.195  -0.221  -0.038  1.00  0.00    -0.380 N 
HETATM   12  C5  UNL     1      -2.738   0.401   1.142  1.00  0.00     0.149 C 
HETATM   13  C6  UNL     1      -3.666  -0.692   1.731  1.00  0.00     0.187 C 
HETATM   14  O1  UNL     1      -4.735  -0.828   0.873  1.00  0.00    -0.388 OA
HETATM   15  C7  UNL     1      -4.531  -0.328  -0.390  1.00  0.00     0.187 C 
HETATM   16  C8  UNL     1      -3.165  -0.712  -0.981  1.00  0.00     0.149 C 
ENDBRANCH   2  11
BRANCH   1  17
HETATM   17  C2  UNL     1      -0.114   1.842  -0.883  1.00  0.00     0.114 C 
HETATM   18  C1  UNL     1       0.281   2.815   0.231  1.00  0.00     0.032 C 
HETATM   19 CL1  UNL     1      -1.750   2.228  -1.332  1.00  0.00    -0.120 Cl
ENDBRANCH   1  17
BRANCH   7  20
HETATM   20  O2  UNL     1       2.807   2.041  -1.306  1.00  0.00    -0.345 OA
ATOM     21  H2  UNL     1       3.601   2.496  -1.561  1.00  0.00     0.219 HD
ENDBRANCH   7  20
BRANCH  10  22
HETATM   22  O3  UNL     1       3.989  -2.261   0.635  1.00  0.00    -0.345 OA
ATOM     23  H3  UNL     1       4.937  -2.315   0.606  1.00  0.00     0.219 HD
ENDBRANCH  10  22
TORSDOF 4
