REMARK  1 active torsions:
REMARK  status: ('A' for Active; 'I' for Inactive)
REMARK    1  A    between atoms: N1_2  and  C2_4 
ROOT
HETATM    1  C2  UNL     1      -1.435   0.840   0.046  1.00  0.00     0.147 A 
HETATM    2  N2  UNL     1      -0.889   2.065   0.090  1.00  0.00    -0.175 N 
ATOM      3  H2  UNL     1      -1.491   2.881   0.200  1.00  0.00     0.186 HD
HETATM    4  C3  UNL     1       0.466   2.235  -0.011  1.00  0.00     0.679 A 
HETATM    5  N3  UNL     1       0.942   3.433   0.037  1.00  0.00    -0.234 N 
ATOM      6  H31 UNL     1       1.951   3.560  -0.038  1.00  0.00     0.174 HD
ATOM      7  H32 UNL     1       0.330   4.242   0.147  1.00  0.00     0.174 HD
HETATM    8  N4  UNL     1       1.273   1.169  -0.156  1.00  0.00    -0.174 N 
ATOM      9  H4  UNL     1       2.280   1.314  -0.229  1.00  0.00     0.186 HD
HETATM   10  C4  UNL     1       0.784  -0.084  -0.207  1.00  0.00     0.154 A 
HETATM   11  C5  UNL     1      -0.603  -0.240  -0.102  1.00  0.00     0.123 A 
HETATM   12  N5  UNL     1      -0.794  -1.558  -0.183  1.00  0.00    -0.346 N 
ATOM     13  H5  UNL     1      -1.709  -2.006  -0.140  1.00  0.00     0.167 HD
HETATM   14  C6  UNL     1       0.360  -2.222  -0.328  1.00  0.00     0.184 A 
HETATM   15  N6  UNL     1       1.354  -1.304  -0.344  1.00  0.00    -0.331 N 
HETATM   16  C7  UNL     1       2.782  -1.533  -0.480  1.00  0.00     0.158 C 
ENDROOT
BRANCH   1  17
HETATM   17  N1  UNL     1      -2.679   0.686   0.139  1.00  0.00    -0.378 N 
HETATM   18  C1  UNL     1      -3.408  -0.539   0.110  1.00  0.00     0.147 C 
ATOM     19  H1  UNL     1      -3.231   1.537   0.248  1.00  0.00     0.160 HD
ENDBRANCH   1  17
TORSDOF 1
