REMARK  1 active torsions:
REMARK  status: ('A' for Active; 'I' for Inactive)
REMARK    1  A    between atoms: C3_7  and  N3_8 
ROOT
HETATM    1  C1  UNL     1      -2.895  -0.323   0.223  1.00  0.00     0.147 C 
HETATM    2  N1  UNL     1      -1.721  -1.054   0.189  1.00  0.00    -0.378 N 
ATOM      3  H1  UNL     1      -1.888  -2.060   0.173  1.00  0.00     0.160 HD
HETATM    4  C2  UNL     1      -0.508  -0.773   0.173  1.00  0.00     0.147 A 
HETATM    5  N2  UNL     1       0.437  -1.762   0.139  1.00  0.00    -0.175 N 
ATOM      6  H2  UNL     1       0.126  -2.733   0.127  1.00  0.00     0.186 HD
HETATM    7  C3  UNL     1       1.747  -1.511   0.121  1.00  0.00     0.679 A 
HETATM    8  N4  UNL     1       2.193  -0.249   0.136  1.00  0.00    -0.174 N 
ATOM      9  H4  UNL     1       3.197  -0.070   0.121  1.00  0.00     0.186 HD
HETATM   10  C4  UNL     1       1.335   0.785   0.170  1.00  0.00     0.152 A 
HETATM   11  N5  UNL     1       1.535   2.110   0.190  1.00  0.00    -0.336 N 
ATOM     12  H5  UNL     1       2.445   2.571   0.182  1.00  0.00     0.168 HD
HETATM   13  C5  UNL     1       0.353   2.729   0.222  1.00  0.00     0.182 A 
HETATM   14  N6  UNL     1      -0.597   1.745   0.221  1.00  0.00    -0.346 N 
ATOM     15  H6  UNL     1      -1.603   1.913   0.242  1.00  0.00     0.167 HD
HETATM   16  C6  UNL     1      -0.030   0.527   0.189  1.00  0.00     0.123 A 
ENDROOT
BRANCH   7  17
HETATM   17  N3  UNL     1       2.617  -2.461   0.089  1.00  0.00    -0.234 N 
ATOM     18  H32 UNL     1       2.277  -3.423   0.078  1.00  0.00     0.174 HD
ATOM     19  H31 UNL     1       3.619  -2.269   0.075  1.00  0.00     0.174 HD
ENDBRANCH   7  17
TORSDOF 1
