REMARK  4 active torsions:
REMARK  status: ('A' for Active; 'I' for Inactive)
REMARK       I    between atoms: C1_2  and  N1_3 
REMARK    1  A    between atoms: C1_2  and  C6_16 
REMARK    2  A    between atoms: N1_3  and  C2_5 
REMARK    3  A    between atoms: C4_8  and  N2_9 
REMARK    4  A    between atoms: C5_12  and  N3_13 
ROOT
HETATM    1  C2  UNL     1       2.485   0.174   0.174  1.00  0.00     0.112 A 
HETATM    2  S1  UNL     1       2.881   1.797   0.469  1.00  0.00    -0.079 SA
HETATM    3  C3  UNL     1       4.549   1.744   0.130  1.00  0.00     0.090 A 
HETATM    4  C4  UNL     1       4.758   0.430  -0.214  1.00  0.00     0.145 A 
HETATM    5  C5  UNL     1       3.679  -0.384  -0.189  1.00  0.00     0.170 A 
ENDROOT
BRANCH   1   6
HETATM    6  N1  UNL     1       1.203  -0.453   0.290  1.00  0.00    -0.319 N 
HETATM    7  C1  UNL     1       0.097   0.335   0.737  1.00  0.00     0.226 C 
HETATM    8  O1  UNL     1       0.269   1.528   1.014  1.00  0.00    -0.273 OA
ATOM      9  H1  UNL     1       1.082  -1.439   0.059  1.00  0.00     0.169 HD
BRANCH   7  10
HETATM   10  C6  UNL     1      -1.262  -0.272   0.868  1.00  0.00     0.078 C 
HETATM   11  C7  UNL     1      -2.259   0.701   1.412  1.00  0.00     0.014 C 
HETATM   12  C8  UNL     1      -2.859   1.616   0.382  1.00  0.00     0.001 C 
HETATM   13  C9  UNL     1      -3.850   0.966  -0.522  1.00  0.00     0.000 C 
HETATM   14  C10 UNL     1      -4.141  -0.466  -0.179  1.00  0.00     0.000 C 
HETATM   15  C11 UNL     1      -3.015  -1.411  -0.409  1.00  0.00     0.001 C 
HETATM   16  C12 UNL     1      -1.663  -0.794  -0.493  1.00  0.00     0.014 C 
ENDBRANCH   7  10
ENDBRANCH   1   6
BRANCH   5  17
HETATM   17  N3  UNL     1       3.727  -1.807  -0.506  1.00  0.00    -0.110 N 
HETATM   18  O4  UNL     1       3.346  -2.186  -1.637  1.00  0.00    -0.532 OA
HETATM   19  O5  UNL     1       4.180  -2.730   0.401  1.00  0.00    -0.532 OA
ENDBRANCH   5  17
BRANCH   4  20
HETATM   20  N2  UNL     1       6.098   0.008  -0.591  1.00  0.00    -0.113 N 
HETATM   21  O2  UNL     1       6.860   0.820  -1.101  1.00  0.00    -0.532 OA
HETATM   22  O3  UNL     1       6.461  -1.281  -0.369  1.00  0.00    -0.532 OA
ENDBRANCH   4  20
TORSDOF 4
