REMARK  5 active torsions:
REMARK  status: ('A' for Active; 'I' for Inactive)
REMARK    1  A    between atoms: C2_2  and  C3_3 
REMARK    2  A    between atoms: N2_6  and  C5_8 
REMARK    3  A    between atoms: C6_9  and  N3_10 
REMARK    4  A    between atoms: C14_18  and  C15_19 
REMARK    5  A    between atoms: C18_23  and  O2_24 
ROOT
HETATM    1  C3  UNL     1       1.246   2.791   0.121  1.00  0.00     0.175 C 
HETATM    2  C4  UNL     1       0.447   3.717  -0.714  1.00  0.00     0.064 C 
HETATM    3  N1  UNL     1      -0.172   4.434  -1.388  1.00  0.00    -0.197 NA
ENDROOT
BRANCH   1   4
HETATM    4  C2  UNL     1       0.473   2.369   1.307  1.00  0.00    -0.004 C 
HETATM    5  C1  UNL     1       0.055   3.393   2.291  1.00  0.00     0.064 C 
HETATM    6  N2  UNL     1       0.140   1.146   1.522  1.00  0.00    -0.359 N 
ATOM      7  H2  UNL     1      -0.395   0.936   2.365  1.00  0.00     0.165 HD
BRANCH   6   8
HETATM    8  C5  UNL     1       0.471   0.072   0.660  1.00  0.00     0.093 A 
HETATM    9  C6  UNL     1      -0.493  -0.455  -0.157  1.00  0.00     0.060 A 
HETATM   10  C12 UNL     1      -0.131  -1.484  -0.998  1.00  0.00     0.032 A 
HETATM   11  C13 UNL     1       1.168  -1.990  -1.038  1.00  0.00     0.015 A 
HETATM   12  C14 UNL     1       2.140  -1.472  -0.227  1.00  0.00     0.006 A 
HETATM   13  C18 UNL     1       1.786  -0.418   0.642  1.00  0.00     0.103 A 
BRANCH   9  14
HETATM   14  N3  UNL     1      -1.831  -0.006  -0.186  1.00  0.00    -0.379 N 
HETATM   15  C7  UNL     1      -2.321   0.761  -1.287  1.00  0.00     0.123 C 
HETATM   16  C8  UNL     1      -3.812   1.022  -1.182  1.00  0.00     0.020 C 
HETATM   17  C9  UNL     1      -4.583  -0.182  -0.724  1.00  0.00     0.003 C 
HETATM   18  C10 UNL     1      -3.913  -1.022   0.314  1.00  0.00     0.020 C 
HETATM   19  C11 UNL     1      -2.746  -0.303   0.902  1.00  0.00     0.123 C 
ENDBRANCH   9  14
BRANCH  12  20
HETATM   20  C15 UNL     1       3.536  -1.947  -0.145  1.00  0.00     0.159 C 
HETATM   21  C16 UNL     1       3.990  -2.677  -1.369  1.00  0.00     0.063 C 
HETATM   22  C17 UNL     1       4.604  -3.562  -0.316  1.00  0.00     0.171 C 
HETATM   23  O1  UNL     1       3.661  -3.144   0.594  1.00  0.00    -0.381 OA
ENDBRANCH  12  20
BRANCH  13  24
HETATM   24  O2  UNL     1       2.737   0.076   1.429  1.00  0.00    -0.358 OA
ATOM     25  H2  UNL     1       3.627  -0.256   1.417  1.00  0.00     0.217 HD
ENDBRANCH  13  24
ENDBRANCH   6   8
ENDBRANCH   1   4
TORSDOF 5
