REMARK  3 active torsions:
REMARK  status: ('A' for Active; 'I' for Inactive)
REMARK    1  A    between atoms: C2_2  and  N1_3 
REMARK    2  A    between atoms: C11_15  and  O1_16 
REMARK    3  A    between atoms: O1_16  and  C12_17 
ROOT
HETATM    1  C1  UNL     1       3.503  -1.223   0.659  1.00  0.00     0.046 C 
HETATM    2  C2  UNL     1       3.039   0.027  -0.064  1.00  0.00     0.121 C 
HETATM    3  C3  UNL     1       2.557  -0.327  -1.440  1.00  0.00     0.039 C 
HETATM    4  C4  UNL     1       1.122   0.117  -1.547  1.00  0.00     0.012 C 
HETATM    5  C5  UNL     1       0.654   0.452  -0.163  1.00  0.00    -0.036 C 
HETATM    6  C6  UNL     1      -0.087   1.770  -0.232  1.00  0.00     0.010 C 
HETATM    7  C7  UNL     1      -1.366   1.497  -0.946  1.00  0.00     0.012 C 
HETATM    8  C8  UNL     1      -2.239   0.634  -0.055  1.00  0.00    -0.021 C 
HETATM    9  C9  UNL     1      -3.491   0.376  -0.870  1.00  0.00     0.017 C 
HETATM   10  C10 UNL     1      -2.715   1.424   1.160  1.00  0.00     0.017 C 
HETATM   11  C11 UNL     1      -1.598  -0.638   0.300  1.00  0.00     0.139 C 
HETATM   12  C13 UNL     1      -0.105  -0.619   0.512  1.00  0.00     0.042 C 
HETATM   13  C14 UNL     1       1.920   0.718   0.655  1.00  0.00     0.048 C 
ENDROOT
BRANCH  11  14
HETATM   14  O1  UNL     1      -1.964  -1.658  -0.555  1.00  0.00    -0.292 OA
BRANCH  14  15
HETATM   15  C12 UNL     1      -2.552  -2.745   0.031  1.00  0.00     0.525 C 
HETATM   16  F1  UNL     1      -3.687  -2.383   0.699  1.00  0.00    -0.144 F 
HETATM   17  F2  UNL     1      -2.938  -3.598  -0.996  1.00  0.00    -0.144 F 
HETATM   18  F3  UNL     1      -1.716  -3.397   0.923  1.00  0.00    -0.144 F 
ENDBRANCH  14  15
ENDBRANCH  11  14
BRANCH   2  19
HETATM   19  N1  UNL     1       4.187   0.929  -0.103  1.00  0.00    -0.071 N 
ATOM     20  H13 UNL     1       4.585   1.118   0.817  1.00  0.00     0.275 HD
ATOM     21  H12 UNL     1       5.019   0.508  -0.516  1.00  0.00     0.275 HD
ATOM     22  H11 UNL     1       3.875   1.770  -0.589  1.00  0.00     0.275 HD
ENDBRANCH   2  19
TORSDOF 3
