REMARK  2 active torsions:
REMARK  status: ('A' for Active; 'I' for Inactive)
REMARK    1  A    between atoms: C2_2  and  C4_5 
REMARK    2  A    between atoms: C2_2  and  C5_8 
ROOT
HETATM    1  C1  UNL     1       3.578  -2.060   0.189  1.00  0.00     0.044 C 
HETATM    2  C2  UNL     1       3.156  -0.647  -0.106  1.00  0.00     0.145 C 
HETATM    3  C3  UNL     1       3.975  -0.171  -1.220  1.00  0.00     0.081 C 
HETATM    4  N1  UNL     1       4.611   0.217  -2.116  1.00  0.00    -0.196 NA
ENDROOT
BRANCH   2   5
HETATM    5  C4  UNL     1       3.477   0.180   1.067  1.00  0.00     0.197 C 
HETATM    6  O1  UNL     1       4.004  -0.271   2.108  1.00  0.00    -0.647 OA
HETATM    7  O2  UNL     1       3.185   1.537   1.035  1.00  0.00    -0.647 OA
ENDBRANCH   2   5
BRANCH   2   8
HETATM    8  C5  UNL     1       1.685  -0.550  -0.442  1.00  0.00     0.080 C 
HETATM    9  C6  UNL     1       0.816  -1.037   0.691  1.00  0.00     0.017 C 
HETATM   10  C7  UNL     1      -0.390  -1.699   0.079  1.00  0.00     0.002 C 
HETATM   11  C8  UNL     1      -1.495  -1.943   1.045  1.00  0.00     0.006 C 
HETATM   12  C9  UNL     1      -2.796  -2.058   0.283  1.00  0.00     0.064 C 
HETATM   13  C10 UNL     1      -3.456  -0.737   0.264  1.00  0.00     0.040 C 
HETATM   14  N2  UNL     1      -4.209  -0.406   1.241  1.00  0.00    -0.397 N 
HETATM   15  S1  UNL     1      -3.246   0.420  -1.071  1.00  0.00    -0.117 SA
ATOM     16  H22 UNL     1      -4.329  -1.069   2.006  1.00  0.00     0.156 HD
ATOM     17  H21 UNL     1      -4.665   0.506   1.228  1.00  0.00     0.156 HD
HETATM   18  C11 UNL     1      -3.047   2.129  -0.432  1.00  0.00     0.080 C 
HETATM   19  C12 UNL     1      -2.064   2.820  -1.301  1.00  0.00     0.011 C 
HETATM   20  C13 UNL     1      -0.704   3.007  -0.712  1.00  0.00     0.011 C 
HETATM   21  C14 UNL     1      -0.106   1.802  -0.090  1.00  0.00     0.074 C 
HETATM   22  S2  UNL     1       1.221   1.064  -1.066  1.00  0.00    -0.162 SA
ENDBRANCH   2   8
TORSDOF 2
