REMARK  9 active torsions:
REMARK  status: ('A' for Active; 'I' for Inactive)
REMARK    1  A    between atoms: N1_2  and  C3_4 
REMARK    2  A    between atoms: C4_7  and  C5_8 
REMARK    3  A    between atoms: N4_16  and  C10_18 
REMARK    4  A    between atoms: C10_18  and  C11_19 
REMARK    5  A    between atoms: C13_24  and  N6_25 
REMARK    6  A    between atoms: C16_28  and  C17_29 
REMARK    7  A    between atoms: C17_29  and  C18_30 
REMARK    8  A    between atoms: C18_30  and  N7_31 
REMARK    9  A    between atoms: C21_34  and  O1_35 
ROOT
HETATM    1  C5  UNL     1      -3.463   2.819   2.739  1.00  0.00     0.056 A 
HETATM    2  C6  UNL     1      -4.221   3.354   3.802  1.00  0.00     0.051 A 
HETATM    3 CL1  UNL     1      -5.456   2.359   4.520  1.00  0.00    -0.083 Cl
HETATM    4  C7  UNL     1      -3.984   4.630   4.251  1.00  0.00     0.042 A 
HETATM    5  C8  UNL     1      -2.995   5.385   3.650  1.00  0.00     0.091 A 
HETATM    6  N3  UNL     1      -2.291   4.877   2.659  1.00  0.00    -0.352 N 
ATOM      7  H3  UNL     1      -1.566   5.454   2.234  1.00  0.00     0.166 HD
HETATM    8  C9  UNL     1      -2.491   3.573   2.157  1.00  0.00     0.115 A 
HETATM    9  N4  UNL     1      -1.755   3.215   1.250  1.00  0.00    -0.371 N 
ATOM     10  H4  UNL     1      -1.137   3.995   1.028  1.00  0.00     0.161 HD
ENDROOT
BRANCH   9  11
HETATM   11  C10 UNL     1      -1.434   2.185   0.418  1.00  0.00     0.171 C 
BRANCH  11  12
HETATM   12  C11 UNL     1      -0.781   2.748  -0.849  1.00  0.00     0.045 A 
HETATM   13  S1  UNL     1      -0.503   4.390  -1.225  1.00  0.00    -0.084 SA
HETATM   14  C12 UNL     1       0.193   4.178  -2.765  1.00  0.00     0.140 A 
HETATM   15  N5  UNL     1       0.178   2.875  -2.910  1.00  0.00    -0.345 N 
HETATM   16  C13 UNL     1      -0.311   2.108  -1.953  1.00  0.00     0.118 A 
ATOM     17  H5  UNL     1       0.545   2.453  -3.763  1.00  0.00     0.167 HD
BRANCH  16  18
HETATM   18  N6  UNL     1      -0.269   0.668  -2.138  1.00  0.00    -0.366 N 
HETATM   19  C14 UNL     1      -0.356   0.104  -3.506  1.00  0.00     0.125 C 
HETATM   20  C15 UNL     1       1.029  -0.496  -3.730  1.00  0.00     0.024 C 
HETATM   21  C16 UNL     1       1.228  -1.633  -2.796  1.00  0.00    -0.010 C 
HETATM   22  C24 UNL     1       0.391  -1.635  -1.574  1.00  0.00     0.024 C 
HETATM   23  C25 UNL     1      -0.090  -0.299  -1.108  1.00  0.00     0.125 C 
BRANCH  21  24
HETATM   24  C17 UNL     1       2.664  -1.946  -2.472  1.00  0.00     0.024 C 
BRANCH  24  25
HETATM   25  C18 UNL     1       3.381  -0.826  -1.833  1.00  0.00     0.117 C 
BRANCH  25  26
HETATM   26  N7  UNL     1       4.762  -1.108  -1.527  1.00  0.00    -0.412 N 
HETATM   27  C19 UNL     1       5.447  -0.018  -0.910  1.00  0.00     0.119 C 
HETATM   28  C20 UNL     1       6.936  -0.142  -0.951  1.00  0.00     0.051 C 
HETATM   29  C21 UNL     1       7.384  -1.588  -0.888  1.00  0.00     0.121 C 
HETATM   30  C22 UNL     1       6.305  -2.365  -0.172  1.00  0.00     0.051 C 
HETATM   31  C23 UNL     1       5.048  -2.400  -1.034  1.00  0.00     0.119 C 
BRANCH  29  32
HETATM   32  O1  UNL     1       8.563  -1.700  -0.120  1.00  0.00    -0.395 OA
ATOM     33  H1  UNL     1       8.844  -2.607  -0.080  1.00  0.00     0.210 HD
ENDBRANCH  29  32
ENDBRANCH  25  26
ENDBRANCH  24  25
ENDBRANCH  21  24
ENDBRANCH  16  18
ENDBRANCH  11  12
ENDBRANCH   9  11
BRANCH   1  34
HETATM   34  C4  UNL     1      -3.762   1.465   2.300  1.00  0.00     0.050 A 
HETATM   35  N2  UNL     1      -3.107   0.364   2.679  1.00  0.00    -0.340 N 
HETATM   36  C3  UNL     1      -3.512  -0.835   2.234  1.00  0.00     0.131 A 
ATOM     37  H2  UNL     1      -2.303   0.435   3.303  1.00  0.00     0.167 HD
HETATM   38  C30 UNL     1      -4.606  -0.987   1.378  1.00  0.00     0.090 A 
HETATM   39  C27 UNL     1      -5.306   0.143   0.967  1.00  0.00     0.037 A 
HETATM   40  N8  UNL     1      -5.190  -2.051   0.806  1.00  0.00    -0.359 N 
HETATM   41  C26 UNL     1      -4.867   1.355   1.440  1.00  0.00     0.047 A 
HETATM   42  C28 UNL     1      -6.328  -0.272   0.132  1.00  0.00     0.144 A 
HETATM   43  F1  UNL     1      -7.223   0.530  -0.470  1.00  0.00    -0.204 F 
HETATM   44  C29 UNL     1      -6.243  -1.644   0.042  1.00  0.00     0.131 A 
ATOM     45  H8  UNL     1      -4.891  -3.019   0.925  1.00  0.00     0.165 HD
BRANCH  36  46
HETATM   46  N1  UNL     1      -2.854  -2.059   2.604  1.00  0.00    -0.374 N 
HETATM   47  C1  UNL     1      -2.229  -2.917   1.618  1.00  0.00     0.150 C 
HETATM   48  C2  UNL     1      -2.797  -2.482   3.989  1.00  0.00     0.150 C 
ENDBRANCH  36  46
ENDBRANCH   1  34
TORSDOF 9
