REMARK  7 active torsions:
REMARK  status: ('A' for Active; 'I' for Inactive)
REMARK    1  A    between atoms: C2_2  and  C4_4 
REMARK    2  A    between atoms: C4_4  and  N1_6 
REMARK    3  A    between atoms: N1_6  and  C8_9 
REMARK    4  A    between atoms: C8_9  and  C9_10 
REMARK    5  A    between atoms: C9_10  and  N2_11 
REMARK    6  A    between atoms: C12_14  and  C13_15 
REMARK    7  A    between atoms: C14_18  and  N4_19 
ROOT
HETATM    1  N2  UNL     1       1.088   0.071   0.772  1.00  0.00    -0.349 N 
HETATM    2  C10 UNL     1       1.841   1.149   0.566  1.00  0.00     0.092 A 
HETATM    3  C11 UNL     1       3.114   1.006   0.073  1.00  0.00     0.032 A 
HETATM    4  C12 UNL     1       3.643  -0.255  -0.220  1.00  0.00     0.014 A 
HETATM    5  C15 UNL     1       2.854  -1.339  -0.000  1.00  0.00     0.053 A 
HETATM    6  C16 UNL     1       1.563  -1.155   0.503  1.00  0.00     0.082 A 
HETATM    7 BR1  UNL     1       0.560  -2.759   0.767  1.00  0.00    -0.031 Br
ENDROOT
BRANCH   4   8
HETATM    8  C13 UNL     1       4.996  -0.383  -0.742  1.00  0.00     0.146 A 
HETATM    9  N3  UNL     1       5.854   0.609  -0.995  1.00  0.00    -0.174 N 
HETATM   10  C14 UNL     1       6.990   0.032  -1.468  1.00  0.00     0.692 A 
ATOM     11  H3  UNL     1       5.689   1.606  -0.859  1.00  0.00     0.186 HD
HETATM   12  N5  UNL     1       6.830  -1.302  -1.505  1.00  0.00    -0.131 N 
HETATM   13  N6  UNL     1       5.602  -1.538  -1.056  1.00  0.00    -0.270 N 
ATOM     14  H5  UNL     1       7.513  -1.993  -1.815  1.00  0.00     0.205 HD
ATOM     15  H6  UNL     1       5.181  -2.463  -0.964  1.00  0.00     0.189 HD
BRANCH  10  16
HETATM   16  N4  UNL     1       8.050   0.676  -1.823  1.00  0.00    -0.233 N 
ATOM     17  H42 UNL     1       8.171   1.688  -1.795  1.00  0.00     0.174 HD
ATOM     18  H41 UNL     1       8.903   0.243  -2.178  1.00  0.00     0.174 HD
ENDBRANCH  10  16
ENDBRANCH   4   8
BRANCH   1  19
HETATM   19  C9  UNL     1      -0.245   0.206   1.286  1.00  0.00     0.157 C 
BRANCH  19  20
HETATM   20  C8  UNL     1      -1.295   0.359   0.244  1.00  0.00     0.257 C 
BRANCH  20  21
HETATM   21  N1  UNL     1      -2.579   0.506   0.891  1.00  0.00    -0.066 N 
HETATM   22  C6  UNL     1      -2.521   1.814   1.569  1.00  0.00     0.272 C 
HETATM   23  C7  UNL     1      -2.733  -0.460   1.929  1.00  0.00     0.272 C 
BRANCH  21  24
HETATM   24  C4  UNL     1      -3.672   0.567  -0.043  1.00  0.00     0.213 C 
HETATM   25  C5  UNL     1      -3.564   1.831  -0.854  1.00  0.00     0.045 C 
BRANCH  24  26
HETATM   26  C2  UNL     1      -3.840  -0.626  -0.873  1.00  0.00    -0.063 C 
HETATM   27  C1  UNL     1      -3.838  -0.521  -2.189  1.00  0.00     0.016 C 
HETATM   28  C3  UNL     1      -4.014  -1.992  -0.313  1.00  0.00     0.044 C 
ENDBRANCH  24  26
ENDBRANCH  21  24
ENDBRANCH  20  21
ENDBRANCH  19  20
ENDBRANCH   1  19
TORSDOF 7
