REMARK  7 active torsions:
REMARK  status: ('A' for Active; 'I' for Inactive)
REMARK    1  A    between atoms: C2_2  and  N1_3 
REMARK    2  A    between atoms: N2_6  and  C5_7 
REMARK    3  A    between atoms: C5_7  and  C6_8 
REMARK    4  A    between atoms: C6_8  and  C7_9 
REMARK    5  A    between atoms: C7_9  and  N3_10 
REMARK       I    between atoms: N3_10  and  C8_12 
REMARK    6  A    between atoms: N5_14  and  C9_16 
REMARK    7  A    between atoms: C9_16  and  C10_20 
ROOT
HETATM    1  N3  UNL     1      -1.693   0.225  -1.102  1.00  0.00    -0.364 N 
ATOM      2  H3  UNL     1      -1.732   0.751  -1.975  1.00  0.00     0.162 HD
HETATM    3  C8  UNL     1      -2.928  -0.169  -0.569  1.00  0.00     0.189 C 
HETATM    4  N4  UNL     1      -3.027  -1.290   0.281  1.00  0.00    -0.064 NA
HETATM    5  N5  UNL     1      -4.028   0.476  -0.831  1.00  0.00    -0.320 N 
ATOM      6  H5  UNL     1      -3.957   1.287  -1.445  1.00  0.00     0.169 HD
ENDROOT
BRANCH   1   7
HETATM    7  C7  UNL     1      -0.379  -0.019  -0.573  1.00  0.00     0.124 C 
BRANCH   7   8
HETATM    8  C6  UNL     1       0.089  -1.421  -0.620  1.00  0.00     0.050 C 
BRANCH   8   9
HETATM    9  C5  UNL     1       1.425  -1.727  -0.040  1.00  0.00     0.274 C 
BRANCH   9  10
HETATM   10  N2  UNL     1       2.562  -1.036  -0.556  1.00  0.00     0.091 N 
HETATM   11  C4  UNL     1       3.763  -1.827  -0.236  1.00  0.00     0.302 C 
HETATM   12  C3  UNL     1       5.026  -1.002  -0.309  1.00  0.00     0.302 C 
HETATM   13  N1  UNL     1       5.059  -0.042   0.781  1.00  0.00     0.091 N 
HETATM   14  C14 UNL     1       3.695   0.125   1.235  1.00  0.00     0.302 C 
HETATM   15  C13 UNL     1       2.814   0.260   0.013  1.00  0.00     0.302 C 
BRANCH  13  16
HETATM   16  C2  UNL     1       5.575   1.244   0.397  1.00  0.00     0.268 C 
HETATM   17  C1  UNL     1       7.054   1.199   0.070  1.00  0.00     0.037 C 
ENDBRANCH  13  16
ENDBRANCH   9  10
ENDBRANCH   8   9
ENDBRANCH   7   8
ENDBRANCH   1   7
BRANCH   5  18
HETATM   18  C9  UNL     1      -5.297   0.155  -0.345  1.00  0.00     0.080 C 
HETATM   19  N6  UNL     1      -5.929  -0.909  -0.671  1.00  0.00    -0.389 N 
ATOM     20  H62 UNL     1      -5.467  -1.540  -1.326  1.00  0.00     0.157 HD
ATOM     21  H61 UNL     1      -6.856  -1.143  -0.316  1.00  0.00     0.157 HD
BRANCH  18  22
HETATM   22  C10 UNL     1      -5.970   1.075   0.609  1.00  0.00     0.045 C 
HETATM   23  C11 UNL     1      -7.342   0.631   0.998  1.00  0.00     0.017 C 
HETATM   24  C12 UNL     1      -6.072   2.465   0.013  1.00  0.00     0.017 C 
ENDBRANCH  18  22
ENDBRANCH   5  18
TORSDOF 7
