REMARK  9 active torsions:
REMARK  status: ('A' for Active; 'I' for Inactive)
REMARK    1  A    between atoms: N1_2  and  C3_4 
REMARK    2  A    between atoms: C4_7  and  N3_8 
REMARK    3  A    between atoms: N4_11  and  C7_12 
REMARK    4  A    between atoms: C7_12  and  C8_13 
REMARK    5  A    between atoms: C8_13  and  C9_15 
REMARK    6  A    between atoms: C9_15  and  O2_16 
REMARK    7  A    between atoms: O2_16  and  C10_17 
REMARK    8  A    between atoms: C12_21  and  N6_22 
REMARK    9  A    between atoms: C15_32  and  N9_33 
ROOT
HETATM    1  N3  UNL     1      -1.450   1.578  -1.286  1.00  0.00    -0.188 N 
HETATM    2  C5  UNL     1      -1.187   2.852  -1.934  1.00  0.00     0.173 C 
HETATM    3  C6  UNL     1       0.269   2.789  -2.248  1.00  0.00     0.295 C 
HETATM    4  N4  UNL     1       0.839   1.932  -1.217  1.00  0.00     0.115 N 
HETATM    5  C14 UNL     1      -0.194   0.897  -1.075  1.00  0.00     0.414 C 
ENDROOT
BRANCH   4   6
HETATM    6  C7  UNL     1       0.959   2.649   0.048  1.00  0.00     0.354 C 
BRANCH   6   7
HETATM    7  C8  UNL     1       1.778   1.821   0.954  1.00  0.00     0.179 C 
HETATM    8  O1  UNL     1       1.717   1.999   2.146  1.00  0.00    -0.294 OA
BRANCH   7   9
HETATM    9  C9  UNL     1       2.670   0.790   0.406  1.00  0.00     0.256 C 
BRANCH   9  10
HETATM   10  O2  UNL     1       3.462   0.144   1.401  1.00  0.00    -0.337 OA
BRANCH  10  11
HETATM   11  C10 UNL     1       4.336  -0.837   0.889  1.00  0.00     0.153 A 
HETATM   12  C11 UNL     1       4.406  -1.145  -0.444  1.00  0.00     0.148 A 
HETATM   13  N5  UNL     1       5.274  -2.099  -0.828  1.00  0.00    -0.199 N 
HETATM   14  C12 UNL     1       6.056  -2.743   0.055  1.00  0.00     0.678 A 
ATOM     15  H5  UNL     1       5.340  -2.340  -1.817  1.00  0.00     0.183 HD
HETATM   16  N7  UNL     1       6.011  -2.462   1.374  1.00  0.00    -0.154 N 
HETATM   17  C13 UNL     1       5.138  -1.497   1.786  1.00  0.00     0.294 A 
ATOM     18  H7  UNL     1       6.608  -2.953   2.039  1.00  0.00     0.187 HD
HETATM   19  O3  UNL     1       5.092  -1.232   3.010  1.00  0.00    -0.265 OA
BRANCH  14  20
HETATM   20  N6  UNL     1       6.852  -3.640  -0.421  1.00  0.00    -0.234 N 
ATOM     21  H62 UNL     1       6.886  -3.852  -1.418  1.00  0.00     0.174 HD
ATOM     22  H61 UNL     1       7.446  -4.129   0.249  1.00  0.00     0.174 HD
ENDBRANCH  14  20
ENDBRANCH  10  11
ENDBRANCH   9  10
ENDBRANCH   7   9
ENDBRANCH   6   7
ENDBRANCH   4   6
BRANCH   1  23
HETATM   23  C4  UNL     1      -2.729   1.087  -0.929  1.00  0.00     0.711 A 
HETATM   24  N2  UNL     1      -2.899  -0.031  -0.200  1.00  0.00    -0.021 N 
HETATM   25  C3  UNL     1      -4.094  -0.514   0.143  1.00  0.00     0.708 A 
ATOM     26  H2  UNL     1      -2.068  -0.537   0.107  1.00  0.00     0.203 HD
HETATM   27  N10 UNL     1      -5.173   0.149  -0.259  1.00  0.00    -0.022 N 
HETATM   28  C15 UNL     1      -5.080   1.284  -0.996  1.00  0.00     0.705 A 
ATOM     29  H10 UNL     1      -6.096  -0.205  -0.007  1.00  0.00     0.203 HD
HETATM   30  N8  UNL     1      -3.860   1.739  -1.321  1.00  0.00    -0.021 N 
ATOM     31  H8  UNL     1      -3.777   2.592  -1.874  1.00  0.00     0.203 HD
BRANCH  25  32
HETATM   32  N1  UNL     1      -4.161  -1.695   0.929  1.00  0.00    -0.225 N 
HETATM   33  C1  UNL     1      -4.419  -1.583   2.373  1.00  0.00     0.168 C 
HETATM   34  C2  UNL     1      -3.970  -2.987   0.352  1.00  0.00     0.168 C 
ENDBRANCH  25  32
BRANCH  28  35
HETATM   35  N9  UNL     1      -6.124   1.920  -1.383  1.00  0.00    -0.234 N 
ATOM     36  H92 UNL     1      -6.054   2.773  -1.937  1.00  0.00     0.174 HD
ATOM     37  H91 UNL     1      -7.051   1.574  -1.136  1.00  0.00     0.174 HD
ENDBRANCH  28  35
ENDBRANCH   1  23
TORSDOF 9
