REMARK  4 active torsions:
REMARK  status: ('A' for Active; 'I' for Inactive)
REMARK    1  A    between atoms: C2_2  and  C3_3 
REMARK    2  A    between atoms: C2_2  and  N5_19 
REMARK    3  A    between atoms: C3_3  and  C4_4 
REMARK    4  A    between atoms: C3_3  and  N4_13 
REMARK       I    between atoms: C4_4  and  N1_6 
REMARK       I    between atoms: N1_6  and  C5_8 
ROOT
HETATM    1  C3  UNL     1       0.092   0.263   0.553  1.00  0.00     0.096 C 
ENDROOT
BRANCH   1   2
HETATM    2  C2  UNL     1       1.420  -0.421   0.542  1.00  0.00     0.011 C 
HETATM    3  C1  UNL     1       2.144  -0.009   1.809  1.00  0.00     0.064 C 
BRANCH   2   4
HETATM    4  N5  UNL     1       1.531  -1.771   0.130  1.00  0.00    -0.276 NA
HETATM    5  C11 UNL     1       3.005  -2.020   0.084  1.00  0.00     0.106 C 
HETATM    6  C12 UNL     1       3.178  -3.421  -0.456  1.00  0.00     0.090 C 
HETATM    7  S1  UNL     1       1.917  -3.388  -1.786  1.00  0.00    -0.153 SA
HETATM    8  C13 UNL     1       1.305  -1.698  -1.369  1.00  0.00     0.169 C 
ENDBRANCH   2   4
ENDBRANCH   1   2
BRANCH   1   9
HETATM    9  C4  UNL     1       0.331   1.712   0.379  1.00  0.00     0.270 C 
HETATM   10  O1  UNL     1       0.931   2.325   1.295  1.00  0.00    -0.266 OA
HETATM   11  N1  UNL     1      -0.059   2.465  -0.749  1.00  0.00    -0.296 N 
HETATM   12  C5  UNL     1       0.212   3.839  -0.843  1.00  0.00     0.188 C 
ATOM     13  H1  UNL     1      -0.549   2.000  -1.513  1.00  0.00     0.171 HD
HETATM   14  N2  UNL     1      -0.139   4.549  -1.875  1.00  0.00    -0.373 N 
HETATM   15  N3  UNL     1       0.893   4.499   0.211  1.00  0.00    -0.064 NA
ATOM     16  H22 UNL     1      -0.629   4.074  -2.633  1.00  0.00     0.158 HD
ATOM     17  H21 UNL     1       0.058   5.547  -1.943  1.00  0.00     0.158 HD
ENDBRANCH   1   9
BRANCH   1  18
HETATM   18  N4  UNL     1      -1.062  -0.249   0.004  1.00  0.00    -0.278 NA
HETATM   19  C6  UNL     1      -1.542  -1.486   0.679  1.00  0.00     0.096 C 
HETATM   20  C7  UNL     1      -3.028  -1.647   0.452  1.00  0.00     0.015 C 
HETATM   21  C8  UNL     1      -3.527  -0.986  -0.804  1.00  0.00     0.002 C 
HETATM   22  C9  UNL     1      -3.199   0.496  -0.785  1.00  0.00     0.015 C 
HETATM   23  C10 UNL     1      -2.182   0.682   0.305  1.00  0.00     0.096 C 
ENDBRANCH   1  18
TORSDOF 4
