REMARK  8 active torsions:
REMARK  status: ('A' for Active; 'I' for Inactive)
REMARK    1  A    between atoms: O1_2  and  C2_3 
REMARK    2  A    between atoms: C6_7  and  O2_8 
REMARK    3  A    between atoms: O2_8  and  C7_9 
REMARK    4  A    between atoms: C7_9  and  C8_10 
REMARK    5  A    between atoms: C8_10  and  O3_13 
REMARK    6  A    between atoms: O3_13  and  C11_14 
REMARK    7  A    between atoms: C11_14  and  C12_15 
REMARK    8  A    between atoms: C15_20  and  O6_21 
ROOT
HETATM    1  C11 UNL     1      -1.189  -0.460   0.742  1.00  0.00     0.212 C 
ENDROOT
BRANCH   1   2
HETATM    2  O3  UNL     1      -1.104   0.032  -0.537  1.00  0.00    -0.375 OA
BRANCH   2   3
HETATM    3  C8  UNL     1      -0.122   0.955  -0.766  1.00  0.00     0.075 C 
HETATM    4  C9  UNL     1      -0.290   2.231   0.035  1.00  0.00     0.048 C 
HETATM    5  C10 UNL     1      -0.179   1.343  -2.238  1.00  0.00     0.048 C 
BRANCH   3   6
HETATM    6  C7  UNL     1       1.266   0.443  -0.501  1.00  0.00     0.212 C 
BRANCH   6   7
HETATM    7  O2  UNL     1       2.253   1.434  -0.761  1.00  0.00    -0.347 OA
BRANCH   7   8
HETATM    8  C6  UNL     1       3.583   1.031  -0.534  1.00  0.00     0.081 A 
HETATM    9  C4  UNL     1       4.350   0.454  -1.536  1.00  0.00    -0.025 A 
HETATM   10  C3  UNL     1       5.654   0.063  -1.302  1.00  0.00     0.047 A 
HETATM   11  C5  UNL     1       3.779   0.241  -2.892  1.00  0.00     0.051 C 
HETATM   12  C2  UNL     1       6.204   0.251  -0.047  1.00  0.00     0.075 A 
HETATM   13  C27 UNL     1       5.471   0.820   0.969  1.00  0.00    -0.020 A 
HETATM   14  C25 UNL     1       4.162   1.205   0.707  1.00  0.00    -0.019 A 
HETATM   15  C28 UNL     1       6.043   1.029   2.324  1.00  0.00     0.052 C 
HETATM   16  C26 UNL     1       3.398   1.815   1.814  1.00  0.00     0.052 C 
BRANCH  12  17
HETATM   17  O1  UNL     1       7.516  -0.149   0.167  1.00  0.00    -0.355 OA
HETATM   18  C1  UNL     1       8.297  -0.740  -0.862  1.00  0.00     0.210 C 
ENDBRANCH  12  17
ENDBRANCH   7   8
ENDBRANCH   6   7
ENDBRANCH   3   6
ENDBRANCH   2   3
ENDBRANCH   1   2
BRANCH   1  19
HETATM   19  C12 UNL     1      -2.328  -1.470   0.806  1.00  0.00     0.116 C 
HETATM   20  C13 UNL     1      -2.283  -1.994   2.258  1.00  0.00     0.054 C 
HETATM   21  O4  UNL     1      -2.069  -2.495  -0.081  1.00  0.00    -0.301 OA
HETATM   22  C14 UNL     1      -2.836  -3.138  -1.000  1.00  0.00     0.289 C 
HETATM   23  O5  UNL     1      -2.675  -4.392  -1.027  1.00  0.00    -0.262 OA
HETATM   24  C15 UNL     1      -3.832  -2.678  -1.990  1.00  0.00     0.222 C 
HETATM   25  C16 UNL     1      -4.060  -1.195  -1.954  1.00  0.00     0.081 C 
HETATM   26  C17 UNL     1      -4.372  -0.738  -0.552  1.00  0.00    -0.045 A 
HETATM   27  C18 UNL     1      -5.607  -0.105  -0.494  1.00  0.00     0.015 A 
HETATM   28  C22 UNL     1      -3.634  -0.865   0.593  1.00  0.00    -0.015 A 
HETATM   29  C19 UNL     1      -6.132   0.407   0.672  1.00  0.00    -0.051 A 
HETATM   30  C20 UNL     1      -5.391   0.281   1.822  1.00  0.00    -0.051 A 
HETATM   31  C24 UNL     1      -7.202   1.108   1.445  1.00  0.00     0.043 A 
HETATM   32  C21 UNL     1      -4.147  -0.356   1.767  1.00  0.00     0.018 A 
HETATM   33  C23 UNL     1      -6.394   0.969   2.687  1.00  0.00     0.043 A 
BRANCH  24  34
HETATM   34  O6  UNL     1      -5.034  -3.324  -1.717  1.00  0.00    -0.385 OA
ATOM     35  H6  UNL     1      -5.674  -3.028  -2.353  1.00  0.00     0.210 HD
ENDBRANCH  24  34
ENDBRANCH   1  19
TORSDOF 8
