REMARK  10 active torsions:
REMARK  status: ('A' for Active; 'I' for Inactive)
REMARK    1  A    between atoms: C2_2  and  C3_3 
REMARK    2  A    between atoms: C5_5  and  C6_6 
REMARK    3  A    between atoms: C8_11  and  C9_12 
REMARK    4  A    between atoms: C9_12  and  O2_14 
REMARK    5  A    between atoms: O2_14  and  C10_15 
REMARK    6  A    between atoms: C10_15  and  C11_16 
REMARK    7  A    between atoms: C13_18  and  N2_19 
REMARK    8  A    between atoms: N2_19  and  N3_21 
REMARK    9  A    between atoms: C16_29  and  O4_30 
REMARK   10  A    between atoms: C20_35  and  C21_36 
ROOT
HETATM    1  C9  UNL     1       0.918   0.030   0.776  1.00  0.00     0.311 C 
HETATM    2  O1  UNL     1       0.409   0.923   0.095  1.00  0.00    -0.258 OA
ENDROOT
BRANCH   1   3
HETATM    3  C8  UNL     1       0.109  -0.919   1.617  1.00  0.00     0.122 A 
HETATM    4  C6  UNL     1      -1.263  -0.891   1.695  1.00  0.00     0.022 A 
HETATM    5  S1  UNL     1      -1.561  -2.167   2.822  1.00  0.00    -0.086 SA
HETATM    6  C7  UNL     1       0.040  -2.645   3.113  1.00  0.00     0.139 A 
HETATM    7  N1  UNL     1       0.712  -1.830   2.358  1.00  0.00    -0.354 N 
ATOM      8  H1  UNL     1       1.730  -1.895   2.337  1.00  0.00     0.166 HD
BRANCH   4   9
HETATM    9  C5  UNL     1      -2.262  -0.028   0.983  1.00  0.00     0.045 C 
HETATM   10  C3  UNL     1      -3.649  -0.002   1.520  1.00  0.00    -0.014 C 
HETATM   11  C4  UNL     1      -4.066   1.358   2.070  1.00  0.00     0.021 C 
HETATM   12  C24 UNL     1      -4.208  -0.300   0.151  1.00  0.00     0.011 C 
HETATM   13  C17 UNL     1      -2.814  -0.838  -0.199  1.00  0.00     0.001 C 
HETATM   14  C20 UNL     1      -4.389   0.816  -0.808  1.00  0.00     0.019 C 
HETATM   15  C18 UNL     1      -2.513  -0.330  -1.563  1.00  0.00     0.006 C 
HETATM   16  C19 UNL     1      -3.874   0.152  -2.105  1.00  0.00     0.010 C 
BRANCH  10  17
HETATM   17  C2  UNL     1      -4.052  -1.076   2.448  1.00  0.00    -0.027 C 
HETATM   18  C1  UNL     1      -4.396  -0.791   3.687  1.00  0.00     0.008 C 
ENDBRANCH  10  17
BRANCH  14  19
HETATM   19  C21 UNL     1      -5.782   1.274  -0.983  1.00  0.00    -0.089 C 
HETATM   20  C22 UNL     1      -6.133   2.523  -0.713  1.00  0.00     0.014 C 
HETATM   21  C23 UNL     1      -6.842   0.329  -1.474  1.00  0.00     0.043 C 
ENDBRANCH  14  19
ENDBRANCH   4   9
ENDBRANCH   1   3
BRANCH   1  22
HETATM   22  O2  UNL     1       2.304  -0.067   0.735  1.00  0.00    -0.316 OA
BRANCH  22  23
HETATM   23  C10 UNL     1       3.118   0.797  -0.040  1.00  0.00     0.188 C 
BRANCH  23  24
HETATM   24  C11 UNL     1       4.587   0.383   0.199  1.00  0.00     0.067 C 
HETATM   25  C12 UNL     1       4.816  -1.032  -0.212  1.00  0.00     0.041 C 
HETATM   26  C13 UNL     1       5.811  -1.253  -1.298  1.00  0.00     0.130 C 
HETATM   27  C14 UNL     1       6.904  -0.200  -1.131  1.00  0.00     0.144 C 
HETATM   28  C15 UNL     1       8.106  -0.491  -1.965  1.00  0.00     0.042 C 
HETATM   29  O3  UNL     1       6.278   1.011  -1.438  1.00  0.00    -0.354 OA
HETATM   30  C16 UNL     1       5.524   1.397  -0.362  1.00  0.00     0.263 C 
BRANCH  26  31
HETATM   31  N2  UNL     1       5.189  -1.166  -2.602  1.00  0.00    -0.315 N 
ATOM     32  H2  UNL     1       4.321  -1.674  -2.773  1.00  0.00     0.182 HD
BRANCH  31  33
HETATM   33  N3  UNL     1       5.684  -0.490  -3.517  1.00  0.00    -0.253 N 
HETATM   34  N4  UNL     1       5.714   0.433  -4.345  1.00  0.00    -0.331 N 
ATOM     35  H42 UNL     1       4.816   0.875  -4.146  1.00  0.00     0.178 HD
ATOM     36  H41 UNL     1       6.121   0.989  -5.097  1.00  0.00     0.178 HD
ATOM     37  H3  UNL     1       6.573  -0.962  -3.683  1.00  0.00     0.207 HD
ENDBRANCH  31  33
ENDBRANCH  26  31
BRANCH  30  38
HETATM   38  O4  UNL     1       6.326   1.977   0.651  1.00  0.00    -0.371 OA
ATOM     39  H4  UNL     1       6.923   2.623   0.293  1.00  0.00     0.212 HD
ENDBRANCH  30  38
ENDBRANCH  23  24
ENDBRANCH  22  23
ENDBRANCH   1  22
TORSDOF 10
