REMARK  0 active torsions:
REMARK  status: ('A' for Active; 'I' for Inactive)
ROOT
HETATM    1  C1  UNL     1      -2.341  -0.782  -0.059  1.00  0.00     0.001 C 
HETATM    2  C2  UNL     1      -2.411   0.599   0.601  1.00  0.00     0.001 C 
HETATM    3  C3  UNL     1      -0.935   0.871   0.932  1.00  0.00     0.013 C 
HETATM    4  C4  UNL     1      -0.154   0.061  -0.024  1.00  0.00     0.002 C 
HETATM    5  C5  UNL     1      -1.126  -0.569  -0.970  1.00  0.00     0.013 C 
HETATM    6  C6  UNL     1       0.901   0.833  -0.785  1.00  0.00     0.132 C 
HETATM    7  N1  UNL     1       2.037  -0.078  -0.771  1.00  0.00    -0.196 NA
HETATM    8  C7  UNL     1       2.764   0.167   0.480  1.00  0.00     0.123 C 
HETATM    9  C8  UNL     1       1.756  -0.355   1.512  1.00  0.00     0.051 C 
HETATM   10  C9  UNL     1       0.727  -0.986   0.627  1.00  0.00     0.156 C 
HETATM   11  O1  UNL     1       1.515  -1.315  -0.504  1.00  0.00    -0.297 OA
ENDROOT
TORSDOF 0
