REMARK  9 active torsions:
REMARK  status: ('A' for Active; 'I' for Inactive)
REMARK    1  A    between atoms: N1_1  and  C1_5 
REMARK    2  A    between atoms: C1_5  and  C2_6 
REMARK    3  A    between atoms: C1_5  and  C7_19 
REMARK    4  A    between atoms: C2_6  and  C3_7 
REMARK    5  A    between atoms: C3_7  and  S1_8 
REMARK    6  A    between atoms: S1_8  and  C4_9 
REMARK    7  A    between atoms: C7_19  and  O2_20 
REMARK    8  A    between atoms: C7_19  and  C8_22 
REMARK       I    between atoms: C8_22  and  N5_24 
REMARK    9  A    between atoms: N5_24  and  N6_25 
ROOT
HETATM    1  C1  UNL     1      -0.013  -0.045  -0.427  1.00  0.00     0.223 C 
ENDROOT
BRANCH   1   2
HETATM    2  N1  UNL     1      -0.518  -1.388  -0.401  1.00  0.00    -0.072 N 
ATOM      3  H13 UNL     1      -1.524  -1.408  -0.236  1.00  0.00     0.274 HD
ATOM      4  H12 UNL     1      -0.504  -1.813  -1.328  1.00  0.00     0.274 HD
ATOM      5  H11 UNL     1      -0.014  -1.956   0.280  1.00  0.00     0.274 HD
ENDBRANCH   1   2
BRANCH   1   6
HETATM    6  C2  UNL     1      -0.754   0.791  -1.429  1.00  0.00     0.046 C 
BRANCH   6   7
HETATM    7  C3  UNL     1      -2.224   0.898  -1.200  1.00  0.00     0.084 C 
BRANCH   7   8
HETATM    8  S1  UNL     1      -3.032  -0.724  -1.277  1.00  0.00    -0.093 SA
BRANCH   8   9
HETATM    9  C4  UNL     1      -4.779  -0.595  -1.004  1.00  0.00     0.155 C 
HETATM   10  N2  UNL     1      -5.509  -1.674  -1.126  1.00  0.00    -0.277 N 
HETATM   11  N3  UNL     1      -6.889  -1.622  -0.922  1.00  0.00    -0.267 N 
ATOM     12  H2  UNL     1      -5.067  -2.560  -1.372  1.00  0.00     0.189 HD
HETATM   13  C5  UNL     1      -7.473  -0.376  -0.580  1.00  0.00     0.253 C 
ATOM     14  H3  UNL     1      -7.463  -2.460  -1.017  1.00  0.00     0.190 HD
HETATM   15  O1  UNL     1      -8.677  -0.119  -0.819  1.00  0.00    -0.270 OA
HETATM   16  C6  UNL     1      -6.608   0.631   0.077  1.00  0.00     0.226 C 
HETATM   17  N4  UNL     1      -5.347   0.659  -0.675  1.00  0.00    -0.361 N 
ATOM     18  H4  UNL     1      -4.903   1.537  -0.946  1.00  0.00     0.162 HD
ENDBRANCH   8   9
ENDBRANCH   7   8
ENDBRANCH   6   7
ENDBRANCH   1   6
BRANCH   1  19
HETATM   19  C7  UNL     1       0.133   0.578   0.907  1.00  0.00     0.257 C 
BRANCH  19  20
HETATM   20  O2  UNL     1      -1.002   0.695   1.657  1.00  0.00    -0.383 OA
ATOM     21  H2  UNL     1      -0.908   1.095   2.514  1.00  0.00     0.210 HD
ENDBRANCH  19  20
BRANCH  19  22
HETATM   22  C8  UNL     1       1.252  -0.084   1.700  1.00  0.00     0.342 C 
HETATM   23  O3  UNL     1       0.952  -0.213   2.910  1.00  0.00    -0.252 OA
HETATM   24  N5  UNL     1       2.407  -0.466   1.112  1.00  0.00    -0.284 NA
BRANCH  24  25
HETATM   25  N6  UNL     1       3.534  -0.838   0.538  1.00  0.00    -0.233 N 
HETATM   26  C9  UNL     1       4.643  -0.254   0.325  1.00  0.00     0.084 C 
HETATM   27  C10 UNL     1       5.142   1.105   0.636  1.00  0.00     0.064 C 
HETATM   28  C13 UNL     1       5.771  -0.898  -0.351  1.00  0.00     0.174 C 
HETATM   29  C11 UNL     1       6.567   0.755   1.090  1.00  0.00     0.014 C 
HETATM   30  C12 UNL     1       7.018  -0.150  -0.039  1.00  0.00     0.085 C 
HETATM   31  O4  UNL     1       5.666  -1.928  -1.079  1.00  0.00    -0.291 OA
ATOM     32  H6  UNL     1       3.511  -1.797   0.192  1.00  0.00     0.202 HD
ENDBRANCH  24  25
ENDBRANCH  19  22
ENDBRANCH   1  19
TORSDOF 9
