REMARK  2 active torsions:
REMARK  status: ('A' for Active; 'I' for Inactive)
REMARK    1  A    between atoms: C3_3  and  N1_5 
REMARK    2  A    between atoms: C7_8  and  O1_9 
ROOT
HETATM    1  C1  UNL     1       3.165   1.213  -1.685  1.00  0.00     0.099 C 
HETATM    2  C2  UNL     1       2.524   0.485  -0.944  1.00  0.00    -0.153 C 
HETATM    3  C3  UNL     1       1.768  -0.377  -0.036  1.00  0.00     0.284 C 
HETATM    4  C4  UNL     1       2.417  -0.289   1.330  1.00  0.00     0.056 C 
ENDROOT
BRANCH   3   5
HETATM    5  N1  UNL     1       0.389   0.086   0.035  1.00  0.00     0.103 N 
HETATM    6  C5  UNL     1      -0.284  -0.625   1.091  1.00  0.00     0.276 C 
HETATM    7  C6  UNL     1      -1.777  -0.514   1.039  1.00  0.00     0.062 C 
HETATM    8  C7  UNL     1      -2.180   0.576   0.054  1.00  0.00     0.121 C 
HETATM    9  C8  UNL     1      -1.671   0.139  -1.303  1.00  0.00     0.062 C 
HETATM   10  C9  UNL     1      -0.202  -0.133  -1.264  1.00  0.00     0.276 C 
BRANCH   8  11
HETATM   11  O1  UNL     1      -3.557   0.700  -0.037  1.00  0.00    -0.395 OA
ATOM     12  H1  UNL     1      -3.808   1.380  -0.651  1.00  0.00     0.210 HD
ENDBRANCH   8  11
ENDBRANCH   3   5
TORSDOF 2
