REMARK  8 active torsions:
REMARK  status: ('A' for Active; 'I' for Inactive)
REMARK    1  A    between atoms: N1_1  and  C1_4 
REMARK    2  A    between atoms: N4_13  and  N5_14 
REMARK    3  A    between atoms: N6_19  and  C6_20 
REMARK    4  A    between atoms: C6_20  and  C7_21 
REMARK    5  A    between atoms: C7_21  and  N7_22 
REMARK       I    between atoms: N7_22  and  C8_24 
REMARK    6  A    between atoms: C8_24  and  C9_26 
REMARK    7  A    between atoms: C9_26  and  C10_27 
REMARK    8  A    between atoms: C10_27  and  N8_28 
ROOT
HETATM    1  C1  UNL     1      -4.903   0.989   0.448  1.00  0.00     0.680 A 
HETATM    2  N2  UNL     1      -3.896   1.807   0.824  1.00  0.00    -0.154 N 
ATOM      3  H2  UNL     1      -4.093   2.743   1.178  1.00  0.00     0.187 HD
HETATM    4  C2  UNL     1      -2.628   1.366   0.724  1.00  0.00     0.290 A 
HETATM    5  O1  UNL     1      -1.676   2.109   1.067  1.00  0.00    -0.265 OA
HETATM    6  C3  UNL     1      -2.320   0.108   0.251  1.00  0.00     0.154 A 
HETATM    7  C4  UNL     1      -3.380  -0.720  -0.131  1.00  0.00     0.179 A 
HETATM    8  N3  UNL     1      -4.629  -0.242  -0.016  1.00  0.00    -0.172 N 
ATOM      9  H3  UNL     1      -5.406  -0.841  -0.294  1.00  0.00     0.186 HD
HETATM   10  N4  UNL     1      -2.884  -1.893  -0.561  1.00  0.00    -0.192 N 
HETATM   11  C5  UNL     1      -1.550  -1.785  -0.444  1.00  0.00     0.350 A 
HETATM   12  O2  UNL     1      -0.751  -2.701  -0.757  1.00  0.00    -0.244 OA
HETATM   13  N6  UNL     1      -1.200  -0.596   0.040  1.00  0.00    -0.288 N 
ENDROOT
BRANCH  13  14
HETATM   14  C6  UNL     1       0.138  -0.130   0.299  1.00  0.00     0.154 C 
BRANCH  14  15
HETATM   15  C7  UNL     1       0.748   0.566  -0.876  1.00  0.00     0.143 C 
BRANCH  15  16
HETATM   16  N7  UNL     1       2.077   1.014  -0.542  1.00  0.00    -0.359 N 
HETATM   17  C8  UNL     1       3.159   0.186  -0.183  1.00  0.00     0.219 C 
HETATM   18  O3  UNL     1       3.044  -1.047  -0.131  1.00  0.00    -0.274 OA
ATOM     19  H7  UNL     1       2.249   2.019  -0.568  1.00  0.00     0.162 HD
BRANCH  17  20
HETATM   20  C9  UNL     1       4.462   0.816   0.138  1.00  0.00     0.130 C 
BRANCH  20  21
HETATM   21  C10 UNL     1       5.459  -0.264   0.491  1.00  0.00     0.238 C 
BRANCH  21  22
HETATM   22  N8  UNL     1       6.748   0.314   0.811  1.00  0.00    -0.079 N 
ATOM     23  H83 UNL     1       7.090   0.914   0.060  1.00  0.00     0.274 HD
ATOM     24  H82 UNL     1       6.675   1.016   1.547  1.00  0.00     0.274 HD
ATOM     25  H81 UNL     1       7.421  -0.415   1.049  1.00  0.00     0.274 HD
ENDBRANCH  21  22
ENDBRANCH  20  21
ENDBRANCH  17  20
ENDBRANCH  15  16
ENDBRANCH  14  15
ENDBRANCH  13  14
BRANCH  10  26
HETATM   26  N5  UNL     1      -3.576  -2.989  -1.028  1.00  0.00    -0.333 N 
ATOM     27  H52 UNL     1      -4.589  -3.071  -1.117  1.00  0.00     0.177 HD
ATOM     28  H51 UNL     1      -3.200  -3.879  -1.354  1.00  0.00     0.177 HD
ENDBRANCH  10  26
BRANCH   1  29
HETATM   29  N1  UNL     1      -6.117   1.423   0.549  1.00  0.00    -0.234 N 
ATOM     30  H12 UNL     1      -6.325   2.357   0.901  1.00  0.00     0.174 HD
ATOM     31  H11 UNL     1      -6.877   0.805   0.265  1.00  0.00     0.174 HD
ENDBRANCH   1  29
TORSDOF 8
