REMARK  6 active torsions:
REMARK  status: ('A' for Active; 'I' for Inactive)
REMARK    1  A    between atoms: C2_2  and  C3_3 
REMARK    2  A    between atoms: C8_9  and  C9_10 
REMARK    3  A    between atoms: C10_11  and  C11_12 
REMARK    4  A    between atoms: C11_12  and  C12_13 
REMARK    5  A    between atoms: C21_23  and  O3_24 
REMARK    6  A    between atoms: C22_27  and  O5_28 
ROOT
HETATM    1  C3  UNL     1       4.456   1.092  -0.598  1.00  0.00    -0.024 C 
HETATM    2  C4  UNL     1       3.700   2.422  -0.457  1.00  0.00     0.019 C 
HETATM    3  C5  UNL     1       4.068   0.506  -1.921  1.00  0.00     0.046 C 
HETATM    4  C6  UNL     1       3.309  -0.773  -1.630  1.00  0.00     0.139 C 
HETATM    5  O1  UNL     1       1.926  -0.617  -1.553  1.00  0.00    -0.342 OA
HETATM    6  C7  UNL     1       1.463  -1.294  -0.441  1.00  0.00     0.111 A 
HETATM    7  C8  UNL     1       0.295  -1.712   0.202  1.00  0.00     0.097 A 
HETATM    8  O4  UNL     1       0.598  -2.362   1.293  1.00  0.00    -0.289 OA
HETATM    9  C22 UNL     1       1.923  -2.409   1.432  1.00  0.00     0.193 A 
HETATM   10  C23 UNL     1       2.470  -1.741   0.358  1.00  0.00     0.043 A 
HETATM   11  C24 UNL     1       3.737  -1.167  -0.264  1.00  0.00     0.057 C 
HETATM   12  C25 UNL     1       3.952   0.183   0.434  1.00  0.00     0.025 C 
ENDROOT
BRANCH   7  13
HETATM   13  C9  UNL     1      -1.062  -1.393  -0.400  1.00  0.00     0.086 C 
HETATM   14  C10 UNL     1      -1.364   0.043  -0.060  1.00  0.00     0.072 C 
HETATM   15  C16 UNL     1      -2.257   0.323   1.017  1.00  0.00     0.136 C 
HETATM   16  O2  UNL     1      -2.669   1.434   1.240  1.00  0.00    -0.297 OA
HETATM   17  C17 UNL     1      -2.750  -0.744   1.951  1.00  0.00     0.058 C 
HETATM   18  C18 UNL     1      -3.987  -0.318   2.680  1.00  0.00     0.018 C 
HETATM   19  C19 UNL     1      -3.086  -1.926   1.075  1.00  0.00     0.022 C 
HETATM   20  C20 UNL     1      -3.492  -3.068   2.004  1.00  0.00     0.013 C 
HETATM   21  C21 UNL     1      -2.019  -2.393   0.174  1.00  0.00     0.134 C 
BRANCH  14  22
HETATM   22  C11 UNL     1      -1.792   0.751  -1.345  1.00  0.00     0.040 C 
BRANCH  22  23
HETATM   23  C12 UNL     1      -2.089   2.165  -1.163  1.00  0.00    -0.024 C 
HETATM   24  C13 UNL     1      -3.245   2.727  -1.410  1.00  0.00    -0.091 C 
HETATM   25  C14 UNL     1      -4.458   2.037  -1.915  1.00  0.00     0.042 C 
HETATM   26  C15 UNL     1      -3.384   4.225  -1.162  1.00  0.00     0.042 C 
ENDBRANCH  22  23
ENDBRANCH  14  22
BRANCH  21  27
HETATM   27  O3  UNL     1      -2.628  -3.125  -0.877  1.00  0.00    -0.394 OA
ATOM     28  H3  UNL     1      -3.235  -3.759  -0.513  1.00  0.00     0.210 HD
ENDBRANCH  21  27
ENDBRANCH   7  13
BRANCH   9  29
HETATM   29  O5  UNL     1       2.628  -3.023   2.465  1.00  0.00    -0.340 OA
ATOM     30  H5  UNL     1       3.572  -3.056   2.564  1.00  0.00     0.220 HD
ENDBRANCH   9  29
BRANCH   1  31
HETATM   31  C2  UNL     1       5.908   1.323  -0.605  1.00  0.00    -0.028 C 
HETATM   32  C1  UNL     1       6.713   1.022   0.431  1.00  0.00     0.007 C 
ENDBRANCH   1  31
TORSDOF 6
