REMARK  5 active torsions:
REMARK  status: ('A' for Active; 'I' for Inactive)
REMARK    1  A    between atoms: N1_2  and  C2_5 
REMARK    2  A    between atoms: C6_10  and  C7_11 
REMARK    3  A    between atoms: C8_12  and  C9_13 
REMARK    4  A    between atoms: C9_13  and  N2_14 
REMARK    5  A    between atoms: N2_14  and  C10_16 
ROOT
HETATM    1  C2  UNL     1      -4.479  -0.270   1.008  1.00  0.00     0.357 C 
HETATM    2  O1  UNL     1      -4.921  -1.296   0.201  1.00  0.00    -0.351 OA
HETATM    3  C3  UNL     1      -3.985  -2.309   0.378  1.00  0.00     0.210 C 
HETATM    4  C4  UNL     1      -2.686  -1.532   0.353  1.00  0.00    -0.021 A 
HETATM    5  C5  UNL     1      -1.403  -1.873   0.035  1.00  0.00     0.021 A 
HETATM    6  C6  UNL     1      -0.338  -0.940   0.104  1.00  0.00    -0.034 A 
HETATM    7  C13 UNL     1      -0.717   0.316   0.516  1.00  0.00     0.036 A 
HETATM    8  C14 UNL     1      -2.019   0.670   0.839  1.00  0.00     0.046 A 
HETATM    9 CL1  UNL     1      -2.398   2.314   1.362  1.00  0.00    -0.084 Cl
HETATM   10  C15 UNL     1      -3.012  -0.265   0.756  1.00  0.00     0.028 A 
ENDROOT
BRANCH   6  11
HETATM   11  C7  UNL     1       0.987  -1.403  -0.178  1.00  0.00     0.013 C 
HETATM   12  C8  UNL     1       2.076  -0.793  -0.452  1.00  0.00     0.017 C 
BRANCH  12  13
HETATM   13  C9  UNL     1       2.314   0.647  -0.582  1.00  0.00     0.083 C 
BRANCH  13  14
HETATM   14  N2  UNL     1       3.141   1.289   0.353  1.00  0.00    -0.395 N 
ATOM     15  H2  UNL     1       2.723   1.943   1.015  1.00  0.00     0.159 HD
BRANCH  14  16
HETATM   16  C10 UNL     1       4.521   1.060   0.406  1.00  0.00     0.072 C 
HETATM   17  C11 UNL     1       4.914  -0.329   0.770  1.00  0.00     0.031 C 
HETATM   18  C12 UNL     1       5.243   1.390  -0.896  1.00  0.00     0.031 C 
ENDBRANCH  14  16
ENDBRANCH  13  14
ENDBRANCH  12  13
ENDBRANCH   6  11
BRANCH   1  19
HETATM   19  N1  UNL     1      -5.092   0.985   0.750  1.00  0.00    -0.048 N 
HETATM   20  C1  UNL     1      -4.947   1.457  -0.590  1.00  0.00     0.270 C 
ATOM     21  H12 UNL     1      -4.755   1.686   1.410  1.00  0.00     0.280 HD
ATOM     22  H11 UNL     1      -6.078   0.957   1.010  1.00  0.00     0.280 HD
ENDBRANCH   1  19
TORSDOF 5
