REMARK  2 active torsions:
REMARK  status: ('A' for Active; 'I' for Inactive)
REMARK    1  A    between atoms: C2_9  and  C3_10 
REMARK    2  A    between atoms: N6_17  and  N7_19 
ROOT
HETATM    1  C3  UNL     1      -0.442   0.300   0.194  1.00  0.00     0.056 A 
HETATM    2  C4  UNL     1       0.010   1.546   0.659  1.00  0.00     0.020 A 
HETATM    3  C5  UNL     1      -0.647   2.712   0.356  1.00  0.00     0.018 A 
HETATM    4  C6  UNL     1      -1.774   2.589  -0.428  1.00  0.00     0.090 A 
HETATM    5  N5  UNL     1      -2.223   1.438  -0.878  1.00  0.00    -0.350 N 
ATOM      6  H5  UNL     1      -3.065   1.426  -1.453  1.00  0.00     0.166 HD
HETATM    7  C7  UNL     1      -1.579   0.229  -0.591  1.00  0.00     0.133 A 
HETATM    8  N6  UNL     1      -2.104  -0.759  -1.120  1.00  0.00    -0.291 N 
ATOM      9  H6  UNL     1      -2.929  -0.426  -1.620  1.00  0.00     0.188 HD
ENDROOT
BRANCH   1  10
HETATM   10  C2  UNL     1       0.319  -0.887   0.503  1.00  0.00     0.153 A 
HETATM   11  N1  UNL     1       1.679  -0.970   0.593  1.00  0.00    -0.264 N 
HETATM   12  C1  UNL     1       2.700   0.041   0.429  1.00  0.00     0.181 C 
HETATM   13  N2  UNL     1       2.030  -2.243   0.846  1.00  0.00    -0.225 N 
HETATM   14  N3  UNL     1       0.935  -2.962   0.916  1.00  0.00    -0.226 N 
ATOM     15  H2  UNL     1       2.982  -2.589   0.963  1.00  0.00     0.210 HD
HETATM   16  N4  UNL     1      -0.078  -2.139   0.709  1.00  0.00    -0.268 N 
ATOM     17  H3  UNL     1       0.877  -3.964   1.096  1.00  0.00     0.210 HD
ATOM     18  H4  UNL     1      -1.055  -2.432   0.707  1.00  0.00     0.190 HD
ENDBRANCH   1  10
BRANCH   8  19
HETATM   19  N7  UNL     1      -2.042  -2.033  -1.302  1.00  0.00    -0.344 N 
ATOM     20  H72 UNL     1      -1.211  -2.335  -0.793  1.00  0.00     0.176 HD
ATOM     21  H71 UNL     1      -2.475  -2.847  -1.738  1.00  0.00     0.176 HD
ENDBRANCH   8  19
TORSDOF 2
