REMARK  6 active torsions:
REMARK  status: ('A' for Active; 'I' for Inactive)
REMARK    1  A    between atoms: N2_3  and  C2_5 
REMARK    2  A    between atoms: C4_7  and  N3_8 
REMARK    3  A    between atoms: C5_13  and  S1_14 
REMARK    4  A    between atoms: S1_14  and  C6_15 
REMARK    5  A    between atoms: C6_15  and  C7_16 
REMARK    6  A    between atoms: C7_16  and  O1_17 
ROOT
HETATM    1  N1  UNL     1      -6.468   1.187   0.229  1.00  0.00    -0.172 NA
HETATM    2  C1  UNL     1      -5.324   1.440   0.312  1.00  0.00     0.183 C 
HETATM    3  N2  UNL     1      -3.967   1.749   0.432  1.00  0.00    -0.279 N 
ATOM      4  H2  UNL     1      -3.689   2.703   0.664  1.00  0.00     0.179 HD
ENDROOT
BRANCH   3   5
HETATM    5  C2  UNL     1      -2.962   0.754   0.236  1.00  0.00     0.119 A 
HETATM    6  C3  UNL     1      -3.368  -0.527  -0.076  1.00  0.00     0.097 A 
HETATM    7  C4  UNL     1      -2.403  -1.510  -0.271  1.00  0.00     0.104 A 
HETATM    8  N4  UNL     1      -1.109  -1.166  -0.145  1.00  0.00    -0.323 N 
HETATM    9  C5  UNL     1      -0.715   0.084   0.160  1.00  0.00     0.147 A 
ATOM     10  H4  UNL     1      -0.397  -1.882  -0.286  1.00  0.00     0.169 HD
HETATM   11  N6  UNL     1      -1.651   1.034   0.348  1.00  0.00    -0.322 N 
ATOM     12  H6  UNL     1      -1.360   1.984   0.580  1.00  0.00     0.169 HD
BRANCH   7  13
HETATM   13  N3  UNL     1      -2.795  -2.706  -0.563  1.00  0.00    -0.385 N 
ATOM     14  H32 UNL     1      -3.776  -2.967  -0.659  1.00  0.00     0.157 HD
ATOM     15  H31 UNL     1      -2.087  -3.427  -0.706  1.00  0.00     0.157 HD
ENDBRANCH   7  13
BRANCH   9  16
HETATM   16  S1  UNL     1       1.007   0.532   0.325  1.00  0.00    -0.090 SA
BRANCH  16  17
HETATM   17  C6  UNL     1       2.036  -0.935   0.020  1.00  0.00     0.140 C 
BRANCH  17  18
HETATM   18  C7  UNL     1       3.486  -0.461   0.182  1.00  0.00     0.229 C 
HETATM   19  C8  UNL     1       3.689   0.780  -0.609  1.00  0.00     0.269 C 
HETATM   20  O2  UNL     1       3.507   1.173  -1.790  1.00  0.00    -0.269 OA
HETATM   21  N5  UNL     1       4.207   1.418   0.547  1.00  0.00    -0.291 N 
HETATM   22  C9  UNL     1       3.687   0.371   1.389  1.00  0.00     0.269 C 
ATOM     23  H5  UNL     1       4.735   2.274   0.715  1.00  0.00     0.172 HD
HETATM   24  O3  UNL     1       3.518   0.300   2.620  1.00  0.00    -0.269 OA
BRANCH  18  25
HETATM   25  O1  UNL     1       4.406  -1.461  -0.018  1.00  0.00    -0.371 OA
ATOM     26  H1  UNL     1       5.304  -1.167   0.082  1.00  0.00     0.211 HD
ENDBRANCH  18  25
ENDBRANCH  17  18
ENDBRANCH  16  17
ENDBRANCH   9  16
ENDBRANCH   3   5
TORSDOF 6
