REMARK  2 active torsions:
REMARK  status: ('A' for Active; 'I' for Inactive)
REMARK       I    between atoms: C2_2  and  N1_4 
REMARK       I    between atoms: N1_4  and  C3_6 
REMARK    1  A    between atoms: N3_8  and  O2_10 
REMARK    2  A    between atoms: O2_10  and  C4_11 
ROOT
HETATM    1  C1  UNL     1      -3.801   0.297   0.528  1.00  0.00     0.117 C 
HETATM    2  C2  UNL     1      -2.418   0.271   0.029  1.00  0.00     0.220 C 
HETATM    3  O1  UNL     1      -2.144   0.845  -1.046  1.00  0.00    -0.274 OA
HETATM    4  N1  UNL     1      -1.410  -0.389   0.748  1.00  0.00    -0.300 N 
ATOM      5  H1  UNL     1      -1.648  -0.853   1.625  1.00  0.00     0.171 HD
HETATM    6  C3  UNL     1      -0.072  -0.427   0.288  1.00  0.00     0.215 C 
HETATM    7  N2  UNL     1       0.318   0.208  -0.936  1.00  0.00    -0.061 NA
HETATM    8  N3  UNL     1       0.850  -1.033   0.948  1.00  0.00    -0.228 N 
ATOM      9  H3  UNL     1       0.583  -1.490   1.820  1.00  0.00     0.198 HD
ENDROOT
BRANCH   8  10
HETATM   10  O2  UNL     1       2.148  -1.111   0.573  1.00  0.00    -0.181 OA
BRANCH  10  11
HETATM   11  C4  UNL     1       3.036  -0.047   0.540  1.00  0.00     0.394 C 
HETATM   12  N4  UNL     1       4.389  -0.174   0.139  1.00  0.00    -0.031 NA
HETATM   13  O3  UNL     1       2.574   1.082   0.895  1.00  0.00    -0.240 OA
ENDBRANCH  10  11
ENDBRANCH   8  10
TORSDOF 2
