REMARK  7 active torsions:
REMARK  status: ('A' for Active; 'I' for Inactive)
REMARK    1  A    between atoms: C2_2  and  C3_3 
REMARK    2  A    between atoms: C4_6  and  N2_7 
REMARK    3  A    between atoms: C5_12  and  N4_13 
REMARK    4  A    between atoms: N4_13  and  C7_15 
REMARK    5  A    between atoms: C7_15  and  C8_16 
REMARK    6  A    between atoms: C8_16  and  N5_17 
REMARK    7  A    between atoms: C12_21  and  C13_22 
ROOT
HETATM    1  C3  UNL     1      -3.397   0.543   0.321  1.00  0.00     0.054 A 
HETATM    2  N1  UNL     1      -3.599   0.515  -1.007  1.00  0.00    -0.194 N 
ATOM      3  H1  UNL     1      -4.353   1.070  -1.412  1.00  0.00     0.184 HD
HETATM    4  C4  UNL     1      -2.822  -0.234  -1.810  1.00  0.00     0.677 A 
HETATM    5  N3  UNL     1      -1.829  -0.968  -1.292  1.00  0.00    -0.175 N 
ATOM      6  H3  UNL     1      -1.258  -1.526  -1.927  1.00  0.00     0.186 HD
HETATM    7  C5  UNL     1      -1.549  -1.008   0.001  1.00  0.00     0.145 A 
HETATM    8  C15 UNL     1      -2.356  -0.232   0.827  1.00  0.00     0.113 A 
HETATM    9  N6  UNL     1      -2.104  -0.235   2.218  1.00  0.00    -0.096 NA
ENDROOT
BRANCH   7  10
HETATM   10  N4  UNL     1      -0.492  -1.805   0.511  1.00  0.00    -0.368 N 
HETATM   11  C6  UNL     1      -0.868  -2.924   1.368  1.00  0.00     0.151 C 
BRANCH  10  12
HETATM   12  C7  UNL     1       0.902  -1.604   0.272  1.00  0.00     0.143 C 
BRANCH  12  13
HETATM   13  C8  UNL     1       1.190  -0.403  -0.640  1.00  0.00     0.137 C 
BRANCH  13  14
HETATM   14  N5  UNL     1       2.542  -0.287  -0.798  1.00  0.00    -0.401 N 
HETATM   15  C9  UNL     1       3.284  -1.264  -1.520  1.00  0.00     0.117 C 
HETATM   16  C10 UNL     1       4.542  -1.423  -0.680  1.00  0.00     0.022 C 
HETATM   17  C11 UNL     1       4.593  -0.168   0.167  1.00  0.00     0.032 C 
HETATM   18  C12 UNL     1       3.417   0.683  -0.391  1.00  0.00     0.151 C 
BRANCH  18  19
HETATM   19  C13 UNL     1       3.036   1.727   0.595  1.00  0.00     0.259 C 
HETATM   20  C14 UNL     1       1.910   2.605   0.150  1.00  0.00     0.092 C 
HETATM   21  F1  UNL     1       4.173   2.539   0.760  1.00  0.00    -0.204 F 
HETATM   22  F2  UNL     1       2.805   1.205   1.860  1.00  0.00    -0.204 F 
ENDBRANCH  18  19
ENDBRANCH  13  14
ENDBRANCH  12  13
ENDBRANCH  10  12
ENDBRANCH   7  10
BRANCH   4  23
HETATM   23  N2  UNL     1      -3.042  -0.237  -3.074  1.00  0.00    -0.234 N 
ATOM     24  H22 UNL     1      -3.798   0.322  -3.469  1.00  0.00     0.174 HD
ATOM     25  H21 UNL     1      -2.453  -0.805  -3.683  1.00  0.00     0.174 HD
ENDBRANCH   4  23
BRANCH   1  26
HETATM   26  C2  UNL     1      -4.222   1.350   1.246  1.00  0.00     0.055 C 
HETATM   27  C1  UNL     1      -5.223   2.121   0.428  1.00  0.00     0.011 C 
ENDBRANCH   1  26
TORSDOF 7
