REMARK  9 active torsions:
REMARK  status: ('A' for Active; 'I' for Inactive)
REMARK    1  A    between atoms: C2_2  and  C3_3 
REMARK    2  A    between atoms: C3_3  and  C4_4 
REMARK    3  A    between atoms: C4_4  and  O1_5 
REMARK    4  A    between atoms: C4_4  and  C5_7 
REMARK    5  A    between atoms: C8_10  and  C9_11 
REMARK    6  A    between atoms: C9_11  and  C10_12 
REMARK    7  A    between atoms: C10_12  and  C11_13 
REMARK    8  A    between atoms: C16_20  and  O2_21 
REMARK    9  A    between atoms: C22_29  and  O4_30 
ROOT
HETATM    1  C5  UNL     1      -1.066   1.007  -0.095  1.00  0.00     0.038 A 
HETATM    2  C6  UNL     1       0.315   1.024  -0.213  1.00  0.00    -0.033 A 
HETATM    3  C7  UNL     1       1.160   2.207   0.128  1.00  0.00     0.050 C 
HETATM    4  C8  UNL     1       0.966  -0.132  -0.573  1.00  0.00     0.017 A 
HETATM    5  C16 UNL     1       0.302  -1.281  -0.811  1.00  0.00     0.086 A 
HETATM    6  C17 UNL     1      -1.088  -1.340  -0.701  1.00  0.00     0.017 A 
HETATM    7  C18 UNL     1      -1.741  -0.204  -0.347  1.00  0.00     0.093 A 
HETATM    8  O3  UNL     1      -3.146  -0.239  -0.224  1.00  0.00    -0.337 OA
HETATM    9  C19 UNL     1      -3.713  -1.449   0.289  1.00  0.00     0.087 C 
HETATM   10  C20 UNL     1      -3.387  -1.596   1.753  1.00  0.00     0.049 C 
HETATM   11  C21 UNL     1      -5.212  -1.303   0.154  1.00  0.00     0.049 C 
HETATM   12  C22 UNL     1      -3.228  -2.578  -0.544  1.00  0.00     0.160 C 
HETATM   13  C23 UNL     1      -1.826  -2.585  -0.987  1.00  0.00     0.052 C 
HETATM   14  C24 UNL     1      -1.833  -2.864  -2.499  1.00  0.00     0.018 C 
ENDROOT
BRANCH   4  15
HETATM   15  C9  UNL     1       2.430  -0.120  -0.775  1.00  0.00     0.027 C 
HETATM   16  C15 UNL     1       3.004   0.554  -1.706  1.00  0.00     0.274 C 
HETATM   17  F1  UNL     1       4.323   0.583  -1.906  1.00  0.00    -0.172 F 
HETATM   18  F2  UNL     1       2.266   1.295  -2.604  1.00  0.00    -0.172 F 
BRANCH  15  19
HETATM   19  C10 UNL     1       3.205  -0.928   0.183  1.00  0.00     0.072 C 
BRANCH  19  20
HETATM   20  C11 UNL     1       4.653  -1.000  -0.009  1.00  0.00    -0.020 C 
HETATM   21  C12 UNL     1       5.547  -0.540   0.860  1.00  0.00    -0.091 C 
HETATM   22  C13 UNL     1       7.009  -0.637   0.620  1.00  0.00     0.042 C 
HETATM   23  C14 UNL     1       5.065   0.088   2.103  1.00  0.00     0.042 C 
ENDBRANCH  19  20
ENDBRANCH  15  19
ENDBRANCH   4  15
BRANCH   5  24
HETATM   24  O2  UNL     1       0.944  -2.455  -1.174  1.00  0.00    -0.359 OA
ATOM     25  H2  UNL     1       0.476  -3.265  -1.342  1.00  0.00     0.217 HD
ENDBRANCH   5  24
BRANCH   1  26
HETATM   26  C4  UNL     1      -1.855   2.158   0.197  1.00  0.00     0.079 C 
BRANCH  26  27
HETATM   27  C3  UNL     1      -1.522   3.530   0.363  1.00  0.00     0.033 C 
BRANCH  27  28
HETATM   28  C2  UNL     1      -2.577   4.360   0.658  1.00  0.00    -0.028 C 
HETATM   29  C1  UNL     1      -2.316   5.798   0.845  1.00  0.00     0.036 C 
ENDBRANCH  27  28
ENDBRANCH  26  27
BRANCH  26  30
HETATM   30  O1  UNL     1      -3.144   1.877   0.334  1.00  0.00    -0.360 OA
ATOM     31  H1  UNL     1      -3.367   0.960   0.223  1.00  0.00     0.217 HD
ENDBRANCH  26  30
ENDBRANCH   1  26
BRANCH  12  32
HETATM   32  O4  UNL     1      -4.138  -2.714  -1.634  1.00  0.00    -0.392 OA
ATOM     33  H4  UNL     1      -3.828  -3.436  -2.167  1.00  0.00     0.210 HD
ENDBRANCH  12  32
TORSDOF 9
