REMARK  7 active torsions:
REMARK  status: ('A' for Active; 'I' for Inactive)
REMARK    1  A    between atoms: C9_10  and  C10_11 
REMARK    2  A    between atoms: C10_11  and  O1_12 
REMARK    3  A    between atoms: C10_11  and  C11_14 
REMARK    4  A    between atoms: C14_17  and  O2_18 
REMARK    5  A    between atoms: C19_24  and  C20_25 
REMARK    6  A    between atoms: C20_25  and  C21_26 
REMARK    7  A    between atoms: C21_26  and  C22_27 
REMARK       I    between atoms: C22_27  and  N1_29 
ROOT
HETATM    1  C1  UNL     1       2.181   2.555   1.616  1.00  0.00     0.019 C 
HETATM    2  C2  UNL     1       1.296   2.088   0.710  1.00  0.00    -0.061 C 
HETATM    3  C3  UNL     1       0.833   3.105  -0.246  1.00  0.00     0.039 C 
HETATM    4  C4  UNL     1      -0.604   3.439  -0.130  1.00  0.00     0.013 C 
HETATM    5  C5  UNL     1      -1.430   2.430   0.671  1.00  0.00     0.030 C 
HETATM    6  C6  UNL     1      -2.849   2.868   0.511  1.00  0.00     0.011 C 
HETATM    7  C7  UNL     1      -3.500   1.761  -0.316  1.00  0.00     0.048 C 
HETATM    8  C8  UNL     1      -2.751   0.525   0.108  1.00  0.00     0.149 C 
HETATM    9  F1  UNL     1      -3.187   0.220   1.376  1.00  0.00    -0.239 F 
HETATM   10  C9  UNL     1      -2.722  -0.601  -0.844  1.00  0.00     0.090 C 
HETATM   11  C14 UNL     1      -1.798  -1.669  -0.371  1.00  0.00     0.129 C 
HETATM   12  C15 UNL     1      -0.477  -1.174   0.143  1.00  0.00     0.049 C 
HETATM   13  C16 UNL     1      -0.463   0.110   0.894  1.00  0.00     0.025 C 
HETATM   14  C17 UNL     1      -0.794  -0.058   2.353  1.00  0.00     0.024 C 
HETATM   15  C18 UNL     1       0.935   0.686   0.833  1.00  0.00    -0.045 C 
HETATM   16  C19 UNL     1       1.908  -0.160   0.855  1.00  0.00    -0.018 C 
HETATM   17  C24 UNL     1      -1.347   1.075   0.160  1.00  0.00     0.155 C 
HETATM   18  F2  UNL     1      -0.795   1.156  -1.130  1.00  0.00    -0.238 F 
ENDROOT
BRANCH  16  19
HETATM   19  C20 UNL     1       3.358  -0.035   0.772  1.00  0.00     0.037 C 
BRANCH  19  20
HETATM   20  C21 UNL     1       3.923  -0.933  -0.346  1.00  0.00     0.107 C 
BRANCH  20  21
HETATM   21  C22 UNL     1       5.393  -0.731  -0.348  1.00  0.00     0.224 C 
HETATM   22  O3  UNL     1       5.976   0.040   0.457  1.00  0.00    -0.273 OA
HETATM   23  N1  UNL     1       6.192  -1.429  -1.291  1.00  0.00    -0.304 N 
HETATM   24  C23 UNL     1       7.403  -1.802  -1.072  1.00  0.00     0.203 C 
ATOM     25  H1  UNL     1       5.780  -1.648  -2.198  1.00  0.00     0.171 HD
HETATM   26  N2  UNL     1       8.098  -1.567   0.139  1.00  0.00    -0.066 NA
HETATM   27  N3  UNL     1       8.068  -2.489  -2.113  1.00  0.00    -0.066 NA
ENDBRANCH  20  21
ENDBRANCH  19  20
ENDBRANCH  16  19
BRANCH  11  28
HETATM   28  O2  UNL     1      -2.356  -2.611   0.485  1.00  0.00    -0.395 OA
ATOM     29  H2  UNL     1      -1.767  -3.292   0.787  1.00  0.00     0.210 HD
ENDBRANCH  11  28
BRANCH  10  30
HETATM   30  C10 UNL     1      -3.952  -1.045  -1.500  1.00  0.00     0.155 C 
BRANCH  30  31
HETATM   31  O1  UNL     1      -3.572  -2.151  -2.325  1.00  0.00    -0.391 OA
ATOM     32  H1  UNL     1      -4.371  -2.439  -2.751  1.00  0.00     0.210 HD
ENDBRANCH  30  31
BRANCH  30  33
HETATM   33  C11 UNL     1      -5.185  -1.298  -0.809  1.00  0.00    -0.064 C 
HETATM   34  C12 UNL     1      -6.278  -0.555  -1.093  1.00  0.00     0.016 C 
HETATM   35  C13 UNL     1      -5.400  -2.337   0.215  1.00  0.00     0.045 C 
ENDBRANCH  30  33
ENDBRANCH  10  30
TORSDOF 7
