REMARK  6 active torsions:
REMARK  status: ('A' for Active; 'I' for Inactive)
REMARK    1  A    between atoms: C3_3  and  C4_4 
REMARK    2  A    between atoms: C4_4  and  O1_5 
REMARK    3  A    between atoms: C4_4  and  C5_7 
REMARK    4  A    between atoms: C5_7  and  O2_8 
REMARK    5  A    between atoms: C15_19  and  C16_20 
REMARK    6  A    between atoms: C19_24  and  O3_25 
ROOT
HETATM    1  C1  UNL     1       1.960   1.794  -0.342  1.00  0.00     0.047 C 
HETATM    2  C2  UNL     1       1.974   0.425   0.251  1.00  0.00    -0.040 C 
HETATM    3  C3  UNL     1       3.119  -0.145   0.576  1.00  0.00    -0.022 C 
HETATM    4  C6  UNL     1       2.960  -1.563   1.140  1.00  0.00     0.042 C 
HETATM    5  C7  UNL     1       2.108  -2.289   0.139  1.00  0.00     0.013 C 
HETATM    6  C8  UNL     1       0.715  -1.729   0.047  1.00  0.00     0.025 C 
HETATM    7  C9  UNL     1       0.148  -1.963  -1.307  1.00  0.00     0.008 C 
HETATM    8  C10 UNL     1      -0.084  -0.715  -2.073  1.00  0.00     0.005 C 
HETATM    9  C11 UNL     1      -0.981   0.204  -1.274  1.00  0.00    -0.007 C 
HETATM   10  C12 UNL     1      -2.384  -0.363  -1.407  1.00  0.00     0.010 C 
HETATM   11  C13 UNL     1      -3.406   0.422  -0.587  1.00  0.00    -0.013 C 
HETATM   12  C14 UNL     1      -4.619  -0.474  -0.477  1.00  0.00     0.010 C 
HETATM   13  C15 UNL     1      -2.840   0.856   0.720  1.00  0.00    -0.000 C 
HETATM   14  C17 UNL     1      -1.683  -0.091   1.021  1.00  0.00     0.014 C 
HETATM   15  C18 UNL     1      -0.534   0.425   0.109  1.00  0.00     0.029 C 
HETATM   16  C19 UNL     1       0.709  -0.304   0.518  1.00  0.00     0.089 C 
ENDROOT
BRANCH   3  17
HETATM   17  C4  UNL     1       4.436   0.390   0.438  1.00  0.00     0.073 C 
BRANCH  17  18
HETATM   18  O1  UNL     1       5.406  -0.382   0.849  1.00  0.00    -0.362 OA
ATOM     19  H1  UNL     1       6.282  -0.026   0.757  1.00  0.00     0.217 HD
ENDBRANCH  17  18
BRANCH  17  20
HETATM   20  C5  UNL     1       4.874   1.660  -0.086  1.00  0.00     0.228 C 
BRANCH  20  21
HETATM   21  O2  UNL     1       6.287   1.852   0.164  1.00  0.00    -0.394 OA
ATOM     22  H2  UNL     1       6.576   2.689  -0.181  1.00  0.00     0.209 HD
ENDBRANCH  20  21
ENDBRANCH  17  20
ENDBRANCH   3  17
BRANCH  16  23
HETATM   23  O3  UNL     1       0.591  -0.361   1.936  1.00  0.00    -0.384 OA
ATOM     24  H3  UNL     1      -0.219  -0.828   2.107  1.00  0.00     0.211 HD
ENDBRANCH  16  23
BRANCH  13  25
HETATM   25  C16 UNL     1      -3.800   0.989   1.849  1.00  0.00     0.091 C 
HETATM   26  S1  UNL     1      -5.073   2.202   1.485  1.00  0.00    -0.097 SA
ENDBRANCH  13  25
TORSDOF 6
