REMARK  9 active torsions:
REMARK  status: ('A' for Active; 'I' for Inactive)
REMARK    1  A    between atoms: C4_5  and  N2_6 
REMARK    2  A    between atoms: N2_6  and  N3_8 
REMARK    3  A    between atoms: N3_8  and  N4_9 
REMARK    4  A    between atoms: C8_15  and  O1_16 
REMARK    5  A    between atoms: C8_15  and  C9_18 
REMARK    6  A    between atoms: C10_22  and  N5_23 
REMARK    7  A    between atoms: N5_23  and  C11_25 
REMARK    8  A    between atoms: C17_31  and  C18_32 
REMARK    9  A    between atoms: C18_32  and  O2_33 
ROOT
HETATM    1  C1  UNL     1       2.656  -2.466   1.001  1.00  0.00     0.150 C 
HETATM    2  N1  UNL     1       1.902  -1.323   0.536  1.00  0.00    -0.376 N 
HETATM    3  C2  UNL     1       2.580  -0.089   0.259  1.00  0.00     0.042 A 
HETATM    4  C3  UNL     1       3.648   0.269   1.050  1.00  0.00     0.062 A 
HETATM    5  C4  UNL     1       4.324   1.442   0.808  1.00  0.00     0.064 A 
HETATM    6  C5  UNL     1       3.896   2.227  -0.242  1.00  0.00     0.032 A 
HETATM    7  C6  UNL     1       2.818   1.854  -1.030  1.00  0.00     0.015 A 
HETATM    8  C7  UNL     1       2.136   0.684  -0.795  1.00  0.00     0.014 A 
HETATM    9  C8  UNL     1       0.991   0.182  -1.543  1.00  0.00     0.207 C 
HETATM   10  C10 UNL     1      -0.060  -0.238  -0.521  1.00  0.00     0.150 C 
HETATM   11  C17 UNL     1       0.471  -1.353   0.318  1.00  0.00     0.133 C 
ENDROOT
BRANCH  10  12
HETATM   12  N5  UNL     1      -1.327  -0.458  -1.004  1.00  0.00    -0.408 N 
ATOM     13  H5  UNL     1      -1.414  -0.967  -1.884  1.00  0.00     0.154 HD
BRANCH  12  14
HETATM   14  C11 UNL     1      -2.507  -0.038  -0.383  1.00  0.00     0.077 C 
HETATM   15  C12 UNL     1      -2.844  -0.675   0.958  1.00  0.00     0.024 C 
HETATM   16  C13 UNL     1      -4.371  -0.567   1.079  1.00  0.00     0.002 C 
HETATM   17  C14 UNL     1      -4.869   0.823   0.964  1.00  0.00     0.000 C 
HETATM   18  C15 UNL     1      -4.154   1.710   0.009  1.00  0.00     0.002 C 
HETATM   19  C16 UNL     1      -2.668   1.439  -0.137  1.00  0.00     0.024 C 
ENDBRANCH  12  14
ENDBRANCH  10  12
BRANCH   9  20
HETATM   20  O1  UNL     1       1.425  -1.062  -2.099  1.00  0.00    -0.374 OA
ATOM     21  H1  UNL     1       0.678  -1.389  -2.587  1.00  0.00     0.211 HD
ENDBRANCH   9  20
BRANCH   9  22
HETATM   22  C9  UNL     1       0.527   0.973  -2.684  1.00  0.00     0.424 C 
HETATM   23  F1  UNL     1       1.615   1.042  -3.588  1.00  0.00    -0.167 F 
HETATM   24  F2  UNL     1       0.144   2.273  -2.409  1.00  0.00    -0.167 F 
HETATM   25  F3  UNL     1      -0.455   0.391  -3.413  1.00  0.00    -0.167 F 
ENDBRANCH   9  22
BRANCH  11  26
HETATM   26  C18 UNL     1       0.070  -2.729  -0.087  1.00  0.00     0.191 C 
BRANCH  26  27
HETATM   27  O2  UNL     1       0.372  -3.608   0.977  1.00  0.00    -0.399 OA
ATOM     28  H2  UNL     1       0.116  -4.486   0.719  1.00  0.00     0.209 HD
ENDBRANCH  26  27
ENDBRANCH  11  26
BRANCH   5  29
HETATM   29  N2  UNL     1       5.414   1.778   1.651  1.00  0.00    -0.217 N 
ATOM     30  H2  UNL     1       5.875   1.042   2.186  1.00  0.00     0.203 HD
BRANCH  29  31
HETATM   31  N3  UNL     1       5.816   2.937   1.751  1.00  0.00    -0.243 NA
BRANCH  31  32
HETATM   32  N4  UNL     1       5.891   4.137   2.076  1.00  0.00    -0.260 N 
ATOM     33  H42 UNL     1       5.037   4.146   2.633  1.00  0.00     0.193 HD
ATOM     34  H41 UNL     1       6.224   5.097   2.159  1.00  0.00     0.193 HD
ENDBRANCH  31  32
ENDBRANCH  29  31
ENDBRANCH   5  29
TORSDOF 9
