REMARK  8 active torsions:
REMARK  status: ('A' for Active; 'I' for Inactive)
REMARK    1  A    between atoms: C2_2  and  O1_3 
REMARK    2  A    between atoms: C2_2  and  C3_5 
REMARK    3  A    between atoms: C3_5  and  N1_6 
REMARK    4  A    between atoms: N1_6  and  C4_8 
REMARK    5  A    between atoms: C6_11  and  C7_12 
REMARK    6  A    between atoms: C7_12  and  N3_16 
REMARK    7  A    between atoms: C10_19  and  C11_20 
REMARK    8  A    between atoms: C13_25  and  C14_26 
ROOT
HETATM    1  C7  UNL     1      -0.283  -1.140   0.952  1.00  0.00     0.102 C 
HETATM    2  N2  UNL     1      -0.380  -2.440   1.177  1.00  0.00    -0.387 N 
ATOM      3  H21 UNL     1      -1.179  -2.934   0.779  1.00  0.00     0.157 HD
ATOM      4  H22 UNL     1       0.389  -2.806   1.739  1.00  0.00     0.157 HD
ENDROOT
BRANCH   1   5
HETATM    5  C6  UNL     1       0.853  -0.437   1.518  1.00  0.00     0.190 C 
HETATM    6  O2  UNL     1       1.812  -1.371   1.927  1.00  0.00    -0.376 OA
HETATM    7  C5  UNL     1       3.025  -0.996   1.295  1.00  0.00     0.193 C 
HETATM    8  C4  UNL     1       2.928   0.489   1.229  1.00  0.00     0.107 C 
HETATM    9  C18 UNL     1       1.521   0.578   0.626  1.00  0.00     0.067 C 
BRANCH   8  10
HETATM   10  N1  UNL     1       3.913   1.276   0.720  1.00  0.00    -0.393 N 
ATOM     11  H1  UNL     1       4.344   1.934   1.370  1.00  0.00     0.159 HD
BRANCH  10  12
HETATM   12  C3  UNL     1       4.400   1.290  -0.575  1.00  0.00     0.087 C 
BRANCH  12  13
HETATM   13  C2  UNL     1       5.215   0.117  -1.051  1.00  0.00     0.152 C 
HETATM   14  C1  UNL     1       6.470  -0.075  -0.229  1.00  0.00     0.045 C 
BRANCH  13  15
HETATM   15  O1  UNL     1       5.630   0.330  -2.395  1.00  0.00    -0.391 OA
ATOM     16  H1  UNL     1       4.842   0.451  -2.911  1.00  0.00     0.210 HD
ENDBRANCH  13  15
ENDBRANCH  12  13
ENDBRANCH  10  12
ENDBRANCH   8  10
ENDBRANCH   1   5
BRANCH   1  17
HETATM   17  N3  UNL     1      -1.344  -0.635   0.176  1.00  0.00    -0.363 N 
HETATM   18  C8  UNL     1      -1.124  -0.515  -1.261  1.00  0.00     0.125 C 
HETATM   19  C9  UNL     1      -2.223  -1.214  -2.031  1.00  0.00     0.033 C 
HETATM   20  C10 UNL     1      -3.574  -1.177  -1.446  1.00  0.00     0.097 C 
HETATM   21  C12 UNL     1      -3.717  -1.046   0.016  1.00  0.00     0.039 C 
HETATM   22  C13 UNL     1      -2.610  -0.288   0.732  1.00  0.00     0.093 C 
BRANCH  20  23
HETATM   23  C11 UNL     1      -4.242  -2.520  -1.833  1.00  0.00     0.391 C 
HETATM   24  F1  UNL     1      -5.524  -2.562  -1.317  1.00  0.00    -0.171 F 
HETATM   25  F2  UNL     1      -3.533  -3.557  -1.216  1.00  0.00    -0.171 F 
HETATM   26  F3  UNL     1      -4.184  -2.697  -3.184  1.00  0.00    -0.171 F 
ENDBRANCH  20  23
BRANCH  22  27
HETATM   27  C14 UNL     1      -2.916   1.144   0.928  1.00  0.00    -0.031 C 
HETATM   28  C15 UNL     1      -1.933   1.806   1.895  1.00  0.00     0.016 C 
HETATM   29  C16 UNL     1      -2.924   2.007  -0.293  1.00  0.00     0.016 C 
HETATM   30  C17 UNL     1      -4.284   1.286   1.585  1.00  0.00     0.016 C 
ENDBRANCH  22  27
ENDBRANCH   1  17
TORSDOF 8
