REMARK  5 active torsions:
REMARK  status: ('A' for Active; 'I' for Inactive)
REMARK    1  A    between atoms: C1_2  and  C2_5 
REMARK    2  A    between atoms: C7_10  and  O1_11 
REMARK    3  A    between atoms: O1_11  and  C8_12 
REMARK    4  A    between atoms: N2_18  and  C12_20 
REMARK    5  A    between atoms: C12_20  and  C13_21 
ROOT
HETATM    1  C8  UNL     1       0.721  -1.272   0.221  1.00  0.00     0.074 A 
HETATM    2  C9  UNL     1       0.538  -2.538   0.711  1.00  0.00     0.054 A 
HETATM    3  C10 UNL     1       1.555  -3.467   0.769  1.00  0.00     0.092 A 
HETATM    4  N1  UNL     1       2.776  -3.145   0.337  1.00  0.00    -0.352 N 
ATOM      5  H1  UNL     1       3.524  -3.837   0.383  1.00  0.00     0.166 HD
HETATM    6  C11 UNL     1       3.040  -1.902  -0.166  1.00  0.00     0.103 A 
HETATM    7  N2  UNL     1       4.215  -1.638  -0.566  1.00  0.00    -0.376 N 
ATOM      8  H2  UNL     1       4.947  -2.346  -0.511  1.00  0.00     0.161 HD
HETATM    9  C16 UNL     1       2.011  -0.966  -0.224  1.00  0.00     0.085 A 
ENDROOT
BRANCH   1  10
HETATM   10  O1  UNL     1      -0.247  -0.329   0.145  1.00  0.00    -0.345 OA
BRANCH  10  11
HETATM   11  C7  UNL     1      -1.563  -0.432   0.526  1.00  0.00     0.133 C 
HETATM   12  C6  UNL     1      -1.870   0.520   1.668  1.00  0.00     0.033 C 
HETATM   13  C5  UNL     1      -3.279   0.395   2.150  1.00  0.00     0.007 C 
HETATM   14  C4  UNL     1      -4.300   0.305   1.073  1.00  0.00    -0.009 C 
HETATM   15  C3  UNL     1      -4.594   1.678   0.446  1.00  0.00     0.023 C 
HETATM   16  C19 UNL     1      -3.916  -0.597  -0.069  1.00  0.00    -0.003 C 
HETATM   17  C2  UNL     1      -4.208   1.456  -0.976  1.00  0.00     0.059 C 
HETATM   18  C18 UNL     1      -2.733   1.182  -1.037  1.00  0.00     0.026 C 
HETATM   19  C20 UNL     1      -4.767   0.038  -1.190  1.00  0.00     0.024 C 
HETATM   20  C17 UNL     1      -2.549  -0.234  -0.595  1.00  0.00     0.021 C 
BRANCH  17  21
HETATM   21  C1  UNL     1      -4.713   2.423  -1.960  1.00  0.00     0.395 C 
HETATM   22  F1  UNL     1      -4.237   2.035  -3.219  1.00  0.00    -0.170 F 
HETATM   23  F2  UNL     1      -6.089   2.417  -2.073  1.00  0.00    -0.170 F 
HETATM   24  F3  UNL     1      -4.313   3.698  -1.706  1.00  0.00    -0.170 F 
ENDBRANCH  17  21
ENDBRANCH  10  11
ENDBRANCH   1  10
BRANCH   7  25
HETATM   25  C12 UNL     1       4.509  -0.337  -1.097  1.00  0.00     0.129 C 
BRANCH  25  26
HETATM   26  C13 UNL     1       6.014  -0.228  -1.234  1.00  0.00     0.055 C 
HETATM   27  C14 UNL     1       6.496   1.093  -1.785  1.00  0.00     0.240 C 
HETATM   28  N3  UNL     1       6.831   1.514  -0.436  1.00  0.00    -0.074 N 
HETATM   29  C15 UNL     1       6.615   0.185   0.101  1.00  0.00     0.240 C 
ATOM     30  H32 UNL     1       7.727   1.973  -0.271  1.00  0.00     0.277 HD
ATOM     31  H31 UNL     1       6.327   2.300  -0.025  1.00  0.00     0.277 HD
ENDBRANCH  25  26
ENDBRANCH   7  25
TORSDOF 5
