REMARK  7 active torsions:
REMARK  status: ('A' for Active; 'I' for Inactive)
REMARK    1  A    between atoms: C2_2  and  C3_3 
REMARK    2  A    between atoms: C3_3  and  C5_5 
REMARK    3  A    between atoms: C5_5  and  N1_6 
REMARK    4  A    between atoms: N1_6  and  C6_8 
REMARK    5  A    between atoms: C8_13  and  C9_14 
REMARK    6  A    between atoms: N3_15  and  C10_17 
REMARK    7  A    between atoms: C16_23  and  O2_24 
ROOT
HETATM    1  C6  UNL     1      -2.089  -0.774  -0.202  1.00  0.00     0.173 C 
HETATM    2  N2  UNL     1      -1.346   0.222  -0.704  1.00  0.00    -0.304 N 
ATOM      3  H2  UNL     1      -1.858   0.894  -1.275  1.00  0.00     0.171 HD
HETATM    4  C7  UNL     1      -0.032   0.474  -0.573  1.00  0.00     0.263 C 
HETATM    5  O1  UNL     1       0.364   1.594  -0.977  1.00  0.00    -0.267 OA
HETATM    6  C8  UNL     1       0.938  -0.381  -0.034  1.00  0.00     0.098 C 
HETATM    7  C16 UNL     1       0.837  -1.744   0.222  1.00  0.00     0.160 C 
HETATM    8  N4  UNL     1      -0.311  -2.439   0.234  1.00  0.00    -0.300 N 
ATOM      9  H4  UNL     1      -0.198  -3.450   0.309  1.00  0.00     0.171 HD
HETATM   10  C17 UNL     1      -1.586  -2.017   0.163  1.00  0.00     0.291 C 
HETATM   11  O3  UNL     1      -2.473  -2.840   0.463  1.00  0.00    -0.264 OA
ENDROOT
BRANCH   6  12
HETATM   12  C9  UNL     1       2.207   0.228   0.300  1.00  0.00     0.105 C 
HETATM   13  N3  UNL     1       3.138  -0.462   0.789  1.00  0.00    -0.393 N 
ATOM     14  H3  UNL     1       2.930  -1.451   0.926  1.00  0.00     0.159 HD
BRANCH  13  15
HETATM   15  C10 UNL     1       4.440  -0.047   1.176  1.00  0.00     0.081 C 
HETATM   16  C11 UNL     1       5.541  -0.988   0.775  1.00  0.00     0.025 C 
HETATM   17  C12 UNL     1       5.924  -0.888  -0.664  1.00  0.00     0.002 C 
HETATM   18  C13 UNL     1       6.264   0.538  -1.026  1.00  0.00     0.000 C 
HETATM   19  C14 UNL     1       5.053   1.400  -0.757  1.00  0.00     0.002 C 
HETATM   20  C15 UNL     1       4.766   1.353   0.721  1.00  0.00     0.025 C 
ENDBRANCH  13  15
ENDBRANCH   6  12
BRANCH   7  21
HETATM   21  O2  UNL     1       2.040  -2.384   0.478  1.00  0.00    -0.345 OA
ATOM     22  H2  UNL     1       1.971  -3.315   0.653  1.00  0.00     0.219 HD
ENDBRANCH   7  21
BRANCH   1  23
HETATM   23  N1  UNL     1      -3.346  -0.566  -0.048  1.00  0.00    -0.371 N 
ATOM     24  H1  UNL     1      -3.956  -1.291   0.330  1.00  0.00     0.161 HD
BRANCH  23  25
HETATM   25  C5  UNL     1      -3.874   0.729  -0.427  1.00  0.00     0.125 C 
BRANCH  25  26
HETATM   26  C3  UNL     1      -5.285   0.799   0.171  1.00  0.00    -0.001 C 
HETATM   27  C4  UNL     1      -5.848   2.139  -0.209  1.00  0.00     0.011 C 
BRANCH  26  28
HETATM   28  C2  UNL     1      -6.070  -0.334  -0.424  1.00  0.00     0.001 C 
HETATM   29  C1  UNL     1      -7.502  -0.350   0.007  1.00  0.00     0.005 C 
ENDBRANCH  26  28
ENDBRANCH  25  26
ENDBRANCH  23  25
ENDBRANCH   1  23
TORSDOF 7
