REMARK  10 active torsions:
REMARK  status: ('A' for Active; 'I' for Inactive)
REMARK    1  A    between atoms: C2_2  and  O1_3 
REMARK    2  A    between atoms: O1_3  and  C3_4 
REMARK    3  A    between atoms: C3_4  and  C4_6 
REMARK    4  A    between atoms: N2_18  and  C14_19 
REMARK    5  A    between atoms: C14_19  and  C15_20 
REMARK    6  A    between atoms: C15_20  and  C16_21 
REMARK       I    between atoms: C16_21  and  N3_23 
REMARK    7  A    between atoms: C22_31  and  C23_32 
REMARK    8  A    between atoms: C22_31  and  N5_40 
REMARK    9  A    between atoms: C23_32  and  C24_33 
REMARK   10  A    between atoms: C24_33  and  C25_34 
REMARK       I    between atoms: N5_40  and  C31_42 
ROOT
HETATM    1  C16 UNL     1       2.088   2.869   0.765  1.00  0.00     0.246 C 
HETATM    2  O3  UNL     1       3.268   2.498   0.708  1.00  0.00    -0.268 OA
HETATM    3  N3  UNL     1       1.856   4.275   1.005  1.00  0.00    -0.330 N 
HETATM    4  C17 UNL     1       0.549   4.893   1.102  1.00  0.00     0.143 C 
HETATM    5  C18 UNL     1       0.715   5.976   2.111  1.00  0.00     0.079 C 
HETATM    6 BR1  UNL     1       0.005   7.609   1.361  1.00  0.00    -0.089 Br
HETATM    7  C19 UNL     1       2.211   6.096   2.354  1.00  0.00     0.058 C 
HETATM    8  C20 UNL     1       2.825   5.317   1.186  1.00  0.00     0.196 C 
HETATM    9  C21 UNL     1       2.795   6.150  -0.036  1.00  0.00     0.085 C 
HETATM   10  N4  UNL     1       2.770   6.808  -0.981  1.00  0.00    -0.195 NA
ENDROOT
BRANCH   1  11
HETATM   11  C15 UNL     1       0.952   1.999   0.609  1.00  0.00     0.105 C 
BRANCH  11  12
HETATM   12  C14 UNL     1       1.083   0.611   0.159  1.00  0.00     0.059 C 
HETATM   13  C22 UNL     1       1.974   0.234  -0.918  1.00  0.00     0.039 C 
BRANCH  12  14
HETATM   14  N2  UNL     1      -0.227   0.038   0.149  1.00  0.00    -0.369 N 
HETATM   15  C13 UNL     1      -0.805  -0.066   1.476  1.00  0.00     0.165 C 
HETATM   16  C12 UNL     1      -1.866  -1.076   1.505  1.00  0.00    -0.004 A 
HETATM   17  C5  UNL     1      -2.803  -0.961   0.462  1.00  0.00     0.034 A 
HETATM   18  C11 UNL     1      -2.199  -2.125   2.271  1.00  0.00     0.000 A 
HETATM   19  C4  UNL     1      -2.523   0.164  -0.427  1.00  0.00     0.158 C 
HETATM   20  N1  UNL     1      -3.689  -1.946   0.616  1.00  0.00    -0.358 N 
HETATM   21  C33 UNL     1      -1.090   0.064  -0.928  1.00  0.00     0.100 C 
HETATM   22  C34 UNL     1      -0.971   1.123  -1.961  1.00  0.00     0.033 C 
HETATM   23  C6  UNL     1      -3.356  -2.687   1.717  1.00  0.00     0.043 A 
ATOM     24  H1  UNL     1      -4.489  -2.120   0.008  1.00  0.00     0.166 HD
HETATM   25  C7  UNL     1      -3.946  -3.780   2.272  1.00  0.00     0.030 A 
HETATM   26  C8  UNL     1      -3.431  -4.378   3.402  1.00  0.00     0.002 A 
HETATM   27  C9  UNL     1      -2.286  -3.842   3.971  1.00  0.00     0.001 A 
HETATM   28  C10 UNL     1      -1.698  -2.741   3.405  1.00  0.00     0.014 A 
BRANCH  19  29
HETATM   29  C3  UNL     1      -3.535   0.394  -1.447  1.00  0.00     0.270 C 
HETATM   30  O2  UNL     1      -3.421   0.251  -2.664  1.00  0.00    -0.264 OA
BRANCH  29  31
HETATM   31  O1  UNL     1      -4.813   0.838  -1.022  1.00  0.00    -0.321 OA
BRANCH  31  32
HETATM   32  C2  UNL     1      -5.845   1.085  -1.957  1.00  0.00     0.174 C 
HETATM   33  C1  UNL     1      -6.207  -0.133  -2.752  1.00  0.00     0.034 C 
ENDBRANCH  31  32
ENDBRANCH  29  31
ENDBRANCH  19  29
ENDBRANCH  12  14
BRANCH  13  34
HETATM   34  C23 UNL     1       2.064  -1.207  -1.280  1.00  0.00     0.064 C 
BRANCH  34  35
HETATM   35  C24 UNL     1       2.578  -1.958  -0.041  1.00  0.00     0.044 C 
BRANCH  35  36
HETATM   36  C25 UNL     1       2.709  -3.400  -0.333  1.00  0.00    -0.058 A 
HETATM   37  C26 UNL     1       3.865  -3.946  -0.835  1.00  0.00     0.007 A 
HETATM   38  C27 UNL     1       3.959  -5.307  -1.105  1.00  0.00     0.001 A 
HETATM   39  C28 UNL     1       2.888  -6.133  -0.872  1.00  0.00     0.000 A 
HETATM   40  C29 UNL     1       1.732  -5.606  -0.373  1.00  0.00     0.001 A 
HETATM   41  C30 UNL     1       1.654  -4.250  -0.109  1.00  0.00     0.007 A 
ENDBRANCH  35  36
ENDBRANCH  34  35
ENDBRANCH  13  34
BRANCH  13  42
HETATM   42  N5  UNL     1       2.734   0.989  -1.638  1.00  0.00    -0.329 N 
HETATM   43  C31 UNL     1       3.582   0.569  -2.674  1.00  0.00     0.217 C 
HETATM   44  C32 UNL     1       5.010   0.302  -2.357  1.00  0.00     0.117 C 
HETATM   45  O4  UNL     1       3.180   0.411  -3.845  1.00  0.00    -0.274 OA
ATOM     46  H5  UNL     1       2.716   1.988  -1.434  1.00  0.00     0.168 HD
ENDBRANCH  13  42
ENDBRANCH  11  12
ENDBRANCH   1  11
TORSDOF 10
