REMARK  8 active torsions:
REMARK  status: ('A' for Active; 'I' for Inactive)
REMARK    1  A    between atoms: C2_2  and  C3_3 
REMARK    2  A    between atoms: C3_3  and  C13_23 
REMARK       I    between atoms: N1_4  and  C4_6 
REMARK    3  A    between atoms: C4_6  and  C5_8 
REMARK    4  A    between atoms: C6_10  and  O3_11 
REMARK    5  A    between atoms: C7_13  and  O4_15 
REMARK    6  A    between atoms: C10_18  and  O5_19 
REMARK    7  A    between atoms: O5_19  and  C11_20 
REMARK    8  A    between atoms: N2_25  and  N3_27 
REMARK       I    between atoms: N3_27  and  C15_29 
ROOT
HETATM    1  C3  UNL     1       1.625  -1.011  -0.516  1.00  0.00     0.035 C 
HETATM    2  N1  UNL     1       0.553  -0.347  -0.548  1.00  0.00    -0.327 N 
ATOM      3  H1  UNL     1       0.655   0.655  -0.708  1.00  0.00     0.168 HD
HETATM    4  C4  UNL     1      -0.753  -0.808  -0.393  1.00  0.00     0.253 C 
HETATM    5  O1  UNL     1      -1.215  -1.570  -1.288  1.00  0.00    -0.270 OA
ENDROOT
BRANCH   4   6
HETATM    6  C5  UNL     1      -1.591  -0.430   0.773  1.00  0.00     0.246 C 
HETATM    7  O2  UNL     1      -1.008   0.404   1.667  1.00  0.00    -0.341 OA
HETATM    8  C6  UNL     1      -1.074   1.745   1.478  1.00  0.00     0.291 C 
HETATM    9  C7  UNL     1      -2.365   2.302   0.980  1.00  0.00     0.106 C 
HETATM   10  C8  UNL     1      -3.308   2.484   2.162  1.00  0.00     0.051 C 
HETATM   11  C9  UNL     1      -3.016   1.427  -0.069  1.00  0.00     0.078 C 
HETATM   12  C10 UNL     1      -2.963  -0.003   0.379  1.00  0.00     0.173 C 
BRANCH   8  13
HETATM   13  O3  UNL     1      -0.037   2.299   0.724  1.00  0.00    -0.368 OA
ATOM     14  H3  UNL     1      -0.083   3.239   0.592  1.00  0.00     0.212 HD
ENDBRANCH   8  13
BRANCH   9  15
HETATM   15  O4  UNL     1      -2.112   3.549   0.409  1.00  0.00    -0.385 OA
ATOM     16  H4  UNL     1      -2.934   3.904   0.092  1.00  0.00     0.210 HD
ENDBRANCH   9  15
BRANCH  12  17
HETATM   17  O5  UNL     1      -3.494  -0.799  -0.660  1.00  0.00    -0.313 OA
BRANCH  17  18
HETATM   18  C11 UNL     1      -4.659  -1.529  -0.462  1.00  0.00     0.255 C 
HETATM   19  C12 UNL     1      -5.266  -2.386  -1.522  1.00  0.00     0.126 C 
HETATM   20  O6  UNL     1      -5.195  -1.432   0.684  1.00  0.00    -0.266 OA
ENDBRANCH  17  18
ENDBRANCH  12  17
ENDBRANCH   4   6
BRANCH   1  21
HETATM   21  C2  UNL     1       1.586  -2.470  -0.289  1.00  0.00     0.055 C 
HETATM   22  C1  UNL     1       2.209  -3.198  -1.477  1.00  0.00     0.011 C 
ENDBRANCH   1  21
BRANCH   1  23
HETATM   23  C13 UNL     1       2.906  -0.358  -0.698  1.00  0.00     0.044 C 
HETATM   24  C14 UNL     1       3.035   1.108  -0.932  1.00  0.00     0.072 C 
HETATM   25  N2  UNL     1       4.019  -1.036  -0.666  1.00  0.00    -0.301 N 
ATOM     26  H2  UNL     1       3.966  -2.042  -0.508  1.00  0.00     0.186 HD
BRANCH  25  27
HETATM   27  N3  UNL     1       5.259  -0.471  -0.833  1.00  0.00    -0.274 N 
HETATM   28  C15 UNL     1       5.777   0.421   0.133  1.00  0.00     0.200 C 
HETATM   29  N4  UNL     1       6.578   1.385  -0.204  1.00  0.00    -0.372 N 
HETATM   30  N5  UNL     1       5.435   0.291   1.514  1.00  0.00    -0.062 NA
ATOM     31  H42 UNL     1       6.822   1.478  -1.190  1.00  0.00     0.158 HD
ATOM     32  H41 UNL     1       6.952   2.029   0.493  1.00  0.00     0.158 HD
ATOM     33  H3  UNL     1       5.811  -0.697  -1.661  1.00  0.00     0.189 HD
ENDBRANCH  25  27
ENDBRANCH   1  23
TORSDOF 8
