REMARK  5 active torsions:
REMARK  status: ('A' for Active; 'I' for Inactive)
REMARK    1  A    between atoms: C2_2  and  C3_3 
REMARK    2  A    between atoms: C3_3  and  C4_4 
REMARK    3  A    between atoms: C4_4  and  N1_5 
REMARK    4  A    between atoms: N1_5  and  S1_7 
REMARK    5  A    between atoms: S1_7  and  N2_10 
ROOT
HETATM    1  S1  UNL     1      -0.408   1.220   0.979  1.00  0.00     0.298 S 
HETATM    2  O1  UNL     1      -0.832   1.676  -0.408  1.00  0.00    -0.188 OA
HETATM    3  O2  UNL     1      -0.491   2.480   1.835  1.00  0.00    -0.188 OA
ENDROOT
BRANCH   1   4
HETATM    4  N1  UNL     1       1.215   0.716   1.005  1.00  0.00    -0.303 N 
ATOM      5  H1  UNL     1       1.825   0.759   1.821  1.00  0.00     0.173 HD
BRANCH   4   6
HETATM    6  C4  UNL     1       1.603   0.223  -0.278  1.00  0.00     0.177 C 
BRANCH   6   7
HETATM    7  C3  UNL     1       3.044  -0.244  -0.318  1.00  0.00     0.116 A 
HETATM    8  C10 UNL     1       3.290  -1.654  -0.805  1.00  0.00     0.213 A 
HETATM    9  O3  UNL     1       3.429  -1.275   0.536  1.00  0.00    -0.369 OA
BRANCH   7  10
HETATM   10  C2  UNL     1       4.068   0.776  -0.707  1.00  0.00     0.004 C 
HETATM   11  C1  UNL     1       4.968   1.238   0.125  1.00  0.00     0.010 C 
ENDBRANCH   7  10
ENDBRANCH   6   7
ENDBRANCH   4   6
ENDBRANCH   1   4
BRANCH   1  12
HETATM   12  N2  UNL     1      -1.536   0.105   1.580  1.00  0.00    -0.194 NA
HETATM   13  C5  UNL     1      -1.579  -1.120   0.849  1.00  0.00     0.109 C 
HETATM   14  C6  UNL     1      -2.224  -0.997  -0.500  1.00  0.00     0.015 C 
HETATM   15  C7  UNL     1      -3.554  -0.276  -0.417  1.00  0.00     0.002 C 
HETATM   16  C8  UNL     1      -3.926  -0.091   1.035  1.00  0.00     0.015 C 
HETATM   17  C9  UNL     1      -2.841   0.737   1.688  1.00  0.00     0.109 C 
ENDBRANCH   1  12
TORSDOF 5
