REMARK  5 active torsions:
REMARK  status: ('A' for Active; 'I' for Inactive)
REMARK    1  A    between atoms: C2_2  and  C3_3 
REMARK    2  A    between atoms: C4_4  and  C5_5 
REMARK    3  A    between atoms: C6_6  and  C7_7 
REMARK    4  A    between atoms: C10_10  and  C11_11 
REMARK       I    between atoms: C11_11  and  N1_13 
REMARK    5  A    between atoms: N1_13  and  S1_15 
ROOT
HETATM    1  C7  UNL     1       3.896   0.423  -0.292  1.00  0.00    -0.079 C 
HETATM    2  C8  UNL     1       5.077   0.385  -0.572  1.00  0.00    -0.106 C 
HETATM    3  C9  UNL     1       6.511   0.308  -0.875  1.00  0.00     0.112 C 
ENDROOT
BRANCH   1   4
HETATM    4  C6  UNL     1       2.536   0.445   0.074  1.00  0.00     0.061 C 
HETATM    5  C5  UNL     1       1.584   0.246  -0.803  1.00  0.00    -0.012 C 
BRANCH   5   6
HETATM    6  C4  UNL     1       0.163   0.278  -0.311  1.00  0.00     0.031 A 
HETATM    7  C3  UNL     1      -0.197  -0.536   0.884  1.00  0.00     0.029 A 
HETATM    8  C10 UNL     1      -0.717  -0.934  -0.509  1.00  0.00     0.095 A 
BRANCH   7   9
HETATM    9  C2  UNL     1       0.735  -1.472   1.538  1.00  0.00    -0.031 C 
HETATM   10  C1  UNL     1       0.447  -2.001   2.703  1.00  0.00     0.007 C 
ENDBRANCH   7   9
BRANCH   8  11
HETATM   11  C11 UNL     1      -2.151  -0.772  -0.769  1.00  0.00     0.236 C 
HETATM   12  O1  UNL     1      -2.698  -1.499  -1.632  1.00  0.00    -0.272 OA
HETATM   13  N1  UNL     1      -2.959   0.168  -0.090  1.00  0.00    -0.254 N 
ATOM     14  H1  UNL     1      -2.518   0.761   0.613  1.00  0.00     0.181 HD
BRANCH  13  15
HETATM   15  S1  UNL     1      -4.645   0.370  -0.381  1.00  0.00     0.229 S 
HETATM   16  C12 UNL     1      -5.003   2.121  -0.312  1.00  0.00     0.186 C 
HETATM   17  O2  UNL     1      -5.469  -0.363   0.635  1.00  0.00    -0.206 OA
HETATM   18  O3  UNL     1      -4.938  -0.199  -1.752  1.00  0.00    -0.206 OA
ENDBRANCH  13  15
ENDBRANCH   8  11
ENDBRANCH   5   6
ENDBRANCH   1   4
TORSDOF 5
