REMARK  2 active torsions:
REMARK  status: ('A' for Active; 'I' for Inactive)
REMARK    1  A    between atoms: C2_2  and  N1_3 
REMARK    2  A    between atoms: N2_5  and  N3_7 
REMARK       I    between atoms: N3_7  and  C4_9 
REMARK       I    between atoms: N6_14  and  C5_15 
ROOT
HETATM    1  N1  UNL     1      -0.200   0.749  -0.287  1.00  0.00    -0.210 N 
HETATM    2  C3  UNL     1       0.529  -0.115   0.605  1.00  0.00     0.701 C 
HETATM    3  N2  UNL     1       1.643   0.098   1.212  1.00  0.00    -0.129 N 
ATOM      4  H2  UNL     1       1.977  -0.665   1.801  1.00  0.00     0.205 HD
HETATM    5  N6  UNL     1      -0.266  -1.321   0.679  1.00  0.00    -0.139 N 
HETATM    6  C5  UNL     1      -0.081  -2.389   1.605  1.00  0.00     0.235 C 
HETATM    7  C6  UNL     1       1.013  -2.303   2.599  1.00  0.00     0.118 C 
HETATM    8  O1  UNL     1      -0.810  -3.408   1.614  1.00  0.00    -0.273 OA
HETATM    9  C7  UNL     1      -1.288  -1.269  -0.352  1.00  0.00     0.071 C 
HETATM   10  C8  UNL     1      -2.666  -1.109   0.203  1.00  0.00     0.041 C 
HETATM   11  C9  UNL     1      -1.239  -2.597  -1.079  1.00  0.00     0.041 C 
HETATM   12  C10 UNL     1      -0.823  -0.160  -1.227  1.00  0.00     0.126 C 
HETATM   13  C11 UNL     1      -1.846   0.436  -2.114  1.00  0.00     0.035 C 
ENDROOT
BRANCH   1  14
HETATM   14  C2  UNL     1      -0.262   2.183  -0.212  1.00  0.00     0.137 C 
HETATM   15  C1  UNL     1      -1.639   2.705   0.185  1.00  0.00     0.027 C 
ENDBRANCH   1  14
BRANCH   3  16
HETATM   16  N3  UNL     1       2.439   1.206   1.175  1.00  0.00    -0.260 N 
HETATM   17  C4  UNL     1       3.522   1.406   0.277  1.00  0.00     0.201 C 
HETATM   18  N4  UNL     1       4.703   1.393   0.786  1.00  0.00    -0.372 N 
HETATM   19  N5  UNL     1       3.377   1.612  -1.119  1.00  0.00    -0.062 NA
ATOM     20  H42 UNL     1       4.807   1.245   1.790  1.00  0.00     0.158 HD
ATOM     21  H41 UNL     1       5.480   1.537   0.141  1.00  0.00     0.158 HD
ATOM     22  H3  UNL     1       2.241   1.949   1.845  1.00  0.00     0.190 HD
ENDBRANCH   3  16
TORSDOF 2
