REMARK  6 active torsions:
REMARK  status: ('A' for Active; 'I' for Inactive)
REMARK    1  A    between atoms: C1_2  and  C2_3 
REMARK       I    between atoms: C1_2  and  N1_5 
REMARK       I    between atoms: N1_5  and  C3_7 
REMARK       I    between atoms: C3_7  and  N6_21 
REMARK    2  A    between atoms: N2_8  and  C4_10 
REMARK    3  A    between atoms: C4_10  and  N3_12 
REMARK    4  A    between atoms: N3_12  and  C5_14 
REMARK    5  A    between atoms: N6_21  and  C8_23 
REMARK    6  A    between atoms: C8_23  and  C9_24 
ROOT
HETATM    1  O1  UNL     1      -3.093   1.917   0.757  1.00  0.00    -0.272 OA
HETATM    2  C1  UNL     1      -2.153   2.394   0.080  1.00  0.00     0.245 C 
HETATM    3  N1  UNL     1      -1.255   1.479  -0.567  1.00  0.00    -0.159 N 
ATOM      4  H1  UNL     1      -0.485   1.853  -1.122  1.00  0.00     0.187 HD
HETATM    5  C3  UNL     1      -1.402   0.083  -0.460  1.00  0.00     0.683 C 
HETATM    6  N2  UNL     1      -0.579  -0.693  -1.053  1.00  0.00    -0.166 N 
ATOM      7  H2  UNL     1      -0.704  -1.701  -0.962  1.00  0.00     0.186 HD
HETATM    8  N6  UNL     1      -2.461  -0.463   0.302  1.00  0.00    -0.225 N 
ATOM      9  H6  UNL     1      -3.409  -0.382  -0.065  1.00  0.00     0.177 HD
ENDROOT
BRANCH   6  10
HETATM   10  C4  UNL     1       0.507  -0.207  -1.836  1.00  0.00     0.205 C 
HETATM   11  S1  UNL     1       0.496  -0.249  -3.467  1.00  0.00    -0.040 SA
BRANCH  10  12
HETATM   12  N3  UNL     1       1.660   0.343  -1.214  1.00  0.00    -0.165 N 
ATOM     13  H3  UNL     1       1.695   1.356  -1.097  1.00  0.00     0.186 HD
BRANCH  12  14
HETATM   14  C5  UNL     1       2.658  -0.336  -0.790  1.00  0.00     0.684 A 
HETATM   15  N4  UNL     1       3.726   0.247  -0.207  1.00  0.00    -0.200 N 
HETATM   16  C6  UNL     1       4.590  -0.708   0.125  1.00  0.00     0.123 A 
ATOM     17  H4  UNL     1       3.849   1.247  -0.048  1.00  0.00     0.183 HD
HETATM   18  C7  UNL     1       4.039  -1.905  -0.265  1.00  0.00     0.123 A 
HETATM   19  N5  UNL     1       2.862  -1.650  -0.820  1.00  0.00    -0.200 N 
ATOM     20  H5  UNL     1       2.221  -2.344  -1.205  1.00  0.00     0.183 HD
ENDBRANCH  12  14
ENDBRANCH  10  12
ENDBRANCH   6  10
BRANCH   8  21
HETATM   21  C8  UNL     1      -2.277  -1.127   1.567  1.00  0.00     0.149 C 
BRANCH  21  22
HETATM   22  C9  UNL     1      -1.542  -2.457   1.428  1.00  0.00     0.105 C 
HETATM   23 BR2  UNL     1      -2.505  -3.669   0.294  1.00  0.00    -0.095 Br
ENDBRANCH  21  22
ENDBRANCH   8  21
BRANCH   2  24
HETATM   24  C2  UNL     1      -2.015   3.860  -0.020  1.00  0.00     0.188 C 
HETATM   25 BR1  UNL     1      -3.414   4.717   0.996  1.00  0.00    -0.087 Br
ENDBRANCH   2  24
TORSDOF 6
