REMARK  6 active torsions:
REMARK  status: ('A' for Active; 'I' for Inactive)
REMARK       I    between atoms: C1_4  and  N2_5 
REMARK       I    between atoms: C1_4  and  N3_8 
REMARK    1  A    between atoms: N2_5  and  C2_6 
REMARK    2  A    between atoms: N3_8  and  C3_10 
REMARK    3  A    between atoms: C3_10  and  C4_11 
REMARK    4  A    between atoms: C4_11  and  N4_12 
REMARK       I    between atoms: N4_12  and  C5_14 
REMARK    5  A    between atoms: C5_14  and  C6_16 
REMARK    6  A    between atoms: C9_19  and  N5_20 
ROOT
HETATM    1  N4  UNL     1      -0.317   0.683  -0.562  1.00  0.00    -0.334 N 
ATOM      2  H4  UNL     1      -0.892   0.962  -1.357  1.00  0.00     0.168 HD
HETATM    3  C5  UNL     1      -0.984   0.154   0.580  1.00  0.00     0.271 C 
HETATM    4  O2  UNL     1      -0.338  -0.234   1.575  1.00  0.00    -0.266 OA
ENDROOT
BRANCH   1   5
HETATM    5  C4  UNL     1       1.057   0.847  -0.675  1.00  0.00     0.084 C 
BRANCH   5   6
HETATM    6  C3  UNL     1       1.867  -0.429  -0.539  1.00  0.00     0.168 C 
BRANCH   6   7
HETATM    7  N3  UNL     1       3.230  -0.081  -0.727  1.00  0.00    -0.346 N 
HETATM    8  C1  UNL     1       4.345  -0.938  -0.605  1.00  0.00     0.251 C 
HETATM    9  N1  UNL     1       4.167  -2.206  -0.807  1.00  0.00    -0.360 N 
HETATM   10  N2  UNL     1       5.565  -0.452  -0.347  1.00  0.00    -0.344 NA
ATOM     11  H12 UNL     1       4.973  -2.825  -0.719  1.00  0.00     0.160 HD
ATOM     12  H11 UNL     1       3.237  -2.576  -1.004  1.00  0.00     0.160 HD
ATOM     13  H3  UNL     1       3.424   0.889  -0.976  1.00  0.00     0.164 HD
BRANCH  10  14
HETATM   14  C2  UNL     1       6.835   0.056  -0.078  1.00  0.00     0.445 C 
HETATM   15  O1  UNL     1       7.130   1.289   0.174  1.00  0.00    -0.268 OA
ENDBRANCH  10  14
ENDBRANCH   6   7
ENDBRANCH   5   6
ENDBRANCH   1   5
BRANCH   3  16
HETATM   16  C6  UNL     1      -2.442   0.096   0.531  1.00  0.00     0.101 A 
HETATM   17  C7  UNL     1      -3.236  -0.497   1.463  1.00  0.00     0.038 A 
HETATM   18  C8  UNL     1      -4.620  -0.469   1.414  1.00  0.00     0.040 A 
HETATM   19  C9  UNL     1      -5.218   0.193   0.367  1.00  0.00     0.118 A 
HETATM   20  C10 UNL     1      -4.405   0.795  -0.601  1.00  0.00     0.124 A 
HETATM   21  N6  UNL     1      -3.091   0.720  -0.475  1.00  0.00    -0.359 N 
ATOM     22  H6  UNL     1      -2.523   1.169  -1.194  1.00  0.00     0.165 HD
BRANCH  19  23
HETATM   23  N5  UNL     1      -6.634   0.258   0.228  1.00  0.00    -0.114 N 
HETATM   24  O3  UNL     1      -7.130   0.891  -0.726  1.00  0.00    -0.532 OA
HETATM   25  O4  UNL     1      -7.439  -0.322   1.145  1.00  0.00    -0.532 OA
ENDBRANCH  19  23
ENDBRANCH   3  16
TORSDOF 6
