REMARK  5 active torsions:
REMARK  status: ('A' for Active; 'I' for Inactive)
REMARK       I    between atoms: C2_2  and  N1_4 
REMARK    1  A    between atoms: N1_4  and  C3_6 
REMARK    2  A    between atoms: C17_20  and  C18_21 
REMARK    3  A    between atoms: C18_21  and  C20_23 
REMARK       I    between atoms: C20_23  and  N2_25 
REMARK    4  A    between atoms: N2_25  and  C21_27 
REMARK    5  A    between atoms: C21_27  and  C23_29 
ROOT
HETATM    1  C3  UNL     1       6.156  -0.625   0.232  1.00  0.00     0.088 C 
HETATM    2  C4  UNL     1       5.471   0.566  -0.359  1.00  0.00     0.026 C 
HETATM    3  C5  UNL     1       4.039   0.736  -0.006  1.00  0.00     0.016 C 
HETATM    4  C6  UNL     1       3.386  -0.452   0.629  1.00  0.00    -0.017 C 
HETATM    5  C7  UNL     1       3.810  -0.492   2.094  1.00  0.00     0.020 C 
HETATM    6  C8  UNL     1       3.898  -1.670  -0.019  1.00  0.00    -0.073 C 
HETATM    7  C9  UNL     1       3.123  -2.599  -0.561  1.00  0.00    -0.023 C 
HETATM    8  C10 UNL     1       1.631  -2.489  -0.561  1.00  0.00     0.033 C 
HETATM    9  C11 UNL     1       1.301  -1.013  -0.599  1.00  0.00    -0.001 C 
HETATM   10  C12 UNL     1       1.877  -0.358   0.615  1.00  0.00     0.003 C 
HETATM   11  C13 UNL     1       1.411   1.081   0.522  1.00  0.00     0.007 C 
HETATM   12  C14 UNL     1      -0.079   1.061   0.864  1.00  0.00     0.010 C 
HETATM   13  C15 UNL     1      -0.897   0.122   0.078  1.00  0.00    -0.032 C 
HETATM   14  C16 UNL     1      -1.398  -1.011   1.004  1.00  0.00     0.016 C 
HETATM   15  C17 UNL     1      -1.951   0.643  -0.798  1.00  0.00     0.028 C 
HETATM   16  C26 UNL     1      -1.128   1.241  -1.947  1.00  0.00     0.010 C 
HETATM   17  C27 UNL     1      -0.209   0.088  -2.262  1.00  0.00     0.006 C 
HETATM   18  C28 UNL     1      -0.071  -0.668  -0.959  1.00  0.00    -0.001 C 
HETATM   19  C29 UNL     1       5.368  -1.859  -0.056  1.00  0.00     0.059 C 
ENDROOT
BRANCH  15  20
HETATM   20  C18 UNL     1      -3.039   1.519  -0.454  1.00  0.00    -0.011 C 
HETATM   21  C19 UNL     1      -2.730   2.896   0.096  1.00  0.00     0.050 C 
BRANCH  20  22
HETATM   22  C20 UNL     1      -4.206   1.037   0.286  1.00  0.00     0.244 C 
HETATM   23  O2  UNL     1      -4.090   0.400   1.343  1.00  0.00    -0.268 OA
HETATM   24  N2  UNL     1      -5.576   1.259  -0.139  1.00  0.00    -0.353 N 
ATOM     25  H2  UNL     1      -5.747   1.777  -1.001  1.00  0.00     0.163 HD
BRANCH  24  26
HETATM   26  C21 UNL     1      -6.694   0.776   0.609  1.00  0.00     0.084 C 
HETATM   27  C22 UNL     1      -7.472   1.969   1.179  1.00  0.00     0.032 C 
BRANCH  26  28
HETATM   28  C23 UNL     1      -7.664  -0.037  -0.189  1.00  0.00    -0.000 C 
HETATM   29  C24 UNL     1      -7.069  -1.276  -0.815  1.00  0.00     0.011 C 
HETATM   30  C25 UNL     1      -8.824  -0.522   0.693  1.00  0.00     0.011 C 
ENDBRANCH  26  28
ENDBRANCH  24  26
ENDBRANCH  20  22
ENDBRANCH  15  20
BRANCH   1  31
HETATM   31  N1  UNL     1       7.481  -0.673  -0.408  1.00  0.00    -0.356 N 
HETATM   32  C2  UNL     1       8.688  -0.545   0.291  1.00  0.00     0.213 C 
HETATM   33  C1  UNL     1       9.992  -0.603  -0.421  1.00  0.00     0.117 C 
HETATM   34  O1  UNL     1       8.704  -0.376   1.547  1.00  0.00    -0.274 OA
ATOM     35  H1  UNL     1       7.522  -0.807  -1.418  1.00  0.00     0.162 HD
ENDBRANCH   1  31
TORSDOF 5
