REMARK  7 active torsions:
REMARK  status: ('A' for Active; 'I' for Inactive)
REMARK    1  A    between atoms: C2_2  and  C3_3 
REMARK    2  A    between atoms: C3_3  and  C4_4 
REMARK    3  A    between atoms: C4_4  and  C5_5 
REMARK    4  A    between atoms: C5_5  and  N1_6 
REMARK    5  A    between atoms: N1_6  and  C6_8 
REMARK    6  A    between atoms: C6_8  and  N2_10 
REMARK    7  A    between atoms: N2_10  and  C8_12 
ROOT
HETATM    1  C8  UNL     1       0.701  -1.702   0.207  1.00  0.00     0.086 C 
HETATM    2  N3  UNL     1       1.183  -1.630  -1.139  1.00  0.00    -0.369 N 
ATOM      3  H3  UNL     1       1.975  -2.125  -1.549  1.00  0.00     0.161 HD
HETATM    4  C9  UNL     1       0.263  -0.668  -1.801  1.00  0.00     0.041 A 
HETATM    5  C10 UNL     1      -0.771  -1.223  -2.634  1.00  0.00     0.033 C 
HETATM    6  C11 UNL     1      -2.042  -1.281  -1.900  1.00  0.00     0.013 C 
HETATM    7  C12 UNL     1      -2.549  -0.044  -1.174  1.00  0.00    -0.031 C 
HETATM    8  C13 UNL     1      -3.563   0.442  -2.219  1.00  0.00     0.016 C 
HETATM    9  C14 UNL     1      -3.224  -0.622   0.028  1.00  0.00     0.010 C 
HETATM   10  C15 UNL     1      -2.294  -1.290   0.975  1.00  0.00     0.007 C 
HETATM   11  C16 UNL     1      -1.065  -0.642   1.432  1.00  0.00     0.013 C 
HETATM   12  C17 UNL     1       0.050  -0.364   0.508  1.00  0.00     0.065 C 
HETATM   13  C18 UNL     1      -0.221   0.239  -0.798  1.00  0.00     0.006 A 
HETATM   14  C19 UNL     1       0.799   0.683  -1.749  1.00  0.00     0.045 A 
HETATM   15  C20 UNL     1      -1.514   0.969  -0.993  1.00  0.00    -0.025 C 
HETATM   16  C21 UNL     1      -1.479   1.892  -2.238  1.00  0.00     0.017 C 
HETATM   17  C22 UNL     1      -1.585   1.981   0.090  1.00  0.00     0.018 C 
HETATM   18  C23 UNL     1      -2.912   2.325   0.634  1.00  0.00     0.080 C 
HETATM   19  C24 UNL     1      -3.654   1.318   1.368  1.00  0.00     0.135 C 
HETATM   20  O1  UNL     1      -3.819   1.387   2.576  1.00  0.00    -0.297 OA
HETATM   21  C25 UNL     1      -4.274   0.132   0.741  1.00  0.00     0.017 C 
HETATM   22  C26 UNL     1      -5.477   0.615   0.003  1.00  0.00     0.023 C 
HETATM   23  C27 UNL     1      -4.866  -0.803   1.819  1.00  0.00     0.023 C 
ENDROOT
BRANCH   1  24
HETATM   24  N2  UNL     1       1.468  -2.351   1.166  1.00  0.00    -0.318 N 
HETATM   25  C7  UNL     1       0.848  -3.582   1.810  1.00  0.00     0.160 C 
BRANCH  24  26
HETATM   26  C6  UNL     1       2.712  -2.071   1.684  1.00  0.00     0.178 C 
HETATM   27  S1  UNL     1       3.165  -3.186   2.922  1.00  0.00    -0.040 SA
BRANCH  26  28
HETATM   28  N1  UNL     1       3.697  -1.117   1.465  1.00  0.00    -0.346 N 
ATOM     29  H1  UNL     1       4.510  -1.237   2.069  1.00  0.00     0.167 HD
BRANCH  28  30
HETATM   30  C5  UNL     1       3.817  -0.020   0.590  1.00  0.00     0.063 C 
BRANCH  30  31
HETATM   31  C4  UNL     1       5.175   0.657   0.780  1.00  0.00     0.044 C 
BRANCH  31  32
HETATM   32  C3  UNL     1       5.233   1.821  -0.187  1.00  0.00     0.005 C 
BRANCH  32  33
HETATM   33  C2  UNL     1       6.592   2.483   0.016  1.00  0.00    -0.004 C 
HETATM   34  C1  UNL     1       7.633   1.434  -0.288  1.00  0.00     0.005 C 
ENDBRANCH  32  33
ENDBRANCH  31  32
ENDBRANCH  30  31
ENDBRANCH  28  30
ENDBRANCH  26  28
ENDBRANCH  24  26
ENDBRANCH   1  24
TORSDOF 7
