REMARK  2 active torsions:
REMARK  status: ('A' for Active; 'I' for Inactive)
REMARK    1  A    between atoms: N1_2  and  N2_3 
REMARK    2  A    between atoms: C2_4  and  O1_5 
ROOT
HETATM    1  N2  UNL     1       2.901  -0.115   0.415  1.00  0.00    -0.241 N 
HETATM    2  C2  UNL     1       3.094  -1.516   0.276  1.00  0.00     0.249 C 
HETATM    3  N3  UNL     1       2.059  -2.108  -0.189  1.00  0.00    -0.330 N 
ATOM      4  H3  UNL     1       1.988  -3.110  -0.363  1.00  0.00     0.165 HD
HETATM    5  C3  UNL     1       1.031  -1.172  -0.425  1.00  0.00     0.220 C 
HETATM    6  N4  UNL     1      -0.257  -1.549   0.163  1.00  0.00    -0.352 N 
ATOM      7  H4  UNL     1      -0.346  -2.459   0.614  1.00  0.00     0.163 HD
HETATM    8  C4  UNL     1      -1.400  -0.675   0.124  1.00  0.00     0.119 A 
HETATM    9  N5  UNL     1      -2.400  -1.158   0.889  1.00  0.00    -0.294 N 
ATOM     10  H5  UNL     1      -2.271  -2.036   1.392  1.00  0.00     0.172 HD
HETATM   11  C5  UNL     1      -3.559  -0.500   0.996  1.00  0.00     0.330 A 
HETATM   12  O2  UNL     1      -4.480  -0.986   1.727  1.00  0.00    -0.246 OA
HETATM   13  N6  UNL     1      -3.797   0.669   0.356  1.00  0.00    -0.270 N 
HETATM   14  C6  UNL     1      -5.084   1.303   0.537  1.00  0.00     0.164 C 
HETATM   15  C7  UNL     1      -2.817   1.168  -0.410  1.00  0.00     0.262 A 
HETATM   16  O3  UNL     1      -3.019   2.263  -1.019  1.00  0.00    -0.267 OA
HETATM   17  C8  UNL     1      -1.610   0.514  -0.542  1.00  0.00     0.063 A 
HETATM   18  C9  UNL     1      -0.645   1.205  -1.425  1.00  0.00     0.124 C 
HETATM   19  S2  UNL     1       0.956   1.492  -0.610  1.00  0.00    -0.133 SA
HETATM   20  C10 UNL     1       1.478   0.065   0.327  1.00  0.00     0.211 C 
ENDROOT
BRANCH   1  21
HETATM   21  N1  UNL     1       3.933   0.804   0.593  1.00  0.00    -0.139 NA
HETATM   22  C1  UNL     1       4.042   1.718  -0.518  1.00  0.00     0.159 C 
ENDBRANCH   1  21
BRANCH   2  23
HETATM   23  O1  UNL     1       4.267  -2.226   0.598  1.00  0.00    -0.231 OA
HETATM   24  S1  UNL     1       4.440  -3.912   0.248  1.00  0.00     0.103 SA
ENDBRANCH   2  23
TORSDOF 2
