REMARK  7 active torsions:
REMARK  status: ('A' for Active; 'I' for Inactive)
REMARK    1  A    between atoms: C2_2  and  C4_4 
REMARK    2  A    between atoms: C4_4  and  N1_5 
REMARK    3  A    between atoms: C7_8  and  C8_9 
REMARK    4  A    between atoms: C8_9  and  N2_10 
REMARK    5  A    between atoms: N2_10  and  O1_11 
REMARK    6  A    between atoms: N2_10  and  C9_13 
REMARK    7  A    between atoms: C17_24  and  C18_25 
ROOT
HETATM    1  C9  UNL     1      -1.567  -0.050  -0.081  1.00  0.00     0.119 C 
HETATM    2  C10 UNL     1      -2.408   0.887   0.770  1.00  0.00     0.033 C 
HETATM    3  C11 UNL     1      -3.857   0.605   0.812  1.00  0.00     0.037 C 
HETATM    4  C12 UNL     1      -4.702   1.422  -0.137  1.00  0.00     0.243 C 
HETATM    5  N3  UNL     1      -5.925   0.668  -0.267  1.00  0.00    -0.072 N 
HETATM    6  C13 UNL     1      -6.514   0.798  -1.587  1.00  0.00     0.272 C 
HETATM    7  C14 UNL     1      -6.833   1.097   0.791  1.00  0.00     0.272 C 
HETATM    8  C15 UNL     1      -5.654  -0.709  -0.050  1.00  0.00     0.261 C 
HETATM    9  C16 UNL     1      -4.295  -0.799   0.622  1.00  0.00     0.109 C 
HETATM   10  N4  UNL     1      -3.498  -1.619  -0.187  1.00  0.00    -0.401 N 
ATOM     11  H4  UNL     1      -3.710  -2.610  -0.303  1.00  0.00     0.154 HD
HETATM   12  C17 UNL     1      -2.366  -1.015  -0.851  1.00  0.00     0.199 C 
ENDROOT
BRANCH   1  13
HETATM   13  N2  UNL     1      -0.562  -0.603   0.724  1.00  0.00    -0.192 NA
BRANCH  13  14
HETATM   14  C8  UNL     1       0.455   0.200   1.214  1.00  0.00     0.125 C 
BRANCH  14  15
HETATM   15  C7  UNL     1       1.537   0.512   0.170  1.00  0.00     0.004 C 
HETATM   16  C6  UNL     1       2.088  -0.792  -0.361  1.00  0.00     0.036 C 
HETATM   17  C5  UNL     1       3.368  -0.718  -1.041  1.00  0.00     0.273 C 
HETATM   18  N1  UNL     1       4.361   0.225  -0.665  1.00  0.00     0.088 N 
HETATM   19  C20 UNL     1       3.895   1.263   0.207  1.00  0.00     0.273 C 
HETATM   20  C19 UNL     1       2.729   1.012   1.041  1.00  0.00     0.036 C 
BRANCH  18  21
HETATM   21  C4  UNL     1       5.509  -0.467  -0.064  1.00  0.00     0.276 C 
BRANCH  21  22
HETATM   22  C2  UNL     1       6.749   0.335  -0.025  1.00  0.00     0.006 C 
HETATM   23  C1  UNL     1       7.350   0.691  -1.352  1.00  0.00     0.011 C 
HETATM   24  C3  UNL     1       7.744  -0.245   0.955  1.00  0.00     0.011 C 
ENDBRANCH  21  22
ENDBRANCH  18  21
ENDBRANCH  14  15
ENDBRANCH  13  14
BRANCH  13  25
HETATM   25  O1  UNL     1      -1.091  -1.338   1.729  1.00  0.00    -0.313 OA
ATOM     26  H1  UNL     1      -1.788  -1.889   1.393  1.00  0.00     0.237 HD
ENDBRANCH  13  25
ENDBRANCH   1  13
BRANCH  12  27
HETATM   27  C18 UNL     1      -1.616  -2.077  -1.493  1.00  0.00     0.198 C 
HETATM   28  O2  UNL     1      -1.750  -2.244  -2.792  1.00  0.00    -0.646 OA
HETATM   29  O3  UNL     1      -0.758  -2.951  -0.865  1.00  0.00    -0.646 OA
ENDBRANCH  12  27
TORSDOF 7
