REMARK  7 active torsions:
REMARK  status: ('A' for Active; 'I' for Inactive)
REMARK    1  A    between atoms: O1_2  and  C2_3 
REMARK    2  A    between atoms: C2_3  and  C3_4 
REMARK    3  A    between atoms: C2_3  and  C13_18 
REMARK       I    between atoms: C3_4  and  N1_6 
REMARK    4  A    between atoms: N1_6  and  C4_8 
REMARK    5  A    between atoms: C13_18  and  O3_19 
REMARK    6  A    between atoms: C13_18  and  C14_21 
REMARK    7  A    between atoms: C14_21  and  N3_22 
ROOT
HETATM    1  C2  UNL     1       0.995   1.430  -1.756  1.00  0.00     0.242 C 
ENDROOT
BRANCH   1   2
HETATM    2  O1  UNL     1       1.375   0.213  -2.233  1.00  0.00    -0.379 OA
HETATM    3  C1  UNL     1       1.495   0.053  -3.570  1.00  0.00     0.202 C 
ENDBRANCH   1   2
BRANCH   1   4
HETATM    4  C3  UNL     1      -0.306   1.474  -1.090  1.00  0.00     0.249 C 
HETATM    5  O2  UNL     1      -0.711   2.570  -0.625  1.00  0.00    -0.271 OA
HETATM    6  N1  UNL     1      -1.182   0.369  -0.912  1.00  0.00    -0.354 N 
ATOM      7  H1  UNL     1      -0.880  -0.533  -1.281  1.00  0.00     0.162 HD
BRANCH   6   8
HETATM    8  C4  UNL     1      -2.443   0.418  -0.263  1.00  0.00     0.088 C 
HETATM    9  C5  UNL     1      -2.549  -0.485   0.947  1.00  0.00     0.061 C 
HETATM   10  C6  UNL     1      -3.861  -0.235   1.650  1.00  0.00     0.225 C 
HETATM   11  C7  UNL     1      -4.776  -1.412   1.461  1.00  0.00     0.042 C 
HETATM   12  N2  UNL     1      -4.564   0.832   0.980  1.00  0.00     0.094 N 
HETATM   13  C8  UNL     1      -5.368  -1.169   0.100  1.00  0.00     0.017 C 
HETATM   14  C9  UNL     1      -6.873  -1.195   0.165  1.00  0.00     0.012 C 
HETATM   15  C10 UNL     1      -4.876   0.225  -0.300  1.00  0.00     0.228 C 
HETATM   16  C11 UNL     1      -3.623   0.115  -1.147  1.00  0.00     0.061 C 
HETATM   17  C12 UNL     1      -5.719   1.270   1.695  1.00  0.00     0.310 C 
ENDBRANCH   6   8
ENDBRANCH   1   4
BRANCH   1  18
HETATM   18  C13 UNL     1       2.092   2.141  -0.988  1.00  0.00     0.184 C 
BRANCH  18  19
HETATM   19  O3  UNL     1       1.639   3.389  -0.532  1.00  0.00    -0.391 OA
ATOM     20  H3  UNL     1       2.326   3.834  -0.051  1.00  0.00     0.210 HD
ENDBRANCH  18  19
BRANCH  18  21
HETATM   21  C14 UNL     1       2.584   1.400   0.202  1.00  0.00     0.307 C 
BRANCH  21  22
HETATM   22  N3  UNL     1       3.099   0.100   0.001  1.00  0.00     0.095 N 
HETATM   23  C15 UNL     1       4.330   0.013  -0.723  1.00  0.00     0.304 C 
HETATM   24  C16 UNL     1       4.746  -1.451  -0.694  1.00  0.00     0.210 C 
HETATM   25  C17 UNL     1       5.754  -1.761  -1.753  1.00  0.00     0.042 C 
HETATM   26  N4  UNL     1       5.177  -1.833   0.631  1.00  0.00    -0.064 N 
HETATM   27  C18 UNL     1       4.449  -1.128   1.668  1.00  0.00     0.210 C 
ATOM     28  H42 UNL     1       5.119  -2.843   0.761  1.00  0.00     0.278 HD
ATOM     29  H41 UNL     1       6.184  -1.713   0.740  1.00  0.00     0.278 HD
HETATM   30  C19 UNL     1       5.305  -0.071   2.332  1.00  0.00     0.042 C 
HETATM   31  C20 UNL     1       3.125  -0.620   1.222  1.00  0.00     0.304 C 
ENDBRANCH  21  22
ENDBRANCH  18  21
ENDBRANCH   1  18
TORSDOF 7
