REMARK  9 active torsions:
REMARK  status: ('A' for Active; 'I' for Inactive)
REMARK    1  A    between atoms: C1_2  and  C2_3 
REMARK       I    between atoms: C1_2  and  N3_21 
REMARK    2  A    between atoms: C2_3  and  O2_4 
REMARK    3  A    between atoms: O2_4  and  C3_5 
REMARK    4  A    between atoms: C3_5  and  C4_6 
REMARK       I    between atoms: C4_6  and  N1_8 
REMARK    5  A    between atoms: N1_8  and  N2_10 
REMARK       I    between atoms: N2_10  and  C5_12 
REMARK    6  A    between atoms: C5_12  and  C6_14 
REMARK    7  A    between atoms: C6_14  and  C7_15 
REMARK    8  A    between atoms: N3_21  and  C13_23 
REMARK    9  A    between atoms: C13_23  and  C14_24 
ROOT
HETATM    1  C4  UNL     1      -0.170   0.090  -1.776  1.00  0.00     0.259 C 
HETATM    2  O3  UNL     1      -0.240  -0.866  -0.997  1.00  0.00    -0.269 OA
HETATM    3  N1  UNL     1      -1.348   0.596  -2.388  1.00  0.00    -0.266 N 
ATOM      4  H1  UNL     1      -1.304   1.385  -3.032  1.00  0.00     0.190 HD
ENDROOT
BRANCH   1   5
HETATM    5  C3  UNL     1       1.115   0.740  -2.103  1.00  0.00     0.272 C 
BRANCH   5   6
HETATM    6  O2  UNL     1       2.180   0.258  -1.407  1.00  0.00    -0.373 OA
BRANCH   6   7
HETATM    7  C2  UNL     1       2.183   0.437  -0.058  1.00  0.00     0.271 C 
BRANCH   7   8
HETATM    8  C1  UNL     1       3.441  -0.188   0.519  1.00  0.00     0.245 C 
HETATM    9  O1  UNL     1       3.546  -0.045   1.749  1.00  0.00    -0.271 OA
HETATM   10  N3  UNL     1       4.323  -0.835  -0.329  1.00  0.00    -0.333 N 
ATOM     11  H3  UNL     1       4.040  -0.850  -1.309  1.00  0.00     0.168 HD
BRANCH  10  12
HETATM   12  C13 UNL     1       5.548  -1.476  -0.059  1.00  0.00     0.123 C 
BRANCH  12  13
HETATM   13  C14 UNL     1       6.722  -0.757   0.421  1.00  0.00     0.061 C 
HETATM   14  C15 UNL     1       6.889  -0.276   1.794  1.00  0.00     0.068 C 
HETATM   15  C16 UNL     1       8.184   0.567   1.674  1.00  0.00     0.033 C 
HETATM   16  C17 UNL     1       8.172   0.924   0.229  1.00  0.00     0.175 C 
HETATM   17  O5  UNL     1       7.145   0.278  -0.429  1.00  0.00    -0.354 OA
ENDBRANCH  12  13
ENDBRANCH  10  12
ENDBRANCH   7   8
ENDBRANCH   6   7
ENDBRANCH   5   6
ENDBRANCH   1   5
BRANCH   3  18
HETATM   18  N2  UNL     1      -2.565  -0.013  -2.086  1.00  0.00    -0.267 N 
HETATM   19  C5  UNL     1      -3.095   0.007  -0.772  1.00  0.00     0.236 C 
HETATM   20  O4  UNL     1      -2.432   0.597   0.111  1.00  0.00    -0.272 OA
ATOM     21  H2  UNL     1      -3.085  -0.483  -2.827  1.00  0.00     0.190 HD
BRANCH  19  22
HETATM   22  C6  UNL     1      -4.376  -0.658  -0.521  1.00  0.00     0.109 C 
BRANCH  22  23
HETATM   23  C7  UNL     1      -4.897  -0.562   0.873  1.00  0.00    -0.006 C 
HETATM   24  C8  UNL     1      -5.170   0.825   1.341  1.00  0.00     0.005 C 
HETATM   25  C9  UNL     1      -6.295   1.486   0.565  1.00  0.00     0.000 C 
HETATM   26  C10 UNL     1      -7.479   0.592   0.391  1.00  0.00     0.000 C 
HETATM   27  C11 UNL     1      -7.396  -0.705   1.141  1.00  0.00     0.000 C 
HETATM   28  C12 UNL     1      -6.117  -1.454   0.976  1.00  0.00     0.005 C 
ENDBRANCH  22  23
ENDBRANCH  19  22
ENDBRANCH   3  18
TORSDOF 9
