REMARK  4 active torsions:
REMARK  status: ('A' for Active; 'I' for Inactive)
REMARK    1  A    between atoms: N1_2  and  C2_4 
REMARK    2  A    between atoms: C5_10  and  N3_11 
REMARK    3  A    between atoms: N3_11  and  C6_13 
REMARK    4  A    between atoms: C6_13  and  C7_14 
ROOT
HETATM    1  N3  UNL     1       1.323   0.079   1.026  1.00  0.00    -0.375 N 
ATOM      2  H3  UNL     1       0.819   0.056   1.913  1.00  0.00     0.161 HD
ENDROOT
BRANCH   1   3
HETATM    3  C5  UNL     1       2.589  -0.130   1.036  1.00  0.00     0.119 A 
HETATM    4  C4  UNL     1       3.247  -0.379   2.222  1.00  0.00     0.086 A 
HETATM    5  C3  UNL     1       4.615  -0.605   2.239  1.00  0.00     0.099 A 
HETATM    6  N2  UNL     1       5.261  -0.570   1.057  1.00  0.00    -0.185 N 
HETATM    7 BR1  UNL     1       5.495  -0.944   3.877  1.00  0.00    -0.031 Br
HETATM    8  C2  UNL     1       4.636  -0.330  -0.105  1.00  0.00     0.680 A 
ATOM      9  H2  UNL     1       6.268  -0.733   1.046  1.00  0.00     0.185 HD
HETATM   10  N4  UNL     1       3.300  -0.113  -0.084  1.00  0.00    -0.177 N 
ATOM     11  H4  UNL     1       2.820   0.071  -0.965  1.00  0.00     0.185 HD
BRANCH   8  12
HETATM   12  N1  UNL     1       5.240  -0.295  -1.224  1.00  0.00    -0.230 N 
HETATM   13  C1  UNL     1       6.640  -0.501  -1.420  1.00  0.00     0.165 C 
ATOM     14  H1  UNL     1       4.676  -0.103  -2.052  1.00  0.00     0.177 HD
ENDBRANCH   8  12
ENDBRANCH   1   3
BRANCH   1  15
HETATM   15  C6  UNL     1       0.575   0.346  -0.188  1.00  0.00     0.128 C 
BRANCH  15  16
HETATM   16  C7  UNL     1      -0.749   0.914   0.222  1.00  0.00     0.035 C 
HETATM   17  C8  UNL     1      -1.561  -0.021   1.098  1.00  0.00     0.033 C 
HETATM   18  C9  UNL     1      -2.970  -0.038   0.478  1.00  0.00     0.058 C 
HETATM   19 BR2  UNL     1      -4.358  -0.488   1.602  1.00  0.00    -0.081 Br
HETATM   20  C10 UNL     1      -2.781  -0.907  -0.772  1.00  0.00     0.072 C 
HETATM   21  C14 UNL     1      -2.974   1.339  -0.142  1.00  0.00    -0.001 C 
HETATM   22  C11 UNL     1      -4.082  -1.241  -1.441  1.00  0.00     0.047 C 
HETATM   23  C12 UNL     1      -2.185  -2.260  -0.350  1.00  0.00     0.047 C 
HETATM   24  O1  UNL     1      -1.911  -0.168  -1.538  1.00  0.00    -0.373 OA
HETATM   25  C13 UNL     1      -1.702   1.066  -0.974  1.00  0.00     0.137 C 
HETATM   26  C15 UNL     1      -2.680   2.441   0.829  1.00  0.00     0.019 C 
HETATM   27  C16 UNL     1      -4.137   1.700  -0.960  1.00  0.00     0.019 C 
ENDBRANCH  15  16
ENDBRANCH   1  15
TORSDOF 4
