REMARK  2 active torsions:
REMARK  status: ('A' for Active; 'I' for Inactive)
REMARK    1  A    between atoms: O1_1  and  N1_3 
REMARK    2  A    between atoms: C5_13  and  O2_14 
ROOT
HETATM    1  N1  UNL     1       2.067   0.055   0.717  1.00  0.00    -0.273 N 
ATOM      2  H1  UNL     1       2.486   0.949   0.971  1.00  0.00     0.193 HD
HETATM    3  C1  UNL     1       0.927   0.007   0.145  1.00  0.00     0.061 C 
HETATM    4  C2  UNL     1       0.173  -1.184  -0.292  1.00  0.00     0.154 C 
HETATM    5 CL1  UNL     1       0.350  -1.282  -2.069  1.00  0.00    -0.117 Cl
HETATM    6  C3  UNL     1      -1.262  -0.828   0.047  1.00  0.00     0.148 C 
HETATM    7 CL2  UNL     1      -2.299  -1.375  -1.286  1.00  0.00    -0.120 Cl
HETATM    8  C4  UNL     1      -1.286   0.675   0.210  1.00  0.00     0.162 C 
HETATM    9 CL3  UNL     1      -2.594   1.423  -0.713  1.00  0.00    -0.097 Cl
HETATM   10 CL4  UNL     1      -1.447   1.056   1.957  1.00  0.00    -0.097 Cl
HETATM   11  C5  UNL     1       0.076   1.160  -0.223  1.00  0.00     0.207 C 
ENDROOT
BRANCH   1  12
HETATM   12  O1  UNL     1       2.715  -1.125   0.982  1.00  0.00    -0.290 OA
ATOM     13  H1  UNL     1       3.564  -1.089   1.408  1.00  0.00     0.244 HD
ENDBRANCH   1  12
BRANCH  11  14
HETATM   14  O2  UNL     1       0.384   2.302   0.506  1.00  0.00    -0.386 OA
ATOM     15  H2  UNL     1      -0.162   3.042   0.270  1.00  0.00     0.210 HD
ENDBRANCH  11  14
TORSDOF 2
