REMARK  4 active torsions:
REMARK  status: ('A' for Active; 'I' for Inactive)
REMARK    1  A    between atoms: C1_4  and  N2_5 
REMARK    2  A    between atoms: C1_4  and  C2_10 
REMARK    3  A    between atoms: N2_5  and  N3_7 
REMARK    4  A    between atoms: C5_13  and  N4_14 
ROOT
HETATM    1  N1  UNL     1       1.076   1.590   0.221  1.00  0.00    -0.388 N 
ATOM      2  H11 UNL     1       0.242   2.142   0.022  1.00  0.00     0.157 HD
ATOM      3  H12 UNL     1       1.956   2.042   0.471  1.00  0.00     0.157 HD
HETATM    4  C1  UNL     1       1.000   0.320   0.151  1.00  0.00     0.095 C 
ENDROOT
BRANCH   4   5
HETATM    5  N2  UNL     1       2.154  -0.444   0.426  1.00  0.00    -0.296 N 
ATOM      6  H2  UNL     1       2.239  -0.971   1.295  1.00  0.00     0.187 HD
BRANCH   5   7
HETATM    7  N3  UNL     1       3.176  -0.458  -0.525  1.00  0.00    -0.344 N 
ATOM      8  H32 UNL     1       3.076   0.075  -1.389  1.00  0.00     0.176 HD
ATOM      9  H31 UNL     1       4.010  -1.010  -0.326  1.00  0.00     0.176 HD
ENDBRANCH   5   7
ENDBRANCH   4   5
BRANCH   4  10
HETATM   10  C2  UNL     1      -0.254  -0.324  -0.206  1.00  0.00     0.084 C 
HETATM   11  C3  UNL     1      -0.846  -1.276   0.811  1.00  0.00     0.016 C 
HETATM   12  C4  UNL     1      -2.218  -0.785   0.328  1.00  0.00     0.034 C 
HETATM   13  C5  UNL     1      -1.510   0.534  -0.006  1.00  0.00     0.194 C 
BRANCH  13  14
HETATM   14  N4  UNL     1      -1.984   1.189  -1.184  1.00  0.00    -0.074 N 
ATOM     15  H43 UNL     1      -1.239   1.746  -1.602  1.00  0.00     0.274 HD
ATOM     16  H42 UNL     1      -2.136   0.509  -1.929  1.00  0.00     0.274 HD
ATOM     17  H41 UNL     1      -2.819   1.759  -1.051  1.00  0.00     0.274 HD
ENDBRANCH  13  14
ENDBRANCH   4  10
TORSDOF 4
