REMARK  7 active torsions:
REMARK  status: ('A' for Active; 'I' for Inactive)
REMARK    1  A    between atoms: C2_2  and  C3_3 
REMARK    2  A    between atoms: C3_3  and  C4_4 
REMARK    3  A    between atoms: C4_4  and  C5_5 
REMARK    4  A    between atoms: C5_5  and  C6_6 
REMARK    5  A    between atoms: C6_6  and  C7_7 
REMARK    6  A    between atoms: N2_17  and  C13_18 
REMARK    7  A    between atoms: C22_30  and  O2_31 
ROOT
HETATM    1  C7  UNL     1      -0.972  -0.085   0.715  1.00  0.00     0.093 A 
HETATM    2  N1  UNL     1      -0.545   1.210   0.790  1.00  0.00    -0.339 N 
ATOM      3  H1  UNL     1      -1.238   1.952   0.893  1.00  0.00     0.168 HD
HETATM    4  C8  UNL     1       0.775   1.546   0.732  1.00  0.00     0.092 A 
HETATM    5  S1  UNL     1       1.652   3.017   0.794  1.00  0.00    -0.073 SA
HETATM    6  C9  UNL     1       3.226   2.403   0.646  1.00  0.00     0.021 A 
HETATM    7  C10 UNL     1       3.036   1.052   0.550  1.00  0.00    -0.024 A 
HETATM    8  C11 UNL     1       1.748   0.607   0.596  1.00  0.00     0.074 A 
HETATM    9  C12 UNL     1       1.302  -0.727   0.520  1.00  0.00     0.268 A 
HETATM   10  O1  UNL     1       2.081  -1.698   0.395  1.00  0.00    -0.267 OA
HETATM   11  N2  UNL     1      -0.026  -1.004   0.584  1.00  0.00    -0.250 N 
HETATM   12  C19 UNL     1       4.355   0.298   0.402  1.00  0.00     0.041 C 
HETATM   13  C20 UNL     1       5.175   0.919  -0.712  1.00  0.00     0.007 C 
HETATM   14  C21 UNL     1       5.316   2.395  -0.578  1.00  0.00     0.037 C 
HETATM   15  C22 UNL     1       4.625   2.973   0.606  1.00  0.00     0.158 C 
ENDROOT
BRANCH  11  16
HETATM   16  C13 UNL     1      -0.370  -2.396   0.529  1.00  0.00     0.140 A 
HETATM   17  C14 UNL     1      -0.523  -3.153  -0.610  1.00  0.00     0.008 A 
HETATM   18  C15 UNL     1      -0.369  -2.746  -2.038  1.00  0.00     0.054 C 
HETATM   19  C16 UNL     1      -0.844  -4.456  -0.248  1.00  0.00     0.032 A 
HETATM   20  C17 UNL     1      -1.097  -5.600  -1.162  1.00  0.00     0.070 C 
HETATM   21  N3  UNL     1      -0.872  -4.444   1.088  1.00  0.00    -0.301 N 
HETATM   22  N4  UNL     1      -0.594  -3.236   1.552  1.00  0.00    -0.280 N 
ATOM     23  H3  UNL     1      -1.079  -5.255   1.671  1.00  0.00     0.187 HD
HETATM   24  C18 UNL     1      -0.515  -2.877   2.974  1.00  0.00     0.179 C 
ENDBRANCH  11  16
BRANCH   1  25
HETATM   25  C6  UNL     1      -2.408  -0.411   0.801  1.00  0.00     0.077 C 
BRANCH  25  26
HETATM   26  C5  UNL     1      -3.158  -0.336  -0.493  1.00  0.00     0.007 C 
BRANCH  26  27
HETATM   27  C4  UNL     1      -3.181   1.000  -1.156  1.00  0.00     0.000 C 
BRANCH  27  28
HETATM   28  C3  UNL     1      -3.834   2.094  -0.362  1.00  0.00    -0.000 C 
BRANCH  28  29
HETATM   29  C2  UNL     1      -3.752   3.363  -1.198  1.00  0.00    -0.005 C 
HETATM   30  C1  UNL     1      -4.405   4.519  -0.437  1.00  0.00     0.005 C 
ENDBRANCH  28  29
ENDBRANCH  27  28
ENDBRANCH  26  27
ENDBRANCH  25  26
ENDBRANCH   1  25
BRANCH  15  31
HETATM   31  O2  UNL     1       5.223   2.686   1.808  1.00  0.00    -0.390 OA
ATOM     32  H2  UNL     1       6.102   3.044   1.783  1.00  0.00     0.210 HD
ENDBRANCH  15  31
TORSDOF 7
