REMARK  3 active torsions:
REMARK  status: ('A' for Active; 'I' for Inactive)
REMARK    1  A    between atoms: C2_2  and  C4_4 
REMARK    2  A    between atoms: C4_4  and  C6_6 
REMARK    3  A    between atoms: C19_22  and  O4_23 
ROOT
HETATM    1  C6  UNL     1       0.751  -0.095  -0.456  1.00  0.00     0.091 C 
HETATM    2  C7  UNL     1       0.185   0.628  -1.694  1.00  0.00     0.042 C 
HETATM    3  C8  UNL     1      -0.446   1.930  -1.342  1.00  0.00     0.015 C 
HETATM    4  C9  UNL     1      -1.764   1.899  -0.689  1.00  0.00    -0.006 C 
HETATM    5  C10 UNL     1      -1.876   2.800   0.519  1.00  0.00     0.018 C 
HETATM    6  C11 UNL     1      -2.940   2.255  -1.589  1.00  0.00     0.122 C 
HETATM    7  C12 UNL     1      -4.046   1.568  -0.828  1.00  0.00     0.260 C 
HETATM    8  O1  UNL     1      -5.292   1.664  -1.020  1.00  0.00    -0.265 OA
HETATM    9  O2  UNL     1      -3.495   0.763   0.178  1.00  0.00    -0.312 OA
HETATM   10  C13 UNL     1      -2.165   0.489  -0.299  1.00  0.00     0.170 C 
HETATM   11  C14 UNL     1      -1.250  -0.012   0.765  1.00  0.00     0.160 C 
HETATM   12  O3  UNL     1       0.051   0.387   0.641  1.00  0.00    -0.368 OA
HETATM   13  C15 UNL     1      -1.446  -1.471   1.028  1.00  0.00    -0.017 C 
HETATM   14  C16 UNL     1      -2.577  -2.101   0.288  1.00  0.00     0.018 C 
HETATM   15  C17 UNL     1      -1.651  -1.778   2.513  1.00  0.00     0.018 C 
HETATM   16  C18 UNL     1      -0.163  -2.168   0.630  1.00  0.00     0.046 C 
HETATM   17  C19 UNL     1       0.415  -1.519  -0.637  1.00  0.00     0.153 C 
ENDROOT
BRANCH   1  18
HETATM   18  C4  UNL     1       2.166   0.311  -0.280  1.00  0.00     0.022 C 
HETATM   19  C5  UNL     1       3.001   0.371  -1.543  1.00  0.00     0.013 C 
BRANCH  18  20
HETATM   20  C2  UNL     1       2.920  -0.222   0.879  1.00  0.00    -0.016 C 
HETATM   21  C1  UNL     1       4.098   0.765   1.085  1.00  0.00     0.010 C 
HETATM   22  C3  UNL     1       3.540  -1.552   0.818  1.00  0.00     0.010 C 
ENDBRANCH  18  20
ENDBRANCH   1  18
BRANCH  17  23
HETATM   23  O4  UNL     1       1.350  -2.373  -1.124  1.00  0.00    -0.392 OA
ATOM     24  H4  UNL     1       1.133  -3.291  -1.241  1.00  0.00     0.210 HD
ENDBRANCH  17  23
TORSDOF 3
