REMARK  4 active torsions:
REMARK  status: ('A' for Active; 'I' for Inactive)
REMARK    1  A    between atoms: C2_2  and  N1_4 
REMARK    2  A    between atoms: C6_9  and  C7_10 
REMARK    3  A    between atoms: C7_10  and  N2_11 
REMARK       I    between atoms: N3_15  and  C11_16 
REMARK    4  A    between atoms: C11_16  and  C12_18 
ROOT
HETATM    1  N1  UNL     1      -1.754   2.126  -0.548  1.00  0.00    -0.367 N 
ATOM      2  H1  UNL     1      -2.605   1.587  -0.391  1.00  0.00     0.162 HD
HETATM    3  C4  UNL     1      -0.686   1.479  -0.724  1.00  0.00     0.145 C 
HETATM    4  S1  UNL     1       0.922   2.206  -1.017  1.00  0.00    -0.092 SA
HETATM    5  C5  UNL     1       1.764   0.585  -1.300  1.00  0.00     0.110 C 
HETATM    6  C6  UNL     1       0.857  -0.273  -0.437  1.00  0.00     0.133 C 
HETATM    7  N3  UNL     1      -0.505   0.084  -0.733  1.00  0.00    -0.290 N 
HETATM    8  C11 UNL     1      -1.517  -0.862  -0.992  1.00  0.00     0.234 C 
HETATM    9  O1  UNL     1      -2.694  -0.387  -1.227  1.00  0.00    -0.272 OA
ENDROOT
BRANCH   6  10
HETATM   10  C7  UNL     1       1.167   0.195   0.997  1.00  0.00     0.298 C 
BRANCH  10  11
HETATM   11  N2  UNL     1       2.560  -0.052   1.208  1.00  0.00     0.090 N 
HETATM   12  C8  UNL     1       2.922  -1.477   1.266  1.00  0.00     0.274 C 
HETATM   13  C9  UNL     1       4.072  -1.027   2.178  1.00  0.00     0.060 C 
HETATM   14  C10 UNL     1       3.023   0.018   2.590  1.00  0.00     0.274 C 
ENDBRANCH  10  11
ENDBRANCH   6  10
BRANCH   8  15
HETATM   15  C12 UNL     1      -1.358  -2.339  -1.023  1.00  0.00     0.030 C 
HETATM   16  C13 UNL     1      -0.378  -2.844  -2.022  1.00  0.00     0.025 C 
HETATM   17  C14 UNL     1      -2.700  -3.010  -1.306  1.00  0.00     0.025 C 
HETATM   18  C15 UNL     1      -0.949  -2.808   0.347  1.00  0.00     0.025 C 
ENDBRANCH   8  15
BRANCH   1  19
HETATM   19  C2  UNL     1      -1.874   3.560  -0.550  1.00  0.00     0.075 C 
HETATM   20  C1  UNL     1      -0.883   4.249   0.338  1.00  0.00     0.032 C 
HETATM   21  C3  UNL     1      -3.270   3.982  -0.153  1.00  0.00     0.032 C 
ENDBRANCH   1  19
TORSDOF 4
