REMARK  18 active torsions:
REMARK  status: ('A' for Active; 'I' for Inactive)
REMARK    1  A    between atoms: N1_1  and  C1_4 
REMARK    2  A    between atoms: N5_15  and  C5_16 
REMARK    3  A    between atoms: C6_18  and  C7_19 
REMARK    4  A    between atoms: C7_19  and  C8_20 
REMARK    5  A    between atoms: C7_19  and  S1_39 
REMARK    6  A    between atoms: N6_22  and  C10_23 
REMARK    7  A    between atoms: C10_23  and  C11_24 
REMARK    8  A    between atoms: C11_24  and  C12_25 
REMARK    9  A    between atoms: C12_25  and  N7_26 
REMARK   10  A    between atoms: C12_25  and  C13_30 
REMARK   11  A    between atoms: C13_30  and  N8_31 
REMARK   12  A    between atoms: S1_39  and  C14_42 
REMARK   13  A    between atoms: C14_42  and  C15_43 
REMARK   14  A    between atoms: C15_43  and  O4_44 
REMARK   15  A    between atoms: C16_46  and  N11_47 
REMARK   16  A    between atoms: C19_54  and  C20_55 
REMARK   17  A    between atoms: C20_55  and  N13_56 
REMARK   18  A    between atoms: C21_60  and  O6_61 
ROOT
HETATM    1  C5  UNL     1      -1.442  -0.533  -0.690  1.00  0.00     0.261 C 
HETATM    2  O1  UNL     1      -0.752   0.352  -1.480  1.00  0.00    -0.354 OA
HETATM    3  C6  UNL     1      -0.732   1.598  -0.850  1.00  0.00     0.176 C 
HETATM    4  C16 UNL     1      -1.375   1.468   0.477  1.00  0.00     0.172 C 
HETATM    5  C21 UNL     1      -2.339   0.282   0.181  1.00  0.00     0.194 C 
ENDROOT
BRANCH   3   6
HETATM    6  C7  UNL     1       0.703   2.034  -0.891  1.00  0.00     0.192 C 
BRANCH   6   7
HETATM    7  C8  UNL     1       1.646   1.127  -0.206  1.00  0.00     0.065 A 
HETATM    8  C9  UNL     1       2.505   0.167  -0.700  1.00  0.00     0.139 A 
HETATM    9  N6  UNL     1       3.172  -0.384   0.311  1.00  0.00    -0.287 N 
HETATM   10  N9  UNL     1       2.753   0.202   1.414  1.00  0.00    -0.241 N 
HETATM   11  N10 UNL     1       1.846   1.101   1.115  1.00  0.00    -0.288 N 
ATOM     12  H9  UNL     1       3.083  -0.011   2.355  1.00  0.00     0.208 HD
ATOM     13  H10 UNL     1       1.364   1.693   1.791  1.00  0.00     0.188 HD
BRANCH   9  14
HETATM   14  C10 UNL     1       4.189  -1.446   0.256  1.00  0.00     0.152 C 
BRANCH  14  15
HETATM   15  C11 UNL     1       3.518  -2.787   0.383  1.00  0.00     0.056 C 
BRANCH  15  16
HETATM   16  C12 UNL     1       4.520  -3.910   0.328  1.00  0.00     0.210 C 
BRANCH  16  17
HETATM   17  N7  UNL     1       5.200  -3.832  -0.954  1.00  0.00    -0.073 N 
ATOM     18  H73 UNL     1       4.556  -3.836  -1.745  1.00  0.00     0.274 HD
ATOM     19  H72 UNL     1       5.619  -2.918  -1.126  1.00  0.00     0.274 HD
ATOM     20  H71 UNL     1       5.879  -4.593  -0.991  1.00  0.00     0.274 HD
ENDBRANCH  16  17
BRANCH  16  21
HETATM   21  C13 UNL     1       5.543  -3.815   1.442  1.00  0.00     0.262 C 
BRANCH  21  22
HETATM   22  N8  UNL     1       4.947  -3.867   2.743  1.00  0.00    -0.077 N 
ATOM     23  H83 UNL     1       4.227  -3.152   2.845  1.00  0.00     0.274 HD
ATOM     24  H82 UNL     1       4.368  -4.700   2.848  1.00  0.00     0.274 HD
ATOM     25  H81 UNL     1       5.636  -3.803   3.493  1.00  0.00     0.274 HD
ENDBRANCH  21  22
ENDBRANCH  16  21
ENDBRANCH  15  16
ENDBRANCH  14  15
ENDBRANCH   9  14
ENDBRANCH   6   7
BRANCH   6  26
HETATM   26  S1  UNL     1       1.014   3.715  -0.538  1.00  0.00     0.158 S 
HETATM   27  O2  UNL     1       0.928   4.080   0.907  1.00  0.00    -0.227 OA
HETATM   28  O3  UNL     1       2.477   3.966  -0.918  1.00  0.00    -0.227 OA
BRANCH  26  29
HETATM   29  C14 UNL     1       0.062   4.778  -1.565  1.00  0.00     0.167 C 
BRANCH  29  30
HETATM   30  C15 UNL     1       0.364   6.236  -1.224  1.00  0.00     0.179 C 
BRANCH  30  31
HETATM   31  O4  UNL     1      -0.405   7.035  -2.054  1.00  0.00    -0.400 OA
ATOM     32  H4  UNL     1      -0.217   7.942  -1.842  1.00  0.00     0.209 HD
ENDBRANCH  30  31
ENDBRANCH  29  30
ENDBRANCH  26  29
ENDBRANCH   6  26
ENDBRANCH   3   6
BRANCH   4  33
HETATM   33  N11 UNL     1      -2.271   2.538   0.812  1.00  0.00    -0.279 N 
HETATM   34  N12 UNL     1      -3.119   3.005  -0.121  1.00  0.00    -0.261 N 
HETATM   35  C17 UNL     1      -3.857   3.988   0.401  1.00  0.00     0.300 A 
ATOM     36  H12 UNL     1      -3.188   2.662  -1.079  1.00  0.00     0.190 HD
HETATM   37  O5  UNL     1      -4.760   4.687  -0.128  1.00  0.00    -0.263 OA
HETATM   38  C18 UNL     1      -3.442   4.124   1.702  1.00  0.00     0.211 A 
HETATM   39  F1  UNL     1      -3.920   5.009   2.613  1.00  0.00    -0.198 F 
HETATM   40  C19 UNL     1      -2.424   3.181   1.939  1.00  0.00     0.099 A 
BRANCH  40  41
HETATM   41  C20 UNL     1      -1.790   3.089   3.242  1.00  0.00     0.291 C 
BRANCH  41  42
HETATM   42  N13 UNL     1      -0.778   2.125   3.450  1.00  0.00    -0.074 N 
ATOM     43 3H13 UNL     1      -1.144   1.207   3.199  1.00  0.00     0.274 HD
ATOM     44 2H13 UNL     1      -0.054   2.252   2.742  1.00  0.00     0.274 HD
ATOM     45 1H13 UNL     1      -0.333   2.060   4.365  1.00  0.00     0.274 HD
ENDBRANCH  41  42
ENDBRANCH  40  41
ENDBRANCH   4  33
BRANCH   1  46
HETATM   46  N5  UNL     1      -2.145  -1.442  -1.553  1.00  0.00    -0.297 N 
HETATM   47  C4  UNL     1      -2.593  -1.243  -2.806  1.00  0.00     0.188 A 
HETATM   48  N4  UNL     1      -3.206  -2.329  -3.297  1.00  0.00    -0.346 N 
HETATM   49  C3  UNL     1      -3.142  -3.246  -2.320  1.00  0.00     0.123 A 
ATOM     50  H4  UNL     1      -3.631  -2.436  -4.218  1.00  0.00     0.167 HD
HETATM   51  C2  UNL     1      -3.596  -4.549  -2.235  1.00  0.00     0.145 A 
HETATM   52  C22 UNL     1      -2.481  -2.695  -1.231  1.00  0.00     0.157 A 
HETATM   53  N2  UNL     1      -3.383  -5.243  -1.103  1.00  0.00    -0.175 N 
HETATM   54  N3  UNL     1      -4.218  -5.111  -3.222  1.00  0.00    -0.383 N 
HETATM   55  C1  UNL     1      -2.733  -4.691  -0.042  1.00  0.00     0.679 A 
ATOM     56  H2  UNL     1      -3.716  -6.205  -1.038  1.00  0.00     0.186 HD
HETATM   57  N14 UNL     1      -2.286  -3.430  -0.104  1.00  0.00    -0.174 N 
ATOM     58  H14 UNL     1      -1.800  -3.021   0.694  1.00  0.00     0.186 HD
ATOM     59  H32 UNL     1      -4.553  -6.072  -3.159  1.00  0.00     0.157 HD
ATOM     60  H31 UNL     1      -4.380  -4.585  -4.081  1.00  0.00     0.157 HD
BRANCH  55  61
HETATM   61  N1  UNL     1      -2.523  -5.349   1.053  1.00  0.00    -0.234 N 
ATOM     62  H12 UNL     1      -2.863  -6.309   1.100  1.00  0.00     0.174 HD
ATOM     63  H11 UNL     1      -2.036  -4.935   1.848  1.00  0.00     0.174 HD
ENDBRANCH  55  61
ENDBRANCH   1  46
BRANCH   5  64
HETATM   64  O6  UNL     1      -2.753  -0.332   1.326  1.00  0.00    -0.389 OA
ATOM     65  H6  UNL     1      -3.324   0.187   1.880  1.00  0.00     0.210 HD
ENDBRANCH   5  64
TORSDOF 18
