REMARK  7 active torsions:
REMARK  status: ('A' for Active; 'I' for Inactive)
REMARK    1  A    between atoms: N1_1  and  C1_4 
REMARK    2  A    between atoms: C3_8  and  N3_9 
REMARK    3  A    between atoms: N3_9  and  C4_11 
REMARK    4  A    between atoms: C4_11  and  C5_12 
REMARK    5  A    between atoms: C5_12  and  C6_13 
REMARK    6  A    between atoms: C6_13  and  N4_14 
REMARK    7  A    between atoms: N8_28  and  N9_29 
ROOT
HETATM    1  C1  UNL     1       5.135   0.740   1.568  1.00  0.00     0.699 A 
HETATM    2  N2  UNL     1       3.825   0.864   1.206  1.00  0.00    -0.183 N 
ATOM      3  H2  UNL     1       3.133   1.433   1.694  1.00  0.00     0.184 HD
HETATM    4  C2  UNL     1       3.582   0.121   0.107  1.00  0.00     0.139 A 
HETATM    5  C3  UNL     1       2.449  -0.096  -0.643  1.00  0.00     0.133 A 
HETATM    6  N6  UNL     1       2.605  -0.938  -1.714  1.00  0.00    -0.337 N 
ATOM      7  H6  UNL     1       1.799  -1.138  -2.307  1.00  0.00     0.168 HD
HETATM    8  C12 UNL     1       3.778  -1.504  -2.005  1.00  0.00     0.183 A 
HETATM    9  N7  UNL     1       4.873  -1.282  -1.264  1.00  0.00    -0.335 N 
ATOM     10  H7  UNL     1       5.757  -1.728  -1.508  1.00  0.00     0.168 HD
HETATM   11  C13 UNL     1       4.796  -0.461  -0.188  1.00  0.00     0.177 A 
HETATM   12  N8  UNL     1       5.740  -0.080   0.706  1.00  0.00    -0.074 N 
ENDROOT
BRANCH   5  13
HETATM   13  N3  UNL     1       1.339   0.407  -0.412  1.00  0.00    -0.374 N 
ATOM     14  H3  UNL     1       0.639   0.111  -1.093  1.00  0.00     0.161 HD
BRANCH  13  15
HETATM   15  C4  UNL     1       0.802   1.274   0.540  1.00  0.00     0.123 C 
BRANCH  15  16
HETATM   16  C5  UNL     1      -0.709   1.502   0.270  1.00  0.00     0.050 C 
BRANCH  16  17
HETATM   17  C6  UNL     1      -1.340   0.162   0.357  1.00  0.00     0.274 C 
BRANCH  17  18
HETATM   18  N4  UNL     1      -2.741   0.086   0.154  1.00  0.00     0.090 N 
HETATM   19  C7  UNL     1      -3.221  -1.279   0.266  1.00  0.00     0.274 C 
HETATM   20  C8  UNL     1      -4.714  -1.211   0.518  1.00  0.00     0.049 C 
HETATM   21  C9  UNL     1      -5.474  -1.288  -0.772  1.00  0.00     0.115 C 
HETATM   22  N5  UNL     1      -5.493  -0.078  -1.516  1.00  0.00    -0.419 N 
HETATM   23  C10 UNL     1      -4.690   0.995  -1.035  1.00  0.00     0.144 C 
ATOM     24  H5  UNL     1      -6.058   0.018  -2.360  1.00  0.00     0.153 HD
HETATM   25  C11 UNL     1      -3.206   0.730  -1.026  1.00  0.00     0.291 C 
ENDBRANCH  17  18
ENDBRANCH  16  17
ENDBRANCH  15  16
ENDBRANCH  13  15
ENDBRANCH   5  13
BRANCH   1  26
HETATM   26  N1  UNL     1       5.694   1.335   2.595  1.00  0.00    -0.233 N 
ATOM     27  H12 UNL     1       5.232   1.962   3.254  1.00  0.00     0.174 HD
ATOM     28  H11 UNL     1       6.673   1.242   2.866  1.00  0.00     0.174 HD
ENDBRANCH   1  26
BRANCH  12  29
HETATM   29  N9  UNL     1       7.078  -0.465   0.727  1.00  0.00    -0.322 N 
ATOM     30  H92 UNL     1       7.789  -0.178   1.400  1.00  0.00     0.178 HD
ATOM     31  H91 UNL     1       7.540  -1.092   0.068  1.00  0.00     0.178 HD
ENDBRANCH  12  29
TORSDOF 7
