REMARK  2 active torsions:
REMARK  status: ('A' for Active; 'I' for Inactive)
REMARK    1  A    between atoms: C4_19  and  O4_20 
REMARK    2  A    between atoms: O4_20  and  S3_21 
ROOT
HETATM    1  C1  UNL     1       1.677  -0.467  -2.178  1.00  0.00     0.182 C 
HETATM    2  N1  UNL     1       0.714  -0.306  -1.094  1.00  0.00    -0.245 N 
HETATM    3  N2  UNL     1      -0.607  -0.237  -1.552  1.00  0.00    -0.123 N 
ATOM      4  H2  UNL     1      -0.698  -0.518  -2.528  1.00  0.00     0.206 HD
HETATM    5  C2  UNL     1      -1.853   0.134  -0.973  1.00  0.00     0.741 A 
HETATM    6  N3  UNL     1      -2.885   0.476  -1.763  1.00  0.00    -0.126 N 
ATOM      7  H3  UNL     1      -2.849   0.493  -2.782  1.00  0.00     0.206 HD
HETATM    8  N4  UNL     1      -3.954   0.788  -1.048  1.00  0.00    -0.259 N 
ATOM      9  H4  UNL     1      -4.866   1.081  -1.400  1.00  0.00     0.190 HD
HETATM   10  C3  UNL     1      -3.591   0.640   0.237  1.00  0.00     0.237 A 
HETATM   11  S1  UNL     1      -4.542   0.898   1.549  1.00  0.00    -0.036 SA
HETATM   12  N5  UNL     1      -2.303   0.239   0.285  1.00  0.00    -0.001 N 
HETATM   13  O1  UNL     1      -1.746   0.031   1.523  1.00  0.00    -0.109 OA
HETATM   14  S2  UNL     1      -0.441  -0.832   2.164  1.00  0.00     0.386 S 
HETATM   15  O2  UNL     1      -0.651  -2.322   2.022  1.00  0.00    -0.173 OA
HETATM   16  O3  UNL     1      -0.336  -0.507   3.626  1.00  0.00    -0.173 OA
HETATM   17  N6  UNL     1       1.039  -0.445   1.367  1.00  0.00    -0.223 N 
ATOM     18  H6  UNL     1       1.812  -0.334   2.023  1.00  0.00     0.184 HD
HETATM   19  C4  UNL     1       1.406  -0.263   0.154  1.00  0.00     0.268 C 
ENDROOT
BRANCH  19  20
HETATM   20  O4  UNL     1       2.748   0.032   0.086  1.00  0.00    -0.182 OA
BRANCH  20  21
HETATM   21  S3  UNL     1       3.614   0.668   1.430  1.00  0.00     0.408 S 
HETATM   22  O5  UNL     1       2.751   0.815   2.625  1.00  0.00    -0.179 OA
HETATM   23  O6  UNL     1       4.773  -0.201   1.784  1.00  0.00    -0.179 OA
ENDBRANCH  20  21
ENDBRANCH  19  20
TORSDOF 2
