REMARK  10 active torsions:
REMARK  status: ('A' for Active; 'I' for Inactive)
REMARK    1  A    between atoms: C2_2  and  C3_4 
REMARK    2  A    between atoms: C3_4  and  N1_5 
REMARK    3  A    between atoms: C3_4  and  C11_25 
REMARK       I    between atoms: N1_5  and  C4_7 
REMARK    4  A    between atoms: C4_7  and  C5_9 
REMARK    5  A    between atoms: C5_9  and  N2_10 
REMARK       I    between atoms: N2_10  and  C6_11 
REMARK    6  A    between atoms: C6_11  and  C7_13 
REMARK    7  A    between atoms: C8_15  and  N3_16 
REMARK       I    between atoms: N3_16  and  C9_18 
REMARK    8  A    between atoms: C11_25  and  O6_27 
REMARK    9  A    between atoms: O6_27  and  C12_28 
REMARK   10  A    between atoms: C15_31  and  N7_32 
ROOT
HETATM    1  C3  UNL     1      -0.067  -2.008   1.102  1.00  0.00     0.254 C 
ENDROOT
BRANCH   1   2
HETATM    2  C2  UNL     1      -0.155  -3.046   2.128  1.00  0.00     0.155 C 
HETATM    3  C1  UNL     1      -1.118  -4.169   2.063  1.00  0.00     0.093 C 
HETATM    4  O1  UNL     1       0.604  -2.993   3.104  1.00  0.00    -0.296 OA
ENDBRANCH   1   2
BRANCH   1   5
HETATM    5  N1  UNL     1       0.988  -1.047   1.437  1.00  0.00    -0.335 N 
HETATM    6  C4  UNL     1       1.793  -0.563   0.373  1.00  0.00     0.271 C 
HETATM    7  O2  UNL     1       1.602  -0.972  -0.779  1.00  0.00    -0.266 OA
ATOM      8  H1  UNL     1       1.138  -0.738   2.398  1.00  0.00     0.164 HD
BRANCH   6   9
HETATM    9  C5  UNL     1       2.846   0.449   0.712  1.00  0.00     0.260 C 
BRANCH   9  10
HETATM   10  N2  UNL     1       3.602   0.921  -0.355  1.00  0.00    -0.373 NA
HETATM   11  C6  UNL     1       4.326   1.374  -1.377  1.00  0.00     0.336 C 
HETATM   12  O3  UNL     1       3.931   1.983  -2.442  1.00  0.00    -0.250 OA
BRANCH  11  13
HETATM   13  C7  UNL     1       5.812   1.174  -1.340  1.00  0.00     0.132 A 
HETATM   14  S1  UNL     1       6.748   0.404  -0.141  1.00  0.00    -0.044 SA
HETATM   15  C8  UNL     1       8.286   0.582  -0.878  1.00  0.00     0.154 A 
HETATM   16  N5  UNL     1       8.005   1.225  -2.007  1.00  0.00    -0.324 N 
HETATM   17  C10 UNL     1       6.748   1.537  -2.263  1.00  0.00     0.142 A 
ATOM     18  H5  UNL     1       8.746   1.472  -2.663  1.00  0.00     0.169 HD
HETATM   19  N6  UNL     1       6.326   2.235  -3.472  1.00  0.00    -0.081 NA
BRANCH  15  20
HETATM   20  N3  UNL     1       9.460   0.176  -0.446  1.00  0.00    -0.291 N 
HETATM   21  C9  UNL     1      10.578   0.459  -1.262  1.00  0.00     0.334 C 
HETATM   22  N4  UNL     1      11.634   1.223  -0.780  1.00  0.00    -0.040 NA
HETATM   23  O4  UNL     1      10.603   0.006  -2.435  1.00  0.00    -0.251 OA
ATOM     24  H3  UNL     1       9.559  -0.321   0.439  1.00  0.00     0.172 HD
ENDBRANCH  15  20
ENDBRANCH  11  13
ENDBRANCH   9  10
ENDBRANCH   6   9
ENDBRANCH   1   5
BRANCH   1  25
HETATM   25  C11 UNL     1      -1.372  -1.263   1.017  1.00  0.00     0.294 C 
HETATM   26  O5  UNL     1      -1.418  -0.034   1.256  1.00  0.00    -0.262 OA
BRANCH  25  27
HETATM   27  O6  UNL     1      -2.507  -1.934   0.670  1.00  0.00    -0.277 OA
BRANCH  27  28
HETATM   28  C12 UNL     1      -3.749  -1.302   0.557  1.00  0.00     0.079 A 
HETATM   29  C13 UNL     1      -4.631  -1.241   1.614  1.00  0.00     0.039 A 
HETATM   30  C14 UNL     1      -5.855  -0.612   1.489  1.00  0.00     0.034 A 
HETATM   31  C15 UNL     1      -6.257  -0.016   0.312  1.00  0.00     0.059 A 
HETATM   32  C18 UNL     1      -5.363  -0.080  -0.749  1.00  0.00     0.034 A 
HETATM   33  C19 UNL     1      -4.146  -0.703  -0.636  1.00  0.00     0.039 A 
BRANCH  31  34
HETATM   34  N7  UNL     1      -7.489   0.679   0.172  1.00  0.00    -0.225 N 
HETATM   35  N8  UNL     1      -7.610   1.966   0.550  1.00  0.00    -0.264 N 
HETATM   36  C16 UNL     1      -8.832   2.435   0.321  1.00  0.00     0.210 A 
ATOM     37  H8  UNL     1      -6.855   2.514   0.962  1.00  0.00     0.190 HD
HETATM   38  N9  UNL     1      -9.358   3.743   0.567  1.00  0.00    -0.062 NA
HETATM   39  N10 UNL     1      -9.520   1.396  -0.230  1.00  0.00    -0.302 N 
HETATM   40  C17 UNL     1      -8.675   0.333  -0.310  1.00  0.00     0.216 A 
ATOM     41  H10 UNL     1     -10.495   1.412  -0.529  1.00  0.00     0.171 HD
HETATM   42  N11 UNL     1      -9.026  -0.933  -0.842  1.00  0.00    -0.061 NA
ENDBRANCH  31  34
ENDBRANCH  27  28
ENDBRANCH  25  27
ENDBRANCH   1  25
TORSDOF 10
