REMARK  5 active torsions:
REMARK  status: ('A' for Active; 'I' for Inactive)
REMARK    1  A    between atoms: C2_2  and  O1_3 
REMARK    2  A    between atoms: C2_2  and  C11_18 
REMARK    3  A    between atoms: O1_3  and  C3_4 
REMARK       I    between atoms: C3_4  and  N1_6 
REMARK    4  A    between atoms: N1_6  and  C4_8 
REMARK    5  A    between atoms: C8_13  and  S1_14 
ROOT
HETATM    1  S1  UNL     1       5.822   0.533  -2.085  1.00  0.00    -0.011 SA
HETATM    2  C9  UNL     1       6.709   1.658  -1.073  1.00  0.00     0.139 C 
HETATM    3  N2  UNL     1       7.299   2.408  -0.417  1.00  0.00    -0.184 NA
ENDROOT
BRANCH   1   4
HETATM    4  C8  UNL     1       4.528  -0.213  -1.113  1.00  0.00     0.020 A 
HETATM    5  C7  UNL     1       4.789  -1.377  -0.424  1.00  0.00     0.061 A 
HETATM    6  C6  UNL     1       3.790  -1.970   0.337  1.00  0.00     0.119 A 
HETATM    7  C5  UNL     1       2.517  -1.377   0.400  1.00  0.00     0.072 A 
HETATM    8  F1  UNL     1       4.041  -3.114   1.016  1.00  0.00    -0.206 F 
HETATM    9  C4  UNL     1       2.230  -0.218  -0.277  1.00  0.00     0.041 A 
HETATM   10  C10 UNL     1       3.275   0.321  -1.019  1.00  0.00     0.049 A 
BRANCH   9  11
HETATM   11  N1  UNL     1       0.966   0.392  -0.229  1.00  0.00    -0.303 N 
HETATM   12  C3  UNL     1      -0.179  -0.022   0.462  1.00  0.00     0.365 C 
HETATM   13  O2  UNL     1      -0.282  -1.034   1.178  1.00  0.00    -0.238 OA
ATOM     14  H1  UNL     1       0.869   1.251  -0.770  1.00  0.00     0.171 HD
BRANCH  12  15
HETATM   15  O1  UNL     1      -1.356   0.746   0.372  1.00  0.00    -0.292 OA
BRANCH  15  16
HETATM   16  C2  UNL     1      -2.516   0.338   1.065  1.00  0.00     0.186 C 
HETATM   17  C1  UNL     1      -2.875   1.478   2.007  1.00  0.00     0.047 C 
BRANCH  16  18
HETATM   18  C11 UNL     1      -3.655   0.196   0.121  1.00  0.00     0.081 A 
HETATM   19  C12 UNL     1      -4.517  -0.878   0.136  1.00  0.00     0.037 A 
HETATM   20  C13 UNL     1      -5.457  -0.690  -0.874  1.00  0.00     0.027 A 
HETATM   21  C14 UNL     1      -5.103   0.510  -1.455  1.00  0.00     0.142 A 
HETATM   22  O3  UNL     1      -4.042   0.982  -0.832  1.00  0.00    -0.324 OA
ENDBRANCH  16  18
ENDBRANCH  15  16
ENDBRANCH  12  15
ENDBRANCH   9  11
ENDBRANCH   1   4
TORSDOF 5
