REMARK  4 active torsions:
REMARK  status: ('A' for Active; 'I' for Inactive)
REMARK    1  A    between atoms: C2_3  and  N2_4 
REMARK    2  A    between atoms: C3_6  and  C4_7 
REMARK    3  A    between atoms: C12_18  and  O1_19 
REMARK    4  A    between atoms: O1_19  and  C13_20 
ROOT
HETATM    1  N1  UNL     1       0.612  -0.962   0.919  1.00  0.00    -0.095 NA
HETATM    2  C1  UNL     1       0.704   0.377   0.444  1.00  0.00     0.124 A 
HETATM    3  C2  UNL     1      -0.414   0.944  -0.145  1.00  0.00     0.062 A 
HETATM    4  C10 UNL     1      -0.363   2.245  -0.604  1.00  0.00     0.048 A 
HETATM    5  C11 UNL     1       0.822   2.926  -0.450  1.00  0.00     0.092 A 
HETATM    6  N3  UNL     1       1.889   2.363   0.120  1.00  0.00    -0.345 N 
ATOM      7  H3  UNL     1       2.747   2.906   0.214  1.00  0.00     0.167 HD
HETATM    8  C12 UNL     1       1.861   1.091   0.576  1.00  0.00     0.174 A 
ENDROOT
BRANCH   3   9
HETATM    9  N2  UNL     1      -1.605   0.181  -0.271  1.00  0.00    -0.363 N 
HETATM   10  C3  UNL     1      -2.701   0.693   0.160  1.00  0.00     0.099 C 
ATOM     11  H2  UNL     1      -1.590  -0.748  -0.692  1.00  0.00     0.165 HD
BRANCH  10  12
HETATM   12  C4  UNL     1      -3.928  -0.079   0.037  1.00  0.00    -0.021 A 
HETATM   13  C5  UNL     1      -3.876  -1.329  -0.535  1.00  0.00     0.016 A 
HETATM   14  C6  UNL     1      -5.019  -2.086  -0.666  1.00  0.00     0.043 A 
HETATM   15  C7  UNL     1      -6.205  -1.554  -0.211  1.00  0.00     0.116 A 
HETATM   16  F1  UNL     1      -7.341  -2.308  -0.342  1.00  0.00    -0.206 F 
HETATM   17  C8  UNL     1      -6.293  -0.306   0.367  1.00  0.00     0.043 A 
HETATM   18  C9  UNL     1      -5.138   0.434   0.489  1.00  0.00     0.016 A 
ENDBRANCH  10  12
ENDBRANCH   3   9
BRANCH   8  19
HETATM   19  O1  UNL     1       3.035   0.561   1.168  1.00  0.00    -0.292 OA
BRANCH  19  20
HETATM   20  C13 UNL     1       3.986   0.057   0.314  1.00  0.00     0.077 A 
HETATM   21  C14 UNL     1       4.041  -1.264   0.016  1.00  0.00     0.037 A 
HETATM   22  C15 UNL     1       5.011  -1.755  -0.852  1.00  0.00     0.003 A 
HETATM   23  C16 UNL     1       5.905  -0.859  -1.391  1.00  0.00     0.000 A 
HETATM   24  C17 UNL     1       5.851   0.480  -1.090  1.00  0.00     0.003 A 
HETATM   25  C18 UNL     1       4.885   0.933  -0.233  1.00  0.00     0.037 A 
ENDBRANCH  19  20
ENDBRANCH   8  19
TORSDOF 4
