REMARK  5 active torsions:
REMARK  status: ('A' for Active; 'I' for Inactive)
REMARK    1  A    between atoms: C2_2  and  C3_3 
REMARK    2  A    between atoms: C2_2  and  N3_9 
REMARK    3  A    between atoms: C3_3  and  N1_4 
REMARK    4  A    between atoms: N1_4  and  N2_6 
REMARK    5  A    between atoms: N3_9  and  C5_12 
ROOT
HETATM    1  C1  UNL     1      -0.044  -2.236   0.061  1.00  0.00     0.041 C 
HETATM    2  C2  UNL     1       0.222  -0.820   0.395  1.00  0.00     0.197 C 
ENDROOT
BRANCH   2   3
HETATM    3  C3  UNL     1      -1.019  -0.104   0.905  1.00  0.00     0.145 C 
BRANCH   3   4
HETATM    4  N1  UNL     1      -2.112  -0.091  -0.011  1.00  0.00    -0.240 NA
HETATM    5  C4  UNL     1      -3.209   0.616   0.637  1.00  0.00     0.135 C 
BRANCH   4   6
HETATM    6  N2  UNL     1      -1.868   0.559  -1.224  1.00  0.00    -0.364 NA
ATOM      7  H22 UNL     1      -1.100   0.064  -1.678  1.00  0.00     0.171 HD
ATOM      8  H21 UNL     1      -2.650   0.568  -1.879  1.00  0.00     0.171 HD
ENDBRANCH   4   6
ENDBRANCH   3   4
ENDBRANCH   2   3
BRANCH   2   9
HETATM    9  N3  UNL     1       0.758  -0.088  -0.748  1.00  0.00    -0.066 N 
ATOM     10  H32 UNL     1       1.120  -0.705  -1.475  1.00  0.00     0.278 HD
ATOM     11  H31 UNL     1       0.030   0.365  -1.301  1.00  0.00     0.278 HD
BRANCH   9  12
HETATM   12  C5  UNL     1       1.737   0.832  -0.269  1.00  0.00     0.186 A 
HETATM   13  C6  UNL     1       3.051   0.350   0.287  1.00  0.00     0.035 A 
HETATM   14  C7  UNL     1       2.937   1.297  -0.943  1.00  0.00     0.035 A 
ENDBRANCH   9  12
ENDBRANCH   2   9
TORSDOF 5
