REMARK  4 active torsions:
REMARK  status: ('A' for Active; 'I' for Inactive)
REMARK    1  A    between atoms: C2_2  and  C3_3 
REMARK    2  A    between atoms: C3_3  and  N1_4 
REMARK    3  A    between atoms: N1_4  and  N2_5 
REMARK    4  A    between atoms: C6_8  and  N3_9 
ROOT
HETATM    1  N2  UNL     1      -0.154  -0.281  -0.171  1.00  0.00    -0.329 N 
HETATM    2  C4  UNL     1      -0.569   1.013  -0.503  1.00  0.00     0.140 C 
HETATM    3  C5  UNL     1      -2.096   1.013  -0.348  1.00  0.00     0.055 C 
HETATM    4  C6  UNL     1      -2.393  -0.458  -0.668  1.00  0.00     0.204 C 
HETATM    5  C7  UNL     1      -1.254  -1.141   0.067  1.00  0.00     0.171 C 
ENDROOT
BRANCH   1   6
HETATM    6  N1  UNL     1       0.962  -0.544   0.510  1.00  0.00    -0.140 NA
BRANCH   6   7
HETATM    7  C3  UNL     1       1.989   0.455   0.317  1.00  0.00     0.161 C 
BRANCH   7   8
HETATM    8  C2  UNL     1       3.252  -0.169  -0.085  1.00  0.00    -0.019 C 
HETATM    9  C1  UNL     1       4.423   0.058   0.455  1.00  0.00     0.008 C 
ENDBRANCH   7   8
ENDBRANCH   6   7
ENDBRANCH   1   6
BRANCH   4  10
HETATM   10  N3  UNL     1      -3.685  -0.863  -0.130  1.00  0.00    -0.073 N 
ATOM     11  H33 UNL     1      -3.750  -0.676   0.871  1.00  0.00     0.274 HD
ATOM     12  H32 UNL     1      -4.434  -0.250  -0.452  1.00  0.00     0.274 HD
ATOM     13  H31 UNL     1      -3.882  -1.841  -0.343  1.00  0.00     0.274 HD
ENDBRANCH   4  10
TORSDOF 4
