REMARK  6 active torsions:
REMARK  status: ('A' for Active; 'I' for Inactive)
REMARK    1  A    between atoms: C1_2  and  C2_3 
REMARK       I    between atoms: C1_2  and  N3_22 
REMARK    2  A    between atoms: C2_3  and  C3_4 
REMARK    3  A    between atoms: C3_4  and  S1_5 
REMARK    4  A    between atoms: S1_5  and  N1_8 
REMARK    5  A    between atoms: C7_12  and  C8_13 
REMARK       I    between atoms: C8_13  and  N2_15 
REMARK    6  A    between atoms: N3_22  and  C15_24 
ROOT
HETATM    1  S1  UNL     1       0.367   1.129  -0.983  1.00  0.00     0.212 S 
HETATM    2  O2  UNL     1      -0.856   0.311  -0.642  1.00  0.00    -0.211 OA
HETATM    3  O3  UNL     1       1.190   1.179   0.256  1.00  0.00    -0.211 OA
ENDROOT
BRANCH   1   4
HETATM    4  C3  UNL     1       1.228   0.397  -2.295  1.00  0.00     0.167 C 
BRANCH   4   5
HETATM    5  C2  UNL     1       1.737  -0.976  -2.140  1.00  0.00     0.119 C 
BRANCH   5   6
HETATM    6  C1  UNL     1       2.755  -1.248  -1.145  1.00  0.00     0.218 C 
HETATM    7  O1  UNL     1       3.353  -0.292  -0.541  1.00  0.00    -0.274 OA
HETATM    8  N3  UNL     1       3.149  -2.558  -0.780  1.00  0.00    -0.356 N 
ATOM      9  H3  UNL     1       2.711  -3.366  -1.222  1.00  0.00     0.162 HD
BRANCH   8  10
HETATM   10  C15 UNL     1       4.165  -2.744   0.211  1.00  0.00     0.088 C 
HETATM   11  C16 UNL     1       3.730  -3.589   1.393  1.00  0.00     0.030 C 
HETATM   12  C17 UNL     1       4.854  -4.562   1.662  1.00  0.00    -0.012 C 
HETATM   13  C18 UNL     1       4.742  -5.687   0.673  1.00  0.00     0.005 C 
HETATM   14  C21 UNL     1       6.041  -3.791   1.058  1.00  0.00     0.011 C 
HETATM   15  C19 UNL     1       4.946  -4.941  -0.653  1.00  0.00     0.007 C 
HETATM   16  C20 UNL     1       5.352  -3.536  -0.297  1.00  0.00     0.009 C 
ENDBRANCH   8  10
ENDBRANCH   5   6
ENDBRANCH   4   5
ENDBRANCH   1   4
BRANCH   1  17
HETATM   17  N1  UNL     1      -0.169   2.727  -1.298  1.00  0.00    -0.211 NA
HETATM   18  C4  UNL     1      -1.075   2.862  -2.375  1.00  0.00     0.107 C 
HETATM   19  C5  UNL     1      -1.839   4.157  -2.338  1.00  0.00     0.016 C 
HETATM   20  C6  UNL     1      -2.878   4.255  -1.278  1.00  0.00     0.015 C 
HETATM   21  C7  UNL     1      -2.978   3.036  -0.381  1.00  0.00     0.079 C 
HETATM   22  C13 UNL     1      -1.785   2.960   0.552  1.00  0.00     0.029 C 
HETATM   23  C14 UNL     1      -0.511   3.444  -0.108  1.00  0.00     0.108 C 
BRANCH  21  24
HETATM   24  C8  UNL     1      -4.201   3.196   0.445  1.00  0.00     0.224 C 
HETATM   25  O4  UNL     1      -4.844   4.306   0.418  1.00  0.00    -0.273 OA
HETATM   26  N2  UNL     1      -4.663   2.156   1.255  1.00  0.00    -0.352 N 
HETATM   27  C9  UNL     1      -4.052   0.843   1.374  1.00  0.00     0.126 C 
HETATM   28  C12 UNL     1      -5.841   2.193   2.131  1.00  0.00     0.126 C 
HETATM   29  C10 UNL     1      -5.252  -0.060   1.613  1.00  0.00     0.021 C 
HETATM   30  C11 UNL     1      -6.427   0.828   1.899  1.00  0.00     0.021 C 
ENDBRANCH  21  24
ENDBRANCH   1  17
TORSDOF 6
