REMARK  9 active torsions:
REMARK  status: ('A' for Active; 'I' for Inactive)
REMARK    1  A    between atoms: C1_2  and  O2_3 
REMARK    2  A    between atoms: C1_2  and  C8_12 
REMARK    3  A    between atoms: O2_3  and  C2_4 
REMARK    4  A    between atoms: C5_7  and  O3_8 
REMARK    5  A    between atoms: C8_12  and  C15_24 
REMARK       I    between atoms: N1_13  and  C9_15 
REMARK    6  A    between atoms: C9_15  and  C10_17 
REMARK    7  A    between atoms: C15_24  and  C16_25 
REMARK    8  A    between atoms: C15_24  and  C17_28 
REMARK    9  A    between atoms: C17_28  and  C18_30 
ROOT
HETATM    1  C8  UNL     1      -0.954   0.338  -0.816  1.00  0.00     0.110 C 
HETATM    2  N1  UNL     1      -1.965  -0.225  -1.325  1.00  0.00    -0.319 N 
ATOM      3  H1  UNL     1      -2.760   0.378  -1.537  1.00  0.00     0.169 HD
HETATM    4  C9  UNL     1      -2.117  -1.582  -1.631  1.00  0.00     0.272 C 
HETATM    5  O4  UNL     1      -1.733  -2.022  -2.735  1.00  0.00    -0.266 OA
ENDROOT
BRANCH   1   6
HETATM    6  C1  UNL     1       0.231  -0.424  -0.475  1.00  0.00     0.312 C 
HETATM    7  O1  UNL     1       0.248  -1.656  -0.694  1.00  0.00    -0.258 OA
BRANCH   6   8
HETATM    8  O2  UNL     1       1.368   0.162   0.094  1.00  0.00    -0.274 OA
BRANCH   8   9
HETATM    9  C2  UNL     1       2.501  -0.568   0.420  1.00  0.00     0.079 A 
HETATM   10  C3  UNL     1       3.539  -0.766  -0.462  1.00  0.00     0.040 A 
HETATM   11  C4  UNL     1       4.633  -1.503  -0.069  1.00  0.00     0.039 A 
HETATM   12  C5  UNL     1       4.708  -2.049   1.201  1.00  0.00     0.065 A 
HETATM   13  C6  UNL     1       3.666  -1.844   2.072  1.00  0.00     0.039 A 
HETATM   14  C7  UNL     1       2.573  -1.115   1.697  1.00  0.00     0.040 A 
BRANCH  12  15
HETATM   15  O3  UNL     1       5.812  -2.782   1.575  1.00  0.00    -0.361 OA
ATOM     16  H3  UNL     1       5.863  -3.157   2.446  1.00  0.00     0.217 HD
ENDBRANCH  12  15
ENDBRANCH   8   9
ENDBRANCH   6   8
ENDBRANCH   1   6
BRANCH   1  17
HETATM   17  C15 UNL     1      -1.030   1.814  -0.588  1.00  0.00     0.218 C 
BRANCH  17  18
HETATM   18  C16 UNL     1      -0.793   2.027   0.880  1.00  0.00     0.191 C 
HETATM   19  O5  UNL     1       0.209   2.658   1.291  1.00  0.00    -0.647 OA
HETATM   20  O6  UNL     1      -1.680   1.530   1.833  1.00  0.00    -0.647 OA
ENDBRANCH  17  18
BRANCH  17  21
HETATM   21  C17 UNL     1      -0.024   2.569  -1.340  1.00  0.00     0.186 C 
HETATM   22  O7  UNL     1       0.810   1.982  -2.049  1.00  0.00    -0.290 OA
BRANCH  21  23
HETATM   23  C18 UNL     1       0.045   4.042  -1.288  1.00  0.00     0.051 A 
HETATM   24  C19 UNL     1      -0.774   4.896  -0.595  1.00  0.00     0.023 A 
HETATM   25  C20 UNL     1      -0.522   6.208  -0.691  1.00  0.00     0.009 A 
HETATM   26  C21 UNL     1       0.534   6.590  -1.475  1.00  0.00     0.050 A 
HETATM   27  S1  UNL     1       1.139   5.107  -2.051  1.00  0.00    -0.098 SA
ENDBRANCH  21  23
ENDBRANCH  17  21
ENDBRANCH   1  17
BRANCH   4  28
HETATM   28  C10 UNL     1      -2.718  -2.490  -0.678  1.00  0.00     0.100 A 
HETATM   29  C11 UNL     1      -2.872  -3.844  -0.979  1.00  0.00     0.035 A 
HETATM   30  C12 UNL     1      -3.447  -4.694  -0.058  1.00  0.00     0.004 A 
HETATM   31  C13 UNL     1      -3.872  -4.209   1.163  1.00  0.00     0.017 A 
HETATM   32  C14 UNL     1      -3.693  -2.866   1.400  1.00  0.00     0.088 A 
HETATM   33  N2  UNL     1      -3.136  -2.025   0.517  1.00  0.00    -0.361 N 
ATOM     34  H2  UNL     1      -3.029  -1.037   0.748  1.00  0.00     0.165 HD
ENDBRANCH   4  28
TORSDOF 9
