REMARK  6 active torsions:
REMARK  status: ('A' for Active; 'I' for Inactive)
REMARK    1  A    between atoms: N1_2  and  C1_4 
REMARK    2  A    between atoms: C4_7  and  C5_8 
REMARK    3  A    between atoms: N2_9  and  N3_11 
REMARK    4  A    between atoms: N3_11  and  C6_13 
REMARK    5  A    between atoms: C7_18  and  C8_19 
REMARK    6  A    between atoms: C14_27  and  N6_28 
ROOT
HETATM    1  N3  UNL     1      -0.187  -0.949   1.731  1.00  0.00    -0.279 N 
ATOM      2  H3  UNL     1      -0.306  -1.711   2.399  1.00  0.00     0.189 HD
ENDROOT
BRANCH   1   3
HETATM    3  N2  UNL     1      -1.282  -0.256   1.136  1.00  0.00    -0.309 N 
HETATM    4  C5  UNL     1      -2.299  -1.024   0.825  1.00  0.00     0.121 C 
ATOM      5  H2  UNL     1      -1.275   0.750   0.967  1.00  0.00     0.186 HD
BRANCH   4   6
HETATM    6  C4  UNL     1      -3.485  -0.479   0.207  1.00  0.00     0.014 A 
HETATM    7  C3  UNL     1      -3.524   0.914  -0.015  1.00  0.00     0.018 A 
HETATM    8  C2  UNL     1      -4.594   1.546  -0.589  1.00  0.00     0.037 A 
HETATM    9  C1  UNL     1      -5.700   0.823  -0.979  1.00  0.00     0.105 A 
HETATM   10  C15 UNL     1      -5.666  -0.522  -0.765  1.00  0.00     0.073 A 
HETATM   11  C14 UNL     1      -4.574  -1.197  -0.175  1.00  0.00     0.117 A 
BRANCH   9  12
HETATM   12  N1  UNL     1      -6.828   1.455  -1.582  1.00  0.00    -0.116 N 
HETATM   13  O1  UNL     1      -6.874   2.678  -1.735  1.00  0.00    -0.532 OA
HETATM   14  O2  UNL     1      -7.882   0.687  -1.985  1.00  0.00    -0.532 OA
ENDBRANCH   9  12
BRANCH  11  15
HETATM   15  N6  UNL     1      -4.668  -2.581   0.003  1.00  0.00    -0.115 N 
HETATM   16  O3  UNL     1      -5.693  -3.180  -0.464  1.00  0.00    -0.532 OA
HETATM   17  O4  UNL     1      -3.797  -3.360   0.667  1.00  0.00    -0.532 OA
ENDBRANCH  11  15
ENDBRANCH   4   6
ENDBRANCH   1   3
BRANCH   1  18
HETATM   18  C6  UNL     1       0.997  -0.512   1.337  1.00  0.00     0.180 A 
HETATM   19  N4  UNL     1       1.266   0.472   0.474  1.00  0.00    -0.278 N 
HETATM   20  N5  UNL     1       2.469   0.724   0.176  1.00  0.00    -0.291 N 
ATOM     21  H4  UNL     1       0.508   1.015   0.060  1.00  0.00     0.189 HD
HETATM   22  C7  UNL     1       3.461   0.008   0.725  1.00  0.00     0.102 A 
ATOM     23  H5  UNL     1       2.685   1.472  -0.482  1.00  0.00     0.187 HD
HETATM   24  S1  UNL     1       2.573  -1.065   1.707  1.00  0.00    -0.031 SA
BRANCH  22  25
HETATM   25  C8  UNL     1       4.879   0.158   0.461  1.00  0.00    -0.001 A 
HETATM   26  C9  UNL     1       5.812  -0.658   1.009  1.00  0.00     0.016 A 
HETATM   27  C10 UNL     1       7.181  -0.509   0.719  1.00  0.00     0.024 A 
HETATM   28  C11 UNL     1       7.609   0.482  -0.136  1.00  0.00     0.034 A 
HETATM   29 CL1  UNL     1       9.278   0.686  -0.540  1.00  0.00    -0.084 Cl
HETATM   30  C12 UNL     1       6.657   1.321  -0.696  1.00  0.00     0.024 A 
HETATM   31  C13 UNL     1       5.357   1.152  -0.403  1.00  0.00     0.016 A 
ENDBRANCH  22  25
ENDBRANCH   1  18
TORSDOF 6
