REMARK  7 active torsions:
REMARK  status: ('A' for Active; 'I' for Inactive)
REMARK    1  A    between atoms: C3_4  and  N2_5 
REMARK    2  A    between atoms: N2_5  and  N3_7 
REMARK    3  A    between atoms: C4_9  and  C5_10 
REMARK    4  A    between atoms: C7_15  and  C8_16 
REMARK    5  A    between atoms: C12_24  and  S3_25 
REMARK    6  A    between atoms: S3_25  and  C13_26 
REMARK    7  A    between atoms: C13_26  and  C14_27 
REMARK       I    between atoms: C14_27  and  N4_29 
ROOT
HETATM    1  N1  UNL     1       0.497  -1.801  -1.018  1.00  0.00    -0.191 NA
HETATM    2  C1  UNL     1       0.249  -0.949  -0.283  1.00  0.00     0.103 C 
HETATM    3  C2  UNL     1      -0.082   0.088   0.637  1.00  0.00     0.091 A 
HETATM    4  C3  UNL     1       0.678   1.254   0.559  1.00  0.00     0.070 A 
HETATM    5  C9  UNL     1       0.465   2.302   1.446  1.00  0.00     0.034 A 
HETATM    6  C10 UNL     1      -0.514   2.143   2.392  1.00  0.00     0.028 A 
HETATM    7  C11 UNL     1      -1.254   0.989   2.454  1.00  0.00     0.052 A 
HETATM    8 CL1  UNL     1      -2.492   0.805   3.662  1.00  0.00    -0.083 Cl
HETATM    9  C12 UNL     1      -1.068  -0.093   1.573  1.00  0.00     0.049 A 
ENDROOT
BRANCH   4  10
HETATM   10  N2  UNL     1       1.694   1.379  -0.427  1.00  0.00    -0.300 N 
ATOM     11  H2  UNL     1       1.445   1.683  -1.368  1.00  0.00     0.187 HD
BRANCH  10  12
HETATM   12  N3  UNL     1       3.010   1.097  -0.133  1.00  0.00    -0.309 N 
HETATM   13  C4  UNL     1       3.720   0.135  -0.547  1.00  0.00     0.145 C 
ATOM     14  H3  UNL     1       3.472   1.749   0.501  1.00  0.00     0.186 HD
BRANCH  13  15
HETATM   15  C5  UNL     1       5.141   0.005  -0.106  1.00  0.00     0.116 A 
HETATM   16  O1  UNL     1       5.694   0.824   0.676  1.00  0.00    -0.290 OA
HETATM   17  C6  UNL     1       6.918   0.686   1.038  1.00  0.00     0.185 A 
HETATM   18  S1  UNL     1       7.810   1.651   2.051  1.00  0.00    -0.044 SA
HETATM   19  S2  UNL     1       7.389  -0.737   0.215  1.00  0.00    -0.046 SA
HETATM   20  C7  UNL     1       5.901  -1.050  -0.563  1.00  0.00     0.127 A 
BRANCH  20  21
HETATM   21  C8  UNL     1       5.493  -2.161  -1.493  1.00  0.00     0.426 C 
HETATM   22  F1  UNL     1       4.439  -2.831  -0.886  1.00  0.00    -0.165 F 
HETATM   23  F2  UNL     1       6.600  -2.991  -1.609  1.00  0.00    -0.165 F 
HETATM   24  F3  UNL     1       5.156  -1.675  -2.721  1.00  0.00    -0.165 F 
ENDBRANCH  20  21
ENDBRANCH  13  15
ENDBRANCH  10  12
ENDBRANCH   4  10
BRANCH   9  25
HETATM   25  S3  UNL     1      -2.099  -1.521   1.661  1.00  0.00    -0.093 SA
BRANCH  25  26
HETATM   26  C13 UNL     1      -3.689  -1.446   0.928  1.00  0.00     0.124 C 
BRANCH  26  27
HETATM   27  C14 UNL     1      -3.875  -1.355  -0.497  1.00  0.00     0.253 C 
HETATM   28  O2  UNL     1      -2.996  -1.330  -1.364  1.00  0.00    -0.268 OA
HETATM   29  N4  UNL     1      -5.268  -1.287  -0.938  1.00  0.00    -0.300 N 
HETATM   30  C15 UNL     1      -5.904  -0.159  -0.895  1.00  0.00     0.203 C 
ATOM     31  H4  UNL     1      -5.738  -2.126  -1.279  1.00  0.00     0.171 HD
HETATM   32  N5  UNL     1      -5.256   1.014  -0.424  1.00  0.00    -0.066 NA
HETATM   33  N6  UNL     1      -7.261  -0.055  -1.315  1.00  0.00    -0.066 NA
ENDBRANCH  26  27
ENDBRANCH  25  26
ENDBRANCH   9  25
TORSDOF 7
