REMARK  10 active torsions:
REMARK  status: ('A' for Active; 'I' for Inactive)
REMARK    1  A    between atoms: C1_2  and  O2_3 
REMARK    2  A    between atoms: O2_3  and  C2_4 
REMARK    3  A    between atoms: C2_4  and  C3_6 
REMARK    4  A    between atoms: C5_8  and  C6_9 
REMARK    5  A    between atoms: C6_9  and  O5_11 
REMARK    6  A    between atoms: O5_11  and  C7_12 
REMARK    7  A    between atoms: C11_19  and  C12_20 
REMARK    8  A    between atoms: N1_21  and  O6_23 
REMARK    9  A    between atoms: C14_27  and  O7_28 
REMARK   10  A    between atoms: N2_30  and  C15_31 
ROOT
HETATM    1  C3  UNL     1      -2.386  -0.185   1.003  1.00  0.00     0.099 A 
HETATM    2  C4  UNL     1      -1.186  -0.731   1.167  1.00  0.00     0.113 A 
HETATM    3  C5  UNL     1      -0.281  -0.190  -0.091  1.00  0.00     0.074 A 
HETATM    4  C14 UNL     1      -1.162   0.426  -0.515  1.00  0.00     0.160 A 
HETATM    5  N2  UNL     1      -2.426   0.581  -0.078  1.00  0.00    -0.289 N 
ENDROOT
BRANCH   3   6
HETATM    6  C6  UNL     1       1.037  -0.937   0.313  1.00  0.00     0.299 C 
HETATM    7  O4  UNL     1       1.290  -1.675   1.183  1.00  0.00    -0.259 OA
BRANCH   6   8
HETATM    8  O5  UNL     1       2.059  -0.617  -0.601  1.00  0.00    -0.270 OA
BRANCH   8   9
HETATM    9  C7  UNL     1       3.314  -1.071  -0.628  1.00  0.00     0.143 A 
HETATM   10  C8  UNL     1       3.676  -2.115  -1.518  1.00  0.00     0.193 A 
HETATM   11  F1  UNL     1       2.673  -2.634  -2.296  1.00  0.00    -0.200 F 
HETATM   12  C9  UNL     1       4.947  -2.600  -1.587  1.00  0.00     0.197 A 
HETATM   13  F2  UNL     1       5.212  -3.596  -2.513  1.00  0.00    -0.199 F 
HETATM   14  C10 UNL     1       5.956  -2.118  -0.807  1.00  0.00     0.171 A 
HETATM   15  F3  UNL     1       7.211  -2.588  -0.877  1.00  0.00    -0.202 F 
HETATM   16  C11 UNL     1       5.645  -1.087   0.095  1.00  0.00     0.048 A 
HETATM   17  C13 UNL     1       4.355  -0.613   0.146  1.00  0.00     0.086 A 
HETATM   18 CL1  UNL     1       4.057   0.666   1.312  1.00  0.00    -0.080 Cl
BRANCH  16  19
HETATM   19  C12 UNL     1       6.729  -0.592   0.919  1.00  0.00     0.130 C 
HETATM   20  N1  UNL     1       7.898  -1.090   0.819  1.00  0.00    -0.280 N 
ATOM     21  H1  UNL     1       8.040  -1.843   0.145  1.00  0.00     0.193 HD
BRANCH  20  22
HETATM   22  O6  UNL     1       8.957  -0.687   1.545  1.00  0.00    -0.290 OA
ATOM     23  H6  UNL     1       9.828  -1.058   1.470  1.00  0.00     0.244 HD
ENDBRANCH  20  22
ENDBRANCH  16  19
ENDBRANCH   8   9
ENDBRANCH   6   8
ENDBRANCH   3   6
BRANCH   4  24
HETATM   24  O7  UNL     1      -0.878   1.215  -1.794  1.00  0.00    -0.345 OA
ATOM     25  H7  UNL     1      -1.602   1.721  -2.143  1.00  0.00     0.219 HD
ENDBRANCH   4  24
BRANCH   1  26
HETATM   26  C2  UNL     1      -3.494  -0.403   1.961  1.00  0.00     0.313 C 
HETATM   27  O3  UNL     1      -3.308  -1.039   3.023  1.00  0.00    -0.257 OA
BRANCH  26  28
HETATM   28  O2  UNL     1      -4.739   0.101   1.658  1.00  0.00    -0.247 OA
BRANCH  28  29
HETATM   29  C1  UNL     1      -5.803  -0.118   2.560  1.00  0.00     0.406 C 
HETATM   30  O1  UNL     1      -5.528  -0.775   3.601  1.00  0.00    -0.276 OA
ENDBRANCH  28  29
ENDBRANCH  26  28
ENDBRANCH   1  26
BRANCH   5  31
HETATM   31  C15 UNL     1      -3.462   1.366  -0.625  1.00  0.00     0.041 A 
HETATM   32  C16 UNL     1      -3.858   2.542   0.041  1.00  0.00     0.030 A 
HETATM   33  C17 UNL     1      -4.855   3.295  -0.538  1.00  0.00     0.002 A 
HETATM   34  C18 UNL     1      -5.466   2.956  -1.709  1.00  0.00     0.000 A 
HETATM   35  C19 UNL     1      -5.098   1.800  -2.394  1.00  0.00     0.002 A 
HETATM   36  C20 UNL     1      -4.075   1.031  -1.799  1.00  0.00     0.030 A 
ENDBRANCH   5  31
TORSDOF 10
