REMARK  3 active torsions:
REMARK  status: ('A' for Active; 'I' for Inactive)
REMARK    1  A    between atoms: C2_2  and  C8_19 
REMARK    2  A    between atoms: C3_3  and  C4_4 
REMARK    3  A    between atoms: C4_4  and  N1_5 
REMARK       I    between atoms: N1_5  and  C5_7 
REMARK       I    between atoms: N3_9  and  C6_11 
REMARK       I    between atoms: C6_11  and  N5_15 
ROOT
HETATM    1  N1  UNL     1       1.572   1.168   0.838  1.00  0.00    -0.361 N 
ATOM      2  H1  UNL     1       1.058   1.746   1.503  1.00  0.00     0.162 HD
HETATM    3  C5  UNL     1       2.959   0.921   1.012  1.00  0.00     0.203 C 
HETATM    4  N2  UNL     1       3.880   1.978   1.186  1.00  0.00    -0.063 NA
HETATM    5  N3  UNL     1       3.378  -0.312   1.009  1.00  0.00    -0.163 N 
ATOM      6  H3  UNL     1       2.719  -1.080   0.885  1.00  0.00     0.187 HD
HETATM    7  C6  UNL     1       4.764  -0.576   1.181  1.00  0.00     0.687 C 
HETATM    8  N4  UNL     1       5.453   0.103   2.031  1.00  0.00    -0.234 N 
ATOM      9  H41 UNL     1       6.448  -0.086   2.154  1.00  0.00     0.174 HD
ATOM     10  H42 UNL     1       4.996   0.832   2.579  1.00  0.00     0.174 HD
HETATM   11  N5  UNL     1       5.410  -1.605   0.407  1.00  0.00    -0.126 N 
ATOM     12  H5  UNL     1       5.184  -2.588   0.560  1.00  0.00     0.197 HD
HETATM   13  C7  UNL     1       6.351  -1.235  -0.557  1.00  0.00     0.196 C 
HETATM   14  N6  UNL     1       7.116  -0.928  -1.370  1.00  0.00    -0.171 NA
ENDROOT
BRANCH   1  15
HETATM   15  C4  UNL     1       0.905   0.582  -0.303  1.00  0.00     0.149 C 
BRANCH  15  16
HETATM   16  C3  UNL     1      -0.521   0.966  -0.286  1.00  0.00    -0.005 C 
HETATM   17  C2  UNL     1      -1.486   0.059  -0.222  1.00  0.00    -0.082 C 
HETATM   18  C1  UNL     1      -1.061  -1.361  -0.169  1.00  0.00     0.043 C 
BRANCH  17  19
HETATM   19  C8  UNL     1      -2.870   0.531  -0.210  1.00  0.00     0.014 C 
HETATM   20  C9  UNL     1      -3.572  -0.077  -1.418  1.00  0.00     0.009 C 
HETATM   21  C10 UNL     1      -4.935  -0.488  -0.979  1.00  0.00     0.001 C 
HETATM   22  C11 UNL     1      -5.000  -0.375   0.515  1.00  0.00     0.001 C 
HETATM   23  C12 UNL     1      -3.677   0.168   0.977  1.00  0.00     0.009 C 
ENDBRANCH  17  19
ENDBRANCH  15  16
ENDBRANCH   1  15
TORSDOF 3
