REMARK  5 active torsions:
REMARK  status: ('A' for Active; 'I' for Inactive)
REMARK    1  A    between atoms: C2_2  and  N1_3 
REMARK       I    between atoms: C3_5  and  N2_6 
REMARK       I    between atoms: C3_5  and  N3_9 
REMARK    2  A    between atoms: N3_9  and  C5_11 
REMARK    3  A    between atoms: C5_11  and  C6_12 
REMARK    4  A    between atoms: C6_12  and  N4_14 
REMARK    5  A    between atoms: N4_14  and  C7_16 
ROOT
HETATM    1  C5  UNL     1      -0.466   0.719   0.611  1.00  0.00     0.207 C 
ENDROOT
BRANCH   1   2
HETATM    2  N3  UNL     1      -1.633   1.595   0.756  1.00  0.00    -0.220 N 
HETATM    3  C3  UNL     1      -2.904   1.077   0.403  1.00  0.00     0.669 C 
HETATM    4  N1  UNL     1      -3.571   0.434   1.275  1.00  0.00    -0.227 N 
HETATM    5  N2  UNL     1      -3.411   1.272  -0.885  1.00  0.00    -0.231 N 
ATOM      6  H1  UNL     1      -3.138   0.330   2.193  1.00  0.00     0.177 HD
HETATM    7  C4  UNL     1      -2.717   0.704  -2.015  1.00  0.00     0.165 C 
ATOM      8  H2  UNL     1      -4.265   1.812  -1.025  1.00  0.00     0.177 HD
ATOM      9  H3  UNL     1      -1.533   2.550   1.101  1.00  0.00     0.178 HD
BRANCH   4  10
HETATM   10  C2  UNL     1      -4.858  -0.157   1.109  1.00  0.00     0.133 C 
HETATM   11  C1  UNL     1      -4.740  -1.340   0.191  1.00  0.00     0.027 C 
ENDBRANCH   4  10
ENDBRANCH   1   2
BRANCH   1  12
HETATM   12  C6  UNL     1       0.736   1.448   1.022  1.00  0.00     0.092 C 
HETATM   13  S1  UNL     1       0.646   3.037   1.363  1.00  0.00    -0.064 SA
BRANCH  12  14
HETATM   14  N4  UNL     1       1.976   0.795   1.125  1.00  0.00    -0.378 N 
ATOM     15  H4  UNL     1       2.783   1.345   1.419  1.00  0.00     0.160 HD
BRANCH  14  16
HETATM   16  C7  UNL     1       2.181  -0.613   0.839  1.00  0.00     0.082 C 
HETATM   17  C8  UNL     1       3.582  -0.967   1.263  1.00  0.00     0.025 C 
HETATM   18  C9  UNL     1       4.641  -0.465   0.336  1.00  0.00     0.002 C 
HETATM   19  C10 UNL     1       4.343  -0.638  -1.107  1.00  0.00     0.000 C 
HETATM   20  C11 UNL     1       3.121  -1.506  -1.305  1.00  0.00     0.002 C 
HETATM   21  C12 UNL     1       1.966  -0.792  -0.639  1.00  0.00     0.025 C 
ENDBRANCH  14  16
ENDBRANCH  12  14
ENDBRANCH   1  12
TORSDOF 5
