REMARK  11 active torsions:
REMARK  status: ('A' for Active; 'I' for Inactive)
REMARK    1  A    between atoms: C2_2  and  N1_3 
REMARK    2  A    between atoms: C2_2  and  C3_7 
REMARK    3  A    between atoms: C3_7  and  C4_8 
REMARK    4  A    between atoms: C4_8  and  O1_9 
REMARK    5  A    between atoms: O1_9  and  C5_10 
REMARK    6  A    between atoms: C5_10  and  C6_11 
REMARK    7  A    between atoms: C6_11  and  N2_12 
REMARK    8  A    between atoms: N2_12  and  C7_15 
REMARK    9  A    between atoms: C7_15  and  C8_16 
REMARK   10  A    between atoms: C11_22  and  N6_23 
REMARK   11  A    between atoms: C11_22  and  O2_27 
ROOT
HETATM    1  N2  UNL     1      -0.758   1.170   0.820  1.00  0.00    -0.073 N 
ATOM      2  H21 UNL     1      -1.308   1.966   0.498  1.00  0.00     0.277 HD
ATOM      3  H22 UNL     1      -0.855   1.301   1.827  1.00  0.00     0.277 HD
ENDROOT
BRANCH   1   4
HETATM    4  C6  UNL     1       0.602   1.290   0.416  1.00  0.00     0.258 C 
BRANCH   4   5
HETATM    5  C5  UNL     1       1.563   0.375   1.094  1.00  0.00     0.195 C 
BRANCH   5   6
HETATM    6  O1  UNL     1       2.848   0.574   0.644  1.00  0.00    -0.389 OA
BRANCH   6   7
HETATM    7  C4  UNL     1       3.063   0.363  -0.691  1.00  0.00     0.169 C 
BRANCH   7   8
HETATM    8  C3  UNL     1       4.535   0.605  -0.991  1.00  0.00     0.058 C 
BRANCH   8   9
HETATM    9  C2  UNL     1       5.444  -0.311  -0.214  1.00  0.00     0.181 C 
HETATM   10  C1  UNL     1       5.222  -1.764  -0.477  1.00  0.00     0.039 C 
BRANCH   9  11
HETATM   11  N1  UNL     1       6.804   0.026  -0.579  1.00  0.00    -0.075 N 
ATOM     12  H13 UNL     1       7.491  -0.564  -0.110  1.00  0.00     0.274 HD
ATOM     13  H12 UNL     1       7.026  -0.235  -1.540  1.00  0.00     0.274 HD
ATOM     14  H11 UNL     1       6.956   1.019  -0.399  1.00  0.00     0.274 HD
ENDBRANCH   9  11
ENDBRANCH   8   9
ENDBRANCH   7   8
ENDBRANCH   6   7
ENDBRANCH   5   6
ENDBRANCH   4   5
ENDBRANCH   1   4
BRANCH   1  15
HETATM   15  C7  UNL     1      -1.341  -0.053   0.407  1.00  0.00     0.243 C 
BRANCH  15  16
HETATM   16  C8  UNL     1      -2.771  -0.283   0.776  1.00  0.00     0.100 C 
HETATM   17  C9  UNL     1      -3.141  -1.694   0.221  1.00  0.00     0.132 C 
HETATM   18  N3  UNL     1      -4.276  -2.289   0.838  1.00  0.00    -0.123 NA
HETATM   19  C10 UNL     1      -3.702  -0.979  -0.996  1.00  0.00     0.182 C 
HETATM   20  N4  UNL     1      -5.293  -2.366  -0.079  1.00  0.00    -0.039 NA
HETATM   21  N5  UNL     1      -4.898  -1.725  -1.244  1.00  0.00    -0.118 NA
HETATM   22  C11 UNL     1      -3.852   0.231  -0.107  1.00  0.00     0.264 C 
BRANCH  22  23
HETATM   23  N6  UNL     1      -5.169   0.297   0.544  1.00  0.00    -0.043 N 
ATOM     24  H63 UNL     1      -5.424  -0.611   0.932  1.00  0.00     0.278 HD
ATOM     25  H62 UNL     1      -5.118   0.843   1.404  1.00  0.00     0.278 HD
ATOM     26  H61 UNL     1      -5.910   0.649  -0.062  1.00  0.00     0.278 HD
ENDBRANCH  22  23
BRANCH  22  27
HETATM   27  O2  UNL     1      -3.610   1.398  -0.736  1.00  0.00    -0.265 OA
HETATM   28  S1  UNL     1      -3.383   2.775   0.214  1.00  0.00     0.095 SA
ENDBRANCH  22  27
ENDBRANCH  15  16
ENDBRANCH   1  15
TORSDOF 11
