REMARK  9 active torsions:
REMARK  status: ('A' for Active; 'I' for Inactive)
REMARK       I    between atoms: N1_2  and  C3_4 
REMARK    1  A    between atoms: C3_4  and  C4_6 
REMARK    2  A    between atoms: C8_10  and  C9_11 
REMARK    3  A    between atoms: C8_10  and  C16_20 
REMARK    4  A    between atoms: C9_11  and  O2_12 
REMARK    5  A    between atoms: O2_12  and  C10_13 
REMARK       I    between atoms: C16_20  and  N2_22 
REMARK    6  A    between atoms: N2_22  and  S1_24 
REMARK    7  A    between atoms: S1_24  and  C17_27 
REMARK    8  A    between atoms: C17_27  and  C18_28 
REMARK    9  A    between atoms: C21_31  and  C22_32 
ROOT
HETATM    1  C16 UNL     1      -0.657  -0.586  -0.285  1.00  0.00     0.242 C 
HETATM    2  O3  UNL     1      -0.258  -1.704  -0.633  1.00  0.00    -0.272 OA
HETATM    3  N2  UNL     1       0.258   0.478  -0.094  1.00  0.00    -0.253 N 
ATOM      4  H2  UNL     1      -0.183   1.356   0.181  1.00  0.00     0.181 HD
ENDROOT
BRANCH   1   5
HETATM    5  C8  UNL     1      -2.108  -0.282  -0.051  1.00  0.00     0.076 C 
HETATM    6  C4  UNL     1      -3.095  -1.223  -0.452  1.00  0.00     0.098 C 
HETATM    7  C5  UNL     1      -2.930  -1.435  -1.968  1.00  0.00     0.015 C 
HETATM    8  C6  UNL     1      -2.105  -0.254  -2.427  1.00  0.00     0.002 C 
HETATM    9  C7  UNL     1      -2.363   0.736  -1.354  1.00  0.00     0.022 C 
BRANCH   6  10
HETATM   10  C3  UNL     1      -2.953  -2.592   0.146  1.00  0.00     0.224 C 
HETATM   11  N1  UNL     1      -3.730  -3.660  -0.319  1.00  0.00    -0.360 N 
HETATM   12  C1  UNL     1      -4.796  -3.584  -1.307  1.00  0.00     0.152 C 
HETATM   13  C2  UNL     1      -3.442  -5.024   0.183  1.00  0.00     0.152 C 
HETATM   14  O1  UNL     1      -2.130  -2.785   1.058  1.00  0.00    -0.273 OA
ENDBRANCH   6  10
BRANCH   5  15
HETATM   15  C9  UNL     1      -2.325   0.788   0.996  1.00  0.00     0.196 C 
BRANCH  15  16
HETATM   16  O2  UNL     1      -3.181   1.762   0.558  1.00  0.00    -0.350 OA
BRANCH  16  17
HETATM   17  C10 UNL     1      -3.626   2.933   1.032  1.00  0.00     0.068 A 
HETATM   18  C11 UNL     1      -3.294   3.456   2.252  1.00  0.00     0.038 A 
HETATM   19  C12 UNL     1      -3.776   4.702   2.681  1.00  0.00     0.026 A 
HETATM   20  C13 UNL     1      -4.609   5.432   1.867  1.00  0.00     0.034 A 
HETATM   21 CL1  UNL     1      -5.204   6.996   2.372  1.00  0.00    -0.084 Cl
HETATM   22  C14 UNL     1      -4.970   4.937   0.634  1.00  0.00     0.026 A 
HETATM   23  C15 UNL     1      -4.487   3.734   0.250  1.00  0.00     0.038 A 
ENDBRANCH  16  17
ENDBRANCH  15  16
ENDBRANCH   5  15
ENDBRANCH   1   5
BRANCH   3  24
HETATM   24  S1  UNL     1       1.906   0.572  -0.231  1.00  0.00     0.248 S 
HETATM   25  O4  UNL     1       2.242   1.049  -1.687  1.00  0.00    -0.204 OA
HETATM   26  O5  UNL     1       2.363   1.819   0.578  1.00  0.00    -0.204 OA
BRANCH  24  27
HETATM   27  C17 UNL     1       2.994  -0.695   0.159  1.00  0.00     0.133 C 
HETATM   28  C25 UNL     1       3.155  -1.841  -0.809  1.00  0.00     0.060 C 
HETATM   29  C26 UNL     1       3.983  -2.770   0.082  1.00  0.00     0.169 C 
HETATM   30  O6  UNL     1       3.681  -2.465   1.378  1.00  0.00    -0.389 OA
HETATM   31  C27 UNL     1       2.750  -1.436   1.426  1.00  0.00     0.200 C 
BRANCH  27  32
HETATM   32  C18 UNL     1       4.394  -0.064   0.124  1.00  0.00    -0.031 A 
HETATM   33  C19 UNL     1       4.856   0.436  -1.042  1.00  0.00     0.010 A 
HETATM   34  C20 UNL     1       6.058   1.129  -1.096  1.00  0.00     0.017 A 
HETATM   35  C21 UNL     1       6.768   1.291   0.071  1.00  0.00     0.047 A 
HETATM   36  C23 UNL     1       6.313   0.784   1.258  1.00  0.00     0.017 A 
HETATM   37  C24 UNL     1       5.115   0.098   1.280  1.00  0.00     0.010 A 
BRANCH  35  38
HETATM   38  C22 UNL     1       8.027   2.097   0.025  1.00  0.00     0.417 C 
HETATM   39  F1  UNL     1       9.148   1.363   0.232  1.00  0.00    -0.166 F 
HETATM   40  F2  UNL     1       7.847   3.091   1.004  1.00  0.00    -0.166 F 
HETATM   41  F3  UNL     1       8.130   2.758  -1.193  1.00  0.00    -0.166 F 
ENDBRANCH  35  38
ENDBRANCH  27  32
ENDBRANCH  24  27
ENDBRANCH   3  24
TORSDOF 9
