REMARK  2 active torsions:
REMARK  status: ('A' for Active; 'I' for Inactive)
REMARK    1  A    between atoms: N1_1  and  C1_5 
REMARK    2  A    between atoms: C4_8  and  N2_9 
ROOT
HETATM    1  N2  UNL     1       2.388  -0.916   0.818  1.00  0.00    -0.386 N 
ATOM      2  H2  UNL     1       2.491  -1.857   1.199  1.00  0.00     0.160 HD
HETATM    3  C5  UNL     1       3.238  -0.026   1.120  1.00  0.00     0.166 C 
HETATM    4  S1  UNL     1       4.393   1.080   1.245  1.00  0.00    -0.075 SA
ENDROOT
BRANCH   1   5
HETATM    5  C4  UNL     1       1.263  -0.620  -0.065  1.00  0.00     0.081 C 
HETATM    6  C3  UNL     1       0.917   0.824   0.105  1.00  0.00     0.027 C 
HETATM    7  C2  UNL     1      -0.363   1.257  -0.481  1.00  0.00     0.035 C 
HETATM    8  C1  UNL     1      -1.430   0.245  -0.633  1.00  0.00     0.183 C 
HETATM    9  C7  UNL     1      -1.050  -1.172  -0.477  1.00  0.00     0.035 C 
HETATM   10  C6  UNL     1       0.098  -1.447   0.424  1.00  0.00     0.027 C 
BRANCH   8  11
HETATM   11  N1  UNL     1      -2.567   0.499   0.255  1.00  0.00    -0.075 N 
ATOM     12  H13 UNL     1      -2.266   0.574   1.227  1.00  0.00     0.274 HD
ATOM     13  H12 UNL     1      -2.933   1.442   0.125  1.00  0.00     0.274 HD
ATOM     14  H11 UNL     1      -3.303  -0.199   0.150  1.00  0.00     0.274 HD
ENDBRANCH   8  11
ENDBRANCH   1   5
TORSDOF 2
