REMARK  7 active torsions:
REMARK  status: ('A' for Active; 'I' for Inactive)
REMARK    1  A    between atoms: C13_14  and  O2_15 
REMARK    2  A    between atoms: C15_18  and  O3_19 
REMARK    3  A    between atoms: C15_18  and  C16_21 
REMARK    4  A    between atoms: C16_21  and  O4_22 
REMARK    5  A    between atoms: C19_26  and  C20_27 
REMARK    6  A    between atoms: C20_27  and  C21_28 
REMARK    7  A    between atoms: C21_28  and  O5_29 
ROOT
HETATM    1  C1  UNL     1      -2.665  -1.530  -1.325  1.00  0.00     0.015 C 
HETATM    2  C2  UNL     1      -2.588  -0.507  -0.167  1.00  0.00    -0.043 C 
HETATM    3  C3  UNL     1      -3.739   0.392  -0.446  1.00  0.00     0.015 C 
HETATM    4  C4  UNL     1      -3.157  -1.267   1.041  1.00  0.00     0.009 C 
HETATM    5  C5  UNL     1      -2.234  -2.223   1.632  1.00  0.00     0.002 C 
HETATM    6  C6  UNL     1      -0.889  -2.294   0.886  1.00  0.00     0.010 C 
HETATM    7  C7  UNL     1      -0.264  -0.960   0.698  1.00  0.00    -0.031 C 
HETATM    8  C8  UNL     1      -0.258  -0.457   2.192  1.00  0.00     0.016 C 
HETATM    9  C9  UNL     1       1.126  -0.868   0.278  1.00  0.00     0.040 C 
HETATM   10  C10 UNL     1       1.872  -1.834  -0.552  1.00  0.00     0.014 A 
HETATM   11  C11 UNL     1       2.723  -1.423  -1.560  1.00  0.00    -0.021 A 
HETATM   12  C12 UNL     1       3.255  -2.559  -2.123  1.00  0.00     0.152 A 
HETATM   13  O1  UNL     1       2.780  -3.587  -1.514  1.00  0.00    -0.299 OA
HETATM   14  C13 UNL     1       1.944  -3.214  -0.557  1.00  0.00     0.190 A 
HETATM   15  C14 UNL     1       3.093  -0.002  -1.919  1.00  0.00     0.081 C 
HETATM   16  C15 UNL     1       2.786   0.712  -0.553  1.00  0.00     0.087 C 
HETATM   17  C17 UNL     1       1.336   0.478  -0.426  1.00  0.00     0.032 C 
HETATM   18  C18 UNL     1       0.584   1.618   0.137  1.00  0.00     0.013 C 
HETATM   19  C19 UNL     1      -0.888   1.343   0.439  1.00  0.00    -0.006 C 
HETATM   20  C22 UNL     1      -1.239   0.012  -0.045  1.00  0.00     0.006 C 
ENDROOT
BRANCH  16  21
HETATM   21  O3  UNL     1       3.594   0.002   0.334  1.00  0.00    -0.387 OA
ATOM     22  H3  UNL     1       3.408   0.434   1.160  1.00  0.00     0.210 HD
ENDBRANCH  16  21
BRANCH  16  23
HETATM   23  C16 UNL     1       3.312   2.078  -0.678  1.00  0.00     0.202 C 
BRANCH  23  24
HETATM   24  O4  UNL     1       3.371   2.801   0.514  1.00  0.00    -0.398 OA
ATOM     25  H4  UNL     1       3.711   3.684   0.433  1.00  0.00     0.209 HD
ENDBRANCH  23  24
ENDBRANCH  16  23
BRANCH  19  26
HETATM   26  C20 UNL     1      -1.597   2.554  -0.133  1.00  0.00     0.031 C 
BRANCH  26  27
HETATM   27  C21 UNL     1      -1.058   3.831   0.570  1.00  0.00     0.164 C 
BRANCH  27  28
HETATM   28  O5  UNL     1      -1.680   4.957   0.077  1.00  0.00    -0.401 OA
ATOM     29  H5  UNL     1      -1.351   5.738   0.507  1.00  0.00     0.209 HD
ENDBRANCH  27  28
ENDBRANCH  26  27
ENDBRANCH  19  26
BRANCH  14  30
HETATM   30  O2  UNL     1       1.333  -4.201   0.226  1.00  0.00    -0.340 OA
ATOM     31  H2  UNL     1       1.382  -5.150   0.223  1.00  0.00     0.220 HD
ENDBRANCH  14  30
TORSDOF 7
