REMARK  6 active torsions:
REMARK  status: ('A' for Active; 'I' for Inactive)
REMARK    1  A    between atoms: C2_2  and  C3_3 
REMARK    2  A    between atoms: C3_3  and  C4_4 
REMARK    3  A    between atoms: C4_4  and  C5_5 
REMARK    4  A    between atoms: C5_5  and  N1_6 
REMARK    5  A    between atoms: N1_6  and  C6_8 
REMARK    6  A    between atoms: C7_11  and  N3_12 
ROOT
HETATM    1  C6  UNL     1      -1.061  -0.195   0.249  1.00  0.00     0.148 A 
HETATM    2  N2  UNL     1      -1.051  -1.519   0.090  1.00  0.00    -0.175 N 
ATOM      3  H2  UNL     1      -0.178  -2.024   0.240  1.00  0.00     0.186 HD
HETATM    4  C7  UNL     1      -2.146  -2.214  -0.260  1.00  0.00     0.679 A 
HETATM    5  N4  UNL     1      -3.294  -1.558  -0.459  1.00  0.00    -0.168 N 
ATOM      6  H4  UNL     1      -4.122  -2.091  -0.725  1.00  0.00     0.186 HD
HETATM    7  C8  UNL     1      -3.401  -0.226  -0.323  1.00  0.00     0.195 A 
HETATM    8  O1  UNL     1      -4.374   0.645  -0.453  1.00  0.00    -0.278 OA
HETATM    9  C9  UNL     1      -3.927   1.858  -0.196  1.00  0.00     0.122 A 
HETATM   10  C10 UNL     1      -4.654   3.140  -0.216  1.00  0.00     0.098 C 
HETATM   11  N5  UNL     1      -2.602   1.762   0.114  1.00  0.00    -0.334 N 
ATOM     12  H5  UNL     1      -1.980   2.532   0.359  1.00  0.00     0.168 HD
HETATM   13  C11 UNL     1      -2.273   0.471   0.036  1.00  0.00     0.131 A 
ENDROOT
BRANCH   1  14
HETATM   14  N1  UNL     1      -0.015   0.505   0.589  1.00  0.00    -0.374 N 
ATOM     15  H1  UNL     1      -0.088   1.517   0.696  1.00  0.00     0.161 HD
BRANCH  14  16
HETATM   16  C5  UNL     1       1.247  -0.160   0.814  1.00  0.00     0.121 C 
BRANCH  16  17
HETATM   17  C4  UNL     1       1.945  -0.366  -0.519  1.00  0.00     0.020 C 
BRANCH  17  18
HETATM   18  C3  UNL     1       3.261  -1.068  -0.267  1.00  0.00     0.001 C 
BRANCH  18  19
HETATM   19  C2  UNL     1       4.142  -0.259   0.625  1.00  0.00    -0.004 C 
HETATM   20  C1  UNL     1       4.480   1.090   0.072  1.00  0.00     0.005 C 
ENDBRANCH  18  19
ENDBRANCH  17  18
ENDBRANCH  16  17
ENDBRANCH  14  16
ENDBRANCH   1  14
BRANCH   4  21
HETATM   21  N3  UNL     1      -2.100  -3.517  -0.408  1.00  0.00    -0.234 N 
ATOM     22  H32 UNL     1      -1.224  -4.017  -0.256  1.00  0.00     0.174 HD
ATOM     23  H31 UNL     1      -2.931  -4.045  -0.674  1.00  0.00     0.174 HD
ENDBRANCH   4  21
TORSDOF 6
