REMARK  3 active torsions:
REMARK  status: ('A' for Active; 'I' for Inactive)
REMARK    1  A    between atoms: C2_3  and  N2_4 
REMARK       I    between atoms: N3_6  and  C3_8 
REMARK    2  A    between atoms: C8_17  and  C9_18 
REMARK    3  A    between atoms: C12_21  and  C13_22 
ROOT
HETATM    1  N1  UNL     1      -0.759  -0.360  -1.569  1.00  0.00    -0.099 NA
HETATM    2  C1  UNL     1      -1.528  -0.336  -0.387  1.00  0.00     0.087 A 
HETATM    3  C2  UNL     1      -2.884  -0.606  -0.513  1.00  0.00     0.073 A 
HETATM    4  C4  UNL     1      -3.690  -0.497   0.631  1.00  0.00     0.035 A 
HETATM    5  C5  UNL     1      -3.164  -0.134   1.852  1.00  0.00     0.033 A 
HETATM    6  C6  UNL     1      -1.822   0.123   1.957  1.00  0.00     0.045 A 
HETATM    7  N4  UNL     1      -1.050   0.497   3.011  1.00  0.00    -0.364 N 
ATOM      8  H4  UNL     1      -1.389   0.647   3.961  1.00  0.00     0.165 HD
HETATM    9  C7  UNL     1       0.189   0.636   2.626  1.00  0.00     0.101 A 
HETATM   10  C8  UNL     1       0.249   0.331   1.260  1.00  0.00     0.004 A 
HETATM   11  C16 UNL     1      -0.998   0.017   0.824  1.00  0.00     0.029 A 
ENDROOT
BRANCH  10  12
HETATM   12  C9  UNL     1       1.501   0.220   0.510  1.00  0.00    -0.024 A 
HETATM   13  C10 UNL     1       1.881  -1.028   0.052  1.00  0.00     0.013 A 
HETATM   14  C11 UNL     1       3.103  -1.167  -0.580  1.00  0.00     0.017 A 
HETATM   15  C12 UNL     1       3.936  -0.083  -0.751  1.00  0.00     0.048 A 
HETATM   16  C14 UNL     1       3.563   1.158  -0.306  1.00  0.00     0.017 A 
HETATM   17  C15 UNL     1       2.321   1.271   0.329  1.00  0.00     0.013 A 
BRANCH  15  18
HETATM   18  C13 UNL     1       5.265  -0.312  -1.364  1.00  0.00     0.417 C 
HETATM   19  F2  UNL     1       6.235   0.286  -0.572  1.00  0.00    -0.166 F 
HETATM   20  F3  UNL     1       5.556  -1.689  -1.394  1.00  0.00    -0.166 F 
HETATM   21  F4  UNL     1       5.367   0.151  -2.643  1.00  0.00    -0.166 F 
ENDBRANCH  15  18
ENDBRANCH  10  12
BRANCH   3  22
HETATM   22  N2  UNL     1      -3.422  -0.997  -1.752  1.00  0.00    -0.294 N 
HETATM   23  N3  UNL     1      -4.440  -0.482  -2.237  1.00  0.00    -0.241 N 
HETATM   24  C3  UNL     1      -5.215   0.541  -1.685  1.00  0.00     0.417 C 
ATOM     25  H3  UNL     1      -4.746  -0.846  -3.140  1.00  0.00     0.192 HD
HETATM   26  O1  UNL     1      -4.806   1.700  -1.445  1.00  0.00    -0.232 OA
HETATM   27  F1  UNL     1      -6.543   0.339  -1.357  1.00  0.00    -0.141 F 
ATOM     28  H2  UNL     1      -2.954  -1.737  -2.275  1.00  0.00     0.187 HD
ENDBRANCH   3  22
TORSDOF 3
