REMARK  4 active torsions:
REMARK  status: ('A' for Active; 'I' for Inactive)
REMARK    1  A    between atoms: S1_2  and  N1_5 
REMARK    2  A    between atoms: N1_5  and  N2_7 
REMARK       I    between atoms: N2_7  and  C2_9 
REMARK    3  A    between atoms: C2_9  and  C3_11 
REMARK    4  A    between atoms: C5_17  and  O5_18 
ROOT
HETATM    1  N2  UNL     1      -0.472  -0.299  -1.041  1.00  0.00    -0.256 N 
ATOM      2  H2  UNL     1      -0.028  -1.153  -1.379  1.00  0.00     0.191 HD
HETATM    3  C2  UNL     1       0.238   0.546  -0.203  1.00  0.00     0.281 C 
HETATM    4  O3  UNL     1      -0.329   1.616   0.214  1.00  0.00    -0.265 OA
ENDROOT
BRANCH   3   5
HETATM    5  C3  UNL     1       1.620   0.341   0.275  1.00  0.00     0.130 A 
HETATM    6  S2  UNL     1       2.531   1.365   1.330  1.00  0.00    -0.019 SA
HETATM    7  C4  UNL     1       3.963   0.449   1.388  1.00  0.00     0.290 A 
HETATM    8  O4  UNL     1       5.045   0.698   2.029  1.00  0.00    -0.260 OA
HETATM    9  N3  UNL     1       3.692  -0.593   0.608  1.00  0.00    -0.297 N 
HETATM   10  C5  UNL     1       2.514  -0.662   0.039  1.00  0.00     0.166 A 
ATOM     11  H3  UNL     1       4.387  -1.324   0.456  1.00  0.00     0.171 HD
BRANCH  10  12
HETATM   12  O5  UNL     1       2.173  -1.765  -0.810  1.00  0.00    -0.345 OA
ATOM     13  H5  UNL     1       2.796  -2.463  -0.974  1.00  0.00     0.219 HD
ENDBRANCH  10  12
ENDBRANCH   3   5
BRANCH   1  14
HETATM   14  N1  UNL     1      -1.770  -0.013  -1.431  1.00  0.00    -0.225 N 
ATOM     15  H1  UNL     1      -1.992   0.345  -2.360  1.00  0.00     0.200 HD
BRANCH  14  16
HETATM   16  S1  UNL     1      -2.967  -0.296  -0.263  1.00  0.00     0.240 S 
HETATM   17  C1  UNL     1      -3.433   1.159   0.650  1.00  0.00     0.187 C 
HETATM   18  O1  UNL     1      -2.587  -1.380   0.712  1.00  0.00    -0.205 OA
HETATM   19  O2  UNL     1      -4.218  -0.788  -0.960  1.00  0.00    -0.205 OA
ENDBRANCH  14  16
ENDBRANCH   1  14
TORSDOF 4
