REMARK  13 active torsions:
REMARK  status: ('A' for Active; 'I' for Inactive)
REMARK    1  A    between atoms: C2_2  and  C4_4 
REMARK    2  A    between atoms: C4_4  and  C5_5 
REMARK    3  A    between atoms: C4_4  and  O2_8 
REMARK    4  A    between atoms: C5_5  and  O1_6 
REMARK    5  A    between atoms: O2_8  and  C6_9 
REMARK    6  A    between atoms: C9_12  and  C10_13 
REMARK    7  A    between atoms: C10_13  and  O3_14 
REMARK    8  A    between atoms: O3_14  and  C11_15 
REMARK    9  A    between atoms: C11_15  and  C12_16 
REMARK   10  A    between atoms: C11_15  and  C18_22 
REMARK   11  A    between atoms: C24_28  and  O4_29 
REMARK   12  A    between atoms: C25_31  and  O5_32 
REMARK   13  A    between atoms: C26_34  and  O6_35 
ROOT
HETATM    1  C6  UNL     1       2.583   0.562  -0.752  1.00  0.00     0.176 C 
HETATM    2  C7  UNL     1       1.220   0.073  -1.081  1.00  0.00     0.004 C 
HETATM    3  C8  UNL     1       0.058   0.024  -0.428  1.00  0.00    -0.019 C 
HETATM    4  C9  UNL     1      -0.199   0.488   0.917  1.00  0.00     0.063 C 
HETATM    5  C24 UNL     1       0.847   1.516   1.375  1.00  0.00     0.159 C 
HETATM    6  C25 UNL     1       1.281   2.431   0.279  1.00  0.00     0.179 C 
HETATM    7  C26 UNL     1       2.612   1.981  -0.306  1.00  0.00     0.182 C 
ENDROOT
BRANCH   4   8
HETATM    8  C10 UNL     1      -1.506   1.085   1.288  1.00  0.00     0.180 C 
BRANCH   8   9
HETATM    9  O3  UNL     1      -2.668   0.484   1.218  1.00  0.00    -0.376 OA
BRANCH   9  10
HETATM   10  C11 UNL     1      -3.292   0.135   0.081  1.00  0.00     0.187 C 
BRANCH  10  11
HETATM   11  C12 UNL     1      -3.534  -1.339  -0.040  1.00  0.00    -0.025 A 
HETATM   12  C13 UNL     1      -3.361  -2.058  -1.197  1.00  0.00     0.010 A 
HETATM   13  C14 UNL     1      -3.596  -3.421  -1.266  1.00  0.00     0.001 A 
HETATM   14  C15 UNL     1      -4.020  -4.106  -0.148  1.00  0.00     0.000 A 
HETATM   15  C16 UNL     1      -4.201  -3.408   1.020  1.00  0.00     0.001 A 
HETATM   16  C17 UNL     1      -3.959  -2.037   1.068  1.00  0.00     0.010 A 
ENDBRANCH  10  11
BRANCH  10  17
HETATM   17  C18 UNL     1      -4.610   0.854  -0.082  1.00  0.00    -0.025 A 
HETATM   18  C19 UNL     1      -4.906   1.365  -1.319  1.00  0.00     0.010 A 
HETATM   19  C20 UNL     1      -6.112   2.039  -1.527  1.00  0.00     0.001 A 
HETATM   20  C21 UNL     1      -6.987   2.179  -0.479  1.00  0.00     0.000 A 
HETATM   21  C22 UNL     1      -6.699   1.672   0.758  1.00  0.00     0.001 A 
HETATM   22  C23 UNL     1      -5.506   1.014   0.932  1.00  0.00     0.010 A 
ENDBRANCH  10  17
ENDBRANCH   9  10
ENDBRANCH   8   9
ENDBRANCH   4   8
BRANCH   5  23
HETATM   23  O4  UNL     1       0.403   2.263   2.457  1.00  0.00    -0.392 OA
ATOM     24  H4  UNL     1       1.050   2.899   2.740  1.00  0.00     0.210 HD
ENDBRANCH   5  23
BRANCH   6  25
HETATM   25  O5  UNL     1       0.347   2.620  -0.729  1.00  0.00    -0.390 OA
ATOM     26  H5  UNL     1       0.623   3.203  -1.427  1.00  0.00     0.210 HD
ENDBRANCH   6  25
BRANCH   1  27
HETATM   27  O2  UNL     1       3.208  -0.262   0.182  1.00  0.00    -0.372 OA
BRANCH  27  28
HETATM   28  C4  UNL     1       4.319  -0.936  -0.331  1.00  0.00     0.149 C 
BRANCH  28  29
HETATM   29  C2  UNL     1       5.553  -0.751   0.479  1.00  0.00     0.009 C 
HETATM   30  C1  UNL     1       6.682  -1.577  -0.040  1.00  0.00     0.012 C 
HETATM   31  C3  UNL     1       6.039   0.677   0.549  1.00  0.00     0.012 C 
ENDBRANCH  28  29
BRANCH  28  32
HETATM   32  C5  UNL     1       3.918  -2.417  -0.268  1.00  0.00     0.196 C 
BRANCH  32  33
HETATM   33  O1  UNL     1       4.881  -3.264  -0.757  1.00  0.00    -0.398 OA
ATOM     34  H1  UNL     1       4.633  -4.180  -0.718  1.00  0.00     0.209 HD
ENDBRANCH  32  33
ENDBRANCH  28  32
ENDBRANCH  27  28
ENDBRANCH   1  27
BRANCH   7  35
HETATM   35  O6  UNL     1       2.834   2.810  -1.424  1.00  0.00    -0.390 OA
ATOM     36  H6  UNL     1       2.853   3.716  -1.139  1.00  0.00     0.210 HD
ENDBRANCH   7  35
TORSDOF 13
