REMARK  9 active torsions:
REMARK  status: ('A' for Active; 'I' for Inactive)
REMARK    1  A    between atoms: C3_3  and  O1_4 
REMARK    2  A    between atoms: C3_3  and  C4_6 
REMARK    3  A    between atoms: C6_8  and  C7_9 
REMARK    4  A    between atoms: C7_9  and  N1_10 
REMARK    5  A    between atoms: C10_13  and  C11_14 
REMARK    6  A    between atoms: C11_14  and  N2_15 
REMARK    7  A    between atoms: N2_15  and  C13_17 
REMARK    8  A    between atoms: C13_17  and  C14_18 
REMARK    9  A    between atoms: C14_18  and  C15_19 
ROOT
HETATM    1  C1  UNL     1      -4.649   3.816   3.567  1.00  0.00     0.015 C 
HETATM    2  C2  UNL     1      -4.881   3.608   2.404  1.00  0.00    -0.081 C 
HETATM    3  C3  UNL     1      -5.156   3.380   0.983  1.00  0.00     0.224 C 
ENDROOT
BRANCH   3   4
HETATM    4  O1  UNL     1      -4.336   4.134   0.150  1.00  0.00    -0.379 OA
ATOM      5  H1  UNL     1      -4.514   3.986  -0.771  1.00  0.00     0.211 HD
ENDBRANCH   3   4
BRANCH   3   6
HETATM    6  C4  UNL     1      -4.988   1.944   0.601  1.00  0.00    -0.046 C 
HETATM    7  C5  UNL     1      -5.903   0.945   1.232  1.00  0.00     0.047 C 
HETATM    8  C6  UNL     1      -4.046   1.611  -0.245  1.00  0.00     0.009 C 
BRANCH   8   9
HETATM    9  C7  UNL     1      -3.822   0.215  -0.671  1.00  0.00     0.300 C 
BRANCH   9  10
HETATM   10  N1  UNL     1      -2.527  -0.318  -0.348  1.00  0.00     0.099 N 
HETATM   11  C8  UNL     1      -2.358  -0.548   1.054  1.00  0.00     0.274 C 
HETATM   12  C9  UNL     1      -1.175  -1.451   1.357  1.00  0.00     0.038 C 
HETATM   13  C10 UNL     1      -0.235  -1.327   0.159  1.00  0.00     0.040 C 
HETATM   14  C21 UNL     1      -0.886  -2.022  -1.032  1.00  0.00     0.123 C 
HETATM   15  N3  UNL     1      -0.775  -3.441  -0.951  1.00  0.00    -0.364 N 
HETATM   16  C24 UNL     1      -2.238  -1.437  -1.201  1.00  0.00     0.256 C 
HETATM   17  C22 UNL     1      -1.411  -4.259  -1.923  1.00  0.00     0.134 C 
ATOM     18  H3  UNL     1      -0.239  -3.869  -0.196  1.00  0.00     0.162 HD
HETATM   19  N4  UNL     1      -0.983  -5.366  -2.347  1.00  0.00    -0.380 N 
HETATM   20  S1  UNL     1      -2.957  -3.605  -2.552  1.00  0.00    -0.092 SA
ATOM     21  H42 UNL     1      -0.103  -5.738  -1.989  1.00  0.00     0.158 HD
ATOM     22  H41 UNL     1      -1.440  -5.953  -3.045  1.00  0.00     0.158 HD
HETATM   23  C23 UNL     1      -3.384  -2.449  -1.171  1.00  0.00     0.120 C 
BRANCH  13  24
HETATM   24  C11 UNL     1       1.088  -1.885   0.517  1.00  0.00     0.278 C 
BRANCH  24  25
HETATM   25  N2  UNL     1       2.097  -1.788  -0.548  1.00  0.00     0.084 N 
HETATM   26  C12 UNL     1       3.245  -2.531  -0.129  1.00  0.00     0.309 C 
BRANCH  25  27
HETATM   27  C13 UNL     1       2.298  -0.457  -0.972  1.00  0.00     0.272 C 
BRANCH  27  28
HETATM   28  C14 UNL     1       2.907   0.536  -0.066  1.00  0.00     0.034 C 
BRANCH  28  29
HETATM   29  C15 UNL     1       4.305   0.366   0.376  1.00  0.00    -0.013 C 
HETATM   30  C16 UNL     1       4.745   1.482   1.337  1.00  0.00     0.005 C 
HETATM   31  C17 UNL     1       4.637   2.832   0.727  1.00  0.00     0.000 C 
HETATM   32  C18 UNL     1       5.559   2.926  -0.487  1.00  0.00     0.000 C 
HETATM   33  C19 UNL     1       5.224   1.823  -1.442  1.00  0.00     0.000 C 
HETATM   34  C20 UNL     1       5.295   0.478  -0.797  1.00  0.00     0.005 C 
ENDBRANCH  28  29
ENDBRANCH  27  28
ENDBRANCH  25  27
ENDBRANCH  24  25
ENDBRANCH  13  24
ENDBRANCH   9  10
ENDBRANCH   8   9
ENDBRANCH   3   6
TORSDOF 9
