REMARK  10 active torsions:
REMARK  status: ('A' for Active; 'I' for Inactive)
REMARK    1  A    between atoms: C1_2  and  C2_3 
REMARK       I    between atoms: C1_2  and  N1_19 
REMARK    2  A    between atoms: C3_4  and  C4_5 
REMARK    3  A    between atoms: C4_5  and  O2_6 
REMARK    4  A    between atoms: C4_5  and  C5_8 
REMARK    5  A    between atoms: C4_5  and  C11_14 
REMARK    6  A    between atoms: N1_19  and  C16_21 
REMARK    7  A    between atoms: C16_21  and  C17_22 
REMARK    8  A    between atoms: C16_21  and  C18_25 
REMARK    9  A    between atoms: C17_22  and  O3_23 
REMARK   10  A    between atoms: C18_25  and  C19_26 
ROOT
HETATM    1  O1  UNL     1       1.951   0.886   2.051  1.00  0.00    -0.258 OA
HETATM    2  C1  UNL     1       1.563   0.040   1.234  1.00  0.00     0.296 C 
HETATM    3  N1  UNL     1       2.381  -1.052   0.901  1.00  0.00    -0.343 N 
ATOM      4  H1  UNL     1       2.050  -1.739   0.224  1.00  0.00     0.163 HD
ENDROOT
BRANCH   2   5
HETATM    5  C2  UNL     1       0.266   0.097   0.568  1.00  0.00    -0.002 C 
HETATM    6  C3  UNL     1      -0.826   0.105   0.031  1.00  0.00    -0.053 C 
BRANCH   6   7
HETATM    7  C4  UNL     1      -2.155   0.065  -0.589  1.00  0.00     0.152 C 
BRANCH   7   8
HETATM    8  O2  UNL     1      -1.861  -0.397  -1.944  1.00  0.00    -0.373 OA
ATOM      9  H2  UNL     1      -2.722  -0.423  -2.345  1.00  0.00     0.212 HD
ENDBRANCH   7   8
BRANCH   7  10
HETATM   10  C5  UNL     1      -2.885  -1.036   0.014  1.00  0.00    -0.011 A 
HETATM   11  C6  UNL     1      -3.797  -0.973   1.038  1.00  0.00     0.011 A 
HETATM   12  C7  UNL     1      -4.403  -2.111   1.513  1.00  0.00     0.001 A 
HETATM   13  C8  UNL     1      -4.152  -3.367   1.017  1.00  0.00     0.000 A 
HETATM   14  C9  UNL     1      -3.240  -3.462  -0.012  1.00  0.00     0.001 A 
HETATM   15  C10 UNL     1      -2.643  -2.321  -0.478  1.00  0.00     0.011 A 
ENDBRANCH   7  10
BRANCH   7  16
HETATM   16  C11 UNL     1      -2.741   1.376  -0.802  1.00  0.00     0.037 C 
HETATM   17  C12 UNL     1      -2.962   2.326   0.301  1.00  0.00     0.009 C 
HETATM   18  C13 UNL     1      -3.525   3.528  -0.518  1.00  0.00     0.001 C 
HETATM   19  C14 UNL     1      -4.410   2.832  -1.562  1.00  0.00     0.001 C 
HETATM   20  C15 UNL     1      -4.118   1.353  -1.457  1.00  0.00     0.009 C 
ENDBRANCH   7  16
ENDBRANCH   6   7
ENDBRANCH   2   5
BRANCH   3  21
HETATM   21  C16 UNL     1       3.679  -1.216   1.501  1.00  0.00     0.114 C 
BRANCH  21  22
HETATM   22  C17 UNL     1       3.611  -2.505   2.341  1.00  0.00     0.189 C 
BRANCH  22  23
HETATM   23  O3  UNL     1       2.603  -2.302   3.281  1.00  0.00    -0.399 OA
ATOM     24  H3  UNL     1       2.561  -3.097   3.799  1.00  0.00     0.209 HD
ENDBRANCH  22  23
ENDBRANCH  21  22
BRANCH  21  25
HETATM   25  C18 UNL     1       4.799  -1.343   0.519  1.00  0.00     0.084 C 
BRANCH  25  26
HETATM   26  C19 UNL     1       4.882  -0.126  -0.325  1.00  0.00     0.011 A 
HETATM   27  C20 UNL     1       4.193   0.034  -1.510  1.00  0.00     0.025 A 
HETATM   28  C21 UNL     1       4.315   1.175  -2.246  1.00  0.00     0.003 A 
HETATM   29  C22 UNL     1       5.151   2.195  -1.792  1.00  0.00     0.017 A 
HETATM   30  C23 UNL     1       5.838   2.016  -0.597  1.00  0.00     0.088 A 
HETATM   31  N2  UNL     1       5.676   0.888   0.070  1.00  0.00    -0.369 N 
ATOM     32  H2  UNL     1       6.188   0.777   0.945  1.00  0.00     0.165 HD
ENDBRANCH  25  26
ENDBRANCH  21  25
ENDBRANCH   3  21
TORSDOF 10
