REMARK  10 active torsions:
REMARK  status: ('A' for Active; 'I' for Inactive)
REMARK    1  A    between atoms: C2_2  and  C3_3 
REMARK    2  A    between atoms: C2_2  and  C13_13 
REMARK    3  A    between atoms: C4_4  and  C5_5 
REMARK    4  A    between atoms: C5_5  and  C6_6 
REMARK    5  A    between atoms: C6_6  and  C8_8 
REMARK    6  A    between atoms: C8_8  and  C9_9 
REMARK    7  A    between atoms: C9_9  and  C10_10 
REMARK    8  A    between atoms: C13_13  and  C14_14 
REMARK    9  A    between atoms: C14_14  and  C15_15 
REMARK   10  A    between atoms: C22_25  and  O4_26 
ROOT
HETATM    1  C15 UNL     1      -2.780  -0.600  -0.667  1.00  0.00     0.007 C 
HETATM    2  C16 UNL     1      -2.517  -1.775   0.183  1.00  0.00     0.286 C 
HETATM    3  O1  UNL     1      -2.181  -2.793  -0.524  1.00  0.00    -0.260 OA
HETATM    4  O2  UNL     1      -2.551  -2.010   1.511  1.00  0.00    -0.313 OA
HETATM    5  C17 UNL     1      -3.389  -1.429   2.461  1.00  0.00     0.130 C 
HETATM    6  C18 UNL     1      -4.730  -2.129   2.451  1.00  0.00     0.040 C 
HETATM    7  C19 UNL     1      -3.495   0.062   2.358  1.00  0.00     0.065 C 
HETATM    8  C20 UNL     1      -4.145   0.467   1.108  1.00  0.00     0.137 C 
HETATM    9  O3  UNL     1      -5.091  -0.356   0.581  1.00  0.00    -0.382 OA
HETATM   10  C21 UNL     1      -5.911   0.324  -0.311  1.00  0.00     0.200 C 
HETATM   11  C22 UNL     1      -5.147   1.020  -1.403  1.00  0.00     0.146 C 
HETATM   12  C23 UNL     1      -3.860   1.636  -0.916  1.00  0.00     0.027 C 
HETATM   13  C24 UNL     1      -3.139   2.278  -2.016  1.00  0.00     0.014 C 
HETATM   14  C25 UNL     1      -3.088   0.665  -0.026  1.00  0.00     0.017 C 
HETATM   15  C26 UNL     1      -1.989   1.432   0.633  1.00  0.00     0.023 C 
ENDROOT
BRANCH   1  16
HETATM   16  C14 UNL     1      -1.775  -0.631  -1.778  1.00  0.00     0.046 C 
BRANCH  16  17
HETATM   17  C13 UNL     1      -0.333  -0.578  -1.341  1.00  0.00     0.042 C 
BRANCH  17  18
HETATM   18  C2  UNL     1       0.617  -0.668  -2.477  1.00  0.00    -0.067 C 
HETATM   19  C1  UNL     1       0.122  -0.796  -3.723  1.00  0.00     0.019 C 
BRANCH  18  20
HETATM   20  C3  UNL     1       2.048  -0.625  -2.396  1.00  0.00     0.006 C 
HETATM   21  C4  UNL     1       2.860  -0.519  -1.413  1.00  0.00     0.001 C 
BRANCH  21  22
HETATM   22  C5  UNL     1       2.704  -0.400   0.004  1.00  0.00     0.006 C 
BRANCH  22  23
HETATM   23  C6  UNL     1       3.533  -0.291   0.979  1.00  0.00    -0.066 C 
HETATM   24  C7  UNL     1       2.857  -0.191   2.375  1.00  0.00     0.048 C 
BRANCH  23  25
HETATM   25  C8  UNL     1       4.963  -0.235   1.063  1.00  0.00    -0.020 C 
BRANCH  25  26
HETATM   26  C9  UNL     1       5.849  -0.297  -0.105  1.00  0.00     0.031 C 
BRANCH  26  27
HETATM   27  C10 UNL     1       7.305  -0.212   0.446  1.00  0.00    -0.019 C 
HETATM   28  C11 UNL     1       7.458   1.083   1.177  1.00  0.00     0.010 C 
HETATM   29  C12 UNL     1       8.202  -0.333  -0.752  1.00  0.00     0.010 C 
ENDBRANCH  26  27
ENDBRANCH  25  26
ENDBRANCH  23  25
ENDBRANCH  22  23
ENDBRANCH  21  22
ENDBRANCH  18  20
ENDBRANCH  17  18
ENDBRANCH  16  17
ENDBRANCH   1  16
BRANCH  11  30
HETATM   30  O4  UNL     1      -5.947   2.056  -1.885  1.00  0.00    -0.393 OA
ATOM     31  H4  UNL     1      -5.464   2.496  -2.575  1.00  0.00     0.210 HD
ENDBRANCH  11  30
TORSDOF 10
