REMARK  3 active torsions:
REMARK  status: ('A' for Active; 'I' for Inactive)
REMARK    1  A    between atoms: C2_2  and  O1_4 
REMARK    2  A    between atoms: C2_2  and  C4_6 
REMARK    3  A    between atoms: C14_16  and  O2_17 
ROOT
HETATM    1  C4  UNL     1      -2.737   0.689   1.109  1.00  0.00     0.022 C 
HETATM    2  C5  UNL     1      -2.012   1.664   0.252  1.00  0.00     0.011 C 
HETATM    3  C6  UNL     1      -1.316   0.813  -0.782  1.00  0.00     0.042 C 
HETATM    4  C7  UNL     1      -0.792  -0.324   0.085  1.00  0.00     0.097 C 
HETATM    5  C8  UNL     1      -0.491  -1.558  -0.687  1.00  0.00     0.041 C 
HETATM    6  C9  UNL     1       0.752  -1.511  -1.499  1.00  0.00     0.006 C 
HETATM    7  C10 UNL     1       2.013  -1.753  -0.696  1.00  0.00     0.041 C 
HETATM    8  C11 UNL     1       2.241  -0.673   0.330  1.00  0.00     0.096 C 
HETATM    9  C12 UNL     1       3.443  -1.064   1.151  1.00  0.00     0.044 C 
HETATM   10  C13 UNL     1       4.277   0.115   1.575  1.00  0.00     0.035 C 
HETATM   11  C14 UNL     1       4.770   0.941   0.425  1.00  0.00     0.118 C 
HETATM   12  C15 UNL     1       3.913   0.720  -0.802  1.00  0.00     0.035 C 
HETATM   13  C16 UNL     1       2.468   0.652  -0.309  1.00  0.00     0.044 C 
HETATM   14  O3  UNL     1       1.136  -0.694   1.191  1.00  0.00    -0.229 OA
HETATM   15  O4  UNL     1       0.250   0.170   0.823  1.00  0.00    -0.229 OA
HETATM   16  C17 UNL     1      -2.034  -0.609   0.940  1.00  0.00     0.049 C 
ENDROOT
BRANCH   1  17
HETATM   17  C2  UNL     1      -4.204   0.645   0.777  1.00  0.00     0.054 C 
HETATM   18  C1  UNL     1      -4.968  -0.324   1.616  1.00  0.00     0.045 C 
HETATM   19  C3  UNL     1      -4.474   0.357  -0.670  1.00  0.00     0.045 C 
BRANCH  17  20
HETATM   20  O1  UNL     1      -4.719   1.929   1.042  1.00  0.00    -0.390 OA
ATOM     21  H1  UNL     1      -4.233   2.546   0.508  1.00  0.00     0.210 HD
ENDBRANCH  17  20
ENDBRANCH   1  17
BRANCH  11  22
HETATM   22  O2  UNL     1       6.100   0.742   0.120  1.00  0.00    -0.396 OA
ATOM     23  H2  UNL     1       6.412   1.265  -0.609  1.00  0.00     0.210 HD
ENDBRANCH  11  22
TORSDOF 3
