REMARK  7 active torsions:
REMARK  status: ('A' for Active; 'I' for Inactive)
REMARK    1  A    between atoms: C6_8  and  C7_9 
REMARK    2  A    between atoms: C7_9  and  N2_10 
REMARK    3  A    between atoms: C7_9  and  C15_25 
REMARK       I    between atoms: N2_10  and  C8_12 
REMARK       I    between atoms: C8_12  and  N3_14 
REMARK    4  A    between atoms: N3_14  and  C9_16 
REMARK    5  A    between atoms: C12_19  and  N4_20 
REMARK       I    between atoms: C15_25  and  N5_27 
REMARK    6  A    between atoms: N5_27  and  N6_29 
REMARK    7  A    between atoms: C16_31  and  C17_32 
ROOT
HETATM    1  C7  UNL     1      -0.186  -0.628  -0.364  1.00  0.00     0.215 C 
ENDROOT
BRANCH   1   2
HETATM    2  C6  UNL     1      -0.678  -1.999  -0.510  1.00  0.00    -0.004 A 
HETATM    3  C2  UNL     1      -0.219  -2.849  -1.428  1.00  0.00     0.013 A 
HETATM    4  C1  UNL     1       0.838  -2.527  -2.374  1.00  0.00     0.068 C 
HETATM    5  N1  UNL     1      -0.747  -4.110  -1.533  1.00  0.00    -0.369 N 
HETATM    6  C3  UNL     1      -1.740  -4.479  -0.692  1.00  0.00     0.088 A 
ATOM      7  H1  UNL     1      -0.396  -4.761  -2.236  1.00  0.00     0.165 HD
HETATM    8  C4  UNL     1      -2.243  -3.633   0.272  1.00  0.00     0.018 A 
HETATM    9  C5  UNL     1      -1.709  -2.371   0.372  1.00  0.00     0.013 A 
ENDBRANCH   1   2
BRANCH   1  10
HETATM   10  N2  UNL     1       0.604  -0.552   0.844  1.00  0.00    -0.325 N 
HETATM   11  C8  UNL     1       1.908   0.087   0.804  1.00  0.00     0.321 C 
HETATM   12  O1  UNL     1       2.226   0.547  -0.324  1.00  0.00    -0.247 OA
HETATM   13  N3  UNL     1       2.708   0.162   1.940  1.00  0.00    -0.309 N 
ATOM     14  H3  UNL     1       2.351  -0.263   2.796  1.00  0.00     0.170 HD
ATOM     15  H2  UNL     1       0.249  -0.943   1.717  1.00  0.00     0.165 HD
BRANCH  13  16
HETATM   16  C9  UNL     1       3.981   0.783   2.001  1.00  0.00     0.036 A 
HETATM   17  C10 UNL     1       4.395   1.751   1.140  1.00  0.00     0.032 A 
HETATM   18  C11 UNL     1       5.665   2.314   1.192  1.00  0.00     0.038 A 
HETATM   19  C12 UNL     1       6.598   1.915   2.140  1.00  0.00     0.103 A 
HETATM   20  C13 UNL     1       6.184   0.939   3.012  1.00  0.00     0.038 A 
HETATM   21  C14 UNL     1       4.930   0.378   2.965  1.00  0.00     0.032 A 
BRANCH  19  22
HETATM   22  N4  UNL     1       7.883   2.486   2.177  1.00  0.00    -0.116 N 
HETATM   23  O2  UNL     1       8.698   2.076   3.051  1.00  0.00    -0.532 OA
HETATM   24  O3  UNL     1       8.285   3.464   1.314  1.00  0.00    -0.532 OA
ENDBRANCH  19  22
ENDBRANCH  13  16
ENDBRANCH   1  10
BRANCH   1  25
HETATM   25  C15 UNL     1      -1.420   0.229  -0.202  1.00  0.00     0.263 C 
HETATM   26  O4  UNL     1      -1.632   0.783   0.898  1.00  0.00    -0.269 OA
HETATM   27  N5  UNL     1      -2.300   0.387  -1.270  1.00  0.00    -0.268 N 
ATOM     28  H5  UNL     1      -2.047  -0.086  -2.137  1.00  0.00     0.190 HD
BRANCH  27  29
HETATM   29  N6  UNL     1      -3.482   1.114  -1.290  1.00  0.00    -0.308 N 
HETATM   30  C16 UNL     1      -4.592   0.395  -1.600  1.00  0.00     0.126 C 
ATOM     31  H6  UNL     1      -3.515   2.113  -1.087  1.00  0.00     0.186 HD
BRANCH  30  32
HETATM   32  C17 UNL     1      -5.866   1.119  -1.637  1.00  0.00     0.023 A 
HETATM   33  C18 UNL     1      -6.050   2.455  -1.364  1.00  0.00     0.022 A 
HETATM   34  C19 UNL     1      -7.288   2.937  -1.472  1.00  0.00     0.028 A 
HETATM   35  C20 UNL     1      -8.279   2.067  -1.844  1.00  0.00     0.052 A 
HETATM   36 BR1  UNL     1     -10.148   2.468  -2.082  1.00  0.00    -0.043 Br
HETATM   37  S1  UNL     1      -7.432   0.586  -2.032  1.00  0.00    -0.081 SA
ENDBRANCH  30  32
ENDBRANCH  27  29
ENDBRANCH   1  25
TORSDOF 7
