REMARK  10 active torsions:
REMARK  status: ('A' for Active; 'I' for Inactive)
REMARK    1  A    between atoms: C2_2  and  C3_3 
REMARK       I    between atoms: C3_3  and  N1_5 
REMARK    2  A    between atoms: N1_5  and  C4_7 
REMARK    3  A    between atoms: C6_9  and  N2_10 
REMARK    4  A    between atoms: N2_10  and  S1_12 
REMARK    5  A    between atoms: S1_12  and  C7_15 
REMARK    6  A    between atoms: C10_19  and  N3_20 
REMARK    7  A    between atoms: N3_20  and  C11_22 
REMARK    8  A    between atoms: C14_25  and  C15_26 
REMARK    9  A    between atoms: C16_27  and  C18_30 
REMARK   10  A    between atoms: C18_30  and  O5_32 
ROOT
HETATM    1  C15 UNL     1       5.763  -0.469   0.035  1.00  0.00     0.040 C 
HETATM    2  C16 UNL     1       6.599   0.194  -0.744  1.00  0.00     0.120 C 
HETATM    3  C17 UNL     1       6.173   1.105  -1.753  1.00  0.00     0.105 C 
HETATM    4  N4  UNL     1       5.842   1.848  -2.604  1.00  0.00    -0.191 NA
ENDROOT
BRANCH   2   5
HETATM    5  C18 UNL     1       8.059  -0.006  -0.581  1.00  0.00     0.303 C 
HETATM    6  O4  UNL     1       8.843   0.626  -1.322  1.00  0.00    -0.258 OA
BRANCH   5   7
HETATM    7  O5  UNL     1       8.585  -0.860   0.355  1.00  0.00    -0.322 OA
HETATM    8  C19 UNL     1       9.946  -1.105   0.571  1.00  0.00     0.213 C 
ENDBRANCH   5   7
ENDBRANCH   2   5
BRANCH   1   9
HETATM    9  C14 UNL     1       4.340  -0.292  -0.102  1.00  0.00    -0.035 A 
HETATM   10  C13 UNL     1       3.533  -1.405  -0.190  1.00  0.00     0.013 A 
HETATM   11  C12 UNL     1       2.157  -1.304  -0.294  1.00  0.00     0.030 A 
HETATM   12  C11 UNL     1       1.621  -0.031  -0.307  1.00  0.00     0.032 A 
HETATM   13  C21 UNL     1       2.390   1.108  -0.220  1.00  0.00     0.030 A 
HETATM   14  C20 UNL     1       3.776   0.948  -0.116  1.00  0.00     0.013 A 
BRANCH  12  15
HETATM   15  N3  UNL     1       0.196   0.124  -0.415  1.00  0.00    -0.355 N 
ATOM     16  H3  UNL     1      -0.243   0.063  -1.334  1.00  0.00     0.166 HD
BRANCH  15  17
HETATM   17  C10 UNL     1      -0.536   0.337   0.616  1.00  0.00     0.048 A 
HETATM   18  C9  UNL     1      -1.895   0.481   0.478  1.00  0.00     0.045 A 
HETATM   19  C6  UNL     1      -2.518   0.415  -0.759  1.00  0.00     0.059 A 
HETATM   20  C24 UNL     1      -2.654   0.696   1.634  1.00  0.00     0.049 A 
HETATM   21  C5  UNL     1      -3.879   0.562  -0.823  1.00  0.00     0.060 A 
HETATM   22  C4  UNL     1      -4.665   0.777   0.306  1.00  0.00     0.039 A 
HETATM   23  C25 UNL     1      -4.041   0.841   1.514  1.00  0.00     0.060 A 
HETATM   24  N5  UNL     1      -2.104   0.767   2.863  1.00  0.00    -0.365 N 
HETATM   25  C23 UNL     1      -0.778   0.625   2.980  1.00  0.00     0.090 A 
ATOM     26  H5  UNL     1      -2.686   0.925   3.686  1.00  0.00     0.165 HD
HETATM   27  C22 UNL     1       0.019   0.411   1.881  1.00  0.00     0.047 A 
BRANCH  19  28
HETATM   28  N2  UNL     1      -1.756   0.231  -1.957  1.00  0.00    -0.278 N 
ATOM     29  H2  UNL     1      -1.040   0.901  -2.238  1.00  0.00     0.179 HD
BRANCH  28  30
HETATM   30  S1  UNL     1      -2.098  -1.170  -2.906  1.00  0.00     0.289 S 
HETATM   31  O2  UNL     1      -1.296  -1.160  -4.185  1.00  0.00    -0.198 OA
HETATM   32  O3  UNL     1      -3.540  -1.189  -3.322  1.00  0.00    -0.198 OA
BRANCH  30  33
HETATM   33  C7  UNL     1      -1.800  -2.655  -2.031  1.00  0.00     0.221 C 
HETATM   34  C8  UNL     1      -2.751  -3.233  -1.309  1.00  0.00     0.071 C 
HETATM   35  F1  UNL     1      -0.584  -3.250  -2.074  1.00  0.00    -0.192 F 
ENDBRANCH  30  33
ENDBRANCH  28  30
ENDBRANCH  19  28
BRANCH  22  36
HETATM   36  N1  UNL     1      -6.050   0.888   0.088  1.00  0.00    -0.324 N 
HETATM   37  C3  UNL     1      -6.937   1.476   0.988  1.00  0.00     0.244 C 
HETATM   38  O1  UNL     1      -6.600   1.969   2.071  1.00  0.00    -0.268 OA
ATOM     39  H1  UNL     1      -6.429   0.515  -0.783  1.00  0.00     0.169 HD
BRANCH  37  40
HETATM   40  C2  UNL     1      -8.374   1.521   0.643  1.00  0.00     0.064 C 
HETATM   41  C1  UNL     1      -9.239   2.068   1.469  1.00  0.00     0.017 C 
ENDBRANCH  37  40
ENDBRANCH  22  36
ENDBRANCH  15  17
ENDBRANCH  12  15
ENDBRANCH   1   9
TORSDOF 10
