REMARK  10 active torsions:
REMARK  status: ('A' for Active; 'I' for Inactive)
REMARK    1  A    between atoms: O1_2  and  C2_3 
REMARK    2  A    between atoms: C2_3  and  C3_5 
REMARK    3  A    between atoms: C3_5  and  C15_26 
REMARK    4  A    between atoms: N1_6  and  N2_8 
REMARK    5  A    between atoms: N2_8  and  C4_10 
REMARK    6  A    between atoms: C6_12  and  O3_13 
REMARK    7  A    between atoms: C8_15  and  O4_16 
REMARK    8  A    between atoms: C10_18  and  O5_19 
REMARK    9  A    between atoms: O5_19  and  C11_20 
REMARK   10  A    between atoms: C11_20  and  C12_22 
ROOT
HETATM    1  C12 UNL     1       3.856  -3.781  -0.219  1.00  0.00     0.235 C 
HETATM    2  C13 UNL     1       3.674  -3.849  -1.665  1.00  0.00     0.069 C 
HETATM    3  N3  UNL     1       3.549  -3.909  -2.819  1.00  0.00    -0.197 NA
ENDROOT
BRANCH   1   4
HETATM    4  C11 UNL     1       3.358  -2.475   0.269  1.00  0.00     0.277 C 
HETATM    5  O6  UNL     1       3.401  -2.167   1.484  1.00  0.00    -0.264 OA
BRANCH   4   6
HETATM    6  O5  UNL     1       2.837  -1.574  -0.622  1.00  0.00    -0.275 OA
BRANCH   6   7
HETATM    7  C10 UNL     1       2.341  -0.323  -0.310  1.00  0.00     0.117 A 
HETATM    8  C8  UNL     1       3.155   0.770  -0.472  1.00  0.00     0.135 A 
HETATM    9  C6  UNL     1       2.709   2.054  -0.174  1.00  0.00     0.106 A 
HETATM   10  C5  UNL     1       1.420   2.231   0.294  1.00  0.00     0.070 A 
HETATM   11  C4  UNL     1       0.579   1.139   0.465  1.00  0.00     0.053 A 
HETATM   12  C14 UNL     1       1.049  -0.122   0.161  1.00  0.00     0.071 A 
BRANCH   8  13
HETATM   13  O4  UNL     1       4.442   0.578  -0.942  1.00  0.00    -0.351 OA
HETATM   14  C9  UNL     1       5.502   0.374  -0.032  1.00  0.00     0.210 C 
ENDBRANCH   8  13
BRANCH   9  15
HETATM   15  O3  UNL     1       3.599   3.102  -0.367  1.00  0.00    -0.353 OA
HETATM   16  C7  UNL     1       3.298   4.440  -0.113  1.00  0.00     0.210 C 
ENDBRANCH   9  15
BRANCH  11  17
HETATM   17  N2  UNL     1      -0.768   1.318   0.954  1.00  0.00    -0.300 N 
ATOM     18  H2  UNL     1      -1.111   2.252   1.178  1.00  0.00     0.187 HD
BRANCH  17  19
HETATM   19  N1  UNL     1      -1.568   0.249   1.113  1.00  0.00    -0.298 N 
HETATM   20  C3  UNL     1      -2.654  -0.148   0.646  1.00  0.00     0.108 C 
ATOM     21  H1  UNL     1      -1.187  -0.409   1.793  1.00  0.00     0.187 HD
BRANCH  20  22
HETATM   22  C2  UNL     1      -3.158  -1.451   1.154  1.00  0.00     0.307 C 
HETATM   23  O2  UNL     1      -2.466  -2.049   2.003  1.00  0.00    -0.258 OA
BRANCH  22  24
HETATM   24  O1  UNL     1      -4.335  -2.010   0.733  1.00  0.00    -0.322 OA
HETATM   25  C1  UNL     1      -4.802  -3.265   1.234  1.00  0.00     0.213 C 
ENDBRANCH  22  24
ENDBRANCH  20  22
BRANCH  20  26
HETATM   26  C15 UNL     1      -3.489   0.545  -0.361  1.00  0.00    -0.001 C 
HETATM   27  C16 UNL     1      -4.846   0.817   0.258  1.00  0.00     0.021 C 
HETATM   28  C17 UNL     1      -3.644  -0.403  -1.541  1.00  0.00     0.021 C 
HETATM   29  C18 UNL     1      -2.932   1.837  -0.862  1.00  0.00     0.021 C 
ENDBRANCH  20  26
ENDBRANCH  17  19
ENDBRANCH  11  17
ENDBRANCH   6   7
ENDBRANCH   4   6
ENDBRANCH   1   4
TORSDOF 10
