REMARK  16 active torsions:
REMARK  status: ('A' for Active; 'I' for Inactive)
REMARK    1  A    between atoms: O1_2  and  C2_3 
REMARK    2  A    between atoms: C4_5  and  C5_6 
REMARK    3  A    between atoms: C6_7  and  C7_8 
REMARK    4  A    between atoms: C7_8  and  O2_9 
REMARK    5  A    between atoms: C8_11  and  C9_12 
REMARK    6  A    between atoms: C10_13  and  C11_14 
REMARK    7  A    between atoms: C11_14  and  C12_15 
REMARK    8  A    between atoms: C12_15  and  C13_16 
REMARK    9  A    between atoms: C13_16  and  C14_17 
REMARK   10  A    between atoms: C16_19  and  C17_20 
REMARK   11  A    between atoms: C17_20  and  C18_21 
REMARK   12  A    between atoms: C18_21  and  C19_22 
REMARK   13  A    between atoms: C20_23  and  C21_24 
REMARK   14  A    between atoms: C21_24  and  C22_25 
REMARK   15  A    between atoms: C22_25  and  O3_28 
REMARK   16  A    between atoms: C27_32  and  O4_33 
ROOT
HETATM    1  C9  UNL     1       2.880   2.072  -0.488  1.00  0.00     0.003 C 
HETATM    2  C10 UNL     1       2.405   0.850  -1.053  1.00  0.00     0.000 C 
ENDROOT
BRANCH   1   3
HETATM    3  C8  UNL     1       3.912   2.542   0.076  1.00  0.00     0.036 C 
HETATM    4  C7  UNL     1       5.195   2.179   0.491  1.00  0.00     0.065 C 
BRANCH   4   5
HETATM    5  C6  UNL     1       6.025   1.043   0.487  1.00  0.00     0.037 C 
HETATM    6  C5  UNL     1       5.874  -0.158   0.061  1.00  0.00     0.014 C 
BRANCH   6   7
HETATM    7  C4  UNL     1       6.899  -1.236   0.154  1.00  0.00    -0.033 A 
HETATM    8  C3  UNL     1       8.114  -0.987   0.726  1.00  0.00     0.051 A 
HETATM    9  C2  UNL     1       9.118  -1.972   0.839  1.00  0.00     0.102 A 
HETATM   10  C27 UNL     1       8.807  -3.215   0.335  1.00  0.00     0.099 A 
HETATM   11  C26 UNL     1       7.587  -3.484  -0.245  1.00  0.00     0.040 A 
HETATM   12  C25 UNL     1       6.638  -2.501  -0.336  1.00  0.00     0.014 A 
BRANCH   9  13
HETATM   13  O1  UNL     1      10.349  -1.701   1.425  1.00  0.00    -0.353 OA
HETATM   14  C1  UNL     1      10.575  -0.394   1.913  1.00  0.00     0.210 C 
ENDBRANCH   9  13
BRANCH  10  15
HETATM   15  O4  UNL     1       9.755  -4.233   0.415  1.00  0.00    -0.358 OA
ATOM     16  H4  UNL     1       9.540  -5.091   0.067  1.00  0.00     0.217 HD
ENDBRANCH  10  15
ENDBRANCH   6   7
ENDBRANCH   4   5
BRANCH   4  17
HETATM   17  O2  UNL     1       5.853   3.242   1.083  1.00  0.00    -0.361 OA
ATOM     18  H2  UNL     1       5.293   4.009   1.086  1.00  0.00     0.217 HD
ENDBRANCH   4  17
ENDBRANCH   1   3
BRANCH   2  19
HETATM   19  C11 UNL     1       1.196   0.672  -1.602  1.00  0.00    -0.000 C 
BRANCH  19  20
HETATM   20  C12 UNL     1       0.163   1.672  -1.721  1.00  0.00    -0.004 C 
BRANCH  20  21
HETATM   21  C13 UNL     1      -1.005   1.412  -2.278  1.00  0.00    -0.022 C 
BRANCH  21  22
HETATM   22  C14 UNL     1      -2.032   2.438  -2.388  1.00  0.00     0.012 A 
HETATM   23  C15 UNL     1      -2.313   3.201  -1.099  1.00  0.00     0.014 A 
HETATM   24  C16 UNL     1      -3.367   2.324  -1.777  1.00  0.00    -0.006 A 
BRANCH  24  25
HETATM   25  C17 UNL     1      -3.800   1.095  -1.022  1.00  0.00     0.009 C 
BRANCH  25  26
HETATM   26  C18 UNL     1      -5.215   1.321  -0.536  1.00  0.00     0.027 C 
BRANCH  26  27
HETATM   27  C19 UNL     1      -5.750   0.171   0.224  1.00  0.00    -0.031 C 
HETATM   28  C20 UNL     1      -6.834  -0.449  -0.209  1.00  0.00    -0.028 C 
BRANCH  28  29
HETATM   29  C21 UNL     1      -7.353  -1.598   0.567  1.00  0.00     0.063 C 
BRANCH  29  30
HETATM   30  C22 UNL     1      -8.770  -1.254   1.006  1.00  0.00     0.053 C 
HETATM   31  C23 UNL     1      -9.609  -1.015  -0.228  1.00  0.00     0.045 C 
HETATM   32  C24 UNL     1      -9.334  -2.423   1.803  1.00  0.00     0.045 C 
BRANCH  30  33
HETATM   33  O3  UNL     1      -8.797  -0.102   1.763  1.00  0.00    -0.390 OA
ATOM     34  H3  UNL     1      -9.681   0.113   2.037  1.00  0.00     0.210 HD
ENDBRANCH  30  33
ENDBRANCH  29  30
ENDBRANCH  28  29
ENDBRANCH  26  27
ENDBRANCH  25  26
ENDBRANCH  24  25
ENDBRANCH  21  22
ENDBRANCH  20  21
ENDBRANCH  19  20
ENDBRANCH   2  19
TORSDOF 16
