REMARK  15 active torsions:
REMARK  status: ('A' for Active; 'I' for Inactive)
REMARK    1  A    between atoms: C2_2  and  O2_4 
REMARK    2  A    between atoms: O2_4  and  C3_5 
REMARK    3  A    between atoms: C3_5  and  C16_22 
REMARK    4  A    between atoms: C4_6  and  C5_7 
REMARK    5  A    between atoms: C5_7  and  C6_8 
REMARK    6  A    between atoms: C6_8  and  C7_9 
REMARK    7  A    between atoms: C11_13  and  C12_14 
REMARK    8  A    between atoms: C12_14  and  O3_15 
REMARK    9  A    between atoms: C13_17  and  C14_18 
REMARK   10  A    between atoms: C14_18  and  O4_19 
REMARK   11  A    between atoms: C16_22  and  C17_23 
REMARK   12  A    between atoms: C17_23  and  C18_24 
REMARK   13  A    between atoms: C19_25  and  C21_27 
REMARK   14  A    between atoms: C21_27  and  C22_28 
REMARK   15  A    between atoms: C22_28  and  C23_29 
ROOT
HETATM    1  C3  UNL     1      -0.147   0.594   1.358  1.00  0.00     0.053 C 
HETATM    2  C4  UNL     1      -0.877   0.070   2.302  1.00  0.00     0.006 C 
ENDROOT
BRANCH   1   3
HETATM    3  O2  UNL     1      -0.723   1.239   0.325  1.00  0.00    -0.284 OA
BRANCH   3   4
HETATM    4  C2  UNL     1      -0.222   1.986  -0.682  1.00  0.00     0.259 C 
HETATM    5  C1  UNL     1      -1.153   2.568  -1.716  1.00  0.00     0.126 C 
HETATM    6  O1  UNL     1       1.001   2.170  -0.724  1.00  0.00    -0.265 OA
ENDBRANCH   3   4
ENDBRANCH   1   3
BRANCH   1   7
HETATM    7  C16 UNL     1       1.343   0.418   1.524  1.00  0.00     0.068 C 
BRANCH   7   8
HETATM    8  C17 UNL     1       1.929  -0.571   0.563  1.00  0.00     0.034 C 
BRANCH   8   9
HETATM    9  C18 UNL     1       3.395  -0.640   0.822  1.00  0.00    -0.024 C 
HETATM   10  C19 UNL     1       4.344  -0.384  -0.032  1.00  0.00    -0.087 C 
HETATM   11  C20 UNL     1       4.054   0.026  -1.428  1.00  0.00     0.043 C 
BRANCH  10  12
HETATM   12  C21 UNL     1       5.765  -0.495   0.385  1.00  0.00     0.037 C 
BRANCH  12  13
HETATM   13  C22 UNL     1       6.430  -1.533  -0.483  1.00  0.00     0.031 C 
BRANCH  13  14
HETATM   14  C23 UNL     1       7.863  -1.666  -0.080  1.00  0.00    -0.024 C 
HETATM   15  C24 UNL     1       8.865  -1.435  -0.906  1.00  0.00    -0.091 C 
HETATM   16  C25 UNL     1      10.257  -1.587  -0.436  1.00  0.00     0.042 C 
HETATM   17  C26 UNL     1       8.595  -1.028  -2.294  1.00  0.00     0.042 C 
ENDBRANCH  13  14
ENDBRANCH  12  13
ENDBRANCH  10  12
ENDBRANCH   8   9
ENDBRANCH   7   8
ENDBRANCH   1   7
BRANCH   2  18
HETATM   18  C5  UNL     1      -2.335   0.102   2.376  1.00  0.00     0.030 C 
BRANCH  18  19
HETATM   19  C6  UNL     1      -3.040   0.772   1.279  1.00  0.00     0.013 C 
BRANCH  19  20
HETATM   20  C7  UNL     1      -4.565   0.764   1.465  1.00  0.00    -0.043 C 
HETATM   21  C8  UNL     1      -4.872   1.482   2.762  1.00  0.00     0.015 C 
HETATM   22  C9  UNL     1      -5.145  -0.603   1.543  1.00  0.00     0.010 C 
HETATM   23  C10 UNL     1      -4.891  -1.335   0.257  1.00  0.00     0.008 C 
HETATM   24  C11 UNL     1      -5.376  -0.623  -0.953  1.00  0.00     0.015 C 
HETATM   25  C13 UNL     1      -5.527   0.841  -0.888  1.00  0.00     0.016 C 
HETATM   26  C15 UNL     1      -5.171   1.557   0.351  1.00  0.00     0.016 C 
BRANCH  24  27
HETATM   27  C12 UNL     1      -4.576  -1.037  -2.204  1.00  0.00     0.169 C 
BRANCH  27  28
HETATM   28  O3  UNL     1      -4.768  -2.411  -2.338  1.00  0.00    -0.400 OA
ATOM     29  H3  UNL     1      -4.275  -2.666  -3.109  1.00  0.00     0.209 HD
ENDBRANCH  27  28
ENDBRANCH  24  27
BRANCH  25  30
HETATM   30  C14 UNL     1      -6.930   1.245  -1.389  1.00  0.00     0.169 C 
BRANCH  30  31
HETATM   31  O4  UNL     1      -7.908   0.640  -0.581  1.00  0.00    -0.400 OA
ATOM     32  H4  UNL     1      -8.771   0.889  -0.889  1.00  0.00     0.209 HD
ENDBRANCH  30  31
ENDBRANCH  25  30
ENDBRANCH  19  20
ENDBRANCH  18  19
ENDBRANCH   2  18
TORSDOF 15
