REMARK  10 active torsions:
REMARK  status: ('A' for Active; 'I' for Inactive)
REMARK    1  A    between atoms: O1_2  and  C2_3 
REMARK    2  A    between atoms: C5_6  and  C6_7 
REMARK    3  A    between atoms: C6_7  and  C7_8 
REMARK    4  A    between atoms: C7_8  and  S1_9 
REMARK    5  A    between atoms: S1_9  and  N1_12 
REMARK    6  A    between atoms: N1_12  and  C8_14 
REMARK    7  A    between atoms: C10_22  and  N5_23 
REMARK    8  A    between atoms: N5_23  and  S2_25 
REMARK    9  A    between atoms: S2_25  and  C11_28 
REMARK   10  A    between atoms: C17_35  and  O6_36 
ROOT
HETATM    1  C8  UNL     1       1.644   1.062  -1.077  1.00  0.00     0.175 A 
HETATM    2  N2  UNL     1       0.778   1.991  -1.511  1.00  0.00    -0.281 N 
ATOM      3  H2  UNL     1      -0.060   1.709  -2.019  1.00  0.00     0.188 HD
HETATM    4  N3  UNL     1       1.015   3.293  -1.277  1.00  0.00    -0.294 N 
ATOM      5  H3  UNL     1       0.340   3.978  -1.618  1.00  0.00     0.187 HD
HETATM    6  C9  UNL     1       2.083   3.731  -0.625  1.00  0.00     0.199 A 
HETATM    7  N4  UNL     1       2.958   2.787  -0.186  1.00  0.00    -0.334 N 
ATOM      8  H4  UNL     1       3.788   3.097   0.320  1.00  0.00     0.168 HD
HETATM    9  C10 UNL     1       2.791   1.471  -0.381  1.00  0.00     0.163 A 
ENDROOT
BRANCH   1  10
HETATM   10  N1  UNL     1       1.491  -0.180  -1.259  1.00  0.00    -0.262 N 
ATOM     11  H1  UNL     1       2.227  -0.772  -0.874  1.00  0.00     0.180 HD
BRANCH  10  12
HETATM   12  S1  UNL     1       0.237  -1.003  -2.051  1.00  0.00     0.254 S 
HETATM   13  O2  UNL     1      -0.014  -0.334  -3.389  1.00  0.00    -0.201 OA
HETATM   14  O3  UNL     1       0.725  -2.403  -2.424  1.00  0.00    -0.201 OA
BRANCH  12  15
HETATM   15  C7  UNL     1      -1.228  -1.122  -1.121  1.00  0.00     0.132 C 
BRANCH  15  16
HETATM   16  C6  UNL     1      -2.304  -0.441  -1.445  1.00  0.00     0.027 C 
BRANCH  16  17
HETATM   17  C5  UNL     1      -3.563  -0.483  -0.724  1.00  0.00    -0.002 A 
HETATM   18  C4  UNL     1      -3.763  -1.260   0.394  1.00  0.00     0.017 A 
HETATM   19  C3  UNL     1      -4.989  -1.270   1.055  1.00  0.00     0.038 A 
HETATM   20  C2  UNL     1      -6.046  -0.505   0.619  1.00  0.00     0.070 A 
HETATM   21  C19 UNL     1      -5.837   0.270  -0.503  1.00  0.00     0.074 A 
HETATM   22  C17 UNL     1      -4.634   0.294  -1.171  1.00  0.00     0.081 A 
BRANCH  20  23
HETATM   23  O1  UNL     1      -7.284  -0.507   1.276  1.00  0.00    -0.356 OA
HETATM   24  C1  UNL     1      -7.416  -1.331   2.418  1.00  0.00     0.210 C 
ENDBRANCH  20  23
BRANCH  22  25
HETATM   25  O6  UNL     1      -4.450   1.091  -2.307  1.00  0.00    -0.355 OA
HETATM   26  C18 UNL     1      -5.531   1.868  -2.748  1.00  0.00     0.210 C 
ENDBRANCH  22  25
ENDBRANCH  16  17
ENDBRANCH  15  16
ENDBRANCH  12  15
ENDBRANCH  10  12
ENDBRANCH   1  10
BRANCH   9  27
HETATM   27  N5  UNL     1       3.640   0.599   0.047  1.00  0.00    -0.263 N 
ATOM     28  H5  UNL     1       3.451  -0.386  -0.137  1.00  0.00     0.180 HD
BRANCH  27  29
HETATM   29  S2  UNL     1       5.058   0.999   0.901  1.00  0.00     0.264 S 
HETATM   30  O4  UNL     1       4.744   1.775   2.169  1.00  0.00    -0.200 OA
HETATM   31  O5  UNL     1       5.914   1.877   0.032  1.00  0.00    -0.200 OA
BRANCH  29  32
HETATM   32  C11 UNL     1       6.002  -0.419   1.305  1.00  0.00     0.080 A 
HETATM   33  C12 UNL     1       6.947  -0.845   0.405  1.00  0.00     0.028 A 
HETATM   34  C13 UNL     1       7.750  -1.951   0.618  1.00  0.00     0.044 A 
HETATM   35  C14 UNL     1       7.576  -2.643   1.797  1.00  0.00     0.116 A 
HETATM   36  F1  UNL     1       8.339  -3.746   2.067  1.00  0.00    -0.206 F 
HETATM   37  C15 UNL     1       6.618  -2.212   2.711  1.00  0.00     0.044 A 
HETATM   38  C16 UNL     1       5.827  -1.108   2.482  1.00  0.00     0.028 A 
ENDBRANCH  29  32
ENDBRANCH  27  29
ENDBRANCH   9  27
TORSDOF 10
