REMARK  0 active torsions:
REMARK  status: ('A' for Active; 'I' for Inactive)
ROOT
HETATM    1  C1  UNL     1      -0.174  -0.839  -1.501  1.00  0.00     0.148 C 
HETATM    2  N1  UNL     1      -0.064   0.188  -0.533  1.00  0.00    -0.365 N 
HETATM    3  C2  UNL     1      -1.276   0.413   0.179  1.00  0.00     0.111 C 
HETATM    4  C3  UNL     1      -1.673  -0.774   1.065  1.00  0.00     0.064 C 
HETATM    5  C4  UNL     1      -2.415   0.599  -0.816  1.00  0.00     0.064 C 
HETATM    6  N2  UNL     1      -1.183   1.553   1.071  1.00  0.00    -0.294 N 
ATOM      7  H2  UNL     1      -1.926   2.248   1.144  1.00  0.00     0.184 HD
HETATM    8  N3  UNL     1      -0.115   1.630   1.756  1.00  0.00    -0.247 N 
ATOM      9  H3  UNL     1       0.044   2.395   2.412  1.00  0.00     0.207 HD
HETATM   10  N4  UNL     1       0.831   0.619   1.570  1.00  0.00    -0.294 N 
ATOM     11  H4  UNL     1       1.288   0.166   2.362  1.00  0.00     0.184 HD
HETATM   12  C5  UNL     1       1.134   0.242   0.210  1.00  0.00     0.111 C 
HETATM   13  C6  UNL     1       2.112   1.302  -0.318  1.00  0.00     0.064 C 
HETATM   14  C7  UNL     1       1.936  -1.053   0.189  1.00  0.00     0.064 C 
ENDROOT
TORSDOF 0
