REMARK  3 active torsions:
REMARK  status: ('A' for Active; 'I' for Inactive)
REMARK    1  A    between atoms: C2_2  and  C3_3 
REMARK    2  A    between atoms: C3_3  and  C4_4 
REMARK    3  A    between atoms: C4_4  and  N1_5 
ROOT
HETATM    1  N1  UNL     1      -0.096   0.051  -0.290  1.00  0.00    -0.217 NA
HETATM    2  C5  UNL     1       0.289  -1.188   0.289  1.00  0.00     0.148 C 
HETATM    3  C6  UNL     1       1.775  -1.260   0.368  1.00  0.00     0.171 C 
HETATM    4  N2  UNL     1       2.260  -1.067  -1.005  1.00  0.00    -0.128 NA
HETATM    5  N3  UNL     1       1.987   0.221  -1.354  1.00  0.00    -0.132 NA
HETATM    6  C7  UNL     1       3.202   1.012  -1.159  1.00  0.00     0.146 C 
HETATM    7  C8  UNL     1       3.802   0.806   0.207  1.00  0.00     0.093 C 
HETATM    8  S1  UNL     1       2.448   0.186   1.280  1.00  0.00    -0.144 SA
HETATM    9  N4  UNL     1       0.858   0.785  -0.913  1.00  0.00    -0.266 N 
ATOM     10  H4  UNL     1       0.712   1.785  -1.048  1.00  0.00     0.197 HD
ENDROOT
BRANCH   1  11
HETATM   11  C4  UNL     1      -0.831   0.936   0.598  1.00  0.00     0.114 C 
BRANCH  11  12
HETATM   12  C3  UNL     1      -2.195   0.449   0.958  1.00  0.00     0.016 C 
BRANCH  12  13
HETATM   13  C2  UNL     1      -3.098   0.246  -0.220  1.00  0.00    -0.003 C 
HETATM   14  C1  UNL     1      -4.438  -0.231   0.267  1.00  0.00     0.005 C 
ENDBRANCH  12  13
ENDBRANCH  11  12
ENDBRANCH   1  11
TORSDOF 3
