REMARK  5 active torsions:
REMARK  status: ('A' for Active; 'I' for Inactive)
REMARK    1  A    between atoms: C2_2  and  O1_3 
REMARK    2  A    between atoms: C5_8  and  O2_9 
REMARK    3  A    between atoms: O2_9  and  C6_10 
REMARK    4  A    between atoms: C6_10  and  C7_11 
REMARK    5  A    between atoms: C7_11  and  N1_12 
ROOT
HETATM    1  C1  UNL     1       2.780   2.228  -1.166  1.00  0.00     0.055 C 
HETATM    2  C2  UNL     1       3.292   0.916  -0.703  1.00  0.00     0.119 C 
HETATM    3  C3  UNL     1       2.381  -0.078  -0.215  1.00  0.00     0.012 A 
HETATM    4  C4  UNL     1       1.119  -0.233  -0.573  1.00  0.00     0.055 A 
HETATM    5 BR1  UNL     1       0.364   1.002  -1.827  1.00  0.00    -0.047 Br
HETATM    6  C5  UNL     1       0.248  -1.230  -0.032  1.00  0.00     0.095 A 
HETATM    7  C12 UNL     1       0.774  -2.051   0.924  1.00  0.00     0.069 A 
HETATM    8  C13 UNL     1       2.103  -1.939   1.365  1.00  0.00     0.046 A 
HETATM    9  N2  UNL     1       2.885  -2.573   2.271  1.00  0.00    -0.365 N 
ATOM     10  H2  UNL     1       2.601  -3.349   2.869  1.00  0.00     0.165 HD
HETATM   11  C14 UNL     1       4.124  -1.990   2.244  1.00  0.00     0.096 A 
HETATM   12  C15 UNL     1       4.132  -0.981   1.314  1.00  0.00    -0.026 A 
HETATM   13  C16 UNL     1       2.875  -0.970   0.794  1.00  0.00     0.009 A 
HETATM   14  C17 UNL     1       5.114  -0.006   0.794  1.00  0.00     0.086 C 
HETATM   15  C18 UNL     1       4.425   1.202   0.247  1.00  0.00     0.152 C 
HETATM   16 CL1  UNL     1       5.646   2.280  -0.474  1.00  0.00    -0.098 Cl
HETATM   17 CL2  UNL     1       3.709   2.074   1.651  1.00  0.00    -0.098 Cl
ENDROOT
BRANCH   6  18
HETATM   18  O2  UNL     1      -0.942  -1.178  -0.593  1.00  0.00    -0.320 OA
BRANCH  18  19
HETATM   19  C6  UNL     1      -2.084  -1.134  -1.125  1.00  0.00     0.154 C 
BRANCH  19  20
HETATM   20  C7  UNL     1      -3.387  -1.022  -0.423  1.00  0.00     0.084 C 
BRANCH  20  21
HETATM   21  N1  UNL     1      -3.694   0.029   0.433  1.00  0.00    -0.291 NA
HETATM   22  C8  UNL     1      -5.087  -0.164   0.869  1.00  0.00     0.095 C 
HETATM   23  C9  UNL     1      -5.915   0.742   0.014  1.00  0.00     0.016 C 
HETATM   24  C10 UNL     1      -4.917   1.625  -0.708  1.00  0.00     0.016 C 
HETATM   25  C11 UNL     1      -3.622   1.366   0.031  1.00  0.00     0.095 C 
ENDBRANCH  20  21
ENDBRANCH  19  20
ENDBRANCH  18  19
ENDBRANCH   6  18
BRANCH   2  26
HETATM   26  O1  UNL     1       3.880   0.351  -1.874  1.00  0.00    -0.382 OA
ATOM     27  H1  UNL     1       4.208  -0.490  -1.577  1.00  0.00     0.211 HD
ENDBRANCH   2  26
TORSDOF 5
