REMARK  5 active torsions:
REMARK  status: ('A' for Active; 'I' for Inactive)
REMARK    1  A    between atoms: C1_1  and  C9_21 
REMARK    2  A    between atoms: N1_2  and  N2_4 
REMARK    3  A    between atoms: N2_4  and  C2_6 
REMARK    4  A    between atoms: C2_6  and  C3_7 
REMARK    5  A    between atoms: N5_12  and  C4_13 
ROOT
HETATM    1  N2  UNL     1       1.102  -2.090  -1.129  1.00  0.00    -0.330 N 
ATOM      2  H2  UNL     1       0.668  -2.908  -1.557  1.00  0.00     0.180 HD
ENDROOT
BRANCH   1   3
HETATM    3  N1  UNL     1       0.749  -1.771   0.152  1.00  0.00    -0.315 N 
HETATM    4  C1  UNL     1      -0.297  -1.295   0.657  1.00  0.00     0.113 C 
ATOM      5  H1  UNL     1       1.483  -1.957   0.835  1.00  0.00     0.185 HD
BRANCH   4   6
HETATM    6  C9  UNL     1      -1.534  -0.905   0.035  1.00  0.00    -0.043 C 
HETATM    7  C10 UNL     1      -2.545  -0.407   0.788  1.00  0.00     0.017 C 
HETATM    8  C11 UNL     1      -3.756  -0.043   0.056  1.00  0.00     0.251 C 
HETATM    9  C12 UNL     1      -3.367   0.986  -0.994  1.00  0.00     0.023 C 
HETATM   10  N7  UNL     1      -4.752   0.611   0.875  1.00  0.00     0.101 N 
HETATM   11  C13 UNL     1      -2.405   0.352  -1.939  1.00  0.00     0.011 C 
HETATM   12  C15 UNL     1      -4.520   1.672  -1.621  1.00  0.00     0.009 C 
HETATM   13  C14 UNL     1      -1.862  -0.985  -1.405  1.00  0.00     0.040 C 
HETATM   14  C16 UNL     1      -5.869   1.230  -1.217  1.00  0.00     0.036 C 
HETATM   15  C17 UNL     1      -5.984   0.522   0.073  1.00  0.00     0.224 C 
HETATM   16  C18 UNL     1      -6.994   1.045   1.033  1.00  0.00     0.037 C 
HETATM   17  C19 UNL     1      -6.587   0.300   2.313  1.00  0.00     0.032 C 
HETATM   18  C20 UNL     1      -5.132  -0.104   2.045  1.00  0.00     0.274 C 
ENDBRANCH   4   6
ENDBRANCH   1   3
BRANCH   1  19
HETATM   19  C2  UNL     1       2.065  -1.329  -1.923  1.00  0.00     0.218 C 
BRANCH  19  20
HETATM   20  C3  UNL     1       3.403  -1.295  -1.278  1.00  0.00     0.132 A 
HETATM   21  N3  UNL     1       4.361  -2.228  -1.512  1.00  0.00    -0.271 N 
HETATM   22  N4  UNL     1       5.390  -1.892  -0.790  1.00  0.00    -0.224 N 
ATOM     23  H3  UNL     1       4.288  -3.034  -2.132  1.00  0.00     0.190 HD
HETATM   24  N5  UNL     1       5.152  -0.786  -0.095  1.00  0.00    -0.213 N 
ATOM     25  H4  UNL     1       6.267  -2.412  -0.762  1.00  0.00     0.210 HD
HETATM   26  N6  UNL     1       3.920  -0.424  -0.403  1.00  0.00    -0.268 N 
ATOM     27  H6  UNL     1       3.437   0.394  -0.031  1.00  0.00     0.190 HD
BRANCH  24  28
HETATM   28  C4  UNL     1       6.046  -0.097   0.821  1.00  0.00     0.132 C 
HETATM   29  C5  UNL     1       7.223  -0.976   1.173  1.00  0.00     0.055 C 
HETATM   30  C6  UNL     1       8.393  -0.047   1.484  1.00  0.00     0.169 C 
HETATM   31  O1  UNL     1       7.954   1.124   2.086  1.00  0.00    -0.391 OA
HETATM   32  C7  UNL     1       7.298   1.971   1.194  1.00  0.00     0.169 C 
HETATM   33  C8  UNL     1       6.593   1.137   0.133  1.00  0.00     0.055 C 
ENDBRANCH  24  28
ENDBRANCH  19  20
ENDBRANCH   1  19
TORSDOF 5
