REMARK  8 active torsions:
REMARK  status: ('A' for Active; 'I' for Inactive)
REMARK    1  A    between atoms: C2_2  and  S1_3 
REMARK    2  A    between atoms: S1_3  and  C3_4 
REMARK    3  A    between atoms: C3_4  and  N1_5 
REMARK    4  A    between atoms: C3_4  and  S2_19 
REMARK    5  A    between atoms: N1_5  and  C4_7 
REMARK    6  A    between atoms: C7_10  and  C8_11 
REMARK    7  A    between atoms: C8_11  and  O1_14 
REMARK    8  A    between atoms: S2_19  and  C13_20 
ROOT
HETATM    1  C4  UNL     1       0.615   0.547  -1.362  1.00  0.00     0.111 C 
HETATM    2  C5  UNL     1       1.356   1.488  -0.477  1.00  0.00     0.030 C 
HETATM    3  C6  UNL     1       2.635   0.846   0.080  1.00  0.00     0.037 C 
HETATM    4  C7  UNL     1       2.291  -0.601   0.282  1.00  0.00     0.155 C 
HETATM    5  O2  UNL     1       2.239  -1.206  -0.956  1.00  0.00    -0.376 OA
HETATM    6  C11 UNL     1       1.405  -0.618  -1.861  1.00  0.00     0.140 C 
HETATM    7  C12 UNL     1       2.164  -0.243  -3.115  1.00  0.00     0.041 C 
ENDROOT
BRANCH   1   8
HETATM    8  N1  UNL     1      -0.659   0.101  -0.814  1.00  0.00    -0.372 N 
ATOM      9  H1  UNL     1      -0.793  -0.895  -0.637  1.00  0.00     0.161 HD
BRANCH   8  10
HETATM   10  C3  UNL     1      -1.720   0.991  -0.516  1.00  0.00     0.104 C 
BRANCH  10  11
HETATM   11  S1  UNL     1      -1.516   2.582  -0.803  1.00  0.00    -0.106 SA
BRANCH  11  12
HETATM   12  C2  UNL     1      -2.829   3.804  -0.449  1.00  0.00     0.077 C 
HETATM   13  C1  UNL     1      -2.592   4.364   0.946  1.00  0.00     0.016 C 
ENDBRANCH  11  12
ENDBRANCH  10  11
BRANCH  10  14
HETATM   14  S2  UNL     1      -3.252   0.445   0.145  1.00  0.00    -0.097 SA
BRANCH  14  15
HETATM   15  C13 UNL     1      -3.361  -1.345   0.379  1.00  0.00     0.004 C 
HETATM   16  C14 UNL     1      -2.413  -1.847   1.420  1.00  0.00     0.026 C 
HETATM   17  C15 UNL     1      -4.784  -1.652   0.866  1.00  0.00     0.026 C 
HETATM   18  C16 UNL     1      -3.154  -2.102  -0.897  1.00  0.00     0.026 C 
ENDBRANCH  14  15
ENDBRANCH  10  14
ENDBRANCH   8  10
ENDBRANCH   1   8
BRANCH   4  19
HETATM   19  C8  UNL     1       3.261  -1.337   1.151  1.00  0.00     0.076 C 
HETATM   20  C9  UNL     1       3.369  -0.801   2.544  1.00  0.00     0.048 C 
HETATM   21  C10 UNL     1       4.618  -1.437   0.482  1.00  0.00     0.048 C 
BRANCH  19  22
HETATM   22  O1  UNL     1       2.785  -2.663   1.256  1.00  0.00    -0.388 OA
ATOM     23  H1  UNL     1       3.401  -3.130   1.808  1.00  0.00     0.210 HD
ENDBRANCH  19  22
ENDBRANCH   4  19
TORSDOF 8
