REMARK  14 active torsions:
REMARK  status: ('A' for Active; 'I' for Inactive)
REMARK    1  A    between atoms: C2_2  and  O2_4 
REMARK    2  A    between atoms: O2_4  and  C3_5 
REMARK    3  A    between atoms: C4_6  and  N1_7 
REMARK    4  A    between atoms: N1_7  and  N2_9 
REMARK    5  A    between atoms: N2_9  and  N3_10 
REMARK    6  A    between atoms: C5_13  and  N4_14 
REMARK    7  A    between atoms: C6_18  and  O3_19 
REMARK    8  A    between atoms: C6_18  and  N5_21 
REMARK    9  A    between atoms: C7_25  and  O6_26 
REMARK   10  A    between atoms: C7_25  and  O7_28 
REMARK   11  A    between atoms: O7_28  and  C8_29 
REMARK   12  A    between atoms: C11_33  and  O9_34 
REMARK   13  A    between atoms: C12_36  and  O10_37 
REMARK   14  A    between atoms: C13_39  and  O11_40 
ROOT
HETATM    1  C3  UNL     1      -1.982   0.516  -0.019  1.00  0.00     0.233 C 
HETATM    2  C4  UNL     1      -3.232  -0.250   0.149  1.00  0.00     0.186 C 
HETATM    3  C5  UNL     1      -3.089  -1.718   0.334  1.00  0.00     0.283 C 
HETATM    4  C6  UNL     1      -2.383  -2.426  -0.769  1.00  0.00     0.280 C 
HETATM    5  S1  UNL     1      -0.711  -1.699  -0.900  1.00  0.00    -0.031 SA
HETATM    6  C7  UNL     1      -0.715  -0.239   0.183  1.00  0.00     0.251 C 
ENDROOT
BRANCH   6   7
HETATM    7  O6  UNL     1      -0.503  -0.641   1.484  1.00  0.00    -0.355 OA
ATOM      8  H6  UNL     1       0.306  -1.123   1.613  1.00  0.00     0.214 HD
ENDBRANCH   6   7
BRANCH   6   9
HETATM    9  O7  UNL     1       0.347   0.634  -0.146  1.00  0.00    -0.311 OA
BRANCH   9  10
HETATM   10  C8  UNL     1       1.571   0.017  -0.043  1.00  0.00     0.296 C 
HETATM   11  O8  UNL     1       2.331   0.718   0.922  1.00  0.00    -0.351 OA
HETATM   12  C9  UNL     1       3.470  -0.031   1.207  1.00  0.00     0.152 C 
HETATM   13  C10 UNL     1       4.123   0.394   2.481  1.00  0.00     0.042 C 
HETATM   14  C11 UNL     1       4.396   0.024   0.017  1.00  0.00     0.178 C 
HETATM   15  C12 UNL     1       3.670  -0.652  -1.141  1.00  0.00     0.183 C 
HETATM   16  C13 UNL     1       2.363   0.109  -1.333  1.00  0.00     0.204 C 
BRANCH  14  17
HETATM   17  O9  UNL     1       5.597  -0.628   0.289  1.00  0.00    -0.390 OA
ATOM     18  H9  UNL     1       6.180  -0.593  -0.460  1.00  0.00     0.210 HD
ENDBRANCH  14  17
BRANCH  15  19
HETATM   19  O10 UNL     1       4.385  -0.535  -2.324  1.00  0.00    -0.390 OA
ATOM     20  H10 UNL     1       3.933  -0.956  -3.045  1.00  0.00     0.210 HD
ENDBRANCH  15  19
BRANCH  16  21
HETATM   21  O11 UNL     1       1.660  -0.316  -2.434  1.00  0.00    -0.388 OA
ATOM     22  H11 UNL     1       2.156  -0.258  -3.242  1.00  0.00     0.210 HD
ENDBRANCH  16  21
ENDBRANCH   9  10
ENDBRANCH   6   9
BRANCH   1  23
HETATM   23  O2  UNL     1      -1.973   1.608   0.914  1.00  0.00    -0.307 OA
BRANCH  23  24
HETATM   24  C2  UNL     1      -1.919   2.918   0.467  1.00  0.00     0.255 C 
HETATM   25  C1  UNL     1      -1.907   4.094   1.373  1.00  0.00     0.126 C 
HETATM   26  O1  UNL     1      -1.878   3.096  -0.781  1.00  0.00    -0.266 OA
ENDBRANCH  23  24
ENDBRANCH   1  23
BRANCH   2  27
HETATM   27  N1  UNL     1      -4.115  -0.029  -1.007  1.00  0.00    -0.243 N 
ATOM     28  H1  UNL     1      -4.033  -0.637  -1.822  1.00  0.00     0.197 HD
BRANCH  27  29
HETATM   29  N2  UNL     1      -4.951   0.875  -1.010  1.00  0.00    -0.248 NA
BRANCH  29  30
HETATM   30  N3  UNL     1      -5.678   1.872  -1.059  1.00  0.00    -0.261 N 
ATOM     31  H32 UNL     1      -4.830   2.350  -1.363  1.00  0.00     0.193 HD
ATOM     32  H31 UNL     1      -6.371   2.621  -1.061  1.00  0.00     0.193 HD
ENDBRANCH  29  30
ENDBRANCH  27  29
ENDBRANCH   2  27
BRANCH   4  33
HETATM   33  O3  UNL     1      -2.262  -3.780  -0.388  1.00  0.00    -0.356 OA
ATOM     34  H3  UNL     1      -1.811  -4.232  -1.092  1.00  0.00     0.213 HD
ENDBRANCH   4  33
BRANCH   4  35
HETATM   35  N5  UNL     1      -3.046  -2.397  -2.032  1.00  0.00    -0.103 N 
HETATM   36  O4  UNL     1      -2.468  -1.880  -3.007  1.00  0.00    -0.533 OA
HETATM   37  O5  UNL     1      -4.288  -2.914  -2.213  1.00  0.00    -0.533 OA
ENDBRANCH   4  35
BRANCH   3  38
HETATM   38  N4  UNL     1      -4.449  -2.269   0.466  1.00  0.00    -0.067 N 
ATOM     39  H43 UNL     1      -4.992  -1.823   1.205  1.00  0.00     0.275 HD
ATOM     40  H42 UNL     1      -5.060  -2.021  -0.312  1.00  0.00     0.275 HD
ATOM     41  H41 UNL     1      -4.351  -3.276   0.593  1.00  0.00     0.275 HD
ENDBRANCH   3  38
TORSDOF 14
