REMARK  12 active torsions:
REMARK  status: ('A' for Active; 'I' for Inactive)
REMARK    1  A    between atoms: C2_2  and  C4_4 
REMARK    2  A    between atoms: C4_4  and  C5_5 
REMARK    3  A    between atoms: C5_5  and  N1_6 
REMARK    4  A    between atoms: C5_5  and  C11_15 
REMARK       I    between atoms: N1_6  and  C6_8 
REMARK    5  A    between atoms: C6_8  and  O2_10 
REMARK    6  A    between atoms: O2_10  and  C7_11 
REMARK       I    between atoms: C11_15  and  N2_17 
REMARK       I    between atoms: N2_17  and  C12_19 
REMARK    7  A    between atoms: C12_19  and  C13_21 
REMARK    8  A    between atoms: C13_21  and  C14_22 
REMARK    9  A    between atoms: C13_21  and  N3_25 
REMARK   10  A    between atoms: C18_27  and  O5_28 
REMARK   11  A    between atoms: C19_30  and  C20_31 
REMARK   12  A    between atoms: C21_33  and  C22_34 
REMARK       I    between atoms: C22_34  and  N4_36 
ROOT
HETATM    1  C11 UNL     1       1.635   0.232   0.852  1.00  0.00     0.247 C 
HETATM    2  O3  UNL     1       1.295  -0.502   1.841  1.00  0.00    -0.271 OA
HETATM    3  N2  UNL     1       0.565   0.620   0.011  1.00  0.00    -0.294 N 
ATOM      4  H2  UNL     1       0.791   1.180  -0.811  1.00  0.00     0.171 HD
HETATM    5  C12 UNL     1      -0.785   0.293   0.222  1.00  0.00     0.258 C 
HETATM    6  O4  UNL     1      -1.155  -0.384   1.187  1.00  0.00    -0.271 OA
ENDROOT
BRANCH   5   7
HETATM    7  C13 UNL     1      -1.838   0.799  -0.788  1.00  0.00     0.319 C 
BRANCH   7   8
HETATM    8  C14 UNL     1      -1.454   0.098  -2.040  1.00  0.00     0.020 C 
HETATM    9  C15 UNL     1      -2.206   0.378  -3.293  1.00  0.00     0.012 C 
HETATM   10  C16 UNL     1      -1.307  -1.411  -1.830  1.00  0.00     0.012 C 
ENDBRANCH   7   8
BRANCH   7  11
HETATM   11  N3  UNL     1      -3.112   0.631  -0.211  1.00  0.00     0.119 N 
HETATM   12  C17 UNL     1      -3.209   1.428   1.034  1.00  0.00     0.307 C 
HETATM   13  C18 UNL     1      -3.914   2.692   0.520  1.00  0.00     0.159 C 
HETATM   14  C19 UNL     1      -5.062   2.028  -0.198  1.00  0.00     0.120 C 
HETATM   15  C21 UNL     1      -4.269   0.881  -0.939  1.00  0.00     0.328 C 
BRANCH  13  16
HETATM   16  O5  UNL     1      -4.296   3.524   1.541  1.00  0.00    -0.393 OA
ATOM     17  H5  UNL     1      -4.732   4.306   1.223  1.00  0.00     0.210 HD
ENDBRANCH  13  16
BRANCH  14  18
HETATM   18  C20 UNL     1      -5.732   2.882  -1.187  1.00  0.00     0.241 C 
HETATM   19  O6  UNL     1      -5.324   2.990  -2.329  1.00  0.00    -0.306 OA
ENDBRANCH  14  18
BRANCH  15  20
HETATM   20  C22 UNL     1      -5.219  -0.203  -1.192  1.00  0.00     0.256 C 
HETATM   21  O7  UNL     1      -6.169   0.090  -2.025  1.00  0.00    -0.271 OA
HETATM   22  N4  UNL     1      -5.239  -1.480  -0.668  1.00  0.00    -0.327 N 
HETATM   23  C23 UNL     1      -6.262  -2.516  -1.017  1.00  0.00     0.154 C 
HETATM   24  C25 UNL     1      -4.435  -2.209   0.277  1.00  0.00     0.296 C 
HETATM   25  C24 UNL     1      -6.522  -3.058   0.372  1.00  0.00     0.190 C 
HETATM   26  O8  UNL     1      -5.330  -2.927   1.070  1.00  0.00    -0.370 OA
ENDBRANCH  15  20
ENDBRANCH   7  11
ENDBRANCH   5   7
BRANCH   1  27
HETATM   27  C5  UNL     1       3.039   0.614   0.640  1.00  0.00     0.179 C 
BRANCH  27  28
HETATM   28  C4  UNL     1       3.493   1.872   1.271  1.00  0.00     0.038 C 
BRANCH  28  29
HETATM   29  C2  UNL     1       3.000   3.183   0.888  1.00  0.00    -0.020 C 
HETATM   30  C1  UNL     1       1.583   3.541   1.019  1.00  0.00     0.009 C 
HETATM   31  C3  UNL     1       3.816   4.216   1.703  1.00  0.00     0.009 C 
ENDBRANCH  28  29
ENDBRANCH  27  28
BRANCH  27  32
HETATM   32  N1  UNL     1       3.822  -0.426   1.368  1.00  0.00    -0.324 N 
HETATM   33  C6  UNL     1       4.725  -1.280   0.695  1.00  0.00     0.362 C 
HETATM   34  O1  UNL     1       4.914  -1.218  -0.543  1.00  0.00    -0.238 OA
ATOM     35  H1  UNL     1       3.703  -0.523   2.376  1.00  0.00     0.165 HD
BRANCH  33  36
HETATM   36  O2  UNL     1       5.441  -2.228   1.407  1.00  0.00    -0.294 OA
BRANCH  36  37
HETATM   37  C7  UNL     1       6.347  -3.067   0.702  1.00  0.00     0.061 C 
HETATM   38  C8  UNL     1       7.399  -2.182   0.018  1.00  0.00     0.046 C 
HETATM   39  C9  UNL     1       5.682  -3.920  -0.327  1.00  0.00     0.046 C 
HETATM   40  C10 UNL     1       7.046  -3.966   1.693  1.00  0.00     0.046 C 
ENDBRANCH  36  37
ENDBRANCH  33  36
ENDBRANCH  27  32
ENDBRANCH   1  27
TORSDOF 12
