REMARK  6 active torsions:
REMARK  status: ('A' for Active; 'I' for Inactive)
REMARK    1  A    between atoms: N1_2  and  C2_4 
REMARK    2  A    between atoms: C2_4  and  C3_5 
REMARK    3  A    between atoms: C8_10  and  C9_11 
REMARK    4  A    between atoms: C9_11  and  C10_12 
REMARK    5  A    between atoms: C10_12  and  N2_13 
REMARK       I    between atoms: N2_13  and  C11_15 
REMARK       I    between atoms: C11_15  and  N3_17 
REMARK    6  A    between atoms: N4_23  and  C17_24 
ROOT
HETATM    1  N2  UNL     1      -1.033  -0.209   0.745  1.00  0.00    -0.343 N 
ATOM      2  H2  UNL     1      -0.668  -1.143   0.933  1.00  0.00     0.164 HD
HETATM    3  C11 UNL     1      -0.105   0.843   0.467  1.00  0.00     0.322 C 
HETATM    4  O1  UNL     1      -0.607   1.966   0.251  1.00  0.00    -0.247 OA
HETATM    5  N3  UNL     1       1.282   0.661   0.437  1.00  0.00    -0.299 N 
HETATM    6  C12 UNL     1       1.815  -0.703   0.366  1.00  0.00     0.135 C 
HETATM    7  C13 UNL     1       2.708  -0.653  -0.882  1.00  0.00     0.035 C 
HETATM    8  C14 UNL     1       3.958   0.132  -0.546  1.00  0.00    -0.006 C 
HETATM    9  C15 UNL     1       4.566  -0.564   0.647  1.00  0.00     0.045 C 
HETATM   10  C16 UNL     1       6.055  -0.623   0.659  1.00  0.00     0.274 C 
HETATM   11  N4  UNL     1       6.464  -1.146  -0.629  1.00  0.00     0.092 N 
HETATM   12  C20 UNL     1       6.265  -0.102  -1.582  1.00  0.00     0.274 C 
HETATM   13  C21 UNL     1       4.816   0.166  -1.765  1.00  0.00     0.045 C 
HETATM   14  C22 UNL     1       3.546   1.476  -0.087  1.00  0.00    -0.021 A 
HETATM   15  C23 UNL     1       4.430   2.554  -0.091  1.00  0.00     0.034 A 
HETATM   16  C24 UNL     1       4.069   3.797   0.370  1.00  0.00     0.034 A 
HETATM   17 CL1  UNL     1       5.204   5.143   0.354  1.00  0.00    -0.084 Cl
HETATM   18  C25 UNL     1       2.811   4.010   0.853  1.00  0.00     0.026 A 
HETATM   19  C26 UNL     1       1.904   2.937   0.866  1.00  0.00     0.032 A 
HETATM   20  C27 UNL     1       2.270   1.689   0.400  1.00  0.00     0.046 A 
ENDROOT
BRANCH   1  21
HETATM   21  C10 UNL     1      -2.441  -0.012   0.771  1.00  0.00     0.126 C 
BRANCH  21  22
HETATM   22  C9  UNL     1      -3.074   0.441  -0.510  1.00  0.00     0.052 C 
BRANCH  22  23
HETATM   23  C8  UNL     1      -4.575   0.585  -0.262  1.00  0.00     0.188 C 
HETATM   24  C7  UNL     1      -5.246   1.030  -1.513  1.00  0.00     0.033 C 
HETATM   25  C6  UNL     1      -6.435   1.926  -1.279  1.00  0.00     0.002 C 
HETATM   26  C5  UNL     1      -7.641   1.174  -0.750  1.00  0.00     0.002 C 
HETATM   27  C4  UNL     1      -7.237   0.355   0.485  1.00  0.00     0.038 C 
HETATM   28  C3  UNL     1      -6.480  -0.841   0.106  1.00  0.00     0.224 C 
HETATM   29  N5  UNL     1      -5.033  -0.648   0.298  1.00  0.00    -0.062 N 
ATOM     30  H52 UNL     1      -4.778  -0.724   1.283  1.00  0.00     0.278 HD
ATOM     31  H51 UNL     1      -4.503  -1.439  -0.068  1.00  0.00     0.278 HD
BRANCH  28  32
HETATM   32  C2  UNL     1      -6.873  -2.134   0.694  1.00  0.00     0.087 C 
BRANCH  32  33
HETATM   33  N1  UNL     1      -8.154  -2.664   0.443  1.00  0.00    -0.405 N 
HETATM   34  C1  UNL     1      -9.276  -2.063   1.017  1.00  0.00     0.145 C 
ATOM     35  H1  UNL     1      -8.261  -3.483  -0.155  1.00  0.00     0.158 HD
ENDBRANCH  32  33
ENDBRANCH  28  32
ENDBRANCH  22  23
ENDBRANCH  21  22
ENDBRANCH   1  21
BRANCH  11  36
HETATM   36  C17 UNL     1       7.750  -1.755  -0.617  1.00  0.00     0.215 C 
HETATM   37  C18 UNL     1       8.864  -0.797  -0.258  1.00  0.00     0.042 C 
HETATM   38  C19 UNL     1       7.718  -2.946   0.316  1.00  0.00     0.042 C 
ENDBRANCH  11  36
TORSDOF 6
