REMARK  4 active torsions:
REMARK  status: ('A' for Active; 'I' for Inactive)
REMARK    1  A    between atoms: C4_4  and  O1_5 
REMARK    2  A    between atoms: C5_7  and  C7_9 
REMARK    3  A    between atoms: C7_9  and  C8_10 
REMARK    4  A    between atoms: C8_10  and  C9_11 
ROOT
HETATM    1  C1  UNL     1      -5.790  -0.134  -1.377  1.00  0.00     0.015 C 
HETATM    2  C2  UNL     1      -4.485   0.075  -1.276  1.00  0.00    -0.082 C 
HETATM    3  C3  UNL     1      -3.625  -0.390  -2.402  1.00  0.00     0.066 C 
HETATM    4  C4  UNL     1      -2.155  -0.122  -2.155  1.00  0.00     0.130 C 
HETATM    5  C5  UNL     1      -1.802  -0.677  -0.795  1.00  0.00    -0.013 C 
HETATM    6  C6  UNL     1      -2.279  -2.164  -1.039  1.00  0.00     0.018 C 
HETATM    7  C17 UNL     1      -2.674  -0.221   0.281  1.00  0.00     0.008 C 
HETATM    8  C18 UNL     1      -2.158   0.579   1.425  1.00  0.00    -0.013 C 
HETATM    9  C19 UNL     1      -1.513  -0.308   2.486  1.00  0.00     0.010 C 
HETATM   10  C20 UNL     1      -3.461   1.093   2.069  1.00  0.00     0.005 C 
HETATM   11  C21 UNL     1      -4.591   0.704   1.146  1.00  0.00     0.010 C 
HETATM   12  C22 UNL     1      -3.814   0.718  -0.165  1.00  0.00     0.019 C 
ENDROOT
BRANCH   5  13
HETATM   13  C7  UNL     1      -0.352  -0.863  -0.569  1.00  0.00     0.015 C 
BRANCH  13  14
HETATM   14  C8  UNL     1       0.564   0.292  -0.669  1.00  0.00     0.042 C 
BRANCH  14  15
HETATM   15  C9  UNL     1       2.026  -0.094  -0.425  1.00  0.00     0.093 C 
HETATM   16  C10 UNL     1       2.494  -1.117  -1.417  1.00  0.00     0.049 C 
HETATM   17  C11 UNL     1       2.322  -0.390   0.998  1.00  0.00     0.043 C 
HETATM   18  C12 UNL     1       3.616  -1.116   1.210  1.00  0.00     0.043 C 
HETATM   19  C13 UNL     1       4.844  -0.348   1.014  1.00  0.00     0.207 C 
HETATM   20  F1  UNL     1       5.437  -0.027   2.244  1.00  0.00    -0.246 F 
HETATM   21  C14 UNL     1       4.758   0.903   0.223  1.00  0.00     0.119 C 
HETATM   22  C15 UNL     1       4.394   2.124   1.045  1.00  0.00     0.052 C 
HETATM   23  C16 UNL     1       6.171   1.182  -0.318  1.00  0.00     0.052 C 
HETATM   24  O2  UNL     1       3.955   0.786  -0.909  1.00  0.00    -0.227 OA
HETATM   25  O3  UNL     1       2.724   1.116  -0.705  1.00  0.00    -0.229 OA
ENDBRANCH  14  15
ENDBRANCH  13  14
ENDBRANCH   5  13
BRANCH   4  26
HETATM   26  O1  UNL     1      -1.875   1.154  -2.412  1.00  0.00    -0.394 OA
ATOM     27  H1  UNL     1      -0.953   1.322  -2.257  1.00  0.00     0.210 HD
ENDBRANCH   4  26
TORSDOF 4
