REMARK  5 active torsions:
REMARK  status: ('A' for Active; 'I' for Inactive)
REMARK    1  A    between atoms: O1_1  and  N1_3 
REMARK    2  A    between atoms: N1_3  and  C1_5 
REMARK    3  A    between atoms: N3_12  and  N4_14 
REMARK    4  A    between atoms: C6_16  and  C7_17 
REMARK    5  A    between atoms: C11_21  and  N5_22 
ROOT
HETATM    1  C1  UNL     1      -3.172  -0.437  -0.261  1.00  0.00     0.099 A 
HETATM    2  C2  UNL     1      -4.437  -0.033  -0.670  1.00  0.00     0.037 A 
HETATM    3  C3  UNL     1      -4.878   1.186  -0.192  1.00  0.00     0.019 A 
HETATM    4  C4  UNL     1      -4.049   1.921   0.653  1.00  0.00     0.090 A 
HETATM    5  N2  UNL     1      -2.839   1.507   1.029  1.00  0.00    -0.349 N 
ATOM      6  H2  UNL     1      -2.266   2.079   1.650  1.00  0.00     0.167 HD
HETATM    7  C5  UNL     1      -2.382   0.317   0.575  1.00  0.00     0.148 A 
HETATM    8  N3  UNL     1      -1.206  -0.092   0.937  1.00  0.00    -0.284 N 
ATOM      9  H3  UNL     1      -0.679   0.522   1.558  1.00  0.00     0.188 HD
ENDROOT
BRANCH   8  10
HETATM   10  N4  UNL     1      -0.611  -1.243   0.577  1.00  0.00    -0.309 N 
HETATM   11  C6  UNL     1       0.565  -1.531   0.224  1.00  0.00     0.118 C 
ATOM     12  H4  UNL     1      -1.239  -2.047   0.593  1.00  0.00     0.186 HD
BRANCH  11  13
HETATM   13  C7  UNL     1       1.727  -0.685   0.080  1.00  0.00    -0.017 A 
HETATM   14  C8  UNL     1       1.723   0.661   0.325  1.00  0.00     0.013 A 
HETATM   15  C9  UNL     1       2.874   1.441   0.173  1.00  0.00     0.003 A 
HETATM   16  C10 UNL     1       4.050   0.856  -0.234  1.00  0.00     0.036 A 
HETATM   17  C11 UNL     1       4.040  -0.501  -0.478  1.00  0.00     0.103 A 
HETATM   18  C12 UNL     1       2.924  -1.276  -0.333  1.00  0.00     0.048 A 
BRANCH  17  19
HETATM   19  N5  UNL     1       5.264  -1.091  -0.898  1.00  0.00    -0.116 N 
HETATM   20  O2  UNL     1       5.288  -2.329  -1.128  1.00  0.00    -0.532 OA
HETATM   21  O3  UNL     1       6.406  -0.348  -1.055  1.00  0.00    -0.532 OA
ENDBRANCH  17  19
ENDBRANCH  11  13
ENDBRANCH   8  10
BRANCH   1  22
HETATM   22  N1  UNL     1      -2.665  -1.682  -0.721  1.00  0.00    -0.266 N 
ATOM     23  H1  UNL     1      -1.686  -1.736  -1.000  1.00  0.00     0.194 HD
BRANCH  22  24
HETATM   24  O1  UNL     1      -3.365  -2.711  -0.798  1.00  0.00    -0.289 OA
ATOM     25  H1  UNL     1      -3.026  -3.543  -1.106  1.00  0.00     0.244 HD
ENDBRANCH  22  24
ENDBRANCH   1  22
TORSDOF 5
