REMARK  10 active torsions:
REMARK  status: ('A' for Active; 'I' for Inactive)
REMARK    1  A    between atoms: C2_2  and  C3_3 
REMARK    2  A    between atoms: C3_3  and  C4_4 
REMARK    3  A    between atoms: C4_4  and  O1_5 
REMARK    4  A    between atoms: C4_4  and  C5_7 
REMARK    5  A    between atoms: C5_7  and  C6_8 
REMARK    6  A    between atoms: C6_8  and  C7_9 
REMARK    7  A    between atoms: C7_9  and  C8_10 
REMARK    8  A    between atoms: C7_9  and  C14_19 
REMARK    9  A    between atoms: C8_10  and  C9_11 
REMARK   10  A    between atoms: C14_19  and  O2_21 
ROOT
HETATM    1  C7  UNL     1      -0.409  -1.844  -0.529  1.00  0.00     0.016 C 
ENDROOT
BRANCH   1   2
HETATM    2  C6  UNL     1       0.485  -1.410  -1.583  1.00  0.00     0.010 C 
BRANCH   2   3
HETATM    3  C5  UNL     1       1.163  -0.097  -1.596  1.00  0.00     0.032 C 
BRANCH   3   4
HETATM    4  C4  UNL     1       2.017   0.136  -0.356  1.00  0.00     0.118 C 
BRANCH   4   5
HETATM    5  C3  UNL     1       2.645   1.505  -0.503  1.00  0.00     0.031 C 
BRANCH   5   6
HETATM    6  C2  UNL     1       3.587   1.692   0.673  1.00  0.00    -0.002 C 
HETATM    7  C1  UNL     1       4.281   3.014   0.653  1.00  0.00     0.005 C 
ENDBRANCH   5   6
ENDBRANCH   4   5
BRANCH   4   8
HETATM    8  O1  UNL     1       3.025  -0.824  -0.368  1.00  0.00    -0.396 OA
ATOM      9  H1  UNL     1       2.631  -1.683  -0.276  1.00  0.00     0.210 HD
ENDBRANCH   4   8
ENDBRANCH   3   4
ENDBRANCH   2   3
ENDBRANCH   1   2
BRANCH   1  10
HETATM   10  C8  UNL     1      -1.674  -1.277  -0.111  1.00  0.00     0.040 C 
BRANCH  10  11
HETATM   11  C9  UNL     1      -1.930   0.063   0.409  1.00  0.00     0.186 C 
HETATM   12  C10 UNL     1      -1.692   1.254  -0.408  1.00  0.00     0.033 C 
HETATM   13  C11 UNL     1      -2.786   2.328  -0.230  1.00  0.00     0.004 C 
HETATM   14  C12 UNL     1      -3.082   2.503   1.223  1.00  0.00     0.027 C 
HETATM   15  C13 UNL     1      -3.609   1.165   1.731  1.00  0.00     0.232 C 
HETATM   16  N1  UNL     1      -3.368   0.103   0.810  1.00  0.00    -0.071 N 
ATOM     17  H12 UNL     1      -3.984   0.160  -0.001  1.00  0.00     0.277 HD
ATOM     18  H11 UNL     1      -3.682  -0.795   1.179  1.00  0.00     0.277 HD
ENDBRANCH  10  11
ENDBRANCH   1  10
BRANCH   1  19
HETATM   19  C14 UNL     1      -0.676  -3.380  -0.676  1.00  0.00     0.118 C 
HETATM   20  C15 UNL     1       0.592  -4.155  -0.586  1.00  0.00     0.040 C 
BRANCH  19  21
HETATM   21  O2  UNL     1      -1.530  -3.803   0.316  1.00  0.00    -0.396 OA
ATOM     22  H2  UNL     1      -1.692  -4.735   0.227  1.00  0.00     0.210 HD
ENDBRANCH  19  21
ENDBRANCH   1  19
TORSDOF 10
