REMARK  6 active torsions:
REMARK  status: ('A' for Active; 'I' for Inactive)
REMARK    1  A    between atoms: C2_2  and  C3_3 
REMARK    2  A    between atoms: N2_6  and  C4_7 
REMARK    3  A    between atoms: C4_7  and  C5_8 
REMARK    4  A    between atoms: C7_10  and  C8_11 
REMARK    5  A    between atoms: C15_22  and  C16_23 
REMARK    6  A    between atoms: C16_23  and  N5_24 
ROOT
HETATM    1  C3  UNL     1      -3.493  -1.372  -0.545  1.00  0.00     0.033 A 
HETATM    2  N1  UNL     1      -2.360  -1.924  -0.816  1.00  0.00    -0.306 N 
ATOM      3  H1  UNL     1      -2.388  -2.823  -1.297  1.00  0.00     0.186 HD
HETATM    4  N2  UNL     1      -1.109  -1.414  -0.517  1.00  0.00    -0.319 N 
HETATM    5  C13 UNL     1      -1.004  -0.156   0.147  1.00  0.00     0.171 A 
HETATM    6  C14 UNL     1      -2.330   0.449   0.443  1.00  0.00     0.005 A 
HETATM    7  C15 UNL     1      -3.494  -0.077   0.142  1.00  0.00    -0.019 A 
ENDROOT
BRANCH   4   8
HETATM    8  C4  UNL     1       0.095  -2.132  -0.863  1.00  0.00     0.201 C 
BRANCH   8   9
HETATM    9  C5  UNL     1       1.341  -1.469  -0.436  1.00  0.00     0.047 A 
HETATM   10  C6  UNL     1       2.185  -0.580  -1.055  1.00  0.00     0.055 A 
HETATM   11  C7  UNL     1       3.240  -0.258  -0.236  1.00  0.00     0.032 A 
HETATM   12  N3  UNL     1       3.030  -0.958   0.886  1.00  0.00    -0.304 N 
HETATM   13  N4  UNL     1       1.913  -1.681   0.792  1.00  0.00    -0.303 N 
ATOM     14  H3  UNL     1       3.641  -0.941   1.702  1.00  0.00     0.186 HD
ATOM     15  H4  UNL     1       1.543  -2.294   1.518  1.00  0.00     0.186 HD
BRANCH  11  16
HETATM   16  C8  UNL     1       4.354   0.655  -0.547  1.00  0.00     0.037 C 
HETATM   17  C9  UNL     1       4.664   1.636   0.521  1.00  0.00     0.011 C 
HETATM   18  C10 UNL     1       6.122   1.967   0.333  1.00  0.00     0.001 C 
HETATM   19  C11 UNL     1       6.640   1.063  -0.766  1.00  0.00     0.001 C 
HETATM   20  C12 UNL     1       5.676  -0.126  -0.651  1.00  0.00     0.011 C 
ENDBRANCH  11  16
ENDBRANCH   8   9
ENDBRANCH   4   8
BRANCH   1  21
HETATM   21  C2  UNL     1      -4.723  -2.095  -0.955  1.00  0.00     0.055 C 
HETATM   22  C1  UNL     1      -5.535  -2.506   0.229  1.00  0.00     0.011 C 
ENDBRANCH   1  21
BRANCH   7  23
HETATM   23  C16 UNL     1      -4.798   0.575   0.431  1.00  0.00     0.154 C 
BRANCH  23  24
HETATM   24  N5  UNL     1      -4.726   1.862   1.018  1.00  0.00    -0.421 N 
HETATM   25  C17 UNL     1      -4.254   2.932   0.210  1.00  0.00     0.140 C 
ATOM     26  H5  UNL     1      -5.003   2.016   1.987  1.00  0.00     0.153 HD
ENDBRANCH  23  24
ENDBRANCH   7  23
TORSDOF 6
