REMARK  7 active torsions:
REMARK  status: ('A' for Active; 'I' for Inactive)
REMARK    1  A    between atoms: C2_2  and  C3_3 
REMARK    2  A    between atoms: C3_3  and  C4_4 
REMARK    3  A    between atoms: C4_4  and  C5_5 
REMARK    4  A    between atoms: C6_6  and  N1_7 
REMARK    5  A    between atoms: C13_17  and  C14_18 
REMARK    6  A    between atoms: C14_18  and  C15_19 
REMARK    7  A    between atoms: C17_23  and  N5_24 
ROOT
HETATM    1  N1  UNL     1      -1.100  -0.875  -0.139  1.00  0.00    -0.365 N 
HETATM    2  C7  UNL     1      -2.017  -1.378   0.855  1.00  0.00     0.130 C 
HETATM    3  C8  UNL     1      -2.779  -2.455   0.105  1.00  0.00     0.019 C 
HETATM    4  C9  UNL     1      -4.087  -2.708   0.792  1.00  0.00     0.013 C 
HETATM    5  C10 UNL     1      -2.984  -1.821  -1.238  1.00  0.00     0.116 C 
HETATM    6  C11 UNL     1      -4.233  -1.080  -1.255  1.00  0.00     0.066 C 
HETATM    7  N2  UNL     1      -5.223  -0.494  -1.257  1.00  0.00    -0.197 NA
HETATM    8  C12 UNL     1      -1.774  -0.958  -1.443  1.00  0.00     0.144 C 
ENDROOT
BRANCH   1   9
HETATM    9  C6  UNL     1       0.225  -0.409  -0.001  1.00  0.00     0.114 A 
HETATM   10  C5  UNL     1       0.564   0.730   0.690  1.00  0.00     0.029 A 
HETATM   11  C17 UNL     1       1.891   1.072   0.736  1.00  0.00     0.110 A 
HETATM   12  N4  UNL     1       2.792   0.258   0.089  1.00  0.00    -0.332 N 
HETATM   13  C13 UNL     1       2.470  -0.837  -0.576  1.00  0.00     0.084 A 
ATOM     14  H4  UNL     1       3.778   0.518   0.125  1.00  0.00     0.168 HD
HETATM   15  N3  UNL     1       1.173  -1.179  -0.624  1.00  0.00    -0.332 N 
ATOM     16  H3  UNL     1       0.890  -2.019  -1.128  1.00  0.00     0.168 HD
BRANCH  10  17
HETATM   17  C4  UNL     1      -0.459   1.500   1.371  1.00  0.00     0.046 C 
BRANCH  17  18
HETATM   18  C3  UNL     1      -1.421   2.277   0.550  1.00  0.00     0.004 C 
BRANCH  18  19
HETATM   19  C2  UNL     1      -0.909   3.339  -0.344  1.00  0.00    -0.004 C 
HETATM   20  C1  UNL     1      -0.227   4.495   0.308  1.00  0.00     0.005 C 
ENDBRANCH  18  19
ENDBRANCH  17  18
ENDBRANCH  10  17
BRANCH  11  21
HETATM   21  N5  UNL     1       2.367   2.090   1.370  1.00  0.00    -0.385 N 
ATOM     22  H52 UNL     1       1.699   2.693   1.850  1.00  0.00     0.157 HD
ATOM     23  H51 UNL     1       3.354   2.344   1.404  1.00  0.00     0.157 HD
ENDBRANCH  11  21
BRANCH  13  24
HETATM   24  C14 UNL     1       3.509  -1.681  -1.269  1.00  0.00     0.076 C 
BRANCH  24  25
HETATM   25  C15 UNL     1       4.863  -1.067  -1.019  1.00  0.00     0.003 C 
HETATM   26  C16 UNL     1       5.167  -1.037   0.439  1.00  0.00     0.005 C 
ENDBRANCH  24  25
ENDBRANCH  13  24
ENDBRANCH   1   9
TORSDOF 7
