REMARK  9 active torsions:
REMARK  status: ('A' for Active; 'I' for Inactive)
REMARK    1  A    between atoms: C5_5  and  C6_6 
REMARK    2  A    between atoms: C6_6  and  C7_7 
REMARK    3  A    between atoms: C8_8  and  N1_9 
REMARK    4  A    between atoms: C12_16  and  C13_17 
REMARK    5  A    between atoms: C13_17  and  O2_18 
REMARK    6  A    between atoms: C13_17  and  C14_20 
REMARK    7  A    between atoms: C14_20  and  O3_21 
REMARK    8  A    between atoms: C14_20  and  C15_23 
REMARK    9  A    between atoms: C15_23  and  C17_25 
ROOT
HETATM    1  C1  UNL     1      -4.927   2.589   0.359  1.00  0.00     0.017 C 
HETATM    2  C2  UNL     1      -4.579   1.804  -0.499  1.00  0.00    -0.083 C 
HETATM    3  C3  UNL     1      -4.195   0.875  -1.517  1.00  0.00    -0.013 C 
HETATM    4  C4  UNL     1      -5.205   0.461  -2.524  1.00  0.00     0.057 C 
HETATM    5  C5  UNL     1      -2.977   0.386  -1.578  1.00  0.00    -0.011 C 
ENDROOT
BRANCH   5   6
HETATM    6  C6  UNL     1      -1.982   0.781  -0.599  1.00  0.00     0.036 C 
BRANCH   6   7
HETATM    7  C7  UNL     1      -1.225  -0.265   0.121  1.00  0.00     0.034 C 
HETATM    8  C8  UNL     1      -1.907  -1.257   0.939  1.00  0.00     0.259 C 
HETATM    9  C10 UNL     1      -1.633  -0.915   2.390  1.00  0.00     0.158 C 
HETATM   10  O1  UNL     1      -2.343  -1.036   3.359  1.00  0.00    -0.296 OA
HETATM   11  C11 UNL     1      -0.242  -0.375   2.358  1.00  0.00     0.088 C 
HETATM   12  C12 UNL     1      -0.227   0.364   1.053  1.00  0.00     0.031 C 
BRANCH   8  13
HETATM   13  N1  UNL     1      -3.300  -1.463   0.833  1.00  0.00    -0.068 N 
HETATM   14  C9  UNL     1      -3.729  -2.747   1.375  1.00  0.00     0.267 C 
ATOM     15  H12 UNL     1      -3.815  -0.695   1.264  1.00  0.00     0.277 HD
ATOM     16  H11 UNL     1      -3.612  -1.353  -0.132  1.00  0.00     0.277 HD
ENDBRANCH   8  13
BRANCH  12  17
HETATM   17  C13 UNL     1       1.115   0.664   0.517  1.00  0.00     0.152 C 
BRANCH  17  18
HETATM   18  O2  UNL     1       1.110   1.531  -0.542  1.00  0.00    -0.393 OA
ATOM     19  H2  UNL     1       1.974   1.724  -0.887  1.00  0.00     0.210 HD
ENDBRANCH  17  18
BRANCH  17  20
HETATM   20  C14 UNL     1       2.051  -0.469   0.282  1.00  0.00     0.151 C 
BRANCH  20  21
HETATM   21  O3  UNL     1       1.741  -1.189  -0.871  1.00  0.00    -0.393 OA
ATOM     22  H3  UNL     1       2.338  -1.912  -1.021  1.00  0.00     0.210 HD
ENDBRANCH  20  21
BRANCH  20  23
HETATM   23  C15 UNL     1       3.499  -0.088   0.363  1.00  0.00     0.016 C 
HETATM   24  C16 UNL     1       4.355  -1.347   0.122  1.00  0.00     0.013 C 
BRANCH  23  25
HETATM   25  C17 UNL     1       3.946   1.022  -0.528  1.00  0.00    -0.016 C 
HETATM   26  C18 UNL     1       5.452   1.202  -0.219  1.00  0.00     0.010 C 
HETATM   27  C19 UNL     1       3.923   0.732  -1.998  1.00  0.00     0.010 C 
ENDBRANCH  23  25
ENDBRANCH  20  23
ENDBRANCH  17  20
ENDBRANCH  12  17
ENDBRANCH   6   7
ENDBRANCH   5   6
TORSDOF 9
