REMARK  8 active torsions:
REMARK  status: ('A' for Active; 'I' for Inactive)
REMARK    1  A    between atoms: C2_2  and  C3_3 
REMARK    2  A    between atoms: C6_8  and  C7_9 
REMARK    3  A    between atoms: C7_9  and  N2_10 
REMARK    4  A    between atoms: C10_13  and  O1_14 
REMARK    5  A    between atoms: O1_14  and  C11_15 
REMARK    6  A    between atoms: C11_15  and  C12_16 
REMARK    7  A    between atoms: C12_16  and  N3_18 
REMARK    8  A    between atoms: C15_23  and  O2_24 
ROOT
HETATM    1  N2  UNL     1      -0.102  -0.342  -0.636  1.00  0.00    -0.360 N 
HETATM    2  C8  UNL     1       0.568  -1.557  -1.121  1.00  0.00     0.127 C 
HETATM    3  C9  UNL     1       1.937  -1.678  -0.546  1.00  0.00     0.052 C 
HETATM    4  C10 UNL     1       2.754  -0.484  -0.794  1.00  0.00     0.130 C 
HETATM    5  C14 UNL     1       1.984   0.819  -0.246  1.00  0.00     0.115 C 
HETATM    6  C15 UNL     1       0.656   0.749  -0.988  1.00  0.00     0.116 C 
ENDROOT
BRANCH   1   7
HETATM    7  C7  UNL     1      -0.712  -0.579   0.627  1.00  0.00     0.182 C 
BRANCH   7   8
HETATM    8  C6  UNL     1      -2.121  -0.040   0.532  1.00  0.00     0.034 A 
HETATM    9  N1  UNL     1      -2.553   1.162   0.248  1.00  0.00    -0.361 N 
HETATM   10  C4  UNL     1      -3.913   1.205   0.224  1.00  0.00     0.012 A 
ATOM     11  H1  UNL     1      -1.948   1.963   0.068  1.00  0.00     0.165 HD
HETATM   12  C3  UNL     1      -4.374  -0.031   0.528  1.00  0.00    -0.028 A 
HETATM   13  C5  UNL     1      -4.709   2.402  -0.166  1.00  0.00     0.068 C 
HETATM   14  C16 UNL     1      -3.264  -0.818   0.724  1.00  0.00    -0.030 A 
HETATM   15  C17 UNL     1      -3.143  -2.282   0.958  1.00  0.00     0.051 C 
BRANCH  12  16
HETATM   16  C2  UNL     1      -5.765  -0.538   0.537  1.00  0.00     0.036 C 
HETATM   17  C1  UNL     1      -6.764   0.551   0.823  1.00  0.00     0.010 C 
ENDBRANCH  12  16
ENDBRANCH   7   8
ENDBRANCH   1   7
BRANCH   6  18
HETATM   18  O2  UNL     1       0.089   1.982  -1.103  1.00  0.00    -0.349 OA
ATOM     19  H2  UNL     1       0.613   2.736  -1.346  1.00  0.00     0.219 HD
ENDBRANCH   6  18
BRANCH   4  20
HETATM   20  O1  UNL     1       3.912  -0.444  -0.085  1.00  0.00    -0.383 OA
BRANCH  20  21
HETATM   21  C11 UNL     1       4.767   0.525  -0.534  1.00  0.00     0.200 C 
BRANCH  21  22
HETATM   22  C12 UNL     1       6.148   0.362   0.029  1.00  0.00     0.203 C 
HETATM   23  C13 UNL     1       5.922  -0.187   1.474  1.00  0.00     0.042 C 
BRANCH  22  24
HETATM   24  N3  UNL     1       6.806  -0.750  -0.685  1.00  0.00    -0.073 N 
ATOM     25  H33 UNL     1       6.264  -1.613  -0.655  1.00  0.00     0.274 HD
ATOM     26  H32 UNL     1       6.806  -0.623  -1.697  1.00  0.00     0.274 HD
ATOM     27  H31 UNL     1       7.745  -0.861  -0.302  1.00  0.00     0.274 HD
ENDBRANCH  22  24
ENDBRANCH  21  22
ENDBRANCH  20  21
ENDBRANCH   4  20
TORSDOF 8
