REMARK  7 active torsions:
REMARK  status: ('A' for Active; 'I' for Inactive)
REMARK    1  A    between atoms: C3_3  and  C5_6 
REMARK    2  A    between atoms: C5_6  and  S1_7 
REMARK    3  A    between atoms: S1_7  and  S2_8 
REMARK    4  A    between atoms: S2_8  and  C6_9 
REMARK    5  A    between atoms: C13_16  and  C14_17 
REMARK    6  A    between atoms: C17_20  and  O1_21 
REMARK    7  A    between atoms: C18_23  and  O2_24 
ROOT
HETATM    1  C1  UNL     1       4.972   1.772  -1.436  1.00  0.00     0.013 C 
HETATM    2  C2  UNL     1       5.206   0.841  -0.688  1.00  0.00    -0.095 C 
HETATM    3  C3  UNL     1       5.460  -0.277   0.202  1.00  0.00     0.086 C 
HETATM    4  C4  UNL     1       7.019  -0.451   0.155  1.00  0.00     0.042 C 
HETATM    5 BR1  UNL     1       4.754  -1.899  -0.505  1.00  0.00    -0.071 Br
ENDROOT
BRANCH   3   6
HETATM    6  C5  UNL     1       5.150   0.003   1.626  1.00  0.00     0.120 C 
BRANCH   6   7
HETATM    7  S1  UNL     1       3.512   0.507   2.061  1.00  0.00    -0.094 SA
BRANCH   7   8
HETATM    8  S2  UNL     1       1.976  -0.867   1.667  1.00  0.00    -0.087 SA
BRANCH   8   9
HETATM    9  C6  UNL     1       1.177  -0.673   0.090  1.00  0.00     0.099 C 
HETATM   10  C7  UNL     1       0.309   0.558  -0.008  1.00  0.00    -0.033 A 
HETATM   11  C8  UNL     1       0.923   1.769   0.186  1.00  0.00     0.048 A 
HETATM   12  C12 UNL     1      -1.037   0.512  -0.269  1.00  0.00    -0.038 A 
HETATM   13  C9  UNL     1       0.212   2.953   0.125  1.00  0.00     0.105 A 
HETATM   14  C10 UNL     1      -1.133   2.917  -0.135  1.00  0.00     0.105 A 
HETATM   15  O6  UNL     1       0.583   4.295   0.281  1.00  0.00    -0.323 OA
HETATM   16  C11 UNL     1      -1.743   1.686  -0.330  1.00  0.00     0.048 A 
HETATM   17  O5  UNL     1      -1.586   4.228  -0.138  1.00  0.00    -0.323 OA
HETATM   18  C24 UNL     1      -0.537   5.139   0.102  1.00  0.00     0.352 A 
HETATM   19  C13 UNL     1      -1.735  -0.773  -0.499  1.00  0.00     0.066 C 
HETATM   20  C20 UNL     1      -1.021  -1.808   0.319  1.00  0.00     0.106 C 
HETATM   21  C21 UNL     1      -1.452  -3.185   0.064  1.00  0.00     0.264 C 
HETATM   22  C23 UNL     1       0.376  -1.866  -0.328  1.00  0.00     0.043 C 
HETATM   23  O3  UNL     1      -2.579  -3.671  -0.176  1.00  0.00    -0.265 OA
HETATM   24  O4  UNL     1      -0.308  -3.978   0.131  1.00  0.00    -0.321 OA
HETATM   25  C22 UNL     1       0.856  -3.166   0.203  1.00  0.00     0.185 C 
BRANCH  19  26
HETATM   26  C14 UNL     1      -3.187  -0.728  -0.298  1.00  0.00    -0.046 A 
HETATM   27  C15 UNL     1      -3.977  -0.502  -1.422  1.00  0.00     0.011 A 
HETATM   28  C16 UNL     1      -5.328  -0.436  -1.377  1.00  0.00     0.040 A 
HETATM   29  C17 UNL     1      -5.960  -0.602  -0.141  1.00  0.00     0.098 A 
HETATM   30  C18 UNL     1      -5.211  -0.825   0.983  1.00  0.00     0.099 A 
HETATM   31  C19 UNL     1      -3.811  -0.889   0.906  1.00  0.00     0.047 A 
BRANCH  29  32
HETATM   32  O1  UNL     1      -7.333  -0.544  -0.037  1.00  0.00    -0.358 OA
ATOM     33  H1  UNL     1      -7.762  -0.657   0.803  1.00  0.00     0.217 HD
ENDBRANCH  29  32
BRANCH  30  34
HETATM   34  O2  UNL     1      -5.770  -1.000   2.247  1.00  0.00    -0.358 OA
ATOM     35  H2  UNL     1      -5.250  -1.155   3.027  1.00  0.00     0.217 HD
ENDBRANCH  30  34
ENDBRANCH  19  26
ENDBRANCH   8   9
ENDBRANCH   7   8
ENDBRANCH   6   7
ENDBRANCH   3   6
TORSDOF 7
