REMARK  14 active torsions:
REMARK  status: ('A' for Active; 'I' for Inactive)
REMARK    1  A    between atoms: C1_2  and  C2_3 
REMARK       I    between atoms: C1_2  and  N2_19 
REMARK    2  A    between atoms: C2_3  and  O2_4 
REMARK    3  A    between atoms: O2_4  and  C3_5 
REMARK    4  A    between atoms: C3_5  and  O3_6 
REMARK    5  A    between atoms: C3_5  and  C4_8 
REMARK    6  A    between atoms: C4_8  and  C5_9 
REMARK    7  A    between atoms: C5_9  and  C6_10 
REMARK    8  A    between atoms: C10_14  and  N1_15 
REMARK    9  A    between atoms: N2_19  and  C12_21 
REMARK   10  A    between atoms: C15_25  and  C16_26 
REMARK   11  A    between atoms: C16_26  and  O7_28 
REMARK   12  A    between atoms: O7_28  and  C17_29 
REMARK   13  A    between atoms: C17_29  and  C18_30 
REMARK   14  A    between atoms: C18_30  and  C19_32 
ROOT
HETATM    1  O1  UNL     1       0.017   3.004   4.619  1.00  0.00    -0.271 OA
HETATM    2  C1  UNL     1       0.175   2.313   3.590  1.00  0.00     0.246 C 
HETATM    3  N2  UNL     1      -0.664   2.346   2.501  1.00  0.00    -0.324 N 
ATOM      4  H2  UNL     1      -0.438   1.737   1.715  1.00  0.00     0.169 HD
ENDROOT
BRANCH   2   5
HETATM    5  C2  UNL     1       1.375   1.430   3.634  1.00  0.00     0.280 C 
BRANCH   5   6
HETATM    6  O2  UNL     1       1.524   0.519   2.614  1.00  0.00    -0.321 OA
BRANCH   6   7
HETATM    7  C3  UNL     1       0.712  -0.538   2.358  1.00  0.00     0.178 C 
BRANCH   7   8
HETATM    8  O3  UNL     1      -0.273  -0.586   3.251  1.00  0.00    -0.341 OA
ATOM      9  H3  UNL     1      -0.841  -1.326   3.072  1.00  0.00     0.220 HD
ENDBRANCH   7   8
BRANCH   7  10
HETATM   10  C4  UNL     1       0.736  -1.556   1.351  1.00  0.00     0.064 C 
BRANCH  10  11
HETATM   11  C5  UNL     1       1.459  -1.839   0.359  1.00  0.00     0.016 C 
BRANCH  11  12
HETATM   12  C6  UNL     1       2.617  -1.341  -0.320  1.00  0.00    -0.034 A 
HETATM   13  C7  UNL     1       3.158  -0.095  -0.146  1.00  0.00     0.011 A 
HETATM   14  C8  UNL     1       4.334   0.227  -0.830  1.00  0.00     0.003 A 
HETATM   15  C9  UNL     1       4.945  -0.675  -1.662  1.00  0.00     0.036 A 
HETATM   16  C10 UNL     1       4.428  -1.936  -1.863  1.00  0.00     0.103 A 
HETATM   17  C11 UNL     1       3.278  -2.247  -1.191  1.00  0.00     0.047 A 
BRANCH  16  18
HETATM   18  N1  UNL     1       5.073  -2.865  -2.737  1.00  0.00    -0.116 N 
HETATM   19  O4  UNL     1       6.106  -2.592  -3.364  1.00  0.00    -0.532 OA
HETATM   20  O5  UNL     1       4.522  -4.109  -2.890  1.00  0.00    -0.532 OA
ENDBRANCH  16  18
ENDBRANCH  11  12
ENDBRANCH  10  11
ENDBRANCH   7  10
ENDBRANCH   6   7
ENDBRANCH   5   6
ENDBRANCH   2   5
BRANCH   3  21
HETATM   21  C12 UNL     1      -1.841   3.177   2.384  1.00  0.00     0.058 A 
HETATM   22  C13 UNL     1      -2.146   4.150   3.273  1.00  0.00     0.038 A 
HETATM   23  C14 UNL     1      -3.270   4.903   3.044  1.00  0.00     0.053 A 
HETATM   24  S1  UNL     1      -3.886   4.257   1.611  1.00  0.00    -0.094 SA
HETATM   25  C15 UNL     1      -2.702   3.034   1.320  1.00  0.00     0.106 A 
BRANCH  25  26
HETATM   26  C16 UNL     1      -2.705   2.079   0.192  1.00  0.00     0.302 C 
HETATM   27  O6  UNL     1      -3.658   2.207  -0.661  1.00  0.00    -0.259 OA
BRANCH  26  28
HETATM   28  O7  UNL     1      -1.809   1.106  -0.004  1.00  0.00    -0.309 OA
BRANCH  28  29
HETATM   29  C17 UNL     1      -1.799   0.167  -1.066  1.00  0.00     0.265 C 
BRANCH  29  30
HETATM   30  C18 UNL     1      -3.009  -0.690  -1.040  1.00  0.00     0.206 C 
HETATM   31  O8  UNL     1      -3.887  -0.568  -0.148  1.00  0.00    -0.288 OA
BRANCH  30  32
HETATM   32  C19 UNL     1      -3.164  -1.699  -2.093  1.00  0.00     0.122 A 
HETATM   33  C20 UNL     1      -2.319  -1.981  -3.143  1.00  0.00     0.043 A 
HETATM   34  C21 UNL     1      -2.871  -3.007  -3.878  1.00  0.00     0.027 A 
HETATM   35  C22 UNL     1      -4.065  -3.325  -3.235  1.00  0.00     0.142 A 
HETATM   36  O9  UNL     1      -4.183  -2.529  -2.202  1.00  0.00    -0.319 OA
ENDBRANCH  30  32
ENDBRANCH  29  30
ENDBRANCH  28  29
ENDBRANCH  26  28
ENDBRANCH  25  26
ENDBRANCH   3  21
TORSDOF 14
