REMARK  4 active torsions:
REMARK  status: ('A' for Active; 'I' for Inactive)
REMARK    1  A    between atoms: O1_1  and  C1_3 
REMARK    2  A    between atoms: C1_3  and  C2_4 
REMARK    3  A    between atoms: C2_4  and  C3_5 
REMARK    4  A    between atoms: C3_5  and  N1_6 
ROOT
HETATM    1  C3  UNL     1      -0.437   0.333  -0.429  1.00  0.00     0.029 C 
HETATM    2  C8  UNL     1      -1.506   0.460   0.630  1.00  0.00     0.031 C 
HETATM    3  C9  UNL     1      -1.971  -0.835   1.207  1.00  0.00     0.002 C 
HETATM    4  C10 UNL     1      -2.319  -1.896   0.220  1.00  0.00     0.000 C 
HETATM    5  C11 UNL     1      -1.033  -2.102  -0.598  1.00  0.00     0.002 C 
HETATM    6  C12 UNL     1      -0.856  -0.837  -1.350  1.00  0.00     0.031 C 
ENDROOT
BRANCH   1   7
HETATM    7  C2  UNL     1      -0.449   1.500  -1.388  1.00  0.00     0.056 C 
BRANCH   7   8
HETATM    8  C1  UNL     1       0.030   2.796  -0.877  1.00  0.00     0.166 C 
BRANCH   8   9
HETATM    9  O1  UNL     1      -0.618   3.339   0.182  1.00  0.00    -0.401 OA
ATOM     10  H1  UNL     1      -0.309   4.175   0.512  1.00  0.00     0.209 HD
ENDBRANCH   8   9
ENDBRANCH   7   8
ENDBRANCH   1   7
BRANCH   1  11
HETATM   11  N1  UNL     1       0.783  -0.042   0.107  1.00  0.00    -0.404 N 
HETATM   12  C4  UNL     1       1.845  -0.501  -0.691  1.00  0.00     0.117 C 
HETATM   13  C5  UNL     1       2.727  -1.205   0.351  1.00  0.00     0.021 C 
HETATM   14  C6  UNL     1       2.294  -0.618   1.675  1.00  0.00     0.021 C 
HETATM   15  C7  UNL     1       1.388   0.545   1.213  1.00  0.00     0.117 C 
ENDBRANCH   1  11
TORSDOF 4
