REMARK  14 active torsions:
REMARK  status: ('A' for Active; 'I' for Inactive)
REMARK    1  A    between atoms: C5_5  and  C6_6 
REMARK    2  A    between atoms: C6_6  and  O2_8 
REMARK    3  A    between atoms: O2_8  and  C7_9 
REMARK    4  A    between atoms: C12_14  and  C13_15 
REMARK    5  A    between atoms: C13_15  and  C15_17 
REMARK    6  A    between atoms: C15_17  and  O3_18 
REMARK    7  A    between atoms: C15_17  and  C16_20 
REMARK    8  A    between atoms: C16_20  and  C17_21 
REMARK    9  A    between atoms: C17_21  and  O4_22 
REMARK   10  A    between atoms: C17_21  and  C18_24 
REMARK   11  A    between atoms: C21_27  and  C23_29 
REMARK   12  A    between atoms: C23_29  and  C24_30 
REMARK   13  A    between atoms: C24_30  and  C25_31 
REMARK   14  A    between atoms: C25_31  and  C26_32 
ROOT
HETATM    1  C18 UNL     1      -2.280   0.031   0.190  1.00  0.00     0.089 C 
HETATM    2  C19 UNL     1      -3.103   0.744   1.223  1.00  0.00     0.014 C 
HETATM    3  C20 UNL     1      -4.351   0.020   1.652  1.00  0.00     0.016 C 
HETATM    4  C21 UNL     1      -5.252  -0.235   0.503  1.00  0.00    -0.000 C 
HETATM    5  C22 UNL     1      -6.190  -1.414   0.783  1.00  0.00     0.021 C 
HETATM    6  C29 UNL     1      -4.416  -0.540  -0.709  1.00  0.00     0.057 C 
HETATM    7  N1  UNL     1      -4.882  -0.297  -1.847  1.00  0.00    -0.400 N 
ATOM      8  H11 UNL     1      -4.315  -0.504  -2.669  1.00  0.00     0.155 HD
ATOM      9  H12 UNL     1      -5.806   0.096  -2.028  1.00  0.00     0.155 HD
HETATM   10  C30 UNL     1      -3.051  -1.121  -0.441  1.00  0.00     0.274 C 
HETATM   11  O5  UNL     1      -2.520  -1.509  -1.643  1.00  0.00    -0.188 OA
HETATM   12  O6  UNL     1      -3.280  -2.444  -2.160  1.00  0.00    -0.194 OA
HETATM   13  C31 UNL     1      -3.245  -3.574  -1.389  1.00  0.00     0.230 C 
HETATM   14  C32 UNL     1      -2.053  -4.411  -1.863  1.00  0.00     0.074 C 
HETATM   15  C33 UNL     1      -2.590  -5.506  -2.722  1.00  0.00     0.006 C 
HETATM   16  C34 UNL     1      -4.060  -5.244  -2.914  1.00  0.00     0.006 C 
HETATM   17  C35 UNL     1      -4.447  -4.443  -1.702  1.00  0.00     0.074 C 
HETATM   18  O7  UNL     1      -3.072  -3.361  -0.052  1.00  0.00    -0.194 OA
HETATM   19  O8  UNL     1      -3.226  -2.176   0.401  1.00  0.00    -0.188 OA
ENDROOT
BRANCH   1  20
HETATM   20  C17 UNL     1      -0.929  -0.335   0.695  1.00  0.00     0.130 C 
BRANCH  20  21
HETATM   21  C16 UNL     1      -0.108  -1.029  -0.333  1.00  0.00     0.064 C 
BRANCH  21  22
HETATM   22  C15 UNL     1       1.349  -1.190   0.021  1.00  0.00     0.125 C 
BRANCH  22  23
HETATM   23  C13 UNL     1       2.092   0.071   0.249  1.00  0.00     0.020 C 
HETATM   24  C14 UNL     1       1.825   1.007  -0.936  1.00  0.00     0.013 C 
BRANCH  23  25
HETATM   25  C12 UNL     1       3.572  -0.141   0.408  1.00  0.00     0.043 C 
HETATM   26  C7  UNL     1       4.310   1.146   0.674  1.00  0.00     0.140 C 
HETATM   27  C8  UNL     1       4.113   1.518   2.125  1.00  0.00     0.037 C 
HETATM   28  C9  UNL     1       4.868   0.530   2.976  1.00  0.00     0.029 C 
HETATM   29  C10 UNL     1       4.503  -0.842   2.590  1.00  0.00    -0.030 C 
HETATM   30  C11 UNL     1       3.923  -1.133   1.434  1.00  0.00    -0.023 C 
BRANCH  26  31
HETATM   31  O2  UNL     1       5.696   0.896   0.487  1.00  0.00    -0.315 OA
BRANCH  31  32
HETATM   32  C6  UNL     1       6.460   1.713  -0.361  1.00  0.00     0.263 C 
HETATM   33  O1  UNL     1       5.862   2.654  -0.927  1.00  0.00    -0.265 OA
BRANCH  32  34
HETATM   34  C5  UNL     1       7.882   1.402  -0.515  1.00  0.00     0.089 C 
HETATM   35  C4  UNL     1       8.102   0.022  -1.131  1.00  0.00     0.042 C 
HETATM   36  C3  UNL     1       9.531  -0.288  -0.904  1.00  0.00    -0.023 C 
HETATM   37  C2  UNL     1      10.435   0.665  -1.045  1.00  0.00    -0.087 C 
HETATM   38  C1  UNL     1      11.907   0.353  -0.812  1.00  0.00     0.043 C 
HETATM   39  C37 UNL     1      10.073   2.033  -1.426  1.00  0.00     0.034 C 
HETATM   40  C36 UNL     1       8.641   2.406  -1.313  1.00  0.00     0.019 C 
ENDBRANCH  32  34
ENDBRANCH  31  32
ENDBRANCH  26  31
ENDBRANCH  23  25
ENDBRANCH  22  23
BRANCH  22  41
HETATM   41  O3  UNL     1       1.418  -2.139   1.010  1.00  0.00    -0.395 OA
ATOM     42  H3  UNL     1       0.941  -2.948   0.864  1.00  0.00     0.210 HD
ENDBRANCH  22  41
ENDBRANCH  21  22
ENDBRANCH  20  21
BRANCH  20  43
HETATM   43  O4  UNL     1      -0.929  -1.023   1.908  1.00  0.00    -0.395 OA
ATOM     44  H4  UNL     1      -1.453  -0.580   2.565  1.00  0.00     0.210 HD
ENDBRANCH  20  43
ENDBRANCH   1  20
BRANCH   4  45
HETATM   45  C23 UNL     1      -6.127   0.947   0.197  1.00  0.00     0.015 C 
BRANCH  45  46
HETATM   46  C24 UNL     1      -7.022   1.321   1.330  1.00  0.00     0.001 C 
BRANCH  46  47
HETATM   47  C25 UNL     1      -7.916   2.510   0.948  1.00  0.00     0.004 C 
BRANCH  47  48
HETATM   48  C26 UNL     1      -7.098   3.705   0.600  1.00  0.00    -0.023 C 
HETATM   49  C27 UNL     1      -6.234   4.117   1.775  1.00  0.00     0.009 C 
HETATM   50  C28 UNL     1      -8.089   4.861   0.383  1.00  0.00     0.009 C 
ENDBRANCH  47  48
ENDBRANCH  46  47
ENDBRANCH  45  46
ENDBRANCH   4  45
TORSDOF 14
