REMARK  6 active torsions:
REMARK  status: ('A' for Active; 'I' for Inactive)
REMARK    1  A    between atoms: C5_8  and  C6_9 
REMARK    2  A    between atoms: C6_9  and  C7_10 
REMARK    3  A    between atoms: C10_13  and  N2_14 
REMARK    4  A    between atoms: N2_14  and  C11_16 
REMARK    5  A    between atoms: C16_26  and  N5_27 
REMARK    6  A    between atoms: N5_27  and  C17_29 
ROOT
HETATM    1  C7  UNL     1      -2.332  -1.641   1.156  1.00  0.00     0.019 A 
HETATM    2  C8  UNL     1      -2.035  -0.325   0.804  1.00  0.00     0.044 A 
HETATM    3  C9  UNL     1      -0.697  -0.246   0.465  1.00  0.00     0.055 A 
HETATM    4  C10 UNL     1       0.113   0.790   0.049  1.00  0.00     0.131 A 
HETATM    5  N4  UNL     1       1.402   0.506  -0.200  1.00  0.00    -0.176 N 
ATOM      6  H4  UNL     1       2.018   1.259  -0.508  1.00  0.00     0.186 HD
HETATM    7  C16 UNL     1       1.915  -0.732  -0.060  1.00  0.00     0.681 A 
HETATM    8  N6  UNL     1       1.101  -1.722   0.346  1.00  0.00    -0.176 N 
ATOM      9  H6  UNL     1       1.492  -2.658   0.450  1.00  0.00     0.186 HD
HETATM   10  C22 UNL     1      -0.209  -1.540   0.623  1.00  0.00     0.137 A 
HETATM   11  N7  UNL     1      -1.201  -2.357   1.036  1.00  0.00    -0.340 N 
HETATM   12  C23 UNL     1      -1.045  -3.776   1.300  1.00  0.00     0.158 C 
ENDROOT
BRANCH   4  13
HETATM   13  N2  UNL     1      -0.393   1.960  -0.084  1.00  0.00    -0.369 N 
ATOM     14  H2  UNL     1      -1.386   2.047   0.131  1.00  0.00     0.161 HD
BRANCH  13  15
HETATM   15  C11 UNL     1       0.266   3.153  -0.496  1.00  0.00     0.108 C 
HETATM   16  C12 UNL     1      -0.820   4.226  -0.605  1.00  0.00     0.028 C 
HETATM   17  C13 UNL     1      -0.231   5.548  -1.033  1.00  0.00     0.029 C 
HETATM   18  C14 UNL     1       0.922   5.873  -0.109  1.00  0.00     0.232 C 
HETATM   19  N3  UNL     1       0.983   4.960   1.013  1.00  0.00    -0.073 N 
HETATM   20  C15 UNL     1       1.209   3.595   0.599  1.00  0.00     0.257 C 
ATOM     21  H32 UNL     1       1.682   5.259   1.693  1.00  0.00     0.277 HD
ATOM     22  H31 UNL     1       0.148   5.035   1.594  1.00  0.00     0.277 HD
ENDBRANCH  13  15
ENDBRANCH   4  13
BRANCH   7  23
HETATM   23  N5  UNL     1       3.142  -1.049  -0.290  1.00  0.00    -0.221 N 
ATOM     24  H5  UNL     1       3.399  -2.025  -0.143  1.00  0.00     0.178 HD
BRANCH  23  25
HETATM   25  C17 UNL     1       4.177  -0.172  -0.730  1.00  0.00     0.099 C 
HETATM   26  C18 UNL     1       5.245  -1.030  -1.395  1.00  0.00     0.026 C 
HETATM   27  C19 UNL     1       6.309  -1.276  -0.362  1.00  0.00     0.002 C 
HETATM   28  C20 UNL     1       5.654  -0.861   0.947  1.00  0.00     0.002 C 
HETATM   29  C21 UNL     1       4.884   0.379   0.492  1.00  0.00     0.026 C 
ENDBRANCH  23  25
ENDBRANCH   7  23
BRANCH   1  30
HETATM   30  C6  UNL     1      -3.664  -2.111   1.579  1.00  0.00     0.114 C 
BRANCH  30  31
HETATM   31  C5  UNL     1      -4.399  -2.542   0.345  1.00  0.00     0.022 A 
HETATM   32  C2  UNL     1      -5.690  -3.027   0.318  1.00  0.00    -0.016 A 
HETATM   33  C1  UNL     1      -6.575  -3.203   1.511  1.00  0.00     0.052 C 
HETATM   34  C3  UNL     1      -6.011  -3.315  -0.991  1.00  0.00     0.057 A 
HETATM   35 CL1  UNL     1      -7.535  -3.962  -1.585  1.00  0.00    -0.082 Cl
HETATM   36  C4  UNL     1      -4.911  -3.004  -1.753  1.00  0.00     0.112 A 
HETATM   37  N1  UNL     1      -3.965  -2.543  -0.918  1.00  0.00    -0.367 N 
ATOM     38  H1  UNL     1      -3.038  -2.234  -1.210  1.00  0.00     0.165 HD
ENDBRANCH  30  31
ENDBRANCH   1  30
TORSDOF 6
