REMARK  8 active torsions:
REMARK  status: ('A' for Active; 'I' for Inactive)
REMARK    1  A    between atoms: C5_7  and  N2_8 
REMARK    2  A    between atoms: C6_13  and  N4_14 
REMARK    3  A    between atoms: N4_14  and  C7_16 
REMARK    4  A    between atoms: C10_19  and  O1_20 
REMARK    5  A    between atoms: C15_26  and  O2_27 
REMARK    6  A    between atoms: O2_27  and  C16_28 
REMARK    7  A    between atoms: C16_28  and  C17_29 
REMARK    8  A    between atoms: C20_32  and  C21_33 
REMARK       I    between atoms: C21_33  and  N5_35 
ROOT
HETATM    1  C1  UNL     1      -2.650  -2.477   2.632  1.00  0.00     0.051 C 
HETATM    2  C2  UNL     1      -1.254  -2.083   2.283  1.00  0.00    -0.026 A 
HETATM    3  C3  UNL     1      -0.178  -2.860   2.718  1.00  0.00     0.040 A 
HETATM    4  C4  UNL     1       1.128  -2.540   2.424  1.00  0.00     0.063 A 
HETATM    5  N1  UNL     1       2.187  -3.264   2.823  1.00  0.00    -0.191 N 
ATOM      6  H1  UNL     1       2.027  -4.104   3.379  1.00  0.00     0.184 HD
HETATM    7  C5  UNL     1       3.449  -2.922   2.516  1.00  0.00     0.677 A 
HETATM    8  N3  UNL     1       3.704  -1.821   1.783  1.00  0.00    -0.176 N 
ATOM      9  H3  UNL     1       4.663  -1.562   1.550  1.00  0.00     0.186 HD
HETATM   10  C6  UNL     1       2.670  -1.071   1.365  1.00  0.00     0.130 A 
HETATM   11  C13 UNL     1       1.350  -1.398   1.666  1.00  0.00     0.038 A 
HETATM   12  C14 UNL     1       0.304  -0.614   1.226  1.00  0.00     0.054 A 
HETATM   13  C15 UNL     1      -0.997  -0.955   1.533  1.00  0.00     0.075 A 
ENDROOT
BRANCH  13  14
HETATM   14  O2  UNL     1      -2.083  -0.201   1.115  1.00  0.00    -0.350 OA
BRANCH  14  15
HETATM   15  C16 UNL     1      -1.932   0.978   0.339  1.00  0.00     0.181 C 
BRANCH  15  16
HETATM   16  C17 UNL     1      -3.263   1.605   0.015  1.00  0.00     0.023 C 
HETATM   17  C18 UNL     1      -3.037   2.860  -0.814  1.00  0.00     0.008 C 
HETATM   18  C19 UNL     1      -3.972   2.358  -1.867  1.00  0.00     0.015 C 
HETATM   19  C20 UNL     1      -3.966   1.008  -1.183  1.00  0.00     0.084 C 
BRANCH  19  20
HETATM   20  C21 UNL     1      -5.345   0.552  -0.927  1.00  0.00     0.223 C 
HETATM   21  O3  UNL     1      -5.842   0.678   0.218  1.00  0.00    -0.273 OA
HETATM   22  N5  UNL     1      -6.151  -0.033  -1.939  1.00  0.00    -0.360 N 
HETATM   23  C22 UNL     1      -7.504  -0.480  -1.688  1.00  0.00     0.152 C 
HETATM   24  C23 UNL     1      -5.571  -0.179  -3.276  1.00  0.00     0.152 C 
ENDBRANCH  19  20
ENDBRANCH  15  16
ENDBRANCH  14  15
ENDBRANCH  13  14
BRANCH  10  25
HETATM   25  N4  UNL     1       2.848  -0.007   0.658  1.00  0.00    -0.370 N 
ATOM     26  H4  UNL     1       2.020   0.517   0.373  1.00  0.00     0.161 HD
BRANCH  25  27
HETATM   27  C7  UNL     1       4.140   0.496   0.240  1.00  0.00     0.083 C 
HETATM   28  C8  UNL     1       4.650  -0.252  -0.978  1.00  0.00     0.028 C 
HETATM   29  C9  UNL     1       5.337   0.674  -1.937  1.00  0.00     0.034 C 
HETATM   30  C10 UNL     1       6.182   1.716  -1.255  1.00  0.00     0.118 C 
HETATM   31  C11 UNL     1       5.289   2.601  -0.433  1.00  0.00     0.034 C 
HETATM   32  C12 UNL     1       3.944   1.940  -0.190  1.00  0.00     0.028 C 
BRANCH  30  33
HETATM   33  O1  UNL     1       6.815   2.443  -2.272  1.00  0.00    -0.396 OA
ATOM     34  H1  UNL     1       7.348   3.101  -1.841  1.00  0.00     0.210 HD
ENDBRANCH  30  33
ENDBRANCH  25  27
ENDBRANCH  10  25
BRANCH   7  35
HETATM   35  N2  UNL     1       4.471  -3.617   2.900  1.00  0.00    -0.234 N 
ATOM     36  H22 UNL     1       4.278  -4.451   3.455  1.00  0.00     0.174 HD
ATOM     37  H21 UNL     1       5.429  -3.357   2.667  1.00  0.00     0.174 HD
ENDBRANCH   7  35
TORSDOF 8
