REMARK  4 active torsions:
REMARK  status: ('A' for Active; 'I' for Inactive)
REMARK    1  A    between atoms: O1_1  and  N1_3 
REMARK    2  A    between atoms: N1_3  and  N2_5 
REMARK    3  A    between atoms: N2_5  and  C1_7 
REMARK    4  A    between atoms: C2_8  and  N3_9 
ROOT
HETATM    1  C1  UNL     1       0.638   0.025  -0.243  1.00  0.00     0.158 A 
HETATM    2  C2  UNL     1      -0.398   0.737   0.330  1.00  0.00     0.205 A 
HETATM    3  C3  UNL     1      -1.684   0.290   0.154  1.00  0.00     0.295 A 
HETATM    4  O4  UNL     1      -2.668   0.879   0.635  1.00  0.00    -0.264 OA
HETATM    5  N4  UNL     1      -1.956  -0.852  -0.578  1.00  0.00    -0.261 N 
ATOM      6  H4  UNL     1      -2.915  -1.176  -0.703  1.00  0.00     0.190 HD
HETATM    7  N5  UNL     1      -0.959  -1.503  -1.103  1.00  0.00    -0.262 N 
ATOM      8  H5  UNL     1      -1.154  -2.347  -1.642  1.00  0.00     0.190 HD
HETATM    9  C4  UNL     1       0.317  -1.108  -0.964  1.00  0.00     0.290 A 
HETATM   10  O5  UNL     1       1.249  -1.774  -1.500  1.00  0.00    -0.264 OA
ENDROOT
BRANCH   1  11
HETATM   11  N2  UNL     1       1.961   0.476  -0.068  1.00  0.00    -0.274 N 
ATOM     12  H2  UNL     1       2.304   1.286  -0.584  1.00  0.00     0.189 HD
BRANCH  11  13
HETATM   13  N1  UNL     1       2.796  -0.204   0.823  1.00  0.00    -0.209 N 
ATOM     14  H1  UNL     1       3.678   0.233   1.090  1.00  0.00     0.215 HD
BRANCH  13  15
HETATM   15  O1  UNL     1       2.516  -1.318   1.308  1.00  0.00    -0.274 OA
ATOM     16  H1  UNL     1       3.084  -1.780   1.914  1.00  0.00     0.246 HD
ENDBRANCH  13  15
ENDBRANCH  11  13
ENDBRANCH   1  11
BRANCH   2  17
HETATM   17  N3  UNL     1      -0.116   1.909   1.107  1.00  0.00    -0.107 N 
HETATM   18  O2  UNL     1       0.222   2.963   0.586  1.00  0.00    -0.531 OA
HETATM   19  O3  UNL     1      -0.250   1.775   2.473  1.00  0.00    -0.531 OA
ENDBRANCH   2  17
TORSDOF 4
