REMARK  3 active torsions:
REMARK  status: ('A' for Active; 'I' for Inactive)
REMARK    1  A    between atoms: C1_2  and  N2_4 
REMARK    2  A    between atoms: N2_4  and  N3_6 
REMARK    3  A    between atoms: C10_20  and  N5_21 
ROOT
HETATM    1  N5  UNL     1       0.900   2.840  -0.803  1.00  0.00    -0.279 NA
HETATM    2  O1  UNL     1       1.417   3.812  -1.376  1.00  0.00    -0.218 OA
ATOM      3  H1  UNL     1       1.871   4.525  -1.810  1.00  0.00     0.261 HD
ENDROOT
BRANCH   1   4
HETATM    4  C10 UNL     1       0.329   1.942  -0.257  1.00  0.00     0.198 C 
HETATM    5  C2  UNL     1       1.058   0.743   0.192  1.00  0.00     0.072 C 
HETATM    6  N3  UNL     1       2.303   0.883   0.498  1.00  0.00    -0.299 N 
HETATM    7  C3  UNL     1       0.446  -0.600   0.309  1.00  0.00     0.062 C 
ATOM      8  H3  UNL     1       2.719   1.811   0.414  1.00  0.00     0.186 HD
HETATM    9  C4  UNL     1      -0.357  -1.019  -0.881  1.00  0.00     0.006 C 
HETATM   10  C5  UNL     1      -1.423  -2.020  -0.581  1.00  0.00     0.000 C 
HETATM   11  C6  UNL     1      -2.417  -1.600   0.452  1.00  0.00     0.001 C 
HETATM   12  C7  UNL     1      -3.353  -0.533  -0.007  1.00  0.00     0.010 C 
HETATM   13  C8  UNL     1      -3.507   0.596   0.977  1.00  0.00     0.081 C 
HETATM   14  S2  UNL     1      -1.928   1.355   1.417  1.00  0.00    -0.107 SA
HETATM   15  C9  UNL     1      -1.134   2.037  -0.024  1.00  0.00     0.141 C 
HETATM   16  N4  UNL     1      -1.834   2.632  -0.900  1.00  0.00    -0.214 N 
HETATM   17  F1  UNL     1      -1.328   3.176  -2.015  1.00  0.00    -0.101 F 
ATOM     18  H4  UNL     1      -2.840   2.700  -0.746  1.00  0.00     0.200 HD
BRANCH   6  19
HETATM   19  N2  UNL     1       3.108  -0.160   0.935  1.00  0.00    -0.278 N 
ATOM     20  H2  UNL     1       2.777  -0.759   1.692  1.00  0.00     0.189 HD
BRANCH  19  21
HETATM   21  C1  UNL     1       4.377  -0.416   0.359  1.00  0.00     0.199 C 
HETATM   22  N1  UNL     1       5.198  -1.479   0.803  1.00  0.00    -0.068 NA
HETATM   23  S1  UNL     1       4.962   0.512  -0.859  1.00  0.00    -0.043 SA
ENDBRANCH  19  21
ENDBRANCH   6  19
ENDBRANCH   1   4
TORSDOF 3
