REMARK  12 active torsions:
REMARK  status: ('A' for Active; 'I' for Inactive)
REMARK    1  A    between atoms: N1_1  and  C1_4 
REMARK    2  A    between atoms: C2_7  and  N3_8 
REMARK    3  A    between atoms: C3_13  and  C4_14 
REMARK       I    between atoms: C4_14  and  N6_16 
REMARK    4  A    between atoms: N6_16  and  N7_18 
REMARK    5  A    between atoms: C5_20  and  C6_21 
REMARK    6  A    between atoms: C8_23  and  N8_24 
REMARK    7  A    between atoms: C11_35  and  N12_36 
REMARK    8  A    between atoms: N12_36  and  C12_38 
REMARK    9  A    between atoms: C12_38  and  C13_39 
REMARK   10  A    between atoms: C12_38  and  C14_42 
REMARK   11  A    between atoms: C13_39  and  O4_40 
REMARK   12  A    between atoms: C17_45  and  O5_46 
ROOT
HETATM    1  C1  UNL     1       2.337  -2.273   2.444  1.00  0.00     0.705 A 
HETATM    2  N2  UNL     1       1.231  -1.517   2.313  1.00  0.00    -0.018 N 
ATOM      3  H2  UNL     1       0.408  -1.719   2.880  1.00  0.00     0.203 HD
HETATM    4  C2  UNL     1       1.207  -0.498   1.439  1.00  0.00     0.749 A 
HETATM    5  N11 UNL     1       2.327  -0.278   0.715  1.00  0.00    -0.018 N 
ATOM      6  H11 UNL     1       2.332   0.491   0.045  1.00  0.00     0.203 HD
HETATM    7  C11 UNL     1       3.431  -1.026   0.840  1.00  0.00     0.708 A 
HETATM    8  N13 UNL     1       3.451  -2.060   1.729  1.00  0.00    -0.022 N 
ATOM      9  H13 UNL     1       4.278  -2.646   1.845  1.00  0.00     0.203 HD
ENDROOT
BRANCH   4  10
HETATM   10  N3  UNL     1       0.041   0.336   1.269  1.00  0.00    -0.003 N 
HETATM   11  N4  UNL     1       0.026   1.656   1.248  1.00  0.00    -0.204 N 
HETATM   12  N5  UNL     1      -1.215   2.069   1.073  1.00  0.00    -0.263 N 
ATOM     13  H4  UNL     1       0.842   2.259   1.351  1.00  0.00     0.211 HD
HETATM   14  C3  UNL     1      -2.022   0.999   0.979  1.00  0.00     0.209 A 
ATOM     15  H5  UNL     1      -1.513   3.043   1.018  1.00  0.00     0.190 HD
HETATM   16  N10 UNL     1      -1.207  -0.060   1.105  1.00  0.00    -0.242 N 
ATOM     17  H10 UNL     1      -1.510  -1.034   1.078  1.00  0.00     0.191 HD
BRANCH  14  18
HETATM   18  C4  UNL     1      -3.467   1.020   0.782  1.00  0.00     0.306 C 
HETATM   19  O1  UNL     1      -4.055   2.124   0.687  1.00  0.00    -0.262 OA
HETATM   20  N6  UNL     1      -4.171  -0.226   0.705  1.00  0.00    -0.264 N 
ATOM     21  H6  UNL     1      -3.677  -1.114   0.786  1.00  0.00     0.190 HD
BRANCH  20  22
HETATM   22  N7  UNL     1      -5.539  -0.188   0.518  1.00  0.00    -0.307 N 
HETATM   23  C5  UNL     1      -6.128   0.520  -0.376  1.00  0.00     0.136 C 
ATOM     24  H7  UNL     1      -6.120  -0.760   1.131  1.00  0.00     0.186 HD
BRANCH  23  25
HETATM   25  C6  UNL     1      -7.573   0.525  -0.531  1.00  0.00     0.051 A 
HETATM   26  C7  UNL     1      -8.388  -0.243   0.290  1.00  0.00     0.067 A 
HETATM   27  C8  UNL     1      -9.756  -0.270   0.179  1.00  0.00     0.106 A 
HETATM   28  C9  UNL     1     -10.361   0.496  -0.785  1.00  0.00     0.053 A 
HETATM   29  C10 UNL     1      -9.541   1.258  -1.599  1.00  0.00     0.091 A 
HETATM   30  N9  UNL     1      -8.203   1.261  -1.464  1.00  0.00    -0.365 N 
ATOM     31  H9  UNL     1      -7.646   1.842  -2.091  1.00  0.00     0.165 HD
BRANCH  27  32
HETATM   32  N8  UNL     1     -10.582  -1.060   1.024  1.00  0.00    -0.116 N 
HETATM   33  O2  UNL     1     -11.813  -1.091   0.933  1.00  0.00    -0.532 OA
HETATM   34  O3  UNL     1      -9.975  -1.839   2.005  1.00  0.00    -0.532 OA
ENDBRANCH  27  32
ENDBRANCH  23  25
ENDBRANCH  20  22
ENDBRANCH  14  18
ENDBRANCH   4  10
BRANCH   1  35
HETATM   35  N1  UNL     1       2.373  -3.262   3.286  1.00  0.00    -0.234 N 
ATOM     36  H12 UNL     1       1.525  -3.424   3.830  1.00  0.00     0.174 HD
ATOM     37  H11 UNL     1       3.211  -3.835   3.385  1.00  0.00     0.174 HD
ENDBRANCH   1  35
BRANCH   7  38
HETATM   38  N12 UNL     1       4.500  -0.835   0.165  1.00  0.00    -0.214 N 
ATOM     39  H12 UNL     1       5.302  -1.447   0.314  1.00  0.00     0.178 HD
BRANCH  38  40
HETATM   40  C12 UNL     1       4.594   0.251  -0.822  1.00  0.00     0.156 C 
BRANCH  40  41
HETATM   41  C13 UNL     1       4.024  -0.262  -2.090  1.00  0.00     0.194 C 
BRANCH  41  42
HETATM   42  O4  UNL     1       3.979   0.644  -3.136  1.00  0.00    -0.398 OA
ATOM     43  H4  UNL     1       3.614   0.315  -3.949  1.00  0.00     0.209 HD
ENDBRANCH  41  42
ENDBRANCH  40  41
BRANCH  40  44
HETATM   44  C14 UNL     1       6.056   0.535  -0.905  1.00  0.00    -0.033 A 
HETATM   45  C15 UNL     1       6.780   0.627  -2.058  1.00  0.00     0.012 A 
HETATM   46  C16 UNL     1       8.140   0.902  -2.080  1.00  0.00     0.037 A 
HETATM   47  C17 UNL     1       8.807   1.093  -0.891  1.00  0.00     0.065 A 
HETATM   48  C18 UNL     1       8.111   1.008   0.297  1.00  0.00     0.037 A 
HETATM   49  C19 UNL     1       6.764   0.735   0.291  1.00  0.00     0.012 A 
BRANCH  47  50
HETATM   50  O5  UNL     1      10.174   1.372  -0.852  1.00  0.00    -0.361 OA
ATOM     51  H5  UNL     1      10.634   1.504  -0.031  1.00  0.00     0.217 HD
ENDBRANCH  47  50
ENDBRANCH  40  44
ENDBRANCH  38  40
ENDBRANCH   7  38
TORSDOF 12
