REMARK  4 active torsions:
REMARK  status: ('A' for Active; 'I' for Inactive)
REMARK    1  A    between atoms: C1_2  and  C2_3 
REMARK    2  A    between atoms: C1_2  and  C6_12 
REMARK    3  A    between atoms: C4_5  and  O2_6 
REMARK    4  A    between atoms: C6_12  and  C7_13 
ROOT
HETATM    1  C6  UNL     1      -0.799  -0.232  -0.086  1.00  0.00     0.049 C 
HETATM    2  C11 UNL     1      -0.982  -1.049   1.191  1.00  0.00     0.020 C 
HETATM    3  C12 UNL     1      -0.941  -2.499   0.759  1.00  0.00     0.001 C 
HETATM    4  C13 UNL     1      -2.319  -2.787   0.180  1.00  0.00     0.000 C 
HETATM    5  C14 UNL     1      -2.958  -1.523  -0.325  1.00  0.00     0.001 C 
HETATM    6  C15 UNL     1      -2.005  -0.562  -0.946  1.00  0.00     0.020 C 
ENDROOT
BRANCH   1   7
HETATM    7  C1  UNL     1       0.448  -0.636  -0.762  1.00  0.00     0.168 C 
HETATM    8  O1  UNL     1       0.362  -0.892  -1.987  1.00  0.00    -0.295 OA
BRANCH   7   9
HETATM    9  C2  UNL     1       1.788  -0.785  -0.200  1.00  0.00     0.258 C 
HETATM   10  C3  UNL     1       2.403   0.459   0.386  1.00  0.00     0.074 C 
HETATM   11  C4  UNL     1       3.908   0.167   0.219  1.00  0.00     0.146 C 
HETATM   12  C5  UNL     1       3.862  -0.370  -1.211  1.00  0.00     0.264 C 
HETATM   13  N1  UNL     1       2.752  -1.279  -1.171  1.00  0.00    -0.062 N 
ATOM     14  H12 UNL     1       3.039  -2.240  -0.985  1.00  0.00     0.278 HD
ATOM     15  H11 UNL     1       2.338  -1.433  -2.091  1.00  0.00     0.278 HD
BRANCH  11  16
HETATM   16  O2  UNL     1       4.666   1.315   0.319  1.00  0.00    -0.394 OA
ATOM     17  H2  UNL     1       5.593   1.135   0.216  1.00  0.00     0.210 HD
ENDBRANCH  11  16
ENDBRANCH   7   9
ENDBRANCH   1   7
BRANCH   1  18
HETATM   18  C7  UNL     1      -0.774   1.197   0.310  1.00  0.00     0.137 C 
HETATM   19  C8  UNL     1      -0.684   2.148  -0.853  1.00  0.00     0.035 C 
HETATM   20  C9  UNL     1      -1.745   3.155  -0.578  1.00  0.00     0.029 C 
HETATM   21  C10 UNL     1      -2.433   2.686   0.658  1.00  0.00     0.168 C 
HETATM   22  O3  UNL     1      -1.959   1.456   0.994  1.00  0.00    -0.385 OA
ENDBRANCH   1  18
TORSDOF 4
