REMARK  5 active torsions:
REMARK  status: ('A' for Active; 'I' for Inactive)
REMARK    1  A    between atoms: O1_2  and  C2_3 
REMARK    2  A    between atoms: C6_7  and  O2_8 
REMARK    3  A    between atoms: C6_7  and  C7_10 
REMARK    4  A    between atoms: C7_10  and  N1_11 
REMARK    5  A    between atoms: C14_18  and  O3_19 
ROOT
HETATM    1  C2  UNL     1       3.441   0.532   0.109  1.00  0.00     0.123 C 
HETATM    2  C3  UNL     1       2.874  -0.657   0.896  1.00  0.00     0.039 C 
HETATM    3  C4  UNL     1       1.564  -1.097   0.338  1.00  0.00     0.023 C 
HETATM    4  C5  UNL     1       0.984  -2.183   1.187  1.00  0.00     0.013 C 
HETATM    5  C6  UNL     1       0.525   0.030   0.276  1.00  0.00     0.113 C 
HETATM    6  C14 UNL     1       1.115   1.258  -0.372  1.00  0.00     0.157 C 
HETATM    7  C15 UNL     1       2.390   1.632   0.316  1.00  0.00     0.067 C 
ENDROOT
BRANCH   5   8
HETATM    8  O2  UNL     1       0.195   0.335   1.565  1.00  0.00    -0.385 OA
ATOM      9  H2  UNL     1      -0.448   1.033   1.527  1.00  0.00     0.210 HD
ENDBRANCH   5   8
BRANCH   5  10
HETATM   10  C7  UNL     1      -0.639  -0.521  -0.462  1.00  0.00     0.313 C 
BRANCH  10  11
HETATM   11  N1  UNL     1      -1.787   0.259  -0.641  1.00  0.00     0.095 N 
HETATM   12  C8  UNL     1      -2.747  -0.513  -1.418  1.00  0.00     0.273 C 
HETATM   13  C9  UNL     1      -3.445  -1.583  -0.619  1.00  0.00     0.030 C 
HETATM   14  C10 UNL     1      -4.176  -0.950   0.543  1.00  0.00     0.004 C 
HETATM   15  C11 UNL     1      -3.205  -0.128   1.320  1.00  0.00     0.035 C 
HETATM   16  C12 UNL     1      -2.438   0.861   0.457  1.00  0.00     0.219 C 
HETATM   17  C13 UNL     1      -3.450   1.864  -0.146  1.00  0.00     0.043 C 
ENDBRANCH  10  11
ENDBRANCH   5  10
BRANCH   6  18
HETATM   18  O3  UNL     1       1.360   1.107  -1.718  1.00  0.00    -0.392 OA
ATOM     19  H3  UNL     1       1.732   1.880  -2.126  1.00  0.00     0.210 HD
ENDBRANCH   6  18
BRANCH   1  20
HETATM   20  O1  UNL     1       4.602   0.946   0.749  1.00  0.00    -0.391 OA
HETATM   21  C1  UNL     1       5.664   0.955  -0.181  1.00  0.00     0.202 C 
ENDBRANCH   1  20
TORSDOF 5
