REMARK  17 active torsions:
REMARK  status: ('A' for Active; 'I' for Inactive)
REMARK    1  A    between atoms: C3_3  and  C4_4 
REMARK    2  A    between atoms: C4_4  and  C5_5 
REMARK    3  A    between atoms: C5_5  and  N1_6 
REMARK    4  A    between atoms: N1_6  and  C6_8 
REMARK    5  A    between atoms: C6_8  and  C11_19 
REMARK    6  A    between atoms: N2_9  and  C7_11 
REMARK    7  A    between atoms: C7_11  and  C8_12 
REMARK    8  A    between atoms: C8_12  and  C9_13 
REMARK    9  A    between atoms: C9_13  and  N3_14 
REMARK   10  A    between atoms: C14_22  and  C15_23 
REMARK   11  A    between atoms: C15_23  and  C16_24 
REMARK   12  A    between atoms: C16_24  and  C17_25 
REMARK   13  A    between atoms: C17_25  and  C18_26 
REMARK   14  A    between atoms: N7_31  and  C20_32 
REMARK   15  A    between atoms: C20_32  and  C21_33 
REMARK   16  A    between atoms: C21_33  and  C22_34 
REMARK   17  A    between atoms: C22_34  and  N8_35 
ROOT
HETATM    1  C1  UNL     1      -6.476   4.193  -3.195  1.00  0.00     0.012 C 
HETATM    2  C2  UNL     1      -6.485   3.423  -2.273  1.00  0.00    -0.117 C 
HETATM    3  C3  UNL     1      -6.475   2.485  -1.122  1.00  0.00     0.094 C 
ENDROOT
BRANCH   3   4
HETATM    4  C4  UNL     1      -5.282   2.849  -0.259  1.00  0.00     0.032 C 
BRANCH   4   5
HETATM    5  C5  UNL     1      -3.985   2.720  -1.041  1.00  0.00     0.122 C 
BRANCH   5   6
HETATM    6  N1  UNL     1      -3.759   1.393  -1.516  1.00  0.00    -0.376 N 
ATOM      7  H1  UNL     1      -3.801   1.222  -2.521  1.00  0.00     0.161 HD
BRANCH   6   8
HETATM    8  C6  UNL     1      -3.472   0.273  -0.632  1.00  0.00     0.107 C 
HETATM    9  N2  UNL     1      -4.397  -0.550  -0.419  1.00  0.00    -0.376 N 
ATOM     10  H2  UNL     1      -5.277  -0.350  -0.894  1.00  0.00     0.161 HD
BRANCH   9  11
HETATM   11  C7  UNL     1      -4.395  -1.709   0.381  1.00  0.00     0.123 C 
BRANCH  11  12
HETATM   12  C8  UNL     1      -5.739  -1.878   1.100  1.00  0.00     0.039 C 
BRANCH  12  13
HETATM   13  C9  UNL     1      -6.832  -1.990   0.059  1.00  0.00     0.123 C 
BRANCH  13  14
HETATM   14  N3  UNL     1      -8.091  -2.145   0.714  1.00  0.00    -0.367 N 
HETATM   15  C10 UNL     1      -8.914  -3.085   0.389  1.00  0.00     0.196 C 
HETATM   16  N4  UNL     1     -10.162  -3.187   1.085  1.00  0.00    -0.067 NA
HETATM   17  N5  UNL     1      -8.547  -3.975  -0.639  1.00  0.00    -0.067 NA
ATOM     18  H3  UNL     1      -8.347  -1.496   1.458  1.00  0.00     0.161 HD
ENDBRANCH  13  14
ENDBRANCH  12  13
ENDBRANCH  11  12
ENDBRANCH   9  11
BRANCH   8  19
HETATM   19  C11 UNL     1      -2.143   0.189  -0.040  1.00  0.00     0.007 A 
HETATM   20  C12 UNL     1      -0.990   0.086  -0.826  1.00  0.00     0.016 A 
HETATM   21  C13 UNL     1       0.248   0.041  -0.218  1.00  0.00     0.008 A 
HETATM   22  C14 UNL     1       0.393   0.095   1.150  1.00  0.00    -0.058 A 
HETATM   23  C25 UNL     1      -0.773   0.197   1.907  1.00  0.00     0.008 A 
HETATM   24  C26 UNL     1      -2.026   0.244   1.330  1.00  0.00     0.016 A 
BRANCH  22  25
HETATM   25  C15 UNL     1       1.734   0.053   1.830  1.00  0.00     0.039 C 
BRANCH  25  26
HETATM   26  C16 UNL     1       2.219   1.502   1.936  1.00  0.00     0.011 C 
BRANCH  26  27
HETATM   27  C17 UNL     1       3.564   1.530   2.623  1.00  0.00     0.063 C 
BRANCH  27  28
HETATM   28  C18 UNL     1       4.508   0.712   1.799  1.00  0.00     0.082 A 
HETATM   29  N6  UNL     1       5.145  -0.321   2.226  1.00  0.00    -0.307 N 
HETATM   30  C19 UNL     1       5.963  -0.862   1.168  1.00  0.00     0.329 A 
ATOM     31  H6  UNL     1       5.081  -0.700   3.171  1.00  0.00     0.170 HD
HETATM   32  O1  UNL     1       6.701  -1.885   1.297  1.00  0.00    -0.246 OA
HETATM   33  N7  UNL     1       5.795  -0.079   0.016  1.00  0.00    -0.265 N 
HETATM   34  C24 UNL     1       4.851   0.949   0.410  1.00  0.00     0.274 A 
HETATM   35  O2  UNL     1       4.397   1.881  -0.296  1.00  0.00    -0.266 OA
BRANCH  33  36
HETATM   36  C20 UNL     1       6.347  -0.096  -1.307  1.00  0.00     0.139 C 
BRANCH  36  37
HETATM   37  C21 UNL     1       7.529   0.820  -1.411  1.00  0.00     0.040 C 
BRANCH  37  38
HETATM   38  C22 UNL     1       8.641   0.386  -0.516  1.00  0.00     0.123 C 
BRANCH  38  39
HETATM   39  N8  UNL     1       9.114  -0.932  -0.912  1.00  0.00    -0.367 N 
HETATM   40  C23 UNL     1      10.345  -1.213  -0.754  1.00  0.00     0.196 C 
HETATM   41  N9  UNL     1      11.228  -0.263  -0.207  1.00  0.00    -0.067 NA
HETATM   42  N10 UNL     1      10.832  -2.479  -1.125  1.00  0.00    -0.067 NA
ATOM     43  H8  UNL     1       8.471  -1.617  -1.309  1.00  0.00     0.161 HD
ENDBRANCH  38  39
ENDBRANCH  37  38
ENDBRANCH  36  37
ENDBRANCH  33  36
ENDBRANCH  27  28
ENDBRANCH  26  27
ENDBRANCH  25  26
ENDBRANCH  22  25
ENDBRANCH   8  19
ENDBRANCH   6   8
ENDBRANCH   5   6
ENDBRANCH   4   5
ENDBRANCH   3   4
TORSDOF 17
