REMARK  6 active torsions:
REMARK  status: ('A' for Active; 'I' for Inactive)
REMARK    1  A    between atoms: N1_2  and  C2_4 
REMARK    2  A    between atoms: C2_4  and  N2_6 
REMARK       I    between atoms: C3_8  and  N3_9 
REMARK       I    between atoms: C3_8  and  N6_14 
REMARK       I    between atoms: N6_14  and  C5_16 
REMARK    3  A    between atoms: C5_16  and  C6_18 
REMARK    4  A    between atoms: C6_18  and  N7_19 
REMARK    5  A    between atoms: C6_18  and  C7_23 
REMARK    6  A    between atoms: C7_23  and  C8_24 
ROOT
HETATM    1  N2  UNL     1      -2.461  -0.154  -0.548  1.00  0.00    -0.166 N 
ATOM      2  H2  UNL     1      -3.196   0.151  -1.187  1.00  0.00     0.186 HD
HETATM    3  C3  UNL     1      -1.401   0.539  -0.534  1.00  0.00     0.689 C 
HETATM    4  N3  UNL     1      -1.328   1.667  -1.398  1.00  0.00    -0.165 N 
ATOM      5  H3  UNL     1      -0.695   1.631  -2.197  1.00  0.00     0.186 HD
HETATM    6  C4  UNL     1      -2.029   2.731  -1.212  1.00  0.00     0.215 C 
HETATM    7  N4  UNL     1      -1.881   3.803  -2.136  1.00  0.00    -0.066 NA
HETATM    8  N5  UNL     1      -2.939   2.899  -0.144  1.00  0.00    -0.066 NA
HETATM    9  N6  UNL     1      -0.325   0.178   0.333  1.00  0.00    -0.158 N 
ATOM     10  H6  UNL     1      -0.427  -0.640   0.934  1.00  0.00     0.187 HD
HETATM   11  C5  UNL     1       0.878   0.921   0.383  1.00  0.00     0.267 C 
HETATM   12  O1  UNL     1       0.983   1.930  -0.353  1.00  0.00    -0.270 OA
ENDROOT
BRANCH   1  13
HETATM   13  C2  UNL     1      -2.733  -1.296   0.221  1.00  0.00     0.186 C 
HETATM   14  S1  UNL     1      -3.835  -1.340   1.422  1.00  0.00    -0.040 SA
BRANCH  13  15
HETATM   15  N1  UNL     1      -2.017  -2.492  -0.048  1.00  0.00    -0.371 N 
HETATM   16  C1  UNL     1      -2.234  -3.727   0.700  1.00  0.00     0.148 C 
ATOM     17  H1  UNL     1      -1.322  -2.488  -0.795  1.00  0.00     0.161 HD
ENDBRANCH  13  15
ENDBRANCH   1  13
BRANCH  11  18
HETATM   18  C6  UNL     1       1.957   0.494   1.294  1.00  0.00     0.283 C 
BRANCH  18  19
HETATM   19  N7  UNL     1       2.586   1.803   1.698  1.00  0.00    -0.066 N 
ATOM     20  H73 UNL     1       2.890   2.390   0.921  1.00  0.00     0.275 HD
ATOM     21  H72 UNL     1       1.938   2.485   2.092  1.00  0.00     0.275 HD
ATOM     22  H71 UNL     1       3.332   1.508   2.328  1.00  0.00     0.275 HD
ENDBRANCH  18  19
BRANCH  18  23
HETATM   23  C7  UNL     1       3.089  -0.235   0.646  1.00  0.00     0.142 C 
BRANCH  23  24
HETATM   24  C8  UNL     1       2.790  -1.485  -0.051  1.00  0.00     0.233 C 
HETATM   25  N8  UNL     1       3.911  -2.163  -0.683  1.00  0.00    -0.062 NA
HETATM   26  O2  UNL     1       1.676  -2.010  -0.148  1.00  0.00    -0.277 OA
ENDBRANCH  23  24
ENDBRANCH  18  23
ENDBRANCH  11  18
TORSDOF 6
