REMARK  3 active torsions:
REMARK  status: ('A' for Active; 'I' for Inactive)
REMARK    1  A    between atoms: C5_5  and  C6_6 
REMARK    2  A    between atoms: C6_6  and  C7_7 
REMARK    3  A    between atoms: C8_8  and  O1_9 
ROOT
HETATM    1  C7  UNL     1       0.780   0.349   1.067  1.00  0.00     0.049 A 
HETATM    2  C8  UNL     1       1.778  -0.248   1.804  1.00  0.00     0.154 A 
HETATM    3  N1  UNL     1       2.811  -0.420   0.967  1.00  0.00    -0.321 N 
ATOM      4  H1  UNL     1       3.702  -0.842   1.229  1.00  0.00     0.169 HD
HETATM    5  C9  UNL     1       2.519   0.035  -0.256  1.00  0.00     0.138 A 
HETATM    6  N2  UNL     1       3.190   0.102  -1.438  1.00  0.00    -0.329 N 
ATOM      7  H2  UNL     1       4.144  -0.254  -1.501  1.00  0.00     0.168 HD
HETATM    8  C10 UNL     1       2.602   0.635  -2.523  1.00  0.00     0.093 A 
HETATM    9  C11 UNL     1       3.347   0.706  -3.830  1.00  0.00     0.090 C 
HETATM   10  N3  UNL     1       1.348   1.106  -2.447  1.00  0.00    -0.289 N 
ATOM     11  H3  UNL     1       0.923   1.506  -3.284  1.00  0.00     0.188 HD
HETATM   12  N4  UNL     1       0.644   1.073  -1.336  1.00  0.00    -0.295 N 
ATOM     13  H4  UNL     1      -0.308   1.438  -1.302  1.00  0.00     0.187 HD
HETATM   14  C12 UNL     1       1.235   0.532  -0.230  1.00  0.00     0.106 A 
ENDROOT
BRANCH   1  15
HETATM   15  C6  UNL     1      -0.545   0.739   1.538  1.00  0.00     0.047 C 
BRANCH  15  16
HETATM   16  C5  UNL     1      -1.652   0.153   1.112  1.00  0.00     0.033 A 
HETATM   17  C4  UNL     1      -1.730  -0.869   0.200  1.00  0.00     0.031 A 
HETATM   18  C3  UNL     1      -3.055  -1.216   0.008  1.00  0.00     0.031 A 
HETATM   19  C2  UNL     1      -3.777  -0.378   0.828  1.00  0.00     0.023 A 
HETATM   20  C1  UNL     1      -5.094  -0.404   0.924  1.00  0.00     0.043 C 
HETATM   21  N5  UNL     1      -2.910   0.422   1.468  1.00  0.00    -0.357 N 
ATOM     22  H5  UNL     1      -3.178   1.142   2.139  1.00  0.00     0.166 HD
ENDBRANCH  15  16
ENDBRANCH   1  15
BRANCH   2  23
HETATM   23  O1  UNL     1       1.699  -0.596   3.163  1.00  0.00    -0.345 OA
ATOM     24  H1  UNL     1       2.388  -1.008   3.672  1.00  0.00     0.219 HD
ENDBRANCH   2  23
TORSDOF 3
