REMARK  3 active torsions:
REMARK  status: ('A' for Active; 'I' for Inactive)
REMARK    1  A    between atoms: O1_2  and  C2_3 
REMARK    2  A    between atoms: C5_6  and  C6_7 
REMARK    3  A    between atoms: C9_11  and  N1_12 
ROOT
HETATM    1  C6  UNL     1      -1.199  -0.086  -0.380  1.00  0.00     0.050 C 
HETATM    2  C7  UNL     1      -1.651  -1.289   0.106  1.00  0.00     0.089 C 
HETATM    3  C8  UNL     1      -2.828  -1.538   0.824  1.00  0.00     0.217 C 
HETATM    4  O2  UNL     1      -2.853  -2.610   1.494  1.00  0.00    -0.284 OA
HETATM    5  C9  UNL     1      -3.942  -0.716   0.854  1.00  0.00     0.154 C 
HETATM    6  N2  UNL     1      -4.035   0.540   0.411  1.00  0.00    -0.292 N 
ATOM      7  H2  UNL     1      -4.890   1.016   0.698  1.00  0.00     0.172 HD
HETATM    8  C10 UNL     1      -3.206   1.310  -0.352  1.00  0.00     0.326 C 
HETATM    9  O3  UNL     1      -3.558   2.472  -0.649  1.00  0.00    -0.247 OA
HETATM   10  N3  UNL     1      -1.986   0.922  -0.839  1.00  0.00    -0.308 N 
ATOM     11  H3  UNL     1      -1.628   1.449  -1.636  1.00  0.00     0.170 HD
ENDROOT
BRANCH   1  12
HETATM   12  C5  UNL     1       0.237   0.135  -0.396  1.00  0.00    -0.009 A 
HETATM   13  C4  UNL     1       1.155  -0.783   0.019  1.00  0.00     0.016 A 
HETATM   14  C3  UNL     1       2.515  -0.559   0.001  1.00  0.00     0.037 A 
HETATM   15  C2  UNL     1       2.995   0.641  -0.453  1.00  0.00     0.068 A 
HETATM   16  C12 UNL     1       2.112   1.599  -0.882  1.00  0.00     0.037 A 
HETATM   17  C11 UNL     1       0.765   1.338  -0.848  1.00  0.00     0.016 A 
BRANCH  15  18
HETATM   18  O1  UNL     1       4.357   0.915  -0.491  1.00  0.00    -0.356 OA
HETATM   19  C1  UNL     1       5.304  -0.025  -0.065  1.00  0.00     0.210 C 
ENDBRANCH  15  18
ENDBRANCH   1  12
BRANCH   5  20
HETATM   20  N1  UNL     1      -4.993  -1.247   1.374  1.00  0.00    -0.382 N 
ATOM     21  H12 UNL     1      -4.922  -2.207   1.712  1.00  0.00     0.157 HD
ATOM     22  H11 UNL     1      -5.814  -0.642   1.396  1.00  0.00     0.157 HD
ENDBRANCH   5  20
TORSDOF 3
