REMARK  6 active torsions:
REMARK  status: ('A' for Active; 'I' for Inactive)
REMARK    1  A    between atoms: C7_7  and  O1_8 
REMARK    2  A    between atoms: O1_8  and  C8_9 
REMARK    3  A    between atoms: C8_9  and  C9_10 
REMARK    4  A    between atoms: C10_11  and  N1_12 
REMARK    5  A    between atoms: C11_17  and  N3_18 
REMARK    6  A    between atoms: N4_21  and  O2_22 
ROOT
HETATM    1  C1  UNL     1      -3.615  -0.443   1.584  1.00  0.00     0.050 C 
HETATM    2  C2  UNL     1      -2.776   0.098   0.511  1.00  0.00    -0.031 A 
HETATM    3  C3  UNL     1      -3.242   1.103  -0.334  1.00  0.00     0.009 A 
HETATM    4  C4  UNL     1      -2.480   1.632  -1.352  1.00  0.00     0.002 A 
HETATM    5  C5  UNL     1      -1.190   1.166  -1.570  1.00  0.00     0.018 A 
HETATM    6  C6  UNL     1      -0.693   0.176  -0.758  1.00  0.00     0.046 A 
HETATM    7  C7  UNL     1       0.605  -0.306  -0.964  1.00  0.00     0.171 A 
HETATM    8  N2  UNL     1       1.063  -1.274  -0.156  1.00  0.00    -0.168 N 
ATOM      9  H2  UNL     1       2.007  -1.633  -0.297  1.00  0.00     0.186 HD
HETATM   10  C11 UNL     1       0.306  -1.787   0.841  1.00  0.00     0.704 A 
HETATM   11  N4  UNL     1      -0.940  -1.310   1.021  1.00  0.00    -0.051 N 
HETATM   12  C12 UNL     1      -1.477  -0.345   0.262  1.00  0.00     0.101 A 
ENDROOT
BRANCH   7  13
HETATM   13  O1  UNL     1       1.416   0.181  -1.962  1.00  0.00    -0.323 OA
BRANCH  13  14
HETATM   14  C8  UNL     1       2.379   1.199  -1.812  1.00  0.00     0.272 C 
BRANCH  14  15
HETATM   15  C9  UNL     1       3.393   0.830  -0.828  1.00  0.00    -0.057 C 
HETATM   16  C10 UNL     1       4.251   0.542  -0.002  1.00  0.00     0.005 C 
BRANCH  16  17
HETATM   17  N1  UNL     1       5.240   0.237   0.947  1.00  0.00    -0.359 N 
ATOM     18  H12 UNL     1       4.869   1.079   0.507  1.00  0.00     0.166 HD
ATOM     19  H11 UNL     1       5.954  -0.003   1.635  1.00  0.00     0.166 HD
ENDBRANCH  16  17
ENDBRANCH  14  15
ENDBRANCH  13  14
ENDBRANCH   7  13
BRANCH  10  20
HETATM   20  N3  UNL     1       0.794  -2.731   1.593  1.00  0.00    -0.232 N 
ATOM     21  H32 UNL     1       1.738  -3.092   1.457  1.00  0.00     0.174 HD
ATOM     22  H31 UNL     1       0.223  -3.118   2.345  1.00  0.00     0.174 HD
ENDBRANCH  10  20
BRANCH  11  23
HETATM   23  O2  UNL     1      -1.652  -1.856   2.030  1.00  0.00    -0.269 OA
ATOM     24  H2  UNL     1      -2.531  -1.519   2.157  1.00  0.00     0.245 HD
ENDBRANCH  11  23
TORSDOF 6
