REMARK  11 active torsions:
REMARK  status: ('A' for Active; 'I' for Inactive)
REMARK    1  A    between atoms: N1_2  and  N2_3 
REMARK    2  A    between atoms: N3_6  and  C4_7 
REMARK    3  A    between atoms: C6_12  and  N5_13 
REMARK    4  A    between atoms: N5_13  and  C7_15 
REMARK    5  A    between atoms: N7_19  and  C9_20 
REMARK    6  A    between atoms: C9_20  and  O1_21 
REMARK    7  A    between atoms: C9_20  and  N8_23 
REMARK       I    between atoms: N8_23  and  C10_25 
REMARK    8  A    between atoms: C10_25  and  C11_27 
REMARK    9  A    between atoms: C11_27  and  O3_28 
REMARK   10  A    between atoms: C11_27  and  C12_30 
REMARK   11  A    between atoms: C12_30  and  O4_32 
ROOT
HETATM    1  C7  UNL     1       0.139  -0.163  -1.110  1.00  0.00     0.695 C 
HETATM    2  N6  UNL     1      -0.194   1.014  -1.518  1.00  0.00    -0.211 N 
ATOM      3  H6  UNL     1       0.472   1.787  -1.495  1.00  0.00     0.179 HD
HETATM    4  C8  UNL     1      -1.544   1.205  -2.011  1.00  0.00     0.259 C 
HETATM    5  N7  UNL     1      -2.516   0.463  -1.243  1.00  0.00    -0.151 NA
HETATM    6  N9  UNL     1      -2.172  -0.845  -1.027  1.00  0.00    -0.243 N 
ATOM      7  H9  UNL     1      -2.869  -1.542  -0.765  1.00  0.00     0.203 HD
HETATM    8  N10 UNL     1      -0.849  -1.176  -1.179  1.00  0.00    -0.122 N 
ATOM      9  H10 UNL     1      -0.578  -2.146  -1.341  1.00  0.00     0.206 HD
ENDROOT
BRANCH   1  10
HETATM   10  N5  UNL     1       1.462  -0.445  -0.603  1.00  0.00    -0.181 N 
ATOM     11  H5  UNL     1       1.765  -0.087   0.303  1.00  0.00     0.185 HD
BRANCH  10  12
HETATM   12  C6  UNL     1       2.340  -1.246  -1.414  1.00  0.00     0.134 A 
HETATM   13  C4  UNL     1       3.627  -1.657  -1.247  1.00  0.00     0.083 A 
HETATM   14  C5  UNL     1       4.133  -2.461  -2.234  1.00  0.00     0.128 A 
HETATM   15  N4  UNL     1       3.346  -2.764  -3.250  1.00  0.00    -0.333 N 
HETATM   16  S1  UNL     1       1.910  -1.991  -2.923  1.00  0.00     0.006 SA
ATOM     17  H4  UNL     1       3.570  -3.345  -4.058  1.00  0.00     0.173 HD
BRANCH  13  18
HETATM   18  N3  UNL     1       4.469  -1.256  -0.128  1.00  0.00    -0.363 N 
HETATM   19  C3  UNL     1       5.674  -1.928   0.341  1.00  0.00     0.140 C 
HETATM   20  C2  UNL     1       6.549  -0.716   0.680  1.00  0.00     0.131 C 
HETATM   21  N2  UNL     1       5.635   0.247   1.230  1.00  0.00    -0.216 NA
HETATM   22  C14 UNL     1       4.305  -0.101   0.693  1.00  0.00     0.233 C 
BRANCH  21  23
HETATM   23  N1  UNL     1       5.941   1.559   0.932  1.00  0.00    -0.168 NA
HETATM   24  C1  UNL     1       7.347   1.842   0.952  1.00  0.00     0.152 C 
ENDBRANCH  21  23
ENDBRANCH  13  18
ENDBRANCH  10  12
ENDBRANCH   1  10
BRANCH   5  25
HETATM   25  C9  UNL     1      -2.846   1.216  -0.073  1.00  0.00     0.324 C 
BRANCH  25  26
HETATM   26  O1  UNL     1      -1.761   1.446   0.739  1.00  0.00    -0.362 OA
ATOM     27  H1  UNL     1      -1.980   1.946   1.516  1.00  0.00     0.213 HD
ENDBRANCH  25  26
BRANCH  25  28
HETATM   28  N8  UNL     1      -3.900   0.594   0.700  1.00  0.00    -0.319 N 
HETATM   29  C10 UNL     1      -5.131   1.233   0.901  1.00  0.00     0.252 C 
HETATM   30  O2  UNL     1      -5.317   2.381   0.390  1.00  0.00    -0.270 OA
ATOM     31  H8  UNL     1      -3.744  -0.328   1.107  1.00  0.00     0.166 HD
BRANCH  29  32
HETATM   32  C11 UNL     1      -6.184   0.567   1.697  1.00  0.00     0.238 C 
BRANCH  32  33
HETATM   33  O3  UNL     1      -5.746  -0.664   2.141  1.00  0.00    -0.384 OA
ATOM     34  H3  UNL     1      -6.423  -1.092   2.652  1.00  0.00     0.210 HD
ENDBRANCH  32  33
BRANCH  32  35
HETATM   35  C12 UNL     1      -7.485   0.421   0.912  1.00  0.00     0.152 C 
HETATM   36  C13 UNL     1      -7.229  -0.494  -0.260  1.00  0.00     0.042 C 
BRANCH  35  37
HETATM   37  O4  UNL     1      -7.904   1.675   0.477  1.00  0.00    -0.393 OA
ATOM     38  H4  UNL     1      -8.714   1.584  -0.012  1.00  0.00     0.210 HD
ENDBRANCH  35  37
ENDBRANCH  32  35
ENDBRANCH  29  32
ENDBRANCH  25  28
ENDBRANCH   5  25
TORSDOF 11
