REMARK  10 active torsions:
REMARK  status: ('A' for Active; 'I' for Inactive)
REMARK    1  A    between atoms: C13_13  and  N1_14 
REMARK       I    between atoms: N1_14  and  C14_16 
REMARK    2  A    between atoms: C14_16  and  C15_18 
REMARK    3  A    between atoms: C15_18  and  C16_19 
REMARK    4  A    between atoms: C16_19  and  C17_20 
REMARK    5  A    between atoms: C18_21  and  C19_22 
REMARK    6  A    between atoms: C19_22  and  C20_23 
REMARK    7  A    between atoms: C20_23  and  O2_24 
REMARK    8  A    between atoms: O2_24  and  C21_25 
REMARK    9  A    between atoms: N2_31  and  N3_33 
REMARK   10  A    between atoms: N3_33  and  C27_35 
ROOT
HETATM    1  C15 UNL     1      -0.074  -2.443  -0.913  1.00  0.00     0.104 C 
HETATM    2  N2  UNL     1      -0.620  -2.562  -2.083  1.00  0.00    -0.297 N 
ATOM      3  H2  UNL     1      -1.519  -2.111  -2.252  1.00  0.00     0.187 HD
ENDROOT
BRANCH   1   4
HETATM    4  C14 UNL     1      -0.765  -1.678   0.092  1.00  0.00     0.266 C 
HETATM    5  N1  UNL     1      -1.997  -1.071  -0.176  1.00  0.00    -0.351 N 
ATOM      6  H1  UNL     1      -2.404  -1.178  -1.105  1.00  0.00     0.163 HD
HETATM    7  O1  UNL     1      -0.253  -1.554   1.231  1.00  0.00    -0.266 OA
BRANCH   5   8
HETATM    8  C13 UNL     1      -2.728  -0.286   0.826  1.00  0.00     0.089 C 
HETATM    9  C2  UNL     1      -2.896   1.076   0.252  1.00  0.00     0.008 C 
HETATM   10  C1  UNL     1      -2.689   1.198  -1.228  1.00  0.00     0.012 C 
HETATM   11  C3  UNL     1      -4.029   1.964   0.788  1.00  0.00    -0.008 C 
HETATM   12  C4  UNL     1      -5.142   2.203  -0.172  1.00  0.00     0.010 C 
HETATM   13  C11 UNL     1      -4.568   1.034   1.861  1.00  0.00     0.010 C 
HETATM   14  C5  UNL     1      -6.516   1.859  -0.010  1.00  0.00    -0.014 C 
HETATM   15  C6  UNL     1      -7.298   2.050   1.221  1.00  0.00     0.005 C 
HETATM   16  C9  UNL     1      -7.012   0.434  -0.332  1.00  0.00     0.009 C 
HETATM   17  C7  UNL     1      -7.303   0.677   1.891  1.00  0.00     0.005 C 
HETATM   18  C8  UNL     1      -6.485  -0.250   0.971  1.00  0.00    -0.010 C 
HETATM   19  C10 UNL     1      -5.059  -0.053   0.974  1.00  0.00    -0.008 C 
HETATM   20  C12 UNL     1      -4.003  -1.105   1.136  1.00  0.00     0.030 C 
ENDBRANCH   5   8
ENDBRANCH   1   4
BRANCH   1  21
HETATM   21  C16 UNL     1       1.234  -3.103  -0.684  1.00  0.00     0.158 C 
BRANCH  21  22
HETATM   22  C17 UNL     1       2.234  -2.092  -0.339  1.00  0.00    -0.100 C 
HETATM   23  C18 UNL     1       3.065  -1.241  -0.072  1.00  0.00    -0.104 C 
BRANCH  23  24
HETATM   24  C19 UNL     1       4.064  -0.204   0.225  1.00  0.00     0.120 C 
BRANCH  24  25
HETATM   25  C20 UNL     1       5.073  -0.711   1.228  1.00  0.00     0.180 C 
BRANCH  25  26
HETATM   26  O2  UNL     1       6.044   0.194   1.563  1.00  0.00    -0.385 OA
BRANCH  26  27
HETATM   27  C21 UNL     1       6.833   0.615   0.515  1.00  0.00     0.121 C 
HETATM   28  C22 UNL     1       6.713   2.081   0.242  1.00  0.00     0.032 C 
HETATM   29  C23 UNL     1       7.988   2.728  -0.208  1.00  0.00     0.002 C 
HETATM   30  C24 UNL     1       9.164   2.427   0.678  1.00  0.00     0.000 C 
HETATM   31  C25 UNL     1       8.918   1.242   1.584  1.00  0.00     0.002 C 
HETATM   32  C26 UNL     1       8.283   0.169   0.721  1.00  0.00     0.032 C 
ENDBRANCH  26  27
ENDBRANCH  25  26
ENDBRANCH  24  25
ENDBRANCH  23  24
ENDBRANCH  21  22
ENDBRANCH   1  21
BRANCH   2  33
HETATM   33  N3  UNL     1      -0.024  -3.286  -3.125  1.00  0.00    -0.278 N 
ATOM     34  H3  UNL     1       0.912  -3.018  -3.430  1.00  0.00     0.189 HD
BRANCH  33  35
HETATM   35  C27 UNL     1      -0.657  -4.365  -3.769  1.00  0.00     0.199 C 
HETATM   36  N4  UNL     1      -0.007  -5.054  -4.812  1.00  0.00    -0.068 NA
HETATM   37  S1  UNL     1      -2.143  -4.820  -3.310  1.00  0.00    -0.043 SA
ENDBRANCH  33  35
ENDBRANCH   2  33
TORSDOF 10
