REMARK  14 active torsions:
REMARK  status: ('A' for Active; 'I' for Inactive)
REMARK    1  A    between atoms: C2_2  and  O1_3 
REMARK    2  A    between atoms: O1_3  and  C3_4 
REMARK    3  A    between atoms: C3_4  and  C4_6 
REMARK    4  A    between atoms: C4_6  and  C5_7 
REMARK    5  A    between atoms: C4_6  and  C8_13 
REMARK    6  A    between atoms: C5_7  and  O3_8 
REMARK    7  A    between atoms: O3_8  and  C6_9 
REMARK    8  A    between atoms: C6_9  and  C7_11 
REMARK    9  A    between atoms: C8_13  and  C9_14 
REMARK   10  A    between atoms: C9_14  and  O5_15 
REMARK   11  A    between atoms: C9_14  and  C10_17 
REMARK   12  A    between atoms: C15_22  and  C16_23 
REMARK   13  A    between atoms: C21_29  and  O7_30 
REMARK   14  A    between atoms: C31_41  and  O8_42 
ROOT
HETATM    1  C10 UNL     1      -2.257   0.520  -0.873  1.00  0.00     0.033 A 
HETATM    2  C11 UNL     1      -2.459   1.826  -1.266  1.00  0.00    -0.046 A 
HETATM    3  C12 UNL     1      -3.777   2.324  -1.800  1.00  0.00     0.049 C 
HETATM    4  C13 UNL     1      -1.390   2.688  -1.324  1.00  0.00     0.009 A 
HETATM    5  C14 UNL     1      -0.113   2.283  -1.010  1.00  0.00     0.015 A 
HETATM    6  C15 UNL     1       0.157   1.006  -0.631  1.00  0.00     0.000 A 
HETATM    7  C31 UNL     1      -0.944   0.111  -0.556  1.00  0.00     0.089 A 
ENDROOT
BRANCH   6   8
HETATM    8  C16 UNL     1       1.507   0.416  -0.609  1.00  0.00    -0.066 C 
HETATM    9  C17 UNL     1       2.322   0.337   0.600  1.00  0.00     0.043 C 
HETATM   10  C18 UNL     1       3.154  -0.921   0.327  1.00  0.00     0.027 C 
HETATM   11  C19 UNL     1       4.543  -0.865   0.838  1.00  0.00     0.131 C 
HETATM   12  C28 UNL     1       3.156  -1.127  -1.139  1.00  0.00    -0.034 C 
HETATM   13  O6  UNL     1       4.729  -1.019   2.182  1.00  0.00    -0.383 OA
HETATM   14  C25 UNL     1       5.232   0.375   0.324  1.00  0.00     0.025 C 
HETATM   15  C20 UNL     1       6.065  -1.382   2.382  1.00  0.00     0.200 C 
HETATM   16  C21 UNL     1       6.956  -0.226   2.021  1.00  0.00     0.150 C 
HETATM   17  C22 UNL     1       6.723   0.317   0.647  1.00  0.00    -0.014 C 
HETATM   18  C23 UNL     1       7.156   1.790   0.668  1.00  0.00     0.018 C 
HETATM   19  C24 UNL     1       7.508  -0.352  -0.431  1.00  0.00     0.018 C 
HETATM   20  C26 UNL     1       4.974   0.638  -1.112  1.00  0.00     0.009 C 
HETATM   21  C27 UNL     1       4.226  -0.389  -1.877  1.00  0.00     0.010 C 
HETATM   22  C29 UNL     1       3.241  -2.587  -1.501  1.00  0.00     0.016 C 
HETATM   23  C30 UNL     1       1.763  -0.680  -1.574  1.00  0.00     0.044 C 
BRANCH  16  24
HETATM   24  O7  UNL     1       8.289  -0.626   2.113  1.00  0.00    -0.393 OA
ATOM     25  H7  UNL     1       8.852   0.104   1.885  1.00  0.00     0.210 HD
ENDBRANCH  16  24
ENDBRANCH   6   8
BRANCH   7  26
HETATM   26  O8  UNL     1      -0.585  -1.123  -0.158  1.00  0.00    -0.359 OA
ATOM     27  H8  UNL     1       0.299  -1.398   0.055  1.00  0.00     0.217 HD
ENDBRANCH   7  26
BRANCH   1  28
HETATM   28  C9  UNL     1      -3.321  -0.391  -0.627  1.00  0.00     0.057 C 
BRANCH  28  29
HETATM   29  C8  UNL     1      -4.754  -0.541  -0.736  1.00  0.00     0.082 C 
BRANCH  29  30
HETATM   30  C4  UNL     1      -5.332  -0.903   0.647  1.00  0.00     0.116 C 
BRANCH  30  31
HETATM   31  C3  UNL     1      -6.757  -1.261   0.543  1.00  0.00     0.265 C 
HETATM   32  O2  UNL     1      -7.670  -0.459   0.786  1.00  0.00    -0.265 OA
BRANCH  31  33
HETATM   33  O1  UNL     1      -7.132  -2.558   0.157  1.00  0.00    -0.321 OA
BRANCH  33  34
HETATM   34  C2  UNL     1      -8.459  -2.976   0.058  1.00  0.00     0.174 C 
HETATM   35  C1  UNL     1      -9.200  -2.872   1.375  1.00  0.00     0.034 C 
ENDBRANCH  33  34
ENDBRANCH  31  33
ENDBRANCH  30  31
BRANCH  30  36
HETATM   36  C5  UNL     1      -5.381   0.463   1.430  1.00  0.00     0.193 C 
BRANCH  36  37
HETATM   37  O3  UNL     1      -6.162   1.337   0.656  1.00  0.00    -0.320 OA
BRANCH  37  38
HETATM   38  C6  UNL     1      -6.504   2.631   0.960  1.00  0.00     0.272 C 
HETATM   39  O4  UNL     1      -6.089   3.099   2.046  1.00  0.00    -0.264 OA
BRANCH  38  40
HETATM   40  C7  UNL     1      -7.354   3.442  -0.000  1.00  0.00     0.225 C 
HETATM   41 CL1  UNL     1      -7.622   5.081   0.555  1.00  0.00    -0.120 Cl
ENDBRANCH  38  40
ENDBRANCH  37  38
ENDBRANCH  36  37
ENDBRANCH  30  36
ENDBRANCH  29  30
ENDBRANCH  28  29
BRANCH  28  42
HETATM   42  O5  UNL     1      -2.832  -1.543  -0.093  1.00  0.00    -0.364 OA
ATOM     43  H5  UNL     1      -1.890  -1.444  -0.021  1.00  0.00     0.217 HD
ENDBRANCH  28  42
ENDBRANCH   1  28
TORSDOF 14
