REMARK  18 active torsions:
REMARK  status: ('A' for Active; 'I' for Inactive)
REMARK    1  A    between atoms: O1_2  and  C2_3 
REMARK    2  A    between atoms: C2_3  and  C3_5 
REMARK    3  A    between atoms: C3_5  and  O3_6 
REMARK    4  A    between atoms: C3_5  and  C4_8 
REMARK    5  A    between atoms: C5_9  and  O4_10 
REMARK    6  A    between atoms: C6_12  and  O5_13 
REMARK    7  A    between atoms: C7_15  and  C8_16 
REMARK    8  A    between atoms: C9_17  and  O6_18 
REMARK    9  A    between atoms: O6_18  and  C10_19 
REMARK   10  A    between atoms: C13_24  and  O9_25 
REMARK   11  A    between atoms: C14_27  and  C15_28 
REMARK   12  A    between atoms: C15_28  and  O10_29 
REMARK   13  A    between atoms: C15_28  and  O11_31 
REMARK   14  A    between atoms: C17_36  and  O14_37 
REMARK   15  A    between atoms: C18_39  and  N1_40 
REMARK   16  A    between atoms: N1_40  and  C19_42 
REMARK   17  A    between atoms: C19_42  and  N2_43 
REMARK   18  A    between atoms: C19_42  and  O15_47 
ROOT
HETATM    1  C4  UNL     1       2.286   0.341  -0.373  1.00  0.00     0.045 A 
HETATM    2  C5  UNL     1       1.451   1.383  -0.653  1.00  0.00     0.111 A 
HETATM    3  C6  UNL     1       0.091   1.294  -0.285  1.00  0.00     0.113 A 
HETATM    4  C7  UNL     1      -0.428   0.196   0.345  1.00  0.00     0.054 A 
HETATM    5  C17 UNL     1       0.418  -0.857   0.626  1.00  0.00     0.107 A 
HETATM    6  C18 UNL     1       1.747  -0.792   0.276  1.00  0.00     0.078 A 
ENDROOT
BRANCH   4   7
HETATM    7  C8  UNL     1      -1.811   0.087   0.714  1.00  0.00     0.093 C 
HETATM    8  C9  UNL     1      -2.615  -0.535  -0.209  1.00  0.00     0.149 C 
HETATM    9  C12 UNL     1      -4.003  -0.603  -0.251  1.00  0.00     0.242 C 
HETATM   10  O8  UNL     1      -4.509  -1.005  -1.317  1.00  0.00    -0.282 OA
HETATM   11  C13 UNL     1      -4.867  -0.264   0.788  1.00  0.00     0.154 C 
HETATM   12  C14 UNL     1      -4.579   0.419   1.954  1.00  0.00     0.148 C 
HETATM   13  O12 UNL     1      -3.417   0.741   2.437  1.00  0.00    -0.271 OA
HETATM   14  C16 UNL     1      -2.188   0.617   1.954  1.00  0.00     0.302 C 
HETATM   15  O13 UNL     1      -1.226   1.005   2.654  1.00  0.00    -0.259 OA
BRANCH   8  16
HETATM   16  O6  UNL     1      -1.923  -1.170  -1.221  1.00  0.00    -0.274 OA
BRANCH  16  17
HETATM   17  C10 UNL     1      -1.902  -0.583  -2.475  1.00  0.00     0.260 C 
HETATM   18  C11 UNL     1      -1.175  -1.199  -3.623  1.00  0.00     0.126 C 
HETATM   19  O7  UNL     1      -2.489   0.501  -2.729  1.00  0.00    -0.265 OA
ENDBRANCH  16  17
ENDBRANCH   8  16
BRANCH  11  20
HETATM   20  O9  UNL     1      -6.186  -0.662   0.631  1.00  0.00    -0.355 OA
ATOM     21  H9  UNL     1      -6.775  -0.431   1.339  1.00  0.00     0.218 HD
ENDBRANCH  11  20
BRANCH  12  22
HETATM   22  C15 UNL     1      -5.766   0.845   2.773  1.00  0.00     0.316 C 
BRANCH  22  23
HETATM   23  O10 UNL     1      -5.616   2.165   3.202  1.00  0.00    -0.365 OA
ATOM     24  H10 UNL     1      -6.366   2.434   3.719  1.00  0.00     0.213 HD
ENDBRANCH  22  23
BRANCH  22  25
HETATM   25  O11 UNL     1      -6.943   0.783   2.038  1.00  0.00    -0.365 OA
ATOM     26  H11 UNL     1      -7.693   1.052   2.555  1.00  0.00     0.213 HD
ENDBRANCH  22  25
ENDBRANCH  12  22
ENDBRANCH   4   7
BRANCH   3  27
HETATM   27  O5  UNL     1      -0.697   2.399  -0.602  1.00  0.00    -0.357 OA
ATOM     28  H5  UNL     1      -1.612   2.339  -0.354  1.00  0.00     0.217 HD
ENDBRANCH   3  27
BRANCH   5  29
HETATM   29  O14 UNL     1      -0.055  -1.993   1.268  1.00  0.00    -0.357 OA
ATOM     30  H14 UNL     1       0.528  -2.718   1.461  1.00  0.00     0.217 HD
ENDBRANCH   5  29
BRANCH   2  31
HETATM   31  O4  UNL     1       1.891   2.523  -1.291  1.00  0.00    -0.357 OA
ATOM     32  H4  UNL     1       1.310   3.249  -1.486  1.00  0.00     0.217 HD
ENDBRANCH   2  31
BRANCH   6  33
HETATM   33  N1  UNL     1       2.603  -1.915   0.579  1.00  0.00    -0.339 N 
ATOM     34  H1  UNL     1       3.022  -1.991   1.506  1.00  0.00     0.164 HD
BRANCH  33  35
HETATM   35  C19 UNL     1       2.872  -2.924  -0.403  1.00  0.00     0.424 C 
BRANCH  35  36
HETATM   36  N2  UNL     1       1.718  -3.547  -0.967  1.00  0.00    -0.035 N 
ATOM     37  H23 UNL     1       1.127  -3.926  -0.227  1.00  0.00     0.279 HD
ATOM     38  H22 UNL     1       1.091  -2.841  -1.352  1.00  0.00     0.279 HD
ATOM     39  H21 UNL     1       1.909  -4.265  -1.666  1.00  0.00     0.279 HD
ENDBRANCH  35  36
BRANCH  35  40
HETATM   40  O15 UNL     1       3.672  -3.925   0.182  1.00  0.00    -0.355 OA
ATOM     41  H15 UNL     1       3.850  -4.594  -0.469  1.00  0.00     0.213 HD
ENDBRANCH  35  40
ENDBRANCH  33  35
ENDBRANCH   6  33
BRANCH   1  42
HETATM   42  C3  UNL     1       3.742   0.326  -0.632  1.00  0.00     0.256 C 
BRANCH  42  43
HETATM   43  C2  UNL     1       4.402   1.504  -0.080  1.00  0.00     0.292 C 
HETATM   44  O2  UNL     1       4.113   1.856   1.098  1.00  0.00    -0.262 OA
BRANCH  43  45
HETATM   45  O1  UNL     1       5.336   2.282  -0.741  1.00  0.00    -0.324 OA
HETATM   46  C1  UNL     1       5.922   3.412  -0.098  1.00  0.00     0.213 C 
ENDBRANCH  43  45
ENDBRANCH  42  43
BRANCH  42  47
HETATM   47  O3  UNL     1       3.990   0.178  -1.996  1.00  0.00    -0.381 OA
ATOM     48  H3  UNL     1       3.560  -0.589  -2.355  1.00  0.00     0.211 HD
ENDBRANCH  42  47
ENDBRANCH   1  42
TORSDOF 18
