REMARK  16 active torsions:
REMARK  status: ('A' for Active; 'I' for Inactive)
REMARK    1  A    between atoms: N1_1  and  C1_4 
REMARK    2  A    between atoms: C2_7  and  O1_8 
REMARK    3  A    between atoms: C3_10  and  O2_11 
REMARK    4  A    between atoms: C4_13  and  C5_14 
REMARK    5  A    between atoms: N5_19  and  C6_20 
REMARK    6  A    between atoms: C6_20  and  C7_21 
REMARK    7  A    between atoms: C7_21  and  O3_22 
REMARK    8  A    between atoms: C7_21  and  C8_24 
REMARK    9  A    between atoms: C8_24  and  O4_25 
REMARK   10  A    between atoms: C9_27  and  O5_28 
REMARK   11  A    between atoms: C10_30  and  N6_31 
REMARK   12  A    between atoms: N6_31  and  C11_33 
REMARK   13  A    between atoms: C11_33  and  O6_34 
REMARK   14  A    between atoms: C11_33  and  C12_36 
REMARK   15  A    between atoms: C13_41  and  S1_42 
REMARK   16  A    between atoms: S1_42  and  N9_43 
ROOT
HETATM    1  C1  UNL     1       1.025  -2.805   1.881  1.00  0.00     0.129 A 
HETATM    2  N2  UNL     1       0.153  -3.741   2.288  1.00  0.00    -0.319 N 
ATOM      3  H2  UNL     1       0.519  -4.603   2.692  1.00  0.00     0.169 HD
HETATM    4  C2  UNL     1      -1.171  -3.596   2.188  1.00  0.00     0.176 A 
HETATM    5  C3  UNL     1      -1.684  -2.447   1.648  1.00  0.00     0.132 A 
HETATM    6  C4  UNL     1      -0.822  -1.429   1.203  1.00  0.00     0.064 A 
HETATM    7  C10 UNL     1       0.517  -1.623   1.324  1.00  0.00     0.090 A 
ENDROOT
BRANCH   7   8
HETATM    8  N6  UNL     1       1.461  -0.675   0.928  1.00  0.00    -0.355 N 
ATOM      9  H6  UNL     1       1.689   0.082   1.572  1.00  0.00     0.162 HD
BRANCH   8  10
HETATM   10  C11 UNL     1       2.118  -0.714  -0.325  1.00  0.00     0.278 C 
BRANCH  10  11
HETATM   11  O6  UNL     1       1.279  -0.612  -1.413  1.00  0.00    -0.370 OA
ATOM     12  H6  UNL     1       1.720  -0.638  -2.254  1.00  0.00     0.212 HD
ENDBRANCH  10  11
BRANCH  10  13
HETATM   13  C12 UNL     1       3.206   0.315  -0.435  1.00  0.00     0.117 A 
HETATM   14  N7  UNL     1       3.235   1.594  -0.103  1.00  0.00    -0.292 N 
HETATM   15  N8  UNL     1       4.285   2.271  -0.294  1.00  0.00    -0.282 N 
ATOM     16  H7  UNL     1       2.411   2.034   0.307  1.00  0.00     0.187 HD
HETATM   17  C13 UNL     1       5.359   1.701  -0.829  1.00  0.00     0.207 A 
ATOM     18  H8  UNL     1       4.308   3.258  -0.037  1.00  0.00     0.188 HD
HETATM   19  S2  UNL     1       4.774   0.089  -1.054  1.00  0.00    -0.038 SA
BRANCH  17  20
HETATM   20  S1  UNL     1       6.929   2.399  -1.199  1.00  0.00     0.280 S 
HETATM   21  O7  UNL     1       6.809   3.813  -1.650  1.00  0.00    -0.199 OA
HETATM   22  O8  UNL     1       7.493   1.580  -2.351  1.00  0.00    -0.199 OA
BRANCH  20  23
HETATM   23  N9  UNL     1       8.021   2.270   0.103  1.00  0.00    -0.323 N 
ATOM     24  H92 UNL     1       7.776   1.833   0.992  1.00  0.00     0.169 HD
ATOM     25  H91 UNL     1       8.932   2.675  -0.112  1.00  0.00     0.169 HD
ENDBRANCH  20  23
ENDBRANCH  17  20
ENDBRANCH  10  13
ENDBRANCH   8  10
ENDBRANCH   7   8
BRANCH   1  26
HETATM   26  N1  UNL     1       2.275  -3.005   2.027  1.00  0.00    -0.384 N 
ATOM     27  H12 UNL     1       2.645  -3.865   2.432  1.00  0.00     0.157 HD
ATOM     28  H11 UNL     1       2.938  -2.294   1.718  1.00  0.00     0.157 HD
ENDBRANCH   1  26
BRANCH   6  29
HETATM   29  C5  UNL     1      -1.379  -0.200   0.698  1.00  0.00     0.117 A 
HETATM   30  N3  UNL     1      -1.419   0.948   1.417  1.00  0.00    -0.281 N 
HETATM   31  N4  UNL     1      -2.014   1.902   0.738  1.00  0.00    -0.238 N 
ATOM     32  H3  UNL     1      -1.039   1.056   2.357  1.00  0.00     0.188 HD
HETATM   33  N5  UNL     1      -2.385   1.397  -0.458  1.00  0.00    -0.252 N 
ATOM     34  H4  UNL     1      -2.169   2.858   1.058  1.00  0.00     0.208 HD
HETATM   35  C9  UNL     1      -2.005   0.128  -0.491  1.00  0.00     0.188 A 
BRANCH  33  36
HETATM   36  C6  UNL     1      -3.072   2.208  -1.417  1.00  0.00     0.186 C 
BRANCH  36  37
HETATM   37  C7  UNL     1      -4.552   2.235  -1.264  1.00  0.00     0.161 C 
BRANCH  37  38
HETATM   38  O3  UNL     1      -4.945   2.707  -0.006  1.00  0.00    -0.392 OA
ATOM     39  H3  UNL     1      -5.890   2.724   0.092  1.00  0.00     0.210 HD
ENDBRANCH  37  38
BRANCH  37  40
HETATM   40  C8  UNL     1      -5.269   0.962  -1.600  1.00  0.00     0.197 C 
BRANCH  40  41
HETATM   41  O4  UNL     1      -4.973   0.460  -2.843  1.00  0.00    -0.398 OA
ATOM     42  H4  UNL     1      -5.427  -0.347  -3.056  1.00  0.00     0.209 HD
ENDBRANCH  40  41
ENDBRANCH  37  40
ENDBRANCH  36  37
ENDBRANCH  33  36
BRANCH  35  43
HETATM   43  O5  UNL     1      -2.185  -0.755  -1.524  1.00  0.00    -0.343 OA
ATOM     44  H5  UNL     1      -2.615  -0.530  -2.341  1.00  0.00     0.219 HD
ENDBRANCH  35  43
ENDBRANCH   6  29
BRANCH   5  45
HETATM   45  O2  UNL     1      -3.052  -2.219   1.510  1.00  0.00    -0.356 OA
ATOM     46  H2  UNL     1      -3.408  -1.422   1.135  1.00  0.00     0.218 HD
ENDBRANCH   5  45
BRANCH   4  47
HETATM   47  O1  UNL     1      -2.058  -4.593   2.622  1.00  0.00    -0.344 OA
ATOM     48  H1  UNL     1      -3.000  -4.490   2.551  1.00  0.00     0.219 HD
ENDBRANCH   4  47
TORSDOF 16
