REMARK  1 active torsions:
REMARK  status: ('A' for Active; 'I' for Inactive)
REMARK    1  A    between atoms: C2_2  and  N1_3 
ROOT
HETATM    1  C1  UNL     1      -1.984   0.538  -0.989  1.00  0.00     0.051 C 
HETATM    2  C2  UNL     1      -1.145   0.080   0.185  1.00  0.00     0.147 C 
HETATM    3  C3  UNL     1      -0.083   1.143   0.482  1.00  0.00     0.174 C 
HETATM    4  C4  UNL     1       0.598   1.433  -0.833  1.00  0.00     0.155 C 
HETATM    5  N2  UNL     1       1.131   0.196  -1.334  1.00  0.00    -0.192 NA
HETATM    6  C5  UNL     1       2.249  -0.147  -0.439  1.00  0.00     0.152 C 
HETATM    7  C6  UNL     1       1.597  -0.394   0.913  1.00  0.00     0.140 C 
HETATM    8  C7  UNL     1       0.668  -1.589   0.684  1.00  0.00     0.070 C 
HETATM    9  C8  UNL     1      -0.387  -1.146  -0.273  1.00  0.00     0.184 C 
HETATM   10  O3  UNL     1       0.255  -0.786  -1.468  1.00  0.00    -0.295 OA
HETATM   11  O4  UNL     1       0.871   0.680   1.358  1.00  0.00    -0.375 OA
ENDROOT
BRANCH   2  12
HETATM   12  N1  UNL     1      -1.955  -0.140   1.341  1.00  0.00    -0.140 N 
HETATM   13  O1  UNL     1      -3.179   0.053   1.266  1.00  0.00    -0.536 OA
HETATM   14  O2  UNL     1      -1.414  -0.557   2.525  1.00  0.00    -0.536 OA
ENDBRANCH   2  12
TORSDOF 1
