REMARK  9 active torsions:
REMARK  status: ('A' for Active; 'I' for Inactive)
REMARK    1  A    between atoms: C2_2  and  C3_3 
REMARK    2  A    between atoms: C5_6  and  C6_7 
REMARK    3  A    between atoms: C6_7  and  C7_8 
REMARK    4  A    between atoms: C7_8  and  O2_9 
REMARK    5  A    between atoms: O2_9  and  C8_10 
REMARK    6  A    between atoms: C13_15  and  O3_16 
REMARK    7  A    between atoms: C16_20  and  O4_21 
REMARK    8  A    between atoms: C17_23  and  O5_24 
REMARK    9  A    between atoms: C22_30  and  C23_31 
ROOT
HETATM    1  C3  UNL     1       0.671  -0.707   0.632  1.00  0.00     0.116 C 
HETATM    2  O1  UNL     1      -0.189   0.268   1.095  1.00  0.00    -0.372 OA
HETATM    3  C4  UNL     1      -0.956   0.920   0.178  1.00  0.00     0.183 C 
HETATM    4  C5  UNL     1      -2.009  -0.017  -0.401  1.00  0.00     0.026 C 
HETATM    5  C10 UNL     1      -2.809   0.716  -1.443  1.00  0.00    -0.009 C 
HETATM    6  C11 UNL     1      -4.115  -0.039  -1.776  1.00  0.00     0.018 C 
HETATM    7  C12 UNL     1      -3.232   2.101  -1.130  1.00  0.00     0.018 C 
HETATM    8  C13 UNL     1      -2.117   0.797  -2.790  1.00  0.00     0.127 C 
HETATM    9  C14 UNL     1      -1.970  -0.580  -3.315  1.00  0.00     0.035 C 
HETATM   10  C15 UNL     1      -1.513  -1.604  -2.353  1.00  0.00     0.044 C 
HETATM   11  C16 UNL     1      -1.229  -1.190  -0.956  1.00  0.00     0.102 C 
HETATM   12  C17 UNL     1       0.265  -1.225  -0.701  1.00  0.00     0.124 C 
HETATM   13  C18 UNL     1       1.121  -0.848  -1.858  1.00  0.00     0.045 C 
HETATM   14  C19 UNL     1       2.233   0.155  -1.555  1.00  0.00     0.009 C 
HETATM   15  C20 UNL     1       2.969  -0.379  -0.362  1.00  0.00    -0.001 C 
HETATM   16  C21 UNL     1       4.311   0.184  -0.184  1.00  0.00     0.027 C 
HETATM   17  C22 UNL     1       5.218  -0.634   0.702  1.00  0.00     0.162 C 
HETATM   18  C24 UNL     1       5.614   0.629   1.371  1.00  0.00     0.150 C 
HETATM   19  O8  UNL     1       6.496   0.918   2.147  1.00  0.00    -0.296 OA
HETATM   20  C25 UNL     1       4.500   1.340   0.696  1.00  0.00     0.023 C 
HETATM   21  C26 UNL     1       5.064   2.588   0.009  1.00  0.00     0.024 C 
HETATM   22  C27 UNL     1       3.405   1.641   1.657  1.00  0.00     0.018 C 
HETATM   23  C28 UNL     1       2.044   1.290   1.194  1.00  0.00     0.009 C 
HETATM   24  C29 UNL     1       2.048  -0.201   0.798  1.00  0.00     0.032 C 
ENDROOT
BRANCH   4  25
HETATM   25  C6  UNL     1      -2.958  -0.420   0.686  1.00  0.00     0.042 C 
BRANCH  25  26
HETATM   26  C7  UNL     1      -3.738   0.575   1.425  1.00  0.00     0.168 C 
BRANCH  26  27
HETATM   27  O2  UNL     1      -4.498  -0.172   2.389  1.00  0.00    -0.391 OA
BRANCH  27  28
HETATM   28  C8  UNL     1      -5.269   0.682   3.138  1.00  0.00     0.163 C 
HETATM   29  C9  UNL     1      -6.046  -0.136   4.131  1.00  0.00     0.033 C 
ENDBRANCH  27  28
ENDBRANCH  26  27
ENDBRANCH  25  26
ENDBRANCH   4  25
BRANCH  11  30
HETATM   30  O4  UNL     1      -1.737  -2.290  -0.181  1.00  0.00    -0.386 OA
ATOM     31  H4  UNL     1      -1.248  -3.026  -0.529  1.00  0.00     0.210 HD
ENDBRANCH  11  30
BRANCH   8  32
HETATM   32  O3  UNL     1      -2.915   1.559  -3.621  1.00  0.00    -0.395 OA
ATOM     33  H3  UNL     1      -2.482   1.610  -4.465  1.00  0.00     0.210 HD
ENDBRANCH   8  32
BRANCH  12  34
HETATM   34  O5  UNL     1       0.543  -2.642  -0.609  1.00  0.00    -0.383 OA
ATOM     35  H5  UNL     1       0.284  -2.973  -1.461  1.00  0.00     0.210 HD
ENDBRANCH  12  34
BRANCH   1  36
HETATM   36  C2  UNL     1       0.538  -1.845   1.630  1.00  0.00     0.004 C 
HETATM   37  C1  UNL     1       1.533  -2.684   1.871  1.00  0.00     0.010 C 
ENDBRANCH   1  36
BRANCH  17  38
HETATM   38  C23 UNL     1       6.341  -1.305   0.040  1.00  0.00     0.184 C 
HETATM   39  O6  UNL     1       6.470  -2.561   0.068  1.00  0.00    -0.647 OA
HETATM   40  O7  UNL     1       7.300  -0.560  -0.643  1.00  0.00    -0.647 OA
ENDBRANCH  17  38
TORSDOF 9
