REMARK  12 active torsions:
REMARK  status: ('A' for Active; 'I' for Inactive)
REMARK    1  A    between atoms: S1_2  and  C2_3 
REMARK    2  A    between atoms: C3_4  and  C4_5 
REMARK    3  A    between atoms: C4_5  and  O2_7 
REMARK    4  A    between atoms: O2_7  and  C5_8 
REMARK    5  A    between atoms: C5_8  and  C6_9 
REMARK    6  A    between atoms: C6_9  and  C7_10 
REMARK    7  A    between atoms: C9_12  and  C10_13 
REMARK    8  A    between atoms: C10_13  and  C11_14 
REMARK    9  A    between atoms: C11_14  and  O3_16 
REMARK   10  A    between atoms: C16_21  and  O4_22 
REMARK   11  A    between atoms: C17_24  and  O5_25 
REMARK   12  A    between atoms: C23_33  and  O6_34 
ROOT
HETATM    1  C7  UNL     1      -0.678  -0.010  -0.610  1.00  0.00    -0.060 C 
HETATM    2  C8  UNL     1      -1.067   0.687   0.629  1.00  0.00     0.033 C 
HETATM    3  C9  UNL     1      -1.317   2.216   0.470  1.00  0.00     0.019 C 
HETATM    4  C13 UNL     1      -2.220   2.431   1.640  1.00  0.00    -0.025 C 
HETATM    5  C14 UNL     1      -2.947   1.313   1.839  1.00  0.00    -0.022 C 
HETATM    6  C15 UNL     1      -2.559   0.355   0.840  1.00  0.00     0.049 C 
HETATM    7  C16 UNL     1      -2.581  -1.073   1.203  1.00  0.00     0.166 C 
HETATM    8  C17 UNL     1      -2.476  -1.804  -0.160  1.00  0.00     0.117 C 
HETATM    9  C18 UNL     1      -2.445  -3.242   0.085  1.00  0.00     0.024 C 
HETATM   10  C19 UNL     1      -1.625  -3.815   1.191  1.00  0.00     0.013 C 
HETATM   11  C20 UNL     1      -2.363  -4.165  -1.102  1.00  0.00     0.013 C 
HETATM   12  C21 UNL     1      -0.989  -4.208  -1.716  1.00  0.00     0.050 C 
HETATM   13  C22 UNL     1      -0.832  -2.972  -2.574  1.00  0.00     0.022 C 
HETATM   14 BR1  UNL     1      -0.123  -3.249  -4.316  1.00  0.00    -0.053 Br
HETATM   15  C23 UNL     1      -1.116  -1.731  -2.292  1.00  0.00     0.088 C 
HETATM   16  C24 UNL     1      -1.663  -1.064  -1.115  1.00  0.00     0.016 C 
ENDROOT
BRANCH   1  17
HETATM   17  C6  UNL     1       0.770  -0.327  -0.807  1.00  0.00     0.062 C 
BRANCH  17  18
HETATM   18  C5  UNL     1       1.455  -1.175   0.193  1.00  0.00     0.183 C 
BRANCH  18  19
HETATM   19  O2  UNL     1       2.797  -1.355  -0.137  1.00  0.00    -0.318 OA
BRANCH  19  20
HETATM   20  C4  UNL     1       3.743  -0.364  -0.171  1.00  0.00     0.283 C 
HETATM   21  O1  UNL     1       3.425   0.824   0.120  1.00  0.00    -0.260 OA
BRANCH  20  22
HETATM   22  C3  UNL     1       5.136  -0.625  -0.537  1.00  0.00     0.089 C 
HETATM   23  C2  UNL     1       6.013   0.325  -0.557  1.00  0.00     0.050 C 
BRANCH  23  24
HETATM   24  S1  UNL     1       5.694   2.034  -0.163  1.00  0.00    -0.146 SA
HETATM   25  C1  UNL     1       7.099   2.637   0.849  1.00  0.00     0.095 C 
ENDBRANCH  23  24
ENDBRANCH  20  22
ENDBRANCH  19  20
ENDBRANCH  18  19
ENDBRANCH  17  18
ENDBRANCH   1  17
BRANCH   3  26
HETATM   26  C10 UNL     1      -0.052   2.964   0.718  1.00  0.00     0.040 C 
BRANCH  26  27
HETATM   27  C11 UNL     1      -0.048   4.411   0.529  1.00  0.00     0.114 C 
HETATM   28  C12 UNL     1      -0.933   5.297   1.339  1.00  0.00     0.039 C 
BRANCH  27  29
HETATM   29  O3  UNL     1      -0.189   4.748  -0.863  1.00  0.00    -0.396 OA
ATOM     30  H3  UNL     1      -0.186   5.690  -0.986  1.00  0.00     0.210 HD
ENDBRANCH  27  29
ENDBRANCH  26  27
ENDBRANCH   3  26
BRANCH   8  31
HETATM   31  O5  UNL     1      -3.863  -1.613  -0.582  1.00  0.00    -0.382 OA
ATOM     32  H5  UNL     1      -3.799  -2.061  -1.417  1.00  0.00     0.211 HD
ENDBRANCH   8  31
BRANCH  15  33
HETATM   33  O6  UNL     1      -0.832  -0.846  -3.357  1.00  0.00    -0.359 OA
ATOM     34  H6  UNL     1      -1.039   0.058  -3.152  1.00  0.00     0.217 HD
ENDBRANCH  15  33
BRANCH   7  35
HETATM   35  O4  UNL     1      -1.575  -1.380   2.067  1.00  0.00    -0.391 OA
ATOM     36  H4  UNL     1      -1.589  -2.301   2.301  1.00  0.00     0.210 HD
ENDBRANCH   7  35
TORSDOF 12
