REMARK  3 active torsions:
REMARK  status: ('A' for Active; 'I' for Inactive)
REMARK    1  A    between atoms: C1_1  and  C5_15 
REMARK    2  A    between atoms: N1_2  and  N2_4 
REMARK    3  A    between atoms: N2_4  and  C2_6 
ROOT
HETATM    1  N2  UNL     1       1.726  -0.346  -0.974  1.00  0.00    -0.131 N 
ATOM      2  H2  UNL     1       1.966  -0.223  -1.958  1.00  0.00     0.205 HD
ENDROOT
BRANCH   1   3
HETATM    3  N1  UNL     1       0.402  -0.335  -0.630  1.00  0.00    -0.297 N 
HETATM    4  C1  UNL     1      -0.441   0.590  -0.932  1.00  0.00     0.119 C 
ATOM      5  H1  UNL     1       0.053  -1.126  -0.089  1.00  0.00     0.186 HD
BRANCH   4   6
HETATM    6  C5  UNL     1      -1.835   0.527  -0.528  1.00  0.00    -0.019 A 
HETATM    7  C6  UNL     1      -2.687   1.552  -0.884  1.00  0.00     0.013 A 
HETATM    8  C7  UNL     1      -4.002   1.471  -0.491  1.00  0.00     0.001 A 
HETATM    9  C8  UNL     1      -4.460   0.400   0.238  1.00  0.00     0.000 A 
HETATM   10  C9  UNL     1      -3.595  -0.615   0.585  1.00  0.00     0.001 A 
HETATM   11  C10 UNL     1      -2.277  -0.557   0.203  1.00  0.00     0.013 A 
ENDBRANCH   4   6
ENDBRANCH   1   3
BRANCH   1  12
HETATM   12  C2  UNL     1       2.693  -0.503  -0.127  1.00  0.00     0.711 A 
HETATM   13  N3  UNL     1       3.963  -0.497  -0.581  1.00  0.00    -0.198 N 
HETATM   14  C3  UNL     1       4.995  -0.658   0.276  1.00  0.00     0.124 A 
ATOM     15  H3  UNL     1       4.145  -0.370  -1.577  1.00  0.00     0.183 HD
HETATM   16  C4  UNL     1       4.754  -0.831   1.625  1.00  0.00     0.125 A 
HETATM   17  N4  UNL     1       3.475  -0.832   2.043  1.00  0.00    -0.296 N 
HETATM   18  N5  UNL     1       2.471  -0.673   1.193  1.00  0.00    -0.131 N 
ATOM     19  H4  UNL     1       3.274  -0.958   3.035  1.00  0.00     0.186 HD
ATOM     20  H5  UNL     1       1.513  -0.679   1.543  1.00  0.00     0.205 HD
ENDBRANCH   1  12
TORSDOF 3
