REMARK  4 active torsions:
REMARK  status: ('A' for Active; 'I' for Inactive)
REMARK    1  A    between atoms: C1_2  and  C2_3 
REMARK       I    between atoms: C1_2  and  N1_10 
REMARK    2  A    between atoms: C2_3  and  C3_4 
REMARK    3  A    between atoms: C3_4  and  C4_5 
REMARK    4  A    between atoms: N1_10  and  C9_12 
ROOT
HETATM    1  O1  UNL     1       0.940  -1.018  -0.920  1.00  0.00    -0.273 OA
HETATM    2  C1  UNL     1       0.915  -1.173   0.323  1.00  0.00     0.222 C 
HETATM    3  N1  UNL     1       2.018  -0.826   1.145  1.00  0.00    -0.321 N 
ATOM      4  H1  UNL     1       1.922  -0.982   2.148  1.00  0.00     0.169 HD
ENDROOT
BRANCH   2   5
HETATM    5  C2  UNL     1      -0.274  -1.724   0.954  1.00  0.00     0.103 C 
BRANCH   5   6
HETATM    6  C3  UNL     1      -1.537  -1.579   0.225  1.00  0.00     0.014 C 
BRANCH   6   7
HETATM    7  C4  UNL     1      -2.084  -0.239   0.088  1.00  0.00    -0.014 C 
HETATM    8  C5  UNL     1      -1.378   0.845  -0.619  1.00  0.00     0.004 C 
HETATM    9  C6  UNL     1      -2.437   1.962  -0.738  1.00  0.00     0.000 C 
HETATM   10  C7  UNL     1      -3.744   1.269  -0.611  1.00  0.00     0.000 C 
HETATM   11  C8  UNL     1      -3.457  -0.193  -0.597  1.00  0.00     0.004 C 
ENDBRANCH   6   7
ENDBRANCH   5   6
ENDBRANCH   2   5
BRANCH   3  12
HETATM   12  C9  UNL     1       3.240  -0.281   0.686  1.00  0.00     0.077 A 
HETATM   13  C10 UNL     1       3.688   0.044  -0.552  1.00  0.00     0.039 A 
HETATM   14  C11 UNL     1       4.923   0.554  -0.671  1.00  0.00     0.029 A 
HETATM   15  C12 UNL     1       5.654   0.714   0.472  1.00  0.00     0.053 A 
HETATM   16 BR1  UNL     1       7.443   1.413   0.638  1.00  0.00    -0.043 Br
HETATM   17  S1  UNL     1       4.595   0.147   1.681  1.00  0.00    -0.065 SA
ENDBRANCH   3  12
TORSDOF 4
