REMARK  4 active torsions:
REMARK  status: ('A' for Active; 'I' for Inactive)
REMARK    1  A    between atoms: C4_5  and  O1_6 
REMARK    2  A    between atoms: O1_6  and  C5_7 
REMARK    3  A    between atoms: C10_15  and  C11_16 
REMARK    4  A    between atoms: C12_17  and  C13_18 
ROOT
HETATM    1 CL1  UNL     1      -1.655  -5.025   2.038  1.00  0.00    -0.084 Cl
HETATM    2  C1  UNL     1      -0.607  -3.712   1.592  1.00  0.00     0.035 A 
HETATM    3  C2  UNL     1       0.763  -3.758   1.785  1.00  0.00     0.026 A 
HETATM    4  C3  UNL     1       1.574  -2.718   1.429  1.00  0.00     0.039 A 
HETATM    5  C4  UNL     1       1.028  -1.560   0.849  1.00  0.00     0.079 A 
HETATM    6  C10 UNL     1      -0.378  -1.530   0.657  1.00  0.00    -0.001 A 
HETATM    7  C18 UNL     1      -1.167  -2.588   1.025  1.00  0.00     0.038 A 
ENDROOT
BRANCH   5   8
HETATM    8  O1  UNL     1       1.776  -0.574   0.508  1.00  0.00    -0.345 OA
BRANCH   8   9
HETATM    9  C5  UNL     1       2.535   0.427   0.163  1.00  0.00     0.132 C 
HETATM   10  C6  UNL     1       3.449   0.036  -0.984  1.00  0.00     0.060 C 
HETATM   11  C7  UNL     1       4.428   1.103  -1.334  1.00  0.00     0.235 C 
HETATM   12  N1  UNL     1       5.247   1.352  -0.165  1.00  0.00    -0.075 N 
HETATM   13  C8  UNL     1       4.464   1.872   0.910  1.00  0.00     0.235 C 
ATOM     14  H12 UNL     1       5.764   0.519   0.116  1.00  0.00     0.277 HD
ATOM     15  H11 UNL     1       6.037   1.959  -0.382  1.00  0.00     0.277 HD
HETATM   16  C9  UNL     1       3.292   1.054   1.307  1.00  0.00     0.060 C 
ENDBRANCH   8   9
ENDBRANCH   5   8
BRANCH   6  17
HETATM   17  C11 UNL     1      -0.984  -0.353   0.061  1.00  0.00     0.011 C 
HETATM   18  C12 UNL     1      -2.249  -0.198  -0.166  1.00  0.00    -0.021 C 
BRANCH  18  19
HETATM   19  C13 UNL     1      -2.824   1.039  -0.785  1.00  0.00     0.008 C 
HETATM   20  C14 UNL     1      -3.626   0.749  -2.016  1.00  0.00     0.008 C 
HETATM   21  C15 UNL     1      -5.028   0.484  -1.515  1.00  0.00     0.001 C 
HETATM   22  C16 UNL     1      -5.166   1.527  -0.427  1.00  0.00     0.001 C 
HETATM   23  C17 UNL     1      -3.805   1.662   0.171  1.00  0.00     0.008 C 
ENDBRANCH  18  19
ENDBRANCH   6  17
TORSDOF 4
