REMARK  5 active torsions:
REMARK  status: ('A' for Active; 'I' for Inactive)
REMARK    1  A    between atoms: O1_2  and  C2_3 
REMARK    2  A    between atoms: C7_10  and  O4_12 
REMARK    3  A    between atoms: C9_14  and  O5_15 
REMARK    4  A    between atoms: O5_15  and  C10_16 
REMARK    5  A    between atoms: C14_21  and  C15_22 
ROOT
HETATM    1  C2  UNL     1       1.159   1.882   0.225  1.00  0.00     0.153 C 
HETATM    2  C3  UNL     1       0.892   2.187  -1.287  1.00  0.00     0.147 C 
HETATM    3  C4  UNL     1       0.135   1.042  -1.845  1.00  0.00     0.262 C 
HETATM    4  O2  UNL     1       0.642   0.502  -2.889  1.00  0.00    -0.265 OA
HETATM    5  O3  UNL     1      -1.011   0.638  -1.248  1.00  0.00    -0.313 OA
HETATM    6  C5  UNL     1      -2.089   1.357  -0.728  1.00  0.00     0.164 C 
HETATM    7  C6  UNL     1      -3.133   1.408  -1.826  1.00  0.00     0.043 C 
HETATM    8  C7  UNL     1      -2.635   0.793   0.549  1.00  0.00     0.107 C 
HETATM    9  C8  UNL     1      -4.082   0.426   0.299  1.00  0.00     0.051 C 
HETATM   10  C9  UNL     1      -1.932  -0.432   1.028  1.00  0.00     0.171 C 
HETATM   11  C12 UNL     1      -0.707  -0.182   1.899  1.00  0.00     0.063 C 
HETATM   12  C13 UNL     1       0.464  -0.932   1.407  1.00  0.00    -0.013 C 
HETATM   13  C14 UNL     1       1.561  -0.610   0.766  1.00  0.00    -0.041 C 
HETATM   14  C19 UNL     1       2.013   0.693   0.267  1.00  0.00     0.016 C 
ENDROOT
BRANCH  10  15
HETATM   15  O5  UNL     1      -1.583  -1.313  -0.028  1.00  0.00    -0.313 OA
BRANCH  15  16
HETATM   16  C10 UNL     1      -2.092  -2.583  -0.180  1.00  0.00     0.255 C 
HETATM   17  C11 UNL     1      -1.714  -3.495  -1.296  1.00  0.00     0.126 C 
HETATM   18  O6  UNL     1      -2.929  -2.978   0.695  1.00  0.00    -0.266 OA
ENDBRANCH  15  16
ENDBRANCH  10  15
BRANCH   8  19
HETATM   19  O4  UNL     1      -2.641   1.752   1.555  1.00  0.00    -0.385 OA
ATOM     20  H4  UNL     1      -2.987   1.395   2.364  1.00  0.00     0.210 HD
ENDBRANCH   8  19
BRANCH  13  21
HETATM   21  C15 UNL     1       2.477  -1.735   0.481  1.00  0.00     0.013 C 
HETATM   22  C16 UNL     1       3.617  -1.824  -0.093  1.00  0.00    -0.087 C 
HETATM   23  C17 UNL     1       4.158  -3.278  -0.134  1.00  0.00     0.043 C 
HETATM   24  C18 UNL     1       4.535  -0.884  -0.696  1.00  0.00     0.043 C 
ENDBRANCH  13  21
BRANCH   1  25
HETATM   25  O1  UNL     1       1.839   3.003   0.758  1.00  0.00    -0.386 OA
HETATM   26  C1  UNL     1       1.038   3.754   1.589  1.00  0.00     0.202 C 
ENDBRANCH   1  25
TORSDOF 5
