REMARK  6 active torsions:
REMARK  status: ('A' for Active; 'I' for Inactive)
REMARK    1  A    between atoms: C2_2  and  O1_3 
REMARK    2  A    between atoms: O1_3  and  C3_4 
REMARK    3  A    between atoms: C3_4  and  O3_6 
REMARK    4  A    between atoms: O3_6  and  C4_7 
REMARK    5  A    between atoms: C5_8  and  O4_9 
REMARK    6  A    between atoms: C8_14  and  C9_15 
ROOT
HETATM    1  C4  UNL     1       0.155   0.711   0.252  1.00  0.00     0.193 C 
HETATM    2  C5  UNL     1      -0.148   1.591   1.402  1.00  0.00     0.203 C 
HETATM    3  C7  UNL     1      -1.435   1.420   2.055  1.00  0.00     0.077 C 
HETATM    4  S1  UNL     1      -1.561   1.601   3.457  1.00  0.00    -0.074 SA
HETATM    5  S2  UNL     1      -2.882   0.981   1.112  1.00  0.00    -0.107 SA
HETATM    6  C8  UNL     1      -2.225   0.022  -0.291  1.00  0.00     0.044 C 
HETATM    7  C11 UNL     1      -3.141   0.373  -1.476  1.00  0.00     0.125 C 
HETATM    8  C12 UNL     1      -2.575   1.697  -1.922  1.00  0.00     0.219 C 
HETATM    9  O5  UNL     1      -3.142   2.533  -2.641  1.00  0.00    -0.274 OA
HETATM   10  N1  UNL     1      -1.273   1.817  -1.371  1.00  0.00    -0.352 N 
ATOM     11  H1  UNL     1      -0.678   2.645  -1.403  1.00  0.00     0.163 HD
HETATM   12  C13 UNL     1      -0.940   0.532  -0.747  1.00  0.00     0.136 C 
ENDROOT
BRANCH   1  13
HETATM   13  O3  UNL     1       0.706  -0.526   0.525  1.00  0.00    -0.287 OA
BRANCH  13  14
HETATM   14  C3  UNL     1       1.955  -0.923   0.140  1.00  0.00     0.406 C 
HETATM   15  O2  UNL     1       2.597  -0.067  -0.500  1.00  0.00    -0.229 OA
BRANCH  14  16
HETATM   16  O1  UNL     1       2.474  -2.168   0.430  1.00  0.00    -0.298 OA
BRANCH  16  17
HETATM   17  C2  UNL     1       3.771  -2.553   0.019  1.00  0.00     0.176 C 
HETATM   18  C1  UNL     1       3.918  -2.511  -1.478  1.00  0.00     0.034 C 
ENDBRANCH  16  17
ENDBRANCH  14  16
ENDBRANCH  13  14
ENDBRANCH   1  13
BRANCH   2  19
HETATM   19  O4  UNL     1      -0.063   2.933   1.017  1.00  0.00    -0.382 OA
HETATM   20  C6  UNL     1       0.948   3.621   1.644  1.00  0.00     0.202 C 
ENDBRANCH   2  19
BRANCH   6  21
HETATM   21  C9  UNL     1      -2.323  -1.450  -0.029  1.00  0.00     0.019 C 
HETATM   22  C10 UNL     1      -1.798  -2.286  -1.146  1.00  0.00     0.007 C 
ENDBRANCH   6  21
TORSDOF 6
