REMARK  5 active torsions:
REMARK  status: ('A' for Active; 'I' for Inactive)
REMARK    1  A    between atoms: N1_1  and  C1_5 
REMARK    2  A    between atoms: C3_7  and  C4_8 
REMARK    3  A    between atoms: C4_8  and  O1_9 
REMARK    4  A    between atoms: O1_9  and  C5_10 
REMARK       I    between atoms: C5_10  and  N2_12 
REMARK    5  A    between atoms: C9_16  and  C10_17 
ROOT
HETATM    1  C5  UNL     1      -1.555  -1.086  -0.147  1.00  0.00     0.363 C 
HETATM    2  O2  UNL     1      -2.728  -1.549   0.088  1.00  0.00    -0.238 OA
HETATM    3  N2  UNL     1      -0.630  -1.952  -0.727  1.00  0.00    -0.318 N 
HETATM    4  C6  UNL     1      -0.974  -3.372  -1.050  1.00  0.00     0.129 C 
HETATM    5  C7  UNL     1       0.133  -4.045  -0.239  1.00  0.00     0.022 C 
HETATM    6  C8  UNL     1       1.325  -3.196  -0.629  1.00  0.00     0.033 C 
HETATM    7  C9  UNL     1       0.735  -1.900  -1.159  1.00  0.00     0.141 C 
ENDROOT
BRANCH   1   8
HETATM    8  O1  UNL     1      -1.396   0.224   0.221  1.00  0.00    -0.303 OA
BRANCH   8   9
HETATM    9  C4  UNL     1      -2.352   1.050   0.799  1.00  0.00     0.187 C 
BRANCH   9  10
HETATM   10  C3  UNL     1      -3.585   1.248  -0.045  1.00  0.00     0.042 A 
HETATM   11  C1  UNL     1      -4.622   2.154   0.600  1.00  0.00     0.190 A 
HETATM   12  C2  UNL     1      -4.861   0.696   0.536  1.00  0.00     0.042 A 
BRANCH  11  13
HETATM   13  N1  UNL     1      -5.400   3.027  -0.271  1.00  0.00    -0.075 N 
ATOM     14  H13 UNL     1      -5.289   2.716  -1.236  1.00  0.00     0.274 HD
ATOM     15  H12 UNL     1      -6.392   2.847  -0.119  1.00  0.00     0.274 HD
ATOM     16  H11 UNL     1      -5.235   4.033  -0.227  1.00  0.00     0.274 HD
ENDBRANCH  11  13
ENDBRANCH   9  10
ENDBRANCH   8   9
ENDBRANCH   1   8
BRANCH   7  17
HETATM   17  C10 UNL     1       1.555  -0.771  -0.772  1.00  0.00     0.051 A 
HETATM   18  C11 UNL     1       1.410   0.580  -0.998  1.00  0.00     0.067 A 
HETATM   19  C12 UNL     1       2.462   1.250  -0.402  1.00  0.00     0.089 A 
HETATM   20  N3  UNL     1       3.222   0.308   0.169  1.00  0.00    -0.285 N 
HETATM   21  S1  UNL     1       2.914   2.974  -0.287  1.00  0.00    -0.111 SA
HETATM   22  N4  UNL     1       2.684  -0.890  -0.051  1.00  0.00    -0.300 N 
HETATM   23  C13 UNL     1       4.441   0.542   0.912  1.00  0.00     0.150 C 
ATOM     24  H4  UNL     1       3.073  -1.773   0.280  1.00  0.00     0.187 HD
HETATM   25  C14 UNL     1       5.149   1.780   0.501  1.00  0.00     0.032 C 
HETATM   26  C15 UNL     1       4.334   3.036   0.837  1.00  0.00     0.082 C 
ENDBRANCH   7  17
TORSDOF 5
