REMARK  5 active torsions:
REMARK  status: ('A' for Active; 'I' for Inactive)
REMARK    1  A    between atoms: C2_2  and  C3_3 
REMARK    2  A    between atoms: C3_3  and  O1_4 
REMARK    3  A    between atoms: O1_4  and  C4_5 
REMARK    4  A    between atoms: C4_5  and  N1_7 
REMARK    5  A    between atoms: N1_7  and  C5_9 
ROOT
HETATM    1  N1  UNL     1      -0.424   1.306  -1.373  1.00  0.00    -0.357 N 
ATOM      2  H1  UNL     1      -0.590   1.712  -2.294  1.00  0.00     0.162 HD
ENDROOT
BRANCH   1   3
HETATM    3  C4  UNL     1       0.814   1.569  -0.774  1.00  0.00     0.210 C 
HETATM    4  S1  UNL     1       1.896   2.496  -1.572  1.00  0.00    -0.033 SA
BRANCH   3   5
HETATM    5  O1  UNL     1       1.187   1.095   0.458  1.00  0.00    -0.327 OA
BRANCH   5   6
HETATM    6  C3  UNL     1       2.175   0.172   0.766  1.00  0.00     0.178 C 
BRANCH   6   7
HETATM    7  C2  UNL     1       3.569   0.546   0.353  1.00  0.00     0.022 C 
HETATM    8  C1  UNL     1       4.561  -0.544   0.755  1.00  0.00     0.007 C 
ENDBRANCH   6   7
ENDBRANCH   5   6
ENDBRANCH   3   5
ENDBRANCH   1   3
BRANCH   1   9
HETATM    9  C5  UNL     1      -1.481   0.515  -0.805  1.00  0.00     0.084 C 
HETATM   10  C6  UNL     1      -1.092  -0.927  -0.537  1.00  0.00     0.025 C 
HETATM   11  C7  UNL     1      -2.381  -1.739  -0.705  1.00  0.00     0.002 C 
HETATM   12  C8  UNL     1      -3.448  -0.932   0.021  1.00  0.00     0.000 C 
HETATM   13  C9  UNL     1      -2.823  -0.067   1.126  1.00  0.00     0.002 C 
HETATM   14  C10 UNL     1      -1.985   1.058   0.517  1.00  0.00     0.025 C 
ENDBRANCH   1   9
TORSDOF 5
