REMARK  3 active torsions:
REMARK  status: ('A' for Active; 'I' for Inactive)
REMARK    1  A    between atoms: C2_2  and  O1_3 
REMARK    2  A    between atoms: O1_3  and  C3_4 
REMARK    3  A    between atoms: C3_4  and  C4_6 
ROOT
HETATM    1  C4  UNL     1      -0.088  -0.118  -0.138  1.00  0.00     0.285 C 
HETATM    2  C5  UNL     1      -0.439  -0.916   1.088  1.00  0.00     0.046 C 
HETATM    3  C6  UNL     1      -1.852  -1.320   1.175  1.00  0.00     0.042 C 
HETATM    4  C7  UNL     1      -2.829  -0.614   0.333  1.00  0.00     0.200 C 
HETATM    5  F1  UNL     1      -3.690  -1.512  -0.316  1.00  0.00    -0.247 F 
HETATM    6  C8  UNL     1      -2.278   0.293  -0.715  1.00  0.00     0.216 C 
HETATM    7  C9  UNL     1      -3.250   1.370  -1.134  1.00  0.00     0.043 C 
HETATM    8  N1  UNL     1      -1.076   0.931  -0.267  1.00  0.00    -0.055 N 
ATOM      9  H11 UNL     1      -0.776   1.700  -0.867  1.00  0.00     0.278 HD
ATOM     10  H12 UNL     1      -1.200   1.479   0.584  1.00  0.00     0.278 HD
ENDROOT
BRANCH   1  11
HETATM   11  C3  UNL     1       1.241   0.468  -0.107  1.00  0.00     0.289 C 
HETATM   12  O2  UNL     1       1.348   1.720  -0.191  1.00  0.00    -0.263 OA
BRANCH  11  13
HETATM   13  O1  UNL     1       2.419  -0.288   0.012  1.00  0.00    -0.320 OA
BRANCH  13  14
HETATM   14  C2  UNL     1       3.644   0.417   0.029  1.00  0.00     0.174 C 
HETATM   15  C1  UNL     1       4.830  -0.494   0.159  1.00  0.00     0.034 C 
ENDBRANCH  13  14
ENDBRANCH  11  13
ENDBRANCH   1  11
TORSDOF 3
