REMARK  9 active torsions:
REMARK  status: ('A' for Active; 'I' for Inactive)
REMARK       I    between atoms: C2_2  and  N1_4 
REMARK    1  A    between atoms: N1_4  and  C3_6 
REMARK    2  A    between atoms: C5_8  and  N2_9 
REMARK    3  A    between atoms: N2_9  and  C6_11 
REMARK    4  A    between atoms: C6_11  and  N3_12 
REMARK    5  A    between atoms: C6_11  and  C7_16 
REMARK    6  A    between atoms: C8_19  and  C9_20 
REMARK       I    between atoms: N6_24  and  C11_26 
REMARK       I    between atoms: C11_26  and  N7_27 
REMARK       I    between atoms: C11_26  and  N8_31 
REMARK    7  A    between atoms: N12_42  and  C13_43 
REMARK    8  A    between atoms: C13_43  and  O3_44 
REMARK    9  A    between atoms: C14_46  and  O4_47 
ROOT
HETATM    1  C7  UNL     1       0.495   0.160  -0.455  1.00  0.00     0.148 A 
HETATM    2  N4  UNL     1       1.421   1.013   0.018  1.00  0.00    -0.323 N 
ATOM      3  H4  UNL     1       1.225   1.961   0.341  1.00  0.00     0.169 HD
HETATM    4  C8  UNL     1       2.636   0.449   0.008  1.00  0.00     0.170 A 
HETATM    5  N10 UNL     1       2.464  -0.790  -0.484  1.00  0.00    -0.276 N 
HETATM    6  C12 UNL     1       3.513  -1.783  -0.683  1.00  0.00     0.179 C 
HETATM    7  N11 UNL     1       1.163  -0.966  -0.766  1.00  0.00    -0.282 N 
ATOM      8  H11 UNL     1       0.749  -1.814  -1.153  1.00  0.00     0.188 HD
ENDROOT
BRANCH   1   9
HETATM    9  C6  UNL     1      -0.972   0.389  -0.611  1.00  0.00     0.352 C 
BRANCH   9  10
HETATM   10  N2  UNL     1      -1.749  -0.716  -0.145  1.00  0.00    -0.343 N 
ATOM     11  H2  UNL     1      -1.284  -1.580   0.135  1.00  0.00     0.163 HD
BRANCH  10  12
HETATM   12  C5  UNL     1      -3.160  -0.620  -0.069  1.00  0.00     0.111 A 
HETATM   13  C4  UNL     1      -3.931   0.497  -0.412  1.00  0.00     0.082 A 
HETATM   14  C3  UNL     1      -5.267   0.246  -0.219  1.00  0.00     0.090 A 
HETATM   15  C14 UNL     1      -5.293  -1.072   0.257  1.00  0.00     0.173 A 
HETATM   16  N12 UNL     1      -4.046  -1.532   0.326  1.00  0.00    -0.290 N 
BRANCH  14  17
HETATM   17  N1  UNL     1      -6.386   1.068  -0.429  1.00  0.00    -0.324 N 
HETATM   18  C2  UNL     1      -6.327   2.376  -0.903  1.00  0.00     0.218 C 
HETATM   19  C1  UNL     1      -7.569   3.206  -1.107  1.00  0.00     0.117 C 
HETATM   20  O1  UNL     1      -5.223   2.906  -1.178  1.00  0.00    -0.274 OA
ATOM     21  H1  UNL     1      -7.306   0.680  -0.220  1.00  0.00     0.169 HD
ENDBRANCH  14  17
BRANCH  15  22
HETATM   22  O4  UNL     1      -6.458  -1.744   0.587  1.00  0.00    -0.344 OA
ATOM     23  H4  UNL     1      -6.476  -2.637   0.910  1.00  0.00     0.219 HD
ENDBRANCH  15  22
BRANCH  16  24
HETATM   24  C13 UNL     1      -3.752  -2.898   0.795  1.00  0.00     0.299 C 
BRANCH  24  25
HETATM   25  O3  UNL     1      -3.577  -2.824   2.162  1.00  0.00    -0.382 OA
ATOM     26  H3  UNL     1      -3.388  -3.704   2.464  1.00  0.00     0.211 HD
ENDBRANCH  24  25
ENDBRANCH  16  24
ENDBRANCH  10  12
ENDBRANCH   9  10
BRANCH   9  27
HETATM   27  N3  UNL     1      -1.315   0.723  -1.958  1.00  0.00    -0.051 N 
ATOM     28  H33 UNL     1      -1.234  -0.083  -2.578  1.00  0.00     0.277 HD
ATOM     29  H32 UNL     1      -2.315   0.896  -2.060  1.00  0.00     0.277 HD
ATOM     30  H31 UNL     1      -0.760   1.512  -2.291  1.00  0.00     0.277 HD
ENDBRANCH   9  27
ENDBRANCH   1   9
BRANCH   4  31
HETATM   31  C9  UNL     1       3.916   1.008   0.429  1.00  0.00     0.175 A 
HETATM   32  N5  UNL     1       5.128   0.444   0.418  1.00  0.00    -0.302 N 
HETATM   33  C10 UNL     1       6.033   1.307   0.891  1.00  0.00     0.247 A 
ATOM     34  H5  UNL     1       5.332  -0.502   0.097  1.00  0.00     0.171 HD
HETATM   35  N6  UNL     1       7.306   1.172   1.052  1.00  0.00    -0.305 N 
HETATM   36  O2  UNL     1       5.387   2.398   1.193  1.00  0.00    -0.199 OA
HETATM   37  C11 UNL     1       8.021  -0.039   0.716  1.00  0.00     0.483 C 
ATOM     38  H6  UNL     1       7.833   1.957   1.435  1.00  0.00     0.166 HD
HETATM   39  N7  UNL     1       7.127  -1.149   0.867  1.00  0.00    -0.033 N 
HETATM   40  N8  UNL     1       8.556   0.005  -0.629  1.00  0.00    -0.033 N 
ATOM     41  H73 UNL     1       6.704  -1.188   1.794  1.00  0.00     0.278 HD
ATOM     42  H72 UNL     1       6.269  -1.038   0.327  1.00  0.00     0.278 HD
ATOM     43  H71 UNL     1       7.631  -2.003   0.630  1.00  0.00     0.278 HD
ATOM     44  H83 UNL     1       7.826   0.206  -1.312  1.00  0.00     0.278 HD
ATOM     45  H82 UNL     1       9.138   0.830  -0.769  1.00  0.00     0.278 HD
ATOM     46  H81 UNL     1       9.060  -0.849  -0.866  1.00  0.00     0.278 HD
HETATM   47  N9  UNL     1       4.124   2.253   0.930  1.00  0.00    -0.238 N 
ATOM     48  H9  UNL     1       3.404   2.960   1.076  1.00  0.00     0.197 HD
ENDBRANCH   4  31
TORSDOF 9
