REMARK  7 active torsions:
REMARK  status: ('A' for Active; 'I' for Inactive)
REMARK    1  A    between atoms: N1_2  and  C2_4 
REMARK    2  A    between atoms: C2_4  and  N2_6 
REMARK       I    between atoms: N3_9  and  C5_10 
REMARK       I    between atoms: C5_10  and  N4_12 
REMARK    3  A    between atoms: N4_12  and  C6_14 
REMARK    4  A    between atoms: C6_14  and  N5_16 
REMARK    5  A    between atoms: N5_16  and  C10_19 
REMARK    6  A    between atoms: C10_19  and  C11_20 
REMARK    7  A    between atoms: C14_24  and  C15_25 
ROOT
HETATM    1  N2  UNL     1       3.662  -0.673   0.222  1.00  0.00    -0.342 N 
HETATM    2  C3  UNL     1       2.898  -0.077  -0.843  1.00  0.00     0.146 C 
HETATM    3  C4  UNL     1       1.485  -0.630  -0.979  1.00  0.00     0.147 C 
HETATM    4  N3  UNL     1       0.902  -0.893   0.311  1.00  0.00    -0.330 N 
HETATM    5  C5  UNL     1      -0.337  -0.389   0.736  1.00  0.00     0.320 C 
HETATM    6  O1  UNL     1      -0.737  -0.684   1.892  1.00  0.00    -0.247 OA
HETATM    7  N4  UNL     1      -1.141   0.419  -0.059  1.00  0.00    -0.315 N 
ATOM      8  H4  UNL     1      -0.806   0.650  -0.994  1.00  0.00     0.166 HD
HETATM    9  C13 UNL     1       1.708  -1.755   1.183  1.00  0.00     0.162 C 
HETATM   10  C14 UNL     1       3.111  -1.908   0.775  1.00  0.00     0.194 C 
ENDROOT
BRANCH   7  11
HETATM   11  C6  UNL     1      -2.428   0.958   0.353  1.00  0.00     0.287 C 
HETATM   12  C7  UNL     1      -2.313   2.463   0.274  1.00  0.00     0.064 C 
BRANCH  11  13
HETATM   13  N5  UNL     1      -3.503   0.516  -0.479  1.00  0.00    -0.051 N 
HETATM   14  C8  UNL     1      -3.652  -0.941  -0.388  1.00  0.00     0.274 C 
HETATM   15  C9  UNL     1      -3.301   0.926  -1.860  1.00  0.00     0.274 C 
BRANCH  13  16
HETATM   16  C10 UNL     1      -4.752   1.079  -0.033  1.00  0.00     0.268 C 
BRANCH  16  17
HETATM   17  C11 UNL     1      -4.937   1.071   1.425  1.00  0.00     0.030 C 
HETATM   18  C12 UNL     1      -5.929   0.445   2.043  1.00  0.00     0.186 C 
HETATM   19  F1  UNL     1      -6.077   0.454   3.391  1.00  0.00    -0.220 F 
ENDBRANCH  16  17
ENDBRANCH  13  16
ENDBRANCH  11  13
ENDBRANCH   7  11
BRANCH  10  20
HETATM   20  C15 UNL     1       3.310  -3.071  -0.130  1.00  0.00     0.255 C 
HETATM   21  N6  UNL     1       4.140  -2.953  -1.248  1.00  0.00    -0.060 NA
HETATM   22  O2  UNL     1       2.739  -4.162   0.101  1.00  0.00    -0.275 OA
ENDBRANCH  10  20
BRANCH   1  23
HETATM   23  C2  UNL     1       4.871  -0.197   0.737  1.00  0.00     0.170 C 
HETATM   24  S1  UNL     1       5.553  -1.080   1.992  1.00  0.00    -0.041 SA
BRANCH  23  25
HETATM   25  N1  UNL     1       5.566   0.938   0.309  1.00  0.00    -0.371 N 
HETATM   26  C1  UNL     1       5.279   1.883  -0.715  1.00  0.00     0.148 C 
ATOM     27  H1  UNL     1       6.430   1.120   0.820  1.00  0.00     0.161 HD
ENDBRANCH  23  25
ENDBRANCH   1  23
TORSDOF 7
