REMARK  10 active torsions:
REMARK  status: ('A' for Active; 'I' for Inactive)
REMARK    1  A    between atoms: C2_2  and  C4_4 
REMARK    2  A    between atoms: C4_4  and  C5_5 
REMARK    3  A    between atoms: C5_5  and  O1_6 
REMARK    4  A    between atoms: C5_5  and  C6_8 
REMARK    5  A    between atoms: C6_8  and  C7_9 
REMARK    6  A    between atoms: C6_8  and  N1_12 
REMARK    7  A    between atoms: C7_9  and  O2_10 
REMARK    8  A    between atoms: N1_12  and  C8_14 
REMARK    9  A    between atoms: C8_14  and  C9_15 
REMARK   10  A    between atoms: C9_15  and  C11_17 
ROOT
HETATM    1  N1  UNL     1      -0.100  -1.321  -0.429  1.00  0.00    -0.393 N 
ATOM      2  H1  UNL     1       0.429  -1.933   0.192  1.00  0.00     0.159 HD
ENDROOT
BRANCH   1   3
HETATM    3  C6  UNL     1      -1.506  -1.276  -0.309  1.00  0.00     0.133 C 
BRANCH   3   4
HETATM    4  C5  UNL     1      -2.070   0.058   0.086  1.00  0.00     0.143 C 
BRANCH   4   5
HETATM    5  C4  UNL     1      -3.540  -0.102   0.393  1.00  0.00     0.037 C 
BRANCH   5   6
HETATM    6  C2  UNL     1      -4.104   1.141   1.072  1.00  0.00    -0.020 C 
HETATM    7  C1  UNL     1      -3.975   2.369   0.234  1.00  0.00     0.009 C 
HETATM    8  C3  UNL     1      -5.607   0.869   1.231  1.00  0.00     0.009 C 
ENDBRANCH   5   6
ENDBRANCH   4   5
BRANCH   4   9
HETATM    9  O1  UNL     1      -1.833   1.100  -0.771  1.00  0.00    -0.393 OA
ATOM     10  H1  UNL     1      -0.908   1.201  -0.964  1.00  0.00     0.210 HD
ENDBRANCH   4   9
ENDBRANCH   3   4
BRANCH   3  11
HETATM   11  C7  UNL     1      -2.273  -1.862  -1.435  1.00  0.00     0.191 C 
BRANCH  11  12
HETATM   12  O2  UNL     1      -2.089  -1.262  -2.668  1.00  0.00    -0.399 OA
ATOM     13  H2  UNL     1      -2.580  -1.637  -3.389  1.00  0.00     0.209 HD
ENDBRANCH  11  12
ENDBRANCH   3  11
ENDBRANCH   1   3
BRANCH   1  14
HETATM   14  C8  UNL     1       0.590  -0.555  -1.370  1.00  0.00     0.060 C 
BRANCH  14  15
HETATM   15  C9  UNL     1       2.089  -0.780  -1.353  1.00  0.00     0.024 C 
HETATM   16  C10 UNL     1       2.763   0.075  -2.376  1.00  0.00     0.016 C 
BRANCH  15  17
HETATM   17  C11 UNL     1       2.701  -0.750   0.017  1.00  0.00    -0.000 C 
HETATM   18  C12 UNL     1       4.197  -0.994  -0.087  1.00  0.00     0.005 C 
HETATM   19  C13 UNL     1       4.868  -0.719   1.263  1.00  0.00     0.006 C 
HETATM   20  C14 UNL     1       4.795   0.768   1.446  1.00  0.00     0.079 C 
HETATM   21  C15 UNL     1       3.437   1.333   1.269  1.00  0.00     0.244 C 
HETATM   22  F1  UNL     1       3.095   1.952   2.484  1.00  0.00    -0.206 F 
HETATM   23  F2  UNL     1       3.528   2.407   0.370  1.00  0.00    -0.206 F 
HETATM   24  C16 UNL     1       2.347   0.388   0.883  1.00  0.00     0.084 C 
ENDBRANCH  15  17
ENDBRANCH  14  15
ENDBRANCH   1  14
TORSDOF 10
