REMARK  3 active torsions:
REMARK  status: ('A' for Active; 'I' for Inactive)
REMARK    1  A    between atoms: C2_2  and  O1_5 
REMARK    2  A    between atoms: O1_5  and  C5_6 
REMARK       I    between atoms: C5_6  and  N1_8 
REMARK    3  A    between atoms: N1_8  and  C6_10 
ROOT
HETATM    1  C6  UNL     1      -0.743   0.424  -0.372  1.00  0.00     0.036 C 
HETATM    2  C7  UNL     1      -1.138  -1.011  -0.304  1.00  0.00     0.035 C 
HETATM    3  C8  UNL     1      -2.444  -1.271   0.396  1.00  0.00    -0.012 C 
HETATM    4  C9  UNL     1      -3.633  -1.245  -0.510  1.00  0.00     0.005 C 
HETATM    5  C10 UNL     1      -3.946   0.001  -1.193  1.00  0.00     0.005 C 
HETATM    6  C11 UNL     1      -3.092   1.191  -0.909  1.00  0.00    -0.012 C 
HETATM    7  C12 UNL     1      -3.217   1.671   0.519  1.00  0.00     0.009 C 
HETATM    8  C13 UNL     1      -2.271   0.994   1.447  1.00  0.00    -0.012 C 
HETATM    9  C14 UNL     1      -2.601  -0.455   1.645  1.00  0.00     0.009 C 
HETATM   10  C15 UNL     1      -0.865   1.128   0.961  1.00  0.00     0.035 C 
HETATM   11  C16 UNL     1      -1.680   1.072  -1.380  1.00  0.00     0.035 C 
ENDROOT
BRANCH   1  12
HETATM   12  N1  UNL     1       0.597   0.567  -0.838  1.00  0.00    -0.328 N 
HETATM   13  C5  UNL     1       1.744   0.036  -0.179  1.00  0.00     0.361 C 
HETATM   14  O2  UNL     1       1.726  -0.617   0.885  1.00  0.00    -0.238 OA
ATOM     15  H1  UNL     1       0.745   1.086  -1.704  1.00  0.00     0.165 HD
BRANCH  13  16
HETATM   16  O1  UNL     1       3.028   0.232  -0.724  1.00  0.00    -0.294 OA
BRANCH  16  17
HETATM   17  C2  UNL     1       4.184  -0.283  -0.094  1.00  0.00     0.061 C 
HETATM   18  C1  UNL     1       5.384   0.084  -0.901  1.00  0.00     0.046 C 
HETATM   19  C3  UNL     1       4.133  -1.811  -0.022  1.00  0.00     0.046 C 
HETATM   20  C4  UNL     1       4.365   0.226   1.305  1.00  0.00     0.046 C 
ENDBRANCH  16  17
ENDBRANCH  13  16
ENDBRANCH   1  12
TORSDOF 3
