REMARK  2 active torsions:
REMARK  status: ('A' for Active; 'I' for Inactive)
REMARK    1  A    between atoms: C2_2  and  C3_3 
REMARK    2  A    between atoms: C3_3  and  N1_4 
ROOT
HETATM    1  C3  UNL     1       1.122   0.263  -0.062  1.00  0.00     0.145 C 
HETATM    2  C4  UNL     1       0.580  -0.585   0.996  1.00  0.00     0.048 C 
HETATM    3  C5  UNL     1      -0.510  -1.509   0.715  1.00  0.00    -0.011 C 
HETATM    4  C6  UNL     1      -1.110  -1.531  -0.623  1.00  0.00     0.009 C 
HETATM    5  C7  UNL     1      -2.172  -0.593  -0.104  1.00  0.00    -0.013 C 
HETATM    6  C8  UNL     1      -1.797  -0.887   1.290  1.00  0.00     0.009 C 
HETATM    7  C9  UNL     1      -2.148   0.753  -0.634  1.00  0.00     0.010 C 
HETATM    8  C10 UNL     1      -0.979   1.588  -0.800  1.00  0.00    -0.007 A 
HETATM    9  C11 UNL     1      -0.271   2.262   0.364  1.00  0.00     0.013 A 
HETATM   10  C12 UNL     1       0.363   1.307  -0.707  1.00  0.00     0.030 A 
ENDROOT
BRANCH   1  11
HETATM   11  C2  UNL     1       1.923  -0.515  -1.067  1.00  0.00     0.002 C 
HETATM   12  C1  UNL     1       2.964  -1.260  -0.735  1.00  0.00     0.009 C 
ENDBRANCH   1  11
BRANCH   1  13
HETATM   13  N1  UNL     1       2.191   1.022   0.664  1.00  0.00    -0.067 N 
ATOM     14  H13 UNL     1       2.938   0.449   1.056  1.00  0.00     0.275 HD
ATOM     15  H12 UNL     1       2.803   1.583   0.071  1.00  0.00     0.275 HD
ATOM     16  H11 UNL     1       1.647   1.550   1.346  1.00  0.00     0.275 HD
ENDBRANCH   1  13
TORSDOF 2
