REMARK  4 active torsions:
REMARK  status: ('A' for Active; 'I' for Inactive)
REMARK    1  A    between atoms: C1_2  and  N1_3 
REMARK    2  A    between atoms: N1_3  and  C2_5 
REMARK    3  A    between atoms: C2_5  and  C3_6 
REMARK    4  A    between atoms: C7_10  and  C8_11 
ROOT
HETATM    1  C3  UNL     1       0.729  -0.620  -0.040  1.00  0.00    -0.019 A 
HETATM    2  C4  UNL     1      -0.094  -1.672   0.741  1.00  0.00     0.016 C 
HETATM    3  C5  UNL     1      -1.392  -1.123   1.218  1.00  0.00    -0.012 C 
HETATM    4  C6  UNL     1      -2.201  -0.708  -0.012  1.00  0.00     0.015 C 
HETATM    5  C7  UNL     1      -1.447   0.575   0.026  1.00  0.00    -0.026 C 
HETATM    6  C9  UNL     1      -1.320   0.378   1.529  1.00  0.00     0.015 C 
HETATM    7  C10 UNL     1      -0.030   0.490  -0.518  1.00  0.00     0.006 A 
HETATM    8  C11 UNL     1       0.314  -0.539  -1.520  1.00  0.00     0.018 A 
ENDROOT
BRANCH   1   9
HETATM    9  C2  UNL     1       2.201  -0.873   0.053  1.00  0.00     0.132 C 
BRANCH   9  10
HETATM   10  N1  UNL     1       3.041   0.083  -0.592  1.00  0.00    -0.367 N 
ATOM     11  H1  UNL     1       3.566  -0.202  -1.419  1.00  0.00     0.161 HD
BRANCH  10  12
HETATM   12  C1  UNL     1       3.170   1.400  -0.130  1.00  0.00     0.348 C 
HETATM   13  O1  UNL     1       2.567   1.787   0.891  1.00  0.00    -0.284 OA
ENDBRANCH  10  12
ENDBRANCH   9  10
ENDBRANCH   1   9
BRANCH   5  14
HETATM   14  C8  UNL     1      -2.232   1.738  -0.430  1.00  0.00     0.095 C 
HETATM   15 BR1  UNL     1      -1.280   3.398  -0.389  1.00  0.00    -0.096 Br
ENDBRANCH   5  14
TORSDOF 4
