REMARK  2 active torsions:
REMARK  status: ('A' for Active; 'I' for Inactive)
REMARK    1  A    between atoms: C3_3  and  N1_6 
REMARK    2  A    between atoms: N1_6  and  C6_8 
ROOT
HETATM    1  C1  UNL     1      -0.455   2.536  -0.201  1.00  0.00     0.015 C 
HETATM    2  C2  UNL     1      -0.462   1.328  -0.143  1.00  0.00    -0.086 C 
HETATM    3  C3  UNL     1      -0.497  -0.117  -0.053  1.00  0.00     0.086 C 
HETATM    4  C4  UNL     1      -0.956  -0.474   1.353  1.00  0.00     0.052 C 
HETATM    5  C5  UNL     1      -1.650  -0.656  -0.949  1.00  0.00     0.052 C 
ENDROOT
BRANCH   3   6
HETATM    6  N1  UNL     1       0.643  -0.792  -0.472  1.00  0.00    -0.371 N 
ATOM      7  H1  UNL     1       0.564  -1.435  -1.260  1.00  0.00     0.161 HD
BRANCH   6   8
HETATM    8  C6  UNL     1       1.893  -0.632   0.134  1.00  0.00     0.179 C 
HETATM    9  C7  UNL     1       2.566   0.645  -0.138  1.00  0.00     0.104 C 
HETATM   10  N2  UNL     1       3.126   1.645  -0.377  1.00  0.00    -0.191 NA
ENDBRANCH   6   8
ENDBRANCH   3   6
TORSDOF 2
