REMARK  8 active torsions:
REMARK  status: ('A' for Active; 'I' for Inactive)
REMARK    1  A    between atoms: C3_4  and  N2_5 
REMARK    2  A    between atoms: N2_5  and  N3_7 
REMARK    3  A    between atoms: N3_7  and  N4_8 
REMARK    4  A    between atoms: C4_11  and  C5_12 
REMARK    5  A    between atoms: C5_12  and  O1_13 
REMARK    6  A    between atoms: C7_16  and  O2_17 
REMARK    7  A    between atoms: C8_19  and  O3_20 
REMARK    8  A    between atoms: O3_20  and  C9_21 
ROOT
HETATM    1  C1  UNL     1       0.294  -2.698  -1.891  1.00  0.00     0.221 C 
HETATM    2  N1  UNL     1       0.384  -1.957  -1.005  1.00  0.00    -0.461 NA
HETATM    3  C2  UNL     1       0.504  -1.076   0.081  1.00  0.00     0.218 C 
HETATM    4  C3  UNL     1      -0.862  -0.746   0.571  1.00  0.00     0.159 C 
HETATM    5  C4  UNL     1      -1.635  -0.169  -0.593  1.00  0.00     0.040 C 
HETATM    6  C6  UNL     1      -0.940   0.983  -1.216  1.00  0.00     0.043 C 
HETATM    7  C7  UNL     1       0.390   1.319  -0.670  1.00  0.00     0.150 C 
HETATM    8  C8  UNL     1       1.268   0.149  -0.340  1.00  0.00     0.189 C 
ENDROOT
BRANCH   4   9
HETATM    9  N2  UNL     1      -1.509  -2.005   0.951  1.00  0.00    -0.244 N 
ATOM     10  H2  UNL     1      -2.026  -2.551   0.262  1.00  0.00     0.197 HD
BRANCH   9  11
HETATM   11  N3  UNL     1      -1.417  -2.393   2.118  1.00  0.00    -0.248 NA
BRANCH  11  12
HETATM   12  N4  UNL     1      -1.485  -2.886   3.248  1.00  0.00    -0.261 N 
ATOM     13  H42 UNL     1      -2.317  -3.383   2.931  1.00  0.00     0.193 HD
ATOM     14  H41 UNL     1      -1.409  -3.207   4.213  1.00  0.00     0.193 HD
ENDBRANCH  11  12
ENDBRANCH   9  11
ENDBRANCH   4   9
BRANCH   8  15
HETATM   15  O3  UNL     1       2.131   0.482   0.697  1.00  0.00    -0.366 OA
BRANCH  15  16
HETATM   16  C9  UNL     1       3.448   0.346   0.283  1.00  0.00     0.291 C 
HETATM   17  C10 UNL     1       4.386   0.688   1.349  1.00  0.00     0.085 C 
HETATM   18  N5  UNL     1       5.133   0.951   2.182  1.00  0.00    -0.195 NA
ENDBRANCH  15  16
ENDBRANCH   8  15
BRANCH   5  19
HETATM   19  C5  UNL     1      -3.036   0.179  -0.131  1.00  0.00     0.171 C 
BRANCH  19  20
HETATM   20  O1  UNL     1      -3.724   0.711  -1.233  1.00  0.00    -0.400 OA
ATOM     21  H1  UNL     1      -4.602   0.929  -0.943  1.00  0.00     0.209 HD
ENDBRANCH  19  20
ENDBRANCH   5  19
BRANCH   7  22
HETATM   22  O2  UNL     1       0.261   2.215   0.404  1.00  0.00    -0.393 OA
ATOM     23  H2  UNL     1       1.117   2.431   0.755  1.00  0.00     0.210 HD
ENDBRANCH   7  22
TORSDOF 8
