REMARK  3 active torsions:
REMARK  status: ('A' for Active; 'I' for Inactive)
REMARK    1  A    between atoms: C2_2  and  C3_4 
REMARK       I    between atoms: C3_4  and  N1_6 
REMARK    2  A    between atoms: N1_6  and  C4_8 
REMARK    3  A    between atoms: N3_16  and  C10_17 
ROOT
HETATM    1  C4  UNL     1       3.478   0.614   0.308  1.00  0.00     0.051 A 
HETATM    2  C5  UNL     1       3.004   1.833   0.811  1.00  0.00     0.117 A 
HETATM    3  N2  UNL     1       1.698   2.095   0.992  1.00  0.00    -0.365 N 
ATOM      4  H2  UNL     1       1.419   3.004   1.361  1.00  0.00     0.165 HD
HETATM    5  C6  UNL     1       0.753   1.189   0.698  1.00  0.00     0.045 A 
HETATM    6  C7  UNL     1       1.178  -0.017   0.203  1.00  0.00    -0.004 A 
HETATM    7  C8  UNL     1       2.528  -0.324   0.002  1.00  0.00     0.041 A 
HETATM    8  C9  UNL     1      -0.017  -0.840  -0.048  1.00  0.00     0.314 C 
HETATM    9  N3  UNL     1      -1.042  -0.223   0.729  1.00  0.00     0.104 N 
HETATM   10  C16 UNL     1      -0.747   1.189   0.793  1.00  0.00     0.330 C 
ENDROOT
BRANCH   1  11
HETATM   11  N1  UNL     1       4.880   0.442   0.169  1.00  0.00    -0.321 N 
HETATM   12  C3  UNL     1       5.581  -0.585  -0.446  1.00  0.00     0.262 C 
HETATM   13  O1  UNL     1       4.982  -1.538  -0.986  1.00  0.00    -0.267 OA
ATOM     14  H1  UNL     1       5.454   1.178   0.580  1.00  0.00     0.169 HD
BRANCH  12  15
HETATM   15  C2  UNL     1       7.033  -0.607  -0.495  1.00  0.00     0.069 C 
HETATM   16  C1  UNL     1       7.809   0.334   0.034  1.00  0.00     0.037 C 
HETATM   17 BR1  UNL     1       7.865  -2.101  -1.381  1.00  0.00    -0.046 Br
ENDBRANCH  12  15
ENDBRANCH   1  11
BRANCH   9  18
HETATM   18  C10 UNL     1      -2.332  -0.513   0.178  1.00  0.00     0.241 C 
HETATM   19  C11 UNL     1      -2.573   0.008  -1.195  1.00  0.00     0.039 C 
HETATM   20  C12 UNL     1      -3.753   0.960  -1.150  1.00  0.00     0.022 C 
HETATM   21  C13 UNL     1      -4.966   0.235  -0.647  1.00  0.00     0.116 C 
HETATM   22  N4  UNL     1      -4.709  -0.401   0.607  1.00  0.00    -0.415 N 
HETATM   23  C14 UNL     1      -5.140  -1.765   0.685  1.00  0.00     0.143 C 
HETATM   24  C15 UNL     1      -3.422  -0.138   1.170  1.00  0.00     0.152 C 
ENDBRANCH   9  18
TORSDOF 3
