REMARK  4 active torsions:
REMARK  status: ('A' for Active; 'I' for Inactive)
REMARK    1  A    between atoms: O1_1  and  C1_3 
REMARK    2  A    between atoms: N1_6  and  C4_7 
REMARK    3  A    between atoms: N2_10  and  C7_11 
REMARK    4  A    between atoms: C7_11  and  C8_12 
ROOT
HETATM    1  C7  UNL     1      -2.152  -0.485  -0.132  1.00  0.00     0.192 C 
HETATM    2  C13 UNL     1      -2.541  -1.560  -1.126  1.00  0.00     0.073 C 
HETATM    3  C14 UNL     1      -4.016  -1.946  -1.002  1.00  0.00     0.170 C 
HETATM    4  O2  UNL     1      -4.341  -2.339   0.306  1.00  0.00    -0.391 OA
HETATM    5  C15 UNL     1      -4.278  -1.142   1.058  1.00  0.00     0.170 C 
HETATM    6  C16 UNL     1      -2.813  -0.828   1.183  1.00  0.00     0.073 C 
ENDROOT
BRANCH   1   7
HETATM    7  N2  UNL     1      -0.731  -0.508   0.116  1.00  0.00     0.103 N 
HETATM    8  C6  UNL     1      -0.064   0.759  -0.032  1.00  0.00     0.276 C 
HETATM    9  C5  UNL     1       1.230   0.644   0.787  1.00  0.00     0.055 C 
HETATM   10  C4  UNL     1       1.981  -0.617   0.415  1.00  0.00     0.086 C 
HETATM   11  C18 UNL     1       1.421  -1.088  -0.909  1.00  0.00     0.055 C 
HETATM   12  C17 UNL     1      -0.042  -1.466  -0.725  1.00  0.00     0.276 C 
BRANCH  10  13
HETATM   13  N1  UNL     1       3.342  -0.376   0.367  1.00  0.00    -0.386 N 
HETATM   14  C3  UNL     1       4.061   0.014   1.518  1.00  0.00     0.125 C 
HETATM   15  C2  UNL     1       5.528  -0.052   1.054  1.00  0.00     0.057 C 
HETATM   16  C1  UNL     1       5.390   0.424  -0.367  1.00  0.00     0.157 C 
HETATM   17  C19 UNL     1       4.025  -0.040  -0.798  1.00  0.00     0.090 C 
BRANCH  16  18
HETATM   18  O1  UNL     1       6.394  -0.134  -1.160  1.00  0.00    -0.390 OA
ATOM     19  H1  UNL     1       6.307   0.166  -2.057  1.00  0.00     0.210 HD
ENDBRANCH  16  18
ENDBRANCH  10  13
ENDBRANCH   1   7
BRANCH   1  20
HETATM   20  C8  UNL     1      -2.612   0.852  -0.631  1.00  0.00    -0.004 A 
HETATM   21  C9  UNL     1      -3.333   1.747   0.104  1.00  0.00     0.014 A 
HETATM   22  C10 UNL     1      -3.750   2.963  -0.403  1.00  0.00     0.043 A 
HETATM   23  C11 UNL     1      -3.423   3.292  -1.718  1.00  0.00     0.103 A 
HETATM   24 CL1  UNL     1      -3.940   4.842  -2.396  1.00  0.00    -0.065 Cl
HETATM   25  N3  UNL     1      -2.712   2.403  -2.436  1.00  0.00    -0.356 N 
HETATM   26  C12 UNL     1      -2.307   1.214  -1.933  1.00  0.00     0.099 A 
ATOM     27  H3  UNL     1      -2.468   2.635  -3.399  1.00  0.00     0.166 HD
ENDBRANCH   1  20
TORSDOF 4
