REMARK  10 active torsions:
REMARK  status: ('A' for Active; 'I' for Inactive)
REMARK    1  A    between atoms: C1_4  and  C2_5 
REMARK    2  A    between atoms: C1_4  and  N11_41 
REMARK    3  A    between atoms: C2_5  and  S1_6 
REMARK    4  A    between atoms: S1_6  and  C3_7 
REMARK    5  A    between atoms: C5_12  and  N4_13 
REMARK    6  A    between atoms: C6_16  and  N5_17 
REMARK       I    between atoms: N5_17  and  C7_19 
REMARK    7  A    between atoms: C7_19  and  C8_21 
REMARK    8  A    between atoms: C10_23  and  C11_24 
REMARK    9  A    between atoms: C11_24  and  N6_25 
REMARK       I    between atoms: N6_25  and  C12_27 
REMARK       I    between atoms: C12_27  and  N7_29 
REMARK   10  A    between atoms: N11_41  and  N12_43 
ROOT
HETATM    1  C3  UNL     1       5.179  -0.345   0.834  1.00  0.00     0.147 A 
HETATM    2  N2  UNL     1       5.537  -1.450   1.505  1.00  0.00    -0.323 N 
ATOM      3  H2  UNL     1       6.500  -1.779   1.432  1.00  0.00     0.169 HD
HETATM    4  C4  UNL     1       4.660  -2.150   2.282  1.00  0.00     0.155 A 
HETATM    5  N3  UNL     1       5.045  -3.320   2.991  1.00  0.00    -0.080 NA
HETATM    6  C5  UNL     1       3.361  -1.713   2.385  1.00  0.00     0.187 A 
HETATM    7  C6  UNL     1       2.990  -0.579   1.697  1.00  0.00     0.147 A 
HETATM    8  N10 UNL     1       3.909   0.067   0.945  1.00  0.00    -0.321 N 
ATOM      9  H10 UNL     1       3.623   0.905   0.440  1.00  0.00     0.169 HD
ENDROOT
BRANCH   7  10
HETATM   10  N5  UNL     1       1.641  -0.113   1.787  1.00  0.00    -0.305 N 
HETATM   11  C7  UNL     1       1.287   1.051   1.073  1.00  0.00     0.275 C 
HETATM   12  O3  UNL     1       2.126   1.665   0.380  1.00  0.00    -0.266 OA
ATOM     13  H5  UNL     1       0.953  -0.609   2.353  1.00  0.00     0.170 HD
BRANCH  11  14
HETATM   14  C8  UNL     1      -0.087   1.542   1.148  1.00  0.00     0.125 A 
HETATM   15  C9  UNL     1      -1.117   0.991   1.864  1.00  0.00     0.073 A 
HETATM   16  C10 UNL     1      -2.220   1.784   1.641  1.00  0.00     0.096 A 
HETATM   17  O5  UNL     1      -1.831   2.732   0.841  1.00  0.00    -0.240 OA
HETATM   18  N9  UNL     1      -0.580   2.623   0.529  1.00  0.00    -0.256 N 
ATOM     19  H9  UNL     1      -0.059   3.252  -0.083  1.00  0.00     0.195 HD
BRANCH  16  20
HETATM   20  C11 UNL     1      -3.571   1.561   2.223  1.00  0.00     0.191 C 
BRANCH  20  21
HETATM   21  N6  UNL     1      -4.370   0.647   1.443  1.00  0.00    -0.337 N 
HETATM   22  C12 UNL     1      -4.718   0.894   0.093  1.00  0.00     0.318 C 
HETATM   23  O4  UNL     1      -4.294   1.974  -0.425  1.00  0.00    -0.247 OA
HETATM   24  N7  UNL     1      -5.485   0.048  -0.704  1.00  0.00    -0.331 N 
HETATM   25  C13 UNL     1      -5.771   0.424  -2.096  1.00  0.00     0.147 C 
HETATM   26  C16 UNL     1      -6.047  -1.198  -0.287  1.00  0.00     0.147 C 
HETATM   27  C14 UNL     1      -7.186   0.037  -2.460  1.00  0.00     0.133 C 
HETATM   28  N8  UNL     1      -8.023  -0.151  -1.306  1.00  0.00    -0.418 N 
HETATM   29  C15 UNL     1      -7.550  -1.055  -0.322  1.00  0.00     0.133 C 
ATOM     30  H8  UNL     1      -8.911   0.340  -1.201  1.00  0.00     0.153 HD
ATOM     31  H6  UNL     1      -4.698  -0.213   1.883  1.00  0.00     0.164 HD
ENDBRANCH  20  21
ENDBRANCH  16  20
ENDBRANCH  11  14
ENDBRANCH   7  10
BRANCH   6  32
HETATM   32  N4  UNL     1       2.403  -2.395   3.173  1.00  0.00    -0.108 N 
HETATM   33  O1  UNL     1       2.421  -2.348   4.426  1.00  0.00    -0.532 OA
HETATM   34  O2  UNL     1       1.421  -3.135   2.543  1.00  0.00    -0.532 OA
ENDBRANCH   6  32
BRANCH   1  35
HETATM   35  S1  UNL     1       6.370   0.540  -0.181  1.00  0.00    -0.086 SA
BRANCH  35  36
HETATM   36  C2  UNL     1       6.255  -0.204  -1.854  1.00  0.00     0.159 C 
BRANCH  36  37
HETATM   37  C1  UNL     1       7.208   0.486  -2.734  1.00  0.00     0.098 C 
HETATM   38  N1  UNL     1       8.148  -0.167  -3.330  1.00  0.00    -0.387 N 
ATOM     39  H12 UNL     1       8.236  -1.174  -3.190  1.00  0.00     0.157 HD
ATOM     40  H11 UNL     1       8.810   0.312  -3.941  1.00  0.00     0.157 HD
BRANCH  37  41
HETATM   41  N11 UNL     1       7.086   1.882  -2.928  1.00  0.00    -0.295 N 
ATOM     42  H11 UNL     1       6.561   2.243  -3.725  1.00  0.00     0.187 HD
BRANCH  41  43
HETATM   43  N12 UNL     1       7.680   2.760  -2.034  1.00  0.00    -0.344 N 
ATOM     44 2H12 UNL     1       8.201   2.383  -1.242  1.00  0.00     0.176 HD
ATOM     45 1H12 UNL     1       7.592   3.767  -2.174  1.00  0.00     0.176 HD
ENDBRANCH  41  43
ENDBRANCH  37  41
ENDBRANCH  36  37
ENDBRANCH  35  36
ENDBRANCH   1  35
TORSDOF 10
