REMARK  3 active torsions:
REMARK  status: ('A' for Active; 'I' for Inactive)
REMARK    1  A    between atoms: C1_2  and  N2_4 
REMARK    2  A    between atoms: N2_4  and  N3_6 
REMARK    3  A    between atoms: C2_8  and  C3_9 
ROOT
HETATM    1  N3  UNL     1       1.753  -0.074  -0.267  1.00  0.00    -0.314 N 
ATOM      2  H3  UNL     1       1.558   0.792  -0.770  1.00  0.00     0.185 HD
HETATM    3  C2  UNL     1       0.764  -0.789   0.139  1.00  0.00     0.084 C 
ENDROOT
BRANCH   1   4
HETATM    4  N2  UNL     1       3.067  -0.432  -0.049  1.00  0.00    -0.279 N 
ATOM      5  H2  UNL     1       3.348  -1.410  -0.116  1.00  0.00     0.189 HD
BRANCH   4   6
HETATM    6  C1  UNL     1       4.024   0.562   0.268  1.00  0.00     0.199 C 
HETATM    7  N1  UNL     1       5.373   0.214   0.494  1.00  0.00    -0.068 NA
HETATM    8  S1  UNL     1       3.528   2.119   0.367  1.00  0.00    -0.043 SA
ENDBRANCH   4   6
ENDBRANCH   1   4
BRANCH   3   9
HETATM    9  C3  UNL     1      -0.597  -0.311  -0.147  1.00  0.00     0.025 C 
HETATM   10  C4  UNL     1      -1.647  -1.326   0.290  1.00  0.00     0.010 C 
HETATM   11  C5  UNL     1      -2.917  -0.959  -0.458  1.00  0.00     0.001 C 
HETATM   12  C6  UNL     1      -3.022   0.539  -0.574  1.00  0.00     0.000 C 
HETATM   13  C7  UNL     1      -2.333   1.251   0.574  1.00  0.00     0.001 C 
HETATM   14  C8  UNL     1      -0.853   0.988   0.578  1.00  0.00     0.010 C 
ENDBRANCH   3   9
TORSDOF 3
