REMARK  2 active torsions:
REMARK  status: ('A' for Active; 'I' for Inactive)
REMARK    1  A    between atoms: N1_4  and  N2_5 
REMARK    2  A    between atoms: N2_5  and  C4_7 
ROOT
HETATM    1  C4  UNL     1       1.220  -0.127   0.460  1.00  0.00     0.102 C 
HETATM    2  C5  UNL     1       2.476  -0.971   0.549  1.00  0.00     0.054 C 
HETATM    3  C6  UNL     1       3.593  -0.395  -0.293  1.00  0.00     0.234 C 
HETATM    4  N3  UNL     1       3.935   0.948   0.095  1.00  0.00    -0.075 N 
ATOM      5  H31 UNL     1       4.541   1.386  -0.599  1.00  0.00     0.277 HD
ATOM      6  H32 UNL     1       4.571   0.948   0.893  1.00  0.00     0.277 HD
HETATM    7  C7  UNL     1       2.771   1.766   0.359  1.00  0.00     0.234 C 
HETATM    8  C8  UNL     1       1.594   1.109  -0.331  1.00  0.00     0.054 C 
ENDROOT
BRANCH   1   9
HETATM    9  N2  UNL     1       0.209  -0.893  -0.180  1.00  0.00    -0.334 N 
ATOM     10  H2  UNL     1       0.379  -1.847  -0.499  1.00  0.00     0.180 HD
BRANCH   9  11
HETATM   11  N1  UNL     1      -1.001  -0.285  -0.346  1.00  0.00    -0.332 N 
HETATM   12  C3  UNL     1      -1.871  -1.045  -1.170  1.00  0.00     0.142 C 
HETATM   13  C2  UNL     1      -3.250  -1.262  -0.662  1.00  0.00     0.021 C 
HETATM   14  C1  UNL     1      -3.859  -0.105   0.064  1.00  0.00     0.003 C 
HETATM   15  C10 UNL     1      -2.876   0.995   0.362  1.00  0.00     0.021 C 
HETATM   16  C9  UNL     1      -1.578   0.315   0.796  1.00  0.00     0.142 C 
ENDBRANCH   9  11
ENDBRANCH   1   9
TORSDOF 2
