REMARK  13 active torsions:
REMARK  status: ('A' for Active; 'I' for Inactive)
REMARK    1  A    between atoms: C3_3  and  C4_4 
REMARK    2  A    between atoms: C4_4  and  C5_5 
REMARK    3  A    between atoms: C6_6  and  C7_7 
REMARK    4  A    between atoms: C13_15  and  O3_16 
REMARK    5  A    between atoms: C14_18  and  O4_19 
REMARK    6  A    between atoms: C17_23  and  O5_24 
REMARK    7  A    between atoms: C17_23  and  C18_26 
REMARK    8  A    between atoms: C18_26  and  S1_27 
REMARK    9  A    between atoms: S1_27  and  C19_28 
REMARK   10  A    between atoms: C19_28  and  C20_29 
REMARK   11  A    between atoms: C20_29  and  C21_30 
REMARK   12  A    between atoms: C21_30  and  N1_31 
REMARK   13  A    between atoms: C21_30  and  C22_35 
ROOT
HETATM    1  C7  UNL     1       3.961  -0.134   0.717  1.00  0.00    -0.057 A 
HETATM    2  C8  UNL     1       3.322   0.035   1.887  1.00  0.00     0.014 A 
HETATM    3  C9  UNL     1       2.071   0.795   1.707  1.00  0.00     0.178 A 
HETATM    4  O1  UNL     1       1.022  -0.055   2.057  1.00  0.00    -0.338 OA
HETATM    5  C10 UNL     1       0.105  -0.015   1.012  1.00  0.00     0.227 C 
HETATM    6  O2  UNL     1       0.784   0.380  -0.131  1.00  0.00    -0.342 OA
HETATM    7  C11 UNL     1       1.944   1.042   0.261  1.00  0.00     0.162 A 
HETATM    8  C12 UNL     1       3.173   0.500  -0.387  1.00  0.00     0.073 A 
HETATM    9  C13 UNL     1      -0.507  -1.373   0.900  1.00  0.00     0.213 C 
HETATM   10  C14 UNL     1      -1.401  -1.384   2.134  1.00  0.00     0.159 C 
HETATM   11  C15 UNL     1      -1.965   0.034   2.162  1.00  0.00     0.054 C 
HETATM   12  C16 UNL     1      -1.900   0.443   3.650  1.00  0.00     0.016 C 
HETATM   13  C17 UNL     1      -1.026   0.880   1.377  1.00  0.00     0.131 C 
ENDROOT
BRANCH  13  14
HETATM   14  O5  UNL     1      -0.439   1.876   2.239  1.00  0.00    -0.383 OA
ATOM     15  H5  UNL     1      -1.161   2.447   2.472  1.00  0.00     0.210 HD
ENDBRANCH  13  14
BRANCH  13  16
HETATM   16  C18 UNL     1      -1.599   1.647   0.239  1.00  0.00     0.118 C 
BRANCH  16  17
HETATM   17  S1  UNL     1      -2.253   0.731  -1.130  1.00  0.00    -0.166 SA
BRANCH  17  18
HETATM   18  C19 UNL     1      -3.732  -0.208  -0.847  1.00  0.00     0.076 C 
BRANCH  18  19
HETATM   19  C20 UNL     1      -4.944   0.639  -0.532  1.00  0.00     0.051 C 
BRANCH  19  20
HETATM   20  C21 UNL     1      -6.143  -0.255  -0.309  1.00  0.00     0.252 C 
BRANCH  20  21
HETATM   21  N1  UNL     1      -6.449  -1.053  -1.460  1.00  0.00    -0.068 N 
ATOM     22  H13 UNL     1      -6.572  -0.472  -2.289  1.00  0.00     0.275 HD
ATOM     23  H12 UNL     1      -5.637  -1.593  -1.760  1.00  0.00     0.275 HD
ATOM     24  H11 UNL     1      -7.258  -1.656  -1.310  1.00  0.00     0.275 HD
ENDBRANCH  20  21
BRANCH  20  25
HETATM   25  C22 UNL     1      -7.311   0.576   0.115  1.00  0.00     0.153 C 
HETATM   26  C23 UNL     1      -8.580   0.488  -0.656  1.00  0.00     0.093 C 
HETATM   27  O6  UNL     1      -7.231   1.314   1.075  1.00  0.00    -0.296 OA
ENDBRANCH  20  25
ENDBRANCH  19  20
ENDBRANCH  18  19
ENDBRANCH  17  18
ENDBRANCH  16  17
ENDBRANCH  13  16
BRANCH   9  28
HETATM   28  O3  UNL     1       0.547  -2.295   1.108  1.00  0.00    -0.387 OA
ATOM     29  H3  UNL     1       0.158  -3.159   1.037  1.00  0.00     0.210 HD
ENDBRANCH   9  28
BRANCH  10  30
HETATM   30  O4  UNL     1      -2.355  -2.362   2.130  1.00  0.00    -0.392 OA
ATOM     31  H4  UNL     1      -2.912  -2.369   2.899  1.00  0.00     0.210 HD
ENDBRANCH  10  30
BRANCH   1  32
HETATM   32  C6  UNL     1       5.217  -0.848   0.626  1.00  0.00     0.003 C 
HETATM   33  C5  UNL     1       5.985  -1.117  -0.364  1.00  0.00    -0.022 C 
BRANCH  33  34
HETATM   34  C4  UNL     1       5.810  -0.761  -1.774  1.00  0.00     0.054 C 
BRANCH  34  35
HETATM   35  C3  UNL     1       6.985   0.087  -2.219  1.00  0.00    -0.027 C 
HETATM   36  C2  UNL     1       7.785  -0.291  -3.203  1.00  0.00    -0.035 C 
HETATM   37  C1  UNL     1       8.942   0.513  -3.663  1.00  0.00     0.036 C 
ENDBRANCH  34  35
ENDBRANCH  33  34
ENDBRANCH   1  32
TORSDOF 13
