REMARK  5 active torsions:
REMARK  status: ('A' for Active; 'I' for Inactive)
REMARK    1  A    between atoms: S1_2  and  C1_3 
REMARK    2  A    between atoms: S1_2  and  C9_11 
REMARK    3  A    between atoms: C1_3  and  C2_4 
REMARK    4  A    between atoms: C2_4  and  C3_5 
REMARK    5  A    between atoms: C12_14  and  C13_15 
ROOT
HETATM    1  C9  UNL     1      -0.594   0.371  -0.235  1.00  0.00     0.101 A 
HETATM    2  C10 UNL     1      -0.957   1.484  -0.925  1.00  0.00     0.041 A 
HETATM    3  C11 UNL     1      -2.330   1.582  -0.895  1.00  0.00     0.033 A 
HETATM    4  C12 UNL     1      -2.783   0.502  -0.171  1.00  0.00     0.043 A 
HETATM    5  N1  UNL     1      -1.711  -0.209   0.213  1.00  0.00    -0.348 N 
ATOM      6  H1  UNL     1      -1.744  -1.066   0.765  1.00  0.00     0.166 HD
ENDROOT
BRANCH   1   7
HETATM    7  S1  UNL     1       0.999  -0.282   0.077  1.00  0.00     0.067 S 
HETATM    8  O1  UNL     1       1.684   0.287   1.463  1.00  0.00    -0.251 OA
BRANCH   7   9
HETATM    9  C1  UNL     1       2.045  -0.173  -1.308  1.00  0.00     0.120 C 
BRANCH   9  10
HETATM   10  C2  UNL     1       3.313  -0.954  -1.179  1.00  0.00     0.051 C 
BRANCH  10  11
HETATM   11  C3  UNL     1       4.200  -0.580  -0.063  1.00  0.00    -0.057 A 
HETATM   12  C4  UNL     1       5.119   0.470  -0.192  1.00  0.00     0.007 A 
HETATM   13  C5  UNL     1       5.986   0.825   0.816  1.00  0.00     0.001 A 
HETATM   14  C6  UNL     1       5.987   0.150   2.018  1.00  0.00     0.000 A 
HETATM   15  C7  UNL     1       5.092  -0.889   2.174  1.00  0.00     0.001 A 
HETATM   16  C8  UNL     1       4.228  -1.238   1.159  1.00  0.00     0.007 A 
ENDBRANCH  10  11
ENDBRANCH   9  10
ENDBRANCH   7   9
ENDBRANCH   1   7
BRANCH   4  17
HETATM   17  C13 UNL     1      -4.175   0.195   0.121  1.00  0.00    -0.009 A 
HETATM   18  C14 UNL     1      -5.216   0.992  -0.320  1.00  0.00     0.013 A 
HETATM   19  C15 UNL     1      -6.532   0.705  -0.047  1.00  0.00     0.001 A 
HETATM   20  C16 UNL     1      -6.876  -0.404   0.688  1.00  0.00     0.000 A 
HETATM   21  C17 UNL     1      -5.851  -1.210   1.136  1.00  0.00     0.001 A 
HETATM   22  C18 UNL     1      -4.515  -0.916   0.857  1.00  0.00     0.013 A 
ENDBRANCH   4  17
TORSDOF 5
