REMARK  7 active torsions:
REMARK  status: ('A' for Active; 'I' for Inactive)
REMARK    1  A    between atoms: C4_12  and  O1_13 
REMARK    2  A    between atoms: C5_15  and  N4_16 
REMARK    3  A    between atoms: N5_18  and  C6_20 
REMARK    4  A    between atoms: C6_20  and  C7_21 
REMARK    5  A    between atoms: C7_21  and  C8_22 
REMARK    6  A    between atoms: C8_22  and  N6_23 
REMARK    7  A    between atoms: N6_23  and  C9_25 
ROOT
HETATM    1  N1  UNL     1      -4.744  -0.841  -1.449  1.00  0.00    -0.235 N 
ATOM      2  H11 UNL     1      -4.566  -0.752  -2.449  1.00  0.00     0.174 HD
ATOM      3  H12 UNL     1      -5.658  -1.193  -1.165  1.00  0.00     0.174 HD
HETATM    4  C1  UNL     1      -3.838  -0.517  -0.600  1.00  0.00     0.669 C 
HETATM    5  N2  UNL     1      -4.084  -0.640   0.785  1.00  0.00    -0.225 N 
ATOM      6  H2  UNL     1      -5.037  -0.703   1.143  1.00  0.00     0.177 HD
HETATM    7  C2  UNL     1      -2.960  -0.674   1.677  1.00  0.00     0.176 C 
HETATM    8  C3  UNL     1      -2.002   0.417   1.349  1.00  0.00     0.262 C 
HETATM    9  N3  UNL     1      -2.608   1.696   0.964  1.00  0.00    -0.034 N 
ATOM     10  H31 UNL     1      -2.852   2.409   1.652  1.00  0.00     0.281 HD
ATOM     11  H32 UNL     1      -3.567   1.760   0.623  1.00  0.00     0.281 HD
HETATM   12  C4  UNL     1      -1.447   1.837   0.068  1.00  0.00     0.372 C 
HETATM   13  C5  UNL     1      -1.531   0.315  -0.072  1.00  0.00     0.215 C 
HETATM   14  N7  UNL     1      -2.560  -0.025  -0.997  1.00  0.00    -0.192 N 
ATOM     15  H7  UNL     1      -2.373   0.089  -1.993  1.00  0.00     0.180 HD
ENDROOT
BRANCH  13  16
HETATM   16  N4  UNL     1      -0.273  -0.337  -0.223  1.00  0.00    -0.305 N 
HETATM   17  N5  UNL     1       0.410  -0.238  -1.225  1.00  0.00    -0.338 N 
ATOM     18  H5  UNL     1       0.090   0.332  -2.008  1.00  0.00     0.179 HD
ATOM     19  H4  UNL     1       0.071  -0.914   0.545  1.00  0.00     0.183 HD
BRANCH  17  20
HETATM   20  C6  UNL     1       1.665  -0.924  -1.303  1.00  0.00     0.140 C 
BRANCH  20  21
HETATM   21  C7  UNL     1       2.653  -0.347  -0.293  1.00  0.00     0.041 C 
BRANCH  21  22
HETATM   22  C8  UNL     1       3.979  -1.057  -0.362  1.00  0.00     0.123 C 
BRANCH  22  23
HETATM   23  N6  UNL     1       4.907  -0.505   0.604  1.00  0.00    -0.368 N 
ATOM     24  H6  UNL     1       5.280  -1.116   1.331  1.00  0.00     0.161 HD
BRANCH  23  25
HETATM   25  C9  UNL     1       5.315   0.848   0.578  1.00  0.00     0.348 C 
HETATM   26  O2  UNL     1       4.939   1.707  -0.256  1.00  0.00    -0.284 OA
ENDBRANCH  23  25
ENDBRANCH  22  23
ENDBRANCH  21  22
ENDBRANCH  20  21
ENDBRANCH  17  20
ENDBRANCH  13  16
BRANCH  12  27
HETATM   27  O1  UNL     1      -1.704   2.534  -1.086  1.00  0.00    -0.366 OA
ATOM     28  H1  UNL     1      -0.955   2.625  -1.664  1.00  0.00     0.212 HD
ENDBRANCH  12  27
TORSDOF 7
