REMARK  12 active torsions:
REMARK  status: ('A' for Active; 'I' for Inactive)
REMARK    1  A    between atoms: C2_2  and  O1_3 
REMARK    2  A    between atoms: O1_3  and  C3_4 
REMARK       I    between atoms: C3_4  and  N1_6 
REMARK    3  A    between atoms: N1_6  and  C4_8 
REMARK    4  A    between atoms: C4_8  and  C5_9 
REMARK    5  A    between atoms: C5_9  and  N2_10 
REMARK    6  A    between atoms: C5_9  and  C15_34 
REMARK       I    between atoms: N2_10  and  C6_12 
REMARK    7  A    between atoms: C6_12  and  C7_14 
REMARK    8  A    between atoms: C7_14  and  N3_15 
REMARK    9  A    between atoms: C7_14  and  C14_31 
REMARK   10  A    between atoms: N3_15  and  C8_17 
REMARK   11  A    between atoms: C8_17  and  C9_19 
REMARK       I    between atoms: C9_19  and  N5_21 
REMARK       I    between atoms: N6_24  and  C12_25 
REMARK   12  A    between atoms: C15_34  and  O7_36 
ROOT
HETATM    1  C7  UNL     1      -0.583   0.575  -0.694  1.00  0.00     0.265 C 
ENDROOT
BRANCH   1   2
HETATM    2  C6  UNL     1       0.804   0.052  -0.336  1.00  0.00     0.250 C 
HETATM    3  N2  UNL     1       1.929   0.900  -0.485  1.00  0.00    -0.344 N 
ATOM      4  H2  UNL     1       1.811   1.837  -0.871  1.00  0.00     0.163 HD
HETATM    5  O3  UNL     1       0.922  -1.105   0.090  1.00  0.00    -0.271 OA
BRANCH   3   6
HETATM    6  C5  UNL     1       3.251   0.442  -0.090  1.00  0.00     0.202 C 
BRANCH   6   7
HETATM    7  C4  UNL     1       3.889  -0.560  -0.973  1.00  0.00     0.160 C 
BRANCH   7   8
HETATM    8  N1  UNL     1       5.177  -0.995  -0.509  1.00  0.00    -0.334 N 
HETATM    9  C3  UNL     1       6.272  -0.136  -0.343  1.00  0.00     0.360 C 
HETATM   10  O2  UNL     1       6.229   1.089  -0.604  1.00  0.00    -0.239 OA
ATOM     11  H1  UNL     1       5.301  -1.983  -0.288  1.00  0.00     0.164 HD
BRANCH   9  12
HETATM   12  O1  UNL     1       7.506  -0.601   0.141  1.00  0.00    -0.304 OA
BRANCH  12  13
HETATM   13  C2  UNL     1       8.573   0.276   0.306  1.00  0.00     0.176 C 
HETATM   14  C1  UNL     1       9.791  -0.400   0.896  1.00  0.00     0.034 C 
ENDBRANCH  12  13
ENDBRANCH   9  12
ENDBRANCH   7   8
ENDBRANCH   6   7
BRANCH   6  15
HETATM   15  C15 UNL     1       3.270   0.015   1.357  1.00  0.00     0.283 C 
HETATM   16  O6  UNL     1       2.266   0.191   2.098  1.00  0.00    -0.263 OA
BRANCH  15  17
HETATM   17  O7  UNL     1       4.360  -0.585   1.954  1.00  0.00    -0.325 OA
HETATM   18  C16 UNL     1       4.362  -0.982   3.318  1.00  0.00     0.213 C 
ENDBRANCH  15  17
ENDBRANCH   6  15
ENDBRANCH   3   6
ENDBRANCH   1   2
BRANCH   1  19
HETATM   19  N3  UNL     1      -1.532  -0.411  -0.298  1.00  0.00    -0.354 N 
ATOM     20  H3  UNL     1      -1.385  -0.951   0.555  1.00  0.00     0.162 HD
BRANCH  19  21
HETATM   21  C8  UNL     1      -2.674  -0.635  -1.091  1.00  0.00     0.181 C 
HETATM   22  N4  UNL     1      -3.281  -1.943  -0.841  1.00  0.00    -0.077 NA
BRANCH  21  23
HETATM   23  C9  UNL     1      -3.645   0.446  -1.238  1.00  0.00     0.285 C 
HETATM   24  O4  UNL     1      -3.259   1.613  -1.542  1.00  0.00    -0.265 OA
HETATM   25  N5  UNL     1      -5.081   0.266  -1.040  1.00  0.00    -0.328 N 
HETATM   26  C10 UNL     1      -5.998   1.368  -1.158  1.00  0.00     0.148 C 
HETATM   27  C13 UNL     1      -5.811  -0.913  -0.692  1.00  0.00     0.255 C 
HETATM   28  C11 UNL     1      -7.368   0.775  -1.140  1.00  0.00     0.147 C 
HETATM   29  N6  UNL     1      -7.134  -0.436  -0.358  1.00  0.00    -0.338 N 
HETATM   30  C12 UNL     1      -8.032  -1.001   0.547  1.00  0.00     0.185 C 
HETATM   31  N7  UNL     1      -8.970  -1.767   0.125  1.00  0.00    -0.374 N 
HETATM   32  N8  UNL     1      -7.938  -0.743   1.935  1.00  0.00    -0.064 NA
ATOM     33  H72 UNL     1      -9.038  -1.953  -0.876  1.00  0.00     0.158 HD
ATOM     34  H71 UNL     1      -9.627  -2.180   0.787  1.00  0.00     0.158 HD
ENDBRANCH  21  23
ENDBRANCH  19  21
ENDBRANCH   1  19
BRANCH   1  35
HETATM   35  C14 UNL     1      -0.742   1.887   0.005  1.00  0.00     0.263 C 
HETATM   36  N9  UNL     1      -0.246   3.072  -0.586  1.00  0.00    -0.060 NA
HETATM   37  O5  UNL     1      -1.314   1.920   1.103  1.00  0.00    -0.274 OA
ENDBRANCH   1  35
TORSDOF 12
