REMARK  2 active torsions:
REMARK  status: ('A' for Active; 'I' for Inactive)
REMARK    1  A    between atoms: O1_2  and  N1_3 
REMARK    2  A    between atoms: N1_3  and  C2_4 
ROOT
HETATM    1  C2  UNL     1       0.458  -0.304  -0.011  1.00  0.00     0.106 C 
HETATM    2  C3  UNL     1       0.099   0.943   0.746  1.00  0.00     0.024 C 
HETATM    3  C4  UNL     1      -1.285   0.892   1.331  1.00  0.00     0.002 C 
HETATM    4  C5  UNL     1      -2.360   0.707   0.304  1.00  0.00     0.000 C 
HETATM    5  C6  UNL     1      -2.478  -0.677  -0.226  1.00  0.00     0.000 C 
HETATM    6  C7  UNL     1      -1.552  -1.033  -1.326  1.00  0.00     0.002 C 
HETATM    7  C8  UNL     1      -0.254  -0.284  -1.329  1.00  0.00     0.024 C 
ENDROOT
BRANCH   1   8
HETATM    8  N1  UNL     1       1.885  -0.253  -0.273  1.00  0.00    -0.097 NA
BRANCH   8   9
HETATM    9  O1  UNL     1       2.625  -0.197   0.834  1.00  0.00    -0.291 OA
HETATM   10  C1  UNL     1       3.935   0.038   0.493  1.00  0.00     0.231 C 
ENDBRANCH   8   9
ENDBRANCH   1   8
TORSDOF 2
