REMARK  8 active torsions:
REMARK  status: ('A' for Active; 'I' for Inactive)
REMARK    1  A    between atoms: N5_12  and  C5_13 
REMARK    2  A    between atoms: C6_17  and  C7_18 
REMARK    3  A    between atoms: C7_18  and  N7_19 
REMARK    4  A    between atoms: C7_18  and  C8_23 
REMARK    5  A    between atoms: C8_23  and  O1_24 
REMARK    6  A    between atoms: C9_28  and  O2_29 
REMARK    7  A    between atoms: O2_29  and  C10_30 
REMARK    8  A    between atoms: C11_33  and  N12_34 
ROOT
HETATM    1  N1  UNL     1      -4.729  -3.864  -2.212  1.00  0.00    -0.195 NA
HETATM    2  C1  UNL     1      -3.756  -3.819  -1.574  1.00  0.00     0.089 C 
HETATM    3  C2  UNL     1      -2.538  -3.762  -0.747  1.00  0.00     0.229 C 
HETATM    4  N2  UNL     1      -2.698  -4.609   0.390  1.00  0.00    -0.365 N 
ATOM      5  H2  UNL     1      -2.227  -5.511   0.468  1.00  0.00     0.161 HD
HETATM    6  C3  UNL     1      -3.558  -4.111   1.407  1.00  0.00     0.178 C 
HETATM    7  N3  UNL     1      -3.810  -2.702   1.391  1.00  0.00    -0.337 N 
ATOM      8  H3  UNL     1      -4.630  -2.319   1.862  1.00  0.00     0.168 HD
HETATM    9  C4  UNL     1      -2.907  -1.844   0.713  1.00  0.00     0.131 A 
HETATM   10  N4  UNL     1      -2.501  -0.569   0.867  1.00  0.00    -0.281 N 
ATOM     11  H4  UNL     1      -2.820   0.071   1.594  1.00  0.00     0.189 HD
HETATM   12  N5  UNL     1      -1.615  -0.281  -0.086  1.00  0.00    -0.266 N 
HETATM   13  C13 UNL     1      -1.446  -1.366  -0.861  1.00  0.00     0.127 A 
HETATM   14  C14 UNL     1      -2.245  -2.358  -0.380  1.00  0.00     0.041 A 
ENDROOT
BRANCH  12  15
HETATM   15  C5  UNL     1      -0.991   1.021  -0.189  1.00  0.00     0.354 C 
HETATM   16  N6  UNL     1      -1.769   1.777  -1.155  1.00  0.00    -0.027 N 
HETATM   17  C6  UNL     1      -1.371   3.151  -1.158  1.00  0.00     0.328 C 
ATOM     18  H62 UNL     1      -1.718   1.366  -2.087  1.00  0.00     0.281 HD
ATOM     19  H61 UNL     1      -2.771   1.674  -0.998  1.00  0.00     0.281 HD
HETATM   20  N8  UNL     1      -0.049   3.281  -0.596  1.00  0.00    -0.110 NA
HETATM   21  N9  UNL     1       0.815   2.300  -1.069  1.00  0.00    -0.110 NA
HETATM   22  C9  UNL     1       0.420   0.958  -0.683  1.00  0.00     0.286 C 
BRANCH  17  23
HETATM   23  C7  UNL     1      -2.385   3.966  -0.427  1.00  0.00     0.254 C 
BRANCH  23  24
HETATM   24  N7  UNL     1      -2.575   3.595   0.942  1.00  0.00    -0.070 N 
ATOM     25  H73 UNL     1      -2.801   2.603   1.012  1.00  0.00     0.274 HD
ATOM     26  H72 UNL     1      -1.685   3.608   1.439  1.00  0.00     0.274 HD
ATOM     27  H71 UNL     1      -3.268   4.152   1.442  1.00  0.00     0.274 HD
ENDBRANCH  23  24
BRANCH  23  28
HETATM   28  C8  UNL     1      -2.129   5.458  -0.535  1.00  0.00     0.200 C 
BRANCH  28  29
HETATM   29  O1  UNL     1      -1.001   5.833   0.170  1.00  0.00    -0.399 OA
ATOM     30  H1  UNL     1      -0.841   6.767   0.102  1.00  0.00     0.209 HD
ENDBRANCH  28  29
ENDBRANCH  23  28
ENDBRANCH  17  23
BRANCH  22  31
HETATM   31  O2  UNL     1       1.318   0.541   0.296  1.00  0.00    -0.319 OA
BRANCH  31  32
HETATM   32  C10 UNL     1       2.041  -0.570  -0.046  1.00  0.00     0.381 C 
HETATM   33  N10 UNL     1       1.909  -1.633   0.903  1.00  0.00    -0.085 NA
HETATM   34  N11 UNL     1       3.072  -2.390   0.708  1.00  0.00    -0.091 NA
HETATM   35  C11 UNL     1       3.873  -1.671  -0.249  1.00  0.00     0.342 C 
HETATM   36  O3  UNL     1       3.418  -0.364  -0.080  1.00  0.00    -0.305 OA
BRANCH  35  37
HETATM   37  N12 UNL     1       5.279  -1.828  -0.087  1.00  0.00    -0.326 N 
HETATM   38  C12 UNL     1       5.996  -1.128   0.726  1.00  0.00     0.199 C 
HETATM   39  N13 UNL     1       5.320  -0.144   1.500  1.00  0.00    -0.067 NA
HETATM   40  N14 UNL     1       7.393  -1.316   0.858  1.00  0.00    -0.067 NA
ATOM     41  H12 UNL     1       5.749  -2.538  -0.649  1.00  0.00     0.165 HD
ENDBRANCH  35  37
ENDBRANCH  31  32
ENDBRANCH  22  31
ENDBRANCH  12  15
TORSDOF 8
