REMARK  15 active torsions:
REMARK  status: ('A' for Active; 'I' for Inactive)
REMARK    1  A    between atoms: C2_2  and  O1_4 
REMARK    2  A    between atoms: C2_2  and  N1_6 
REMARK    3  A    between atoms: N1_6  and  C4_8 
REMARK    4  A    between atoms: C5_10  and  C6_11 
REMARK    5  A    between atoms: C8_15  and  C9_16 
REMARK    6  A    between atoms: C9_16  and  O3_17 
REMARK    7  A    between atoms: C9_16  and  O4_19 
REMARK    8  A    between atoms: C10_22  and  C11_23 
REMARK    9  A    between atoms: C11_23  and  N3_24 
REMARK   10  A    between atoms: C11_23  and  C12_28 
REMARK   11  A    between atoms: C12_28  and  N4_29 
REMARK   12  A    between atoms: C12_28  and  O6_33 
REMARK   13  A    between atoms: C13_35  and  N5_36 
REMARK   14  A    between atoms: C14_39  and  C15_40 
REMARK       I    between atoms: C15_40  and  N6_42 
REMARK   15  A    between atoms: N6_42  and  S1_44 
ROOT
HETATM    1  C4  UNL     1      -1.336   0.531   0.394  1.00  0.00     0.164 A 
HETATM    2  O2  UNL     1      -0.122   0.880   0.060  1.00  0.00    -0.288 OA
HETATM    3  C5  UNL     1       0.962   0.109   0.175  1.00  0.00     0.140 A 
HETATM    4  C10 UNL     1       0.782  -1.138   0.670  1.00  0.00     0.042 A 
HETATM    5  C13 UNL     1      -0.494  -1.577   1.068  1.00  0.00     0.057 A 
HETATM    6  C14 UNL     1      -1.598  -0.711   0.916  1.00  0.00     0.110 A 
ENDROOT
BRANCH   4   7
HETATM    7  C11 UNL     1       1.820  -2.165   0.746  1.00  0.00     0.277 C 
BRANCH   7   8
HETATM    8  N3  UNL     1       3.151  -1.890   0.403  1.00  0.00    -0.067 N 
ATOM      9  H33 UNL     1       3.158  -1.506  -0.542  1.00  0.00     0.275 HD
ATOM     10  H32 UNL     1       3.459  -1.091   0.958  1.00  0.00     0.275 HD
ATOM     11  H31 UNL     1       3.875  -2.606   0.456  1.00  0.00     0.275 HD
ENDBRANCH   7   8
BRANCH   7  12
HETATM   12  C12 UNL     1       1.497  -3.483   0.031  1.00  0.00     0.351 C 
BRANCH  12  13
HETATM   13  N4  UNL     1       2.597  -4.427   0.381  1.00  0.00    -0.051 N 
ATOM     14  H43 UNL     1       3.526  -4.065   0.165  1.00  0.00     0.277 HD
ATOM     15  H42 UNL     1       2.735  -4.534   1.386  1.00  0.00     0.277 HD
ATOM     16  H41 UNL     1       2.382  -5.303  -0.094  1.00  0.00     0.277 HD
ENDBRANCH  12  13
BRANCH  12  17
HETATM   17  O6  UNL     1       0.334  -4.076  -0.004  1.00  0.00    -0.368 OA
ATOM     18  H6  UNL     1       0.134  -4.892  -0.447  1.00  0.00     0.212 HD
ENDBRANCH  12  17
ENDBRANCH   7  12
ENDBRANCH   4   7
BRANCH   3  19
HETATM   19  C6  UNL     1       2.203   0.740  -0.228  1.00  0.00     0.183 A 
HETATM   20  N2  UNL     1       3.387   0.742   0.303  1.00  0.00    -0.342 N 
HETATM   21  C7  UNL     1       4.292   1.489  -0.389  1.00  0.00     0.128 A 
ATOM     22  H2  UNL     1       3.618   0.233   1.156  1.00  0.00     0.167 HD
HETATM   23  C8  UNL     1       3.542   1.970  -1.440  1.00  0.00     0.125 A 
HETATM   24  O5  UNL     1       2.308   1.515  -1.325  1.00  0.00    -0.289 OA
BRANCH  23  25
HETATM   25  C9  UNL     1       4.091   2.857  -2.500  1.00  0.00     0.314 C 
BRANCH  25  26
HETATM   26  O3  UNL     1       3.239   3.897  -2.834  1.00  0.00    -0.365 OA
ATOM     27  H3  UNL     1       3.590   4.464  -3.511  1.00  0.00     0.213 HD
ENDBRANCH  25  26
BRANCH  25  28
HETATM   28  O4  UNL     1       5.317   3.372  -2.096  1.00  0.00    -0.365 OA
ATOM     29  H4  UNL     1       5.668   3.939  -2.773  1.00  0.00     0.213 HD
ENDBRANCH  25  28
ENDBRANCH  23  25
ENDBRANCH   3  19
BRANCH   5  30
HETATM   30  N5  UNL     1      -0.655  -2.580   1.854  1.00  0.00    -0.398 N 
ATOM     31  H52 UNL     1       0.143  -3.206   1.964  1.00  0.00     0.156 HD
ATOM     32  H51 UNL     1      -1.580  -2.898   2.143  1.00  0.00     0.156 HD
ENDBRANCH   5  30
BRANCH   6  33
HETATM   33  C15 UNL     1      -2.923  -1.171   1.259  1.00  0.00     0.273 C 
HETATM   34  O7  UNL     1      -3.937  -0.379   1.118  1.00  0.00    -0.266 OA
HETATM   35  N6  UNL     1      -3.330  -2.433   1.755  1.00  0.00    -0.231 N 
ATOM     36  H6  UNL     1      -2.627  -3.156   1.908  1.00  0.00     0.184 HD
BRANCH  35  37
HETATM   37  S1  UNL     1      -5.012  -2.789   2.114  1.00  0.00     0.211 S 
HETATM   38  O8  UNL     1      -5.786  -3.077   0.864  1.00  0.00    -0.578 OA
HETATM   39  O9  UNL     1      -5.031  -3.936   3.085  1.00  0.00    -0.578 OA
HETATM   40  O10 UNL     1      -5.639  -1.410   2.862  1.00  0.00    -0.578 OA
ENDBRANCH  35  37
ENDBRANCH   6  33
BRANCH   1  41
HETATM   41  N1  UNL     1      -2.379   1.480   0.202  1.00  0.00    -0.339 N 
ATOM     42  H1  UNL     1      -3.334   1.271   0.491  1.00  0.00     0.164 HD
BRANCH  41  43
HETATM   43  C2  UNL     1      -2.045   2.782  -0.429  1.00  0.00     0.125 C 
HETATM   44  C1  UNL     1      -3.313   3.635  -0.555  1.00  0.00     0.070 C 
HETATM   45  C3  UNL     1      -1.504   2.558  -1.817  1.00  0.00     0.070 C 
BRANCH  43  46
HETATM   46  O1  UNL     1      -1.201   3.491   0.402  1.00  0.00    -0.372 OA
ATOM     47  H1  UNL     1      -0.415   2.963   0.480  1.00  0.00     0.212 HD
ENDBRANCH  43  46
ENDBRANCH  41  43
ENDBRANCH   1  41
TORSDOF 15
