REMARK  5 active torsions:
REMARK  status: ('A' for Active; 'I' for Inactive)
REMARK    1  A    between atoms: C12_16  and  O4_17 
REMARK    2  A    between atoms: C12_16  and  C13_19 
REMARK    3  A    between atoms: C13_19  and  N1_20 
REMARK    4  A    between atoms: N1_20  and  C14_22 
REMARK    5  A    between atoms: C14_22  and  C15_23 
ROOT
HETATM    1  C1  UNL     1      -1.975   3.943  -1.123  1.00  0.00     0.043 C 
HETATM    2  C2  UNL     1      -1.760   2.565  -0.603  1.00  0.00    -0.087 C 
HETATM    3  C3  UNL     1      -2.773   1.715  -0.484  1.00  0.00    -0.024 C 
HETATM    4  C4  UNL     1      -2.649   0.328   0.025  1.00  0.00     0.030 C 
HETATM    5  C5  UNL     1      -3.547  -0.653  -0.650  1.00  0.00     0.044 C 
HETATM    6  C6  UNL     1      -2.841  -1.791  -1.300  1.00  0.00     0.084 A 
HETATM    7  C7  UNL     1      -3.336  -2.236  -2.671  1.00  0.00     0.049 C 
HETATM    8  O1  UNL     1      -1.441  -1.719  -1.150  1.00  0.00    -0.370 OA
HETATM    9  C8  UNL     1      -2.115  -2.726  -0.513  1.00  0.00     0.158 A 
HETATM   10  C9  UNL     1      -2.330  -2.782   0.955  1.00  0.00     0.054 C 
HETATM   11  C10 UNL     1      -1.080  -2.968   1.750  1.00  0.00     0.106 C 
HETATM   12  C11 UNL     1      -1.121  -2.129   3.028  1.00  0.00     0.026 C 
HETATM   13  S1  UNL     1       0.423  -2.528   0.875  1.00  0.00     0.161 S 
HETATM   14  O2  UNL     1       1.534  -3.517   1.198  1.00  0.00    -0.228 OA
HETATM   15  O3  UNL     1       0.868  -0.933   1.190  1.00  0.00    -0.228 OA
HETATM   16  C12 UNL     1       2.064  -0.542   0.600  1.00  0.00     0.314 C 
HETATM   17  O5  UNL     1       2.353   0.772   0.764  1.00  0.00    -0.294 OA
HETATM   18  C16 UNL     1       2.216   1.825   1.556  1.00  0.00     0.045 C 
HETATM   19  C17 UNL     1       3.384   2.470   2.308  1.00  0.00     0.076 C 
HETATM   20  C18 UNL     1       1.053   2.458   1.797  1.00  0.00     0.005 C 
HETATM   21  C19 UNL     1      -0.271   2.153   1.269  1.00  0.00     0.034 C 
HETATM   22  C20 UNL     1      -0.363   2.186  -0.229  1.00  0.00     0.037 C 
ENDROOT
BRANCH  16  23
HETATM   23  O4  UNL     1       3.057  -1.302   1.279  1.00  0.00    -0.341 OA
ATOM     24  H4  UNL     1       3.875  -1.035   0.876  1.00  0.00     0.215 HD
ENDBRANCH  16  23
BRANCH  16  25
HETATM   25  C13 UNL     1       2.110  -1.051  -0.819  1.00  0.00     0.217 C 
BRANCH  25  26
HETATM   26  N1  UNL     1       3.274  -0.762  -1.567  1.00  0.00    -0.413 N 
ATOM     27  H1  UNL     1       3.921  -1.508  -1.821  1.00  0.00     0.153 HD
BRANCH  26  28
HETATM   28  C14 UNL     1       3.532   0.569  -1.959  1.00  0.00     0.129 C 
BRANCH  28  29
HETATM   29  C15 UNL     1       4.808   0.665  -2.822  1.00  0.00     0.134 C 
HETATM   30 CL1  UNL     1       6.141   0.048  -1.795  1.00  0.00    -0.129 Cl
ENDBRANCH  28  29
ENDBRANCH  26  28
ENDBRANCH  25  26
ENDBRANCH  16  25
TORSDOF 5
