REMARK  4 active torsions:
REMARK  status: ('A' for Active; 'I' for Inactive)
REMARK       I    between atoms: C2_2  and  N1_4 
REMARK    1  A    between atoms: N1_4  and  C3_6 
REMARK    2  A    between atoms: C4_9  and  N3_10 
REMARK    3  A    between atoms: N3_10  and  O2_11 
REMARK    4  A    between atoms: C5_13  and  C7_15 
ROOT
HETATM    1  C3  UNL     1       2.648  -0.022   0.856  1.00  0.00     0.153 A 
HETATM    2  N2  UNL     1       1.809   0.136  -0.170  1.00  0.00    -0.320 N 
ATOM      3  H2  UNL     1       1.865  -0.468  -0.990  1.00  0.00     0.169 HD
HETATM    4  C4  UNL     1       0.914   1.084  -0.096  1.00  0.00     0.147 A 
HETATM    5  C11 UNL     1       0.887   1.861   1.027  1.00  0.00     0.029 A 
HETATM    6  C12 UNL     1      -0.036   3.007   1.354  1.00  0.00     0.060 C 
HETATM    7  S1  UNL     1       2.164   1.193   1.946  1.00  0.00    -0.055 SA
ENDROOT
BRANCH   4   8
HETATM    8  N3  UNL     1      -0.040   1.327  -1.166  1.00  0.00    -0.212 N 
HETATM    9  C5  UNL     1      -1.200   0.732  -1.169  1.00  0.00     0.038 C 
HETATM   10  C6  UNL     1      -2.099   1.034  -2.282  1.00  0.00     0.071 C 
BRANCH   8  11
HETATM   11  O2  UNL     1       0.263   2.182  -2.183  1.00  0.00    -0.281 OA
ATOM     12  H2  UNL     1      -0.360   2.341  -2.882  1.00  0.00     0.245 HD
ENDBRANCH   8  11
BRANCH   9  13
HETATM   13  C7  UNL     1      -1.506  -0.156  -0.108  1.00  0.00     0.029 C 
HETATM   14  C8  UNL     1      -2.569  -0.851   0.110  1.00  0.00    -0.086 C 
HETATM   15  C9  UNL     1      -2.650  -1.744   1.344  1.00  0.00     0.043 C 
HETATM   16  C10 UNL     1      -3.771  -0.884  -0.730  1.00  0.00     0.043 C 
ENDBRANCH   9  13
ENDBRANCH   4   8
BRANCH   1  17
HETATM   17  N1  UNL     1       3.617  -0.888   1.014  1.00  0.00    -0.307 N 
HETATM   18  C2  UNL     1       3.867  -1.826  -0.017  1.00  0.00     0.219 C 
HETATM   19  C1  UNL     1       5.138  -1.858  -0.764  1.00  0.00     0.117 C 
HETATM   20  O1  UNL     1       2.974  -2.655  -0.300  1.00  0.00    -0.274 OA
ATOM     21  H1  UNL     1       4.181  -0.887   1.864  1.00  0.00     0.171 HD
ENDBRANCH   1  17
TORSDOF 4
