REMARK  6 active torsions:
REMARK  status: ('A' for Active; 'I' for Inactive)
REMARK    1  A    between atoms: N1_11  and  O1_13 
REMARK    2  A    between atoms: O1_13  and  C11_14 
REMARK    3  A    between atoms: C11_14  and  C12_16 
REMARK    4  A    between atoms: C12_16  and  C13_17 
REMARK    5  A    between atoms: C17_22  and  C18_23 
REMARK    6  A    between atoms: C20_26  and  O4_27 
ROOT
HETATM    1  C1  UNL     1      -2.393  -0.324  -1.560  1.00  0.00     0.017 C 
HETATM    2  C2  UNL     1      -1.186  -0.253  -0.652  1.00  0.00    -0.020 C 
HETATM    3  C3  UNL     1      -1.253  -1.227   0.437  1.00  0.00     0.024 C 
HETATM    4  C4  UNL     1      -2.667  -1.739   0.715  1.00  0.00     0.014 C 
HETATM    5  C5  UNL     1      -2.273  -2.770   1.796  1.00  0.00     0.028 C 
HETATM    6  C6  UNL     1      -1.082  -3.376   1.102  1.00  0.00    -0.023 C 
HETATM    7  C7  UNL     1      -0.509  -2.467   0.321  1.00  0.00    -0.078 C 
HETATM    8  C8  UNL     1       0.713  -2.882  -0.470  1.00  0.00     0.040 C 
HETATM    9  C9  UNL     1       1.749  -1.822  -0.168  1.00  0.00     0.059 C 
HETATM   10  C10 UNL     1       1.298  -0.557  -0.778  1.00  0.00     0.016 C 
HETATM   11  N1  UNL     1       2.131   0.416  -0.628  1.00  0.00    -0.266 N 
ATOM     12  H1  UNL     1       1.885   1.323  -1.025  1.00  0.00     0.194 HD
HETATM   13  C14 UNL     1       0.063  -0.276  -1.509  1.00  0.00     0.043 C 
HETATM   14  C15 UNL     1       0.097   1.109  -2.160  1.00  0.00     0.012 C 
HETATM   15  C16 UNL     1      -0.776   1.990  -1.304  1.00  0.00     0.011 C 
HETATM   16  C17 UNL     1      -1.049   1.167  -0.089  1.00  0.00     0.030 C 
ENDROOT
BRANCH  11  17
HETATM   17  O1  UNL     1       3.318   0.306   0.027  1.00  0.00    -0.200 OA
BRANCH  17  18
HETATM   18  C11 UNL     1       4.551   0.606  -0.517  1.00  0.00     0.282 C 
HETATM   19  O2  UNL     1       4.589   1.009  -1.705  1.00  0.00    -0.263 OA
BRANCH  18  20
HETATM   20  C12 UNL     1       5.801   0.452   0.288  1.00  0.00     0.128 C 
BRANCH  20  21
HETATM   21  C13 UNL     1       6.308   1.819   0.687  1.00  0.00     0.124 C 
HETATM   22 CL1  UNL     1       5.073   2.640   1.654  1.00  0.00    -0.130 Cl
ENDBRANCH  20  21
ENDBRANCH  18  20
ENDBRANCH  17  18
ENDBRANCH  11  17
BRANCH  16  23
HETATM   23  C18 UNL     1      -2.187   1.618   0.695  1.00  0.00    -0.026 A 
HETATM   24  C19 UNL     1      -2.226   1.786   2.051  1.00  0.00     0.152 A 
HETATM   25  O3  UNL     1      -3.415   2.217   2.359  1.00  0.00    -0.300 OA
HETATM   26  C20 UNL     1      -4.191   2.358   1.330  1.00  0.00     0.183 A 
HETATM   27  C21 UNL     1      -3.425   1.977   0.223  1.00  0.00     0.073 A 
BRANCH  26  28
HETATM   28  O4  UNL     1      -5.491   2.798   1.385  1.00  0.00    -0.341 OA
ATOM     29  H4  UNL     1      -6.060   2.901   0.631  1.00  0.00     0.220 HD
ENDBRANCH  26  28
ENDBRANCH  16  23
TORSDOF 6
