REMARK  3 active torsions:
REMARK  status: ('A' for Active; 'I' for Inactive)
REMARK    1  A    between atoms: C2_2  and  C3_3 
REMARK    2  A    between atoms: C6_6  and  C7_7 
REMARK    3  A    between atoms: C11_12  and  O1_13 
ROOT
HETATM    1  C7  UNL     1      -0.083  -0.723  -0.388  1.00  0.00    -0.001 C 
HETATM    2  C8  UNL     1      -1.384  -0.179  -0.137  1.00  0.00     0.025 A 
HETATM    3  C9  UNL     1      -1.660   1.078   0.414  1.00  0.00     0.027 A 
HETATM    4 BR1  UNL     1      -0.237   2.219   0.915  1.00  0.00    -0.050 Br
HETATM    5  C10 UNL     1      -2.961   1.511   0.576  1.00  0.00     0.056 A 
HETATM    6  C11 UNL     1      -4.045   0.760   0.217  1.00  0.00     0.072 A 
HETATM    7  C13 UNL     1      -3.790  -0.470  -0.323  1.00  0.00     0.075 A 
HETATM    8  C14 UNL     1      -2.489  -0.970  -0.513  1.00  0.00     0.092 A 
HETATM    9  O2  UNL     1      -2.381  -2.239  -1.070  1.00  0.00    -0.296 OA
HETATM   10  C15 UNL     1      -1.084  -2.733  -1.248  1.00  0.00     0.140 C 
HETATM   11  N1  UNL     1      -0.718  -3.532  -2.170  1.00  0.00    -0.382 N 
ATOM     12  H11 UNL     1       0.227  -3.892  -2.300  1.00  0.00     0.158 HD
ATOM     13  H12 UNL     1      -1.414  -3.849  -2.845  1.00  0.00     0.158 HD
HETATM   14  C16 UNL     1      -0.056  -2.265  -0.251  1.00  0.00     0.202 C 
HETATM   15  C17 UNL     1       1.245  -2.686  -0.751  1.00  0.00     0.077 C 
HETATM   16  N2  UNL     1       2.284  -3.015  -1.137  1.00  0.00    -0.196 NA
ENDROOT
BRANCH   1  17
HETATM   17  C6  UNL     1       1.155  -0.205   0.152  1.00  0.00     0.014 A 
HETATM   18  C5  UNL     1       1.731  -0.464   1.383  1.00  0.00     0.020 A 
HETATM   19  C4  UNL     1       2.925   0.057   1.622  1.00  0.00     0.016 A 
HETATM   20  C3  UNL     1       3.513   0.814   0.646  1.00  0.00    -0.017 A 
HETATM   21  S1  UNL     1       2.342   0.763  -0.593  1.00  0.00    -0.094 SA
BRANCH  20  22
HETATM   22  C2  UNL     1       4.854   1.502   0.686  1.00  0.00     0.041 C 
HETATM   23  C1  UNL     1       5.872   0.537   0.162  1.00  0.00     0.010 C 
ENDBRANCH  20  22
ENDBRANCH   1  17
BRANCH   6  24
HETATM   24  O1  UNL     1      -5.327   1.201   0.382  1.00  0.00    -0.356 OA
HETATM   25  C12 UNL     1      -5.711   2.428   0.917  1.00  0.00     0.210 C 
ENDBRANCH   6  24
TORSDOF 3
