REMARK  5 active torsions:
REMARK  status: ('A' for Active; 'I' for Inactive)
REMARK    1  A    between atoms: C2_2  and  C3_3 
REMARK       I    between atoms: N1_6  and  C6_7 
REMARK    2  A    between atoms: C6_7  and  C7_9 
REMARK    3  A    between atoms: C7_9  and  C8_10 
REMARK    4  A    between atoms: C8_10  and  C9_11 
REMARK       I    between atoms: C9_11  and  N2_13 
REMARK    5  A    between atoms: N2_13  and  C10_15 
ROOT
HETATM    1  C9  UNL     1      -1.189  -0.034   0.004  1.00  0.00     0.218 C 
HETATM    2  O2  UNL     1      -1.086  -1.074  -0.673  1.00  0.00    -0.274 OA
HETATM    3  N2  UNL     1      -2.463   0.456   0.330  1.00  0.00    -0.356 N 
ATOM      4  H2  UNL     1      -2.514   1.310   0.885  1.00  0.00     0.162 HD
ENDROOT
BRANCH   1   5
HETATM    5  C8  UNL     1       0.018   0.672   0.455  1.00  0.00     0.112 C 
BRANCH   5   6
HETATM    6  C7  UNL     1       1.289   0.005   0.010  1.00  0.00     0.112 C 
BRANCH   6   7
HETATM    7  C6  UNL     1       2.450   0.790   0.513  1.00  0.00     0.220 C 
HETATM    8  N1  UNL     1       3.787   0.426   0.258  1.00  0.00    -0.352 N 
HETATM    9  C5  UNL     1       4.871   1.219   0.766  1.00  0.00     0.126 C 
HETATM   10  C20 UNL     1       4.074  -0.750  -0.520  1.00  0.00     0.126 C 
HETATM   11  C4  UNL     1       6.141   0.809   0.009  1.00  0.00     0.024 C 
HETATM   12  C3  UNL     1       6.411  -0.625   0.358  1.00  0.00    -0.012 C 
HETATM   13  C21 UNL     1       5.254  -1.505   0.003  1.00  0.00     0.024 C 
HETATM   14  O1  UNL     1       2.227   1.826   1.198  1.00  0.00    -0.273 OA
BRANCH  12  15
HETATM   15  C2  UNL     1       7.677  -1.141  -0.291  1.00  0.00     0.000 C 
HETATM   16  C1  UNL     1       8.889  -0.369   0.122  1.00  0.00     0.005 C 
ENDBRANCH  12  15
ENDBRANCH   6   7
ENDBRANCH   5   6
ENDBRANCH   1   5
BRANCH   3  17
HETATM   17  C10 UNL     1      -3.708  -0.163  -0.064  1.00  0.00     0.092 C 
HETATM   18  C11 UNL     1      -4.520  -0.657   1.101  1.00  0.00     0.009 C 
HETATM   19  C12 UNL     1      -5.581  -1.580   0.510  1.00  0.00     0.011 C 
HETATM   20  C16 UNL     1      -5.242   0.429   1.834  1.00  0.00     0.011 C 
HETATM   21  C13 UNL     1      -6.417  -0.846  -0.510  1.00  0.00    -0.013 C 
HETATM   22  C14 UNL     1      -7.183   0.233   0.257  1.00  0.00     0.009 C 
HETATM   23  C19 UNL     1      -5.590  -0.213  -1.591  1.00  0.00     0.011 C 
HETATM   24  C15 UNL     1      -6.171   1.150   0.889  1.00  0.00    -0.013 C 
HETATM   25  C17 UNL     1      -5.313   1.761  -0.199  1.00  0.00     0.011 C 
HETATM   26  C18 UNL     1      -4.546   0.701  -0.951  1.00  0.00     0.009 C 
ENDBRANCH   3  17
TORSDOF 5
