REMARK  10 active torsions:
REMARK  status: ('A' for Active; 'I' for Inactive)
REMARK    1  A    between atoms: C2_2  and  C3_3 
REMARK    2  A    between atoms: C2_2  and  C7_9 
REMARK    3  A    between atoms: C3_3  and  C4_4 
REMARK    4  A    between atoms: C4_4  and  C5_5 
REMARK    5  A    between atoms: C5_5  and  C6_6 
REMARK    6  A    between atoms: C23_26  and  N1_27 
REMARK    7  A    between atoms: N1_27  and  C24_29 
REMARK    8  A    between atoms: C24_29  and  C25_30 
REMARK    9  A    between atoms: C25_30  and  N2_31 
REMARK   10  A    between atoms: C28_34  and  O3_35 
ROOT
HETATM    1  C7  UNL     1       4.379  -0.671  -0.872  1.00  0.00    -0.003 C 
HETATM    2  C8  UNL     1       4.520  -2.221  -0.780  1.00  0.00     0.006 C 
HETATM    3  C9  UNL     1       3.340  -2.697   0.034  1.00  0.00     0.010 C 
HETATM    4  C10 UNL     1       3.267  -1.557   1.021  1.00  0.00    -0.033 C 
HETATM    5  C11 UNL     1       4.371  -1.686   1.953  1.00  0.00     0.016 C 
HETATM    6  C12 UNL     1       3.297  -0.439   0.011  1.00  0.00     0.033 C 
HETATM    7  C13 UNL     1       2.890   0.717   0.761  1.00  0.00     0.184 C 
HETATM    8  F1  UNL     1       2.279   1.749   0.033  1.00  0.00    -0.248 F 
HETATM    9  C14 UNL     1       1.849   0.159   1.763  1.00  0.00    -0.004 C 
HETATM   10  C15 UNL     1       2.430   0.503   3.147  1.00  0.00     0.019 C 
HETATM   11  C16 UNL     1       1.936  -1.335   1.633  1.00  0.00     0.005 C 
HETATM   12  C17 UNL     1       0.799  -1.964   0.916  1.00  0.00     0.007 C 
HETATM   13  C18 UNL     1      -0.534  -1.416   1.455  1.00  0.00     0.011 C 
HETATM   14  C19 UNL     1      -0.597   0.010   1.027  1.00  0.00    -0.032 C 
HETATM   15  C20 UNL     1      -0.744   0.186  -0.459  1.00  0.00     0.011 C 
HETATM   16  C21 UNL     1      -1.931  -0.551  -0.939  1.00  0.00     0.008 C 
HETATM   17  C22 UNL     1      -3.256  -0.193  -0.250  1.00  0.00     0.019 C 
HETATM   18  C23 UNL     1      -4.196  -1.303  -0.556  1.00  0.00     0.110 C 
HETATM   19  C28 UNL     1      -5.112  -1.785   0.508  1.00  0.00     0.140 C 
HETATM   20  C29 UNL     1      -5.177  -0.922   1.731  1.00  0.00     0.034 C 
HETATM   21  C30 UNL     1      -3.735  -0.647   2.176  1.00  0.00     0.012 C 
HETATM   22  C31 UNL     1      -3.130   0.276   1.135  1.00  0.00    -0.034 C 
HETATM   23  C32 UNL     1      -4.009   1.546   1.294  1.00  0.00     0.016 C 
HETATM   24  C33 UNL     1      -1.789   0.778   1.555  1.00  0.00     0.003 C 
HETATM   25  C34 UNL     1      -1.533   0.811   3.005  1.00  0.00     0.006 C 
HETATM   26  C35 UNL     1      -0.065   1.034   3.064  1.00  0.00     0.007 C 
HETATM   27  C36 UNL     1       0.515   0.749   1.664  1.00  0.00     0.006 C 
ENDROOT
BRANCH   1  28
HETATM   28  C2  UNL     1       5.728  -0.051  -0.798  1.00  0.00    -0.014 C 
HETATM   29  C1  UNL     1       6.530  -0.670  -1.961  1.00  0.00     0.010 C 
BRANCH  28  30
HETATM   30  C3  UNL     1       5.766   1.428  -0.973  1.00  0.00     0.005 C 
BRANCH  30  31
HETATM   31  C4  UNL     1       7.032   2.159  -0.921  1.00  0.00     0.011 C 
BRANCH  31  32
HETATM   32  C5  UNL     1       8.149   1.988  -1.841  1.00  0.00     0.113 C 
BRANCH  32  33
HETATM   33  C6  UNL     1       7.886   2.257  -3.277  1.00  0.00     0.172 C 
HETATM   34  O1  UNL     1       6.769   2.620  -3.657  1.00  0.00    -0.648 OA
HETATM   35  O2  UNL     1       8.909   2.098  -4.195  1.00  0.00    -0.648 OA
ENDBRANCH  32  33
ENDBRANCH  31  32
ENDBRANCH  30  31
ENDBRANCH  28  30
ENDBRANCH   1  28
BRANCH  18  36
HETATM   36  N1  UNL     1      -4.977  -1.149  -1.759  1.00  0.00    -0.413 N 
ATOM     37  H1  UNL     1      -4.883  -1.804  -2.536  1.00  0.00     0.153 HD
BRANCH  36  38
HETATM   38  C24 UNL     1      -5.877  -0.061  -1.826  1.00  0.00     0.133 C 
BRANCH  38  39
HETATM   39  C25 UNL     1      -6.700  -0.056  -3.100  1.00  0.00     0.135 C 
BRANCH  39  40
HETATM   40  N2  UNL     1      -7.613   1.016  -3.198  1.00  0.00    -0.419 N 
HETATM   41  C26 UNL     1      -7.083   2.322  -3.354  1.00  0.00     0.142 C 
HETATM   42  C27 UNL     1      -8.697   0.962  -2.237  1.00  0.00     0.142 C 
ENDBRANCH  39  40
ENDBRANCH  38  39
ENDBRANCH  36  38
ENDBRANCH  18  36
BRANCH  19  43
HETATM   43  O3  UNL     1      -6.417  -2.043   0.100  1.00  0.00    -0.394 OA
ATOM     44  H3  UNL     1      -7.003  -2.351   0.781  1.00  0.00     0.210 HD
ENDBRANCH  19  43
TORSDOF 10
