REMARK  10 active torsions:
REMARK  status: ('A' for Active; 'I' for Inactive)
REMARK    1  A    between atoms: C2_2  and  C3_3 
REMARK    2  A    between atoms: C4_4  and  C5_5 
REMARK    3  A    between atoms: C5_5  and  O1_6 
REMARK    4  A    between atoms: C22_24  and  C23_25 
REMARK    5  A    between atoms: C23_25  and  C24_27 
REMARK    6  A    between atoms: C24_27  and  C25_28 
REMARK       I    between atoms: C25_28  and  N1_30 
REMARK    7  A    between atoms: N1_30  and  C26_32 
REMARK    8  A    between atoms: C26_32  and  C27_33 
REMARK    9  A    between atoms: C27_33  and  C28_34 
REMARK   10  A    between atoms: C28_34  and  N2_35 
REMARK       I    between atoms: N2_35  and  C29_37 
ROOT
HETATM    1  C3  UNL     1      -6.006  -1.426   1.373  1.00  0.00     0.018 C 
HETATM    2  C4  UNL     1      -6.438  -2.337   0.290  1.00  0.00     0.017 C 
HETATM    3  C6  UNL     1      -6.890  -1.631  -0.945  1.00  0.00     0.008 C 
HETATM    4  C7  UNL     1      -5.653  -0.910  -1.507  1.00  0.00     0.011 C 
HETATM    5  C8  UNL     1      -4.968  -0.045  -0.486  1.00  0.00    -0.032 C 
HETATM    6  C9  UNL     1      -5.680   1.295  -0.507  1.00  0.00     0.016 C 
HETATM    7  C10 UNL     1      -4.821  -0.644   0.869  1.00  0.00     0.002 C 
HETATM    8  C11 UNL     1      -4.304   0.402   1.790  1.00  0.00     0.006 C 
HETATM    9  C12 UNL     1      -2.857   0.637   1.389  1.00  0.00     0.006 C 
HETATM   10  C13 UNL     1      -2.621   0.813  -0.051  1.00  0.00     0.003 C 
HETATM   11  C14 UNL     1      -1.206   0.387  -0.442  1.00  0.00    -0.036 C 
HETATM   12  C15 UNL     1      -0.688   1.307  -1.484  1.00  0.00     0.011 C 
HETATM   13  C16 UNL     1       0.832   1.336  -1.612  1.00  0.00     0.011 C 
HETATM   14  C17 UNL     1       1.503   1.589  -0.318  1.00  0.00    -0.032 C 
HETATM   15  C18 UNL     1       1.189   2.901   0.317  1.00  0.00     0.016 C 
HETATM   16  C19 UNL     1       1.102   0.419   0.584  1.00  0.00    -0.005 C 
HETATM   17  C20 UNL     1       1.830  -0.782  -0.036  1.00  0.00     0.006 C 
HETATM   18  C21 UNL     1       3.025  -0.196  -0.766  1.00  0.00     0.011 C 
HETATM   19  C22 UNL     1       2.982   1.287  -0.405  1.00  0.00     0.035 C 
HETATM   20  C31 UNL     1      -0.334   0.219   0.761  1.00  0.00     0.015 C 
HETATM   21  C32 UNL     1      -1.414  -0.970  -1.101  1.00  0.00     0.011 C 
HETATM   22  C33 UNL     1      -2.874  -1.085  -1.438  1.00  0.00     0.011 C 
HETATM   23  C34 UNL     1      -3.542   0.173  -1.006  1.00  0.00    -0.032 C 
HETATM   24  C35 UNL     1      -3.702   1.056  -2.249  1.00  0.00     0.016 C 
ENDROOT
BRANCH  19  25
HETATM   25  C23 UNL     1       3.790   2.117  -1.269  1.00  0.00     0.001 C 
HETATM   26  S1  UNL     1       3.278   3.266  -1.927  1.00  0.00    -0.089 SA
BRANCH  25  27
HETATM   27  C24 UNL     1       5.225   1.807  -1.476  1.00  0.00     0.149 C 
BRANCH  27  28
HETATM   28  C25 UNL     1       6.041   1.888  -0.242  1.00  0.00     0.222 C 
HETATM   29  O2  UNL     1       5.588   2.228   0.882  1.00  0.00    -0.273 OA
HETATM   30  N1  UNL     1       7.422   1.565  -0.306  1.00  0.00    -0.360 N 
ATOM     31  H1  UNL     1       7.829   1.287  -1.199  1.00  0.00     0.162 HD
BRANCH  30  32
HETATM   32  C26 UNL     1       8.277   1.623   0.886  1.00  0.00     0.128 C 
BRANCH  32  33
HETATM   33  C27 UNL     1       9.677   1.249   0.583  1.00  0.00     0.064 C 
BRANCH  33  34
HETATM   34  C28 UNL     1       9.941  -0.092   0.057  1.00  0.00     0.065 C 
BRANCH  34  35
HETATM   35  N2  UNL     1       9.698  -1.261   0.791  1.00  0.00    -0.341 N 
HETATM   36  C29 UNL     1       8.570  -1.902   1.289  1.00  0.00     0.217 C 
HETATM   37  C30 UNL     1       8.717  -3.192   2.083  1.00  0.00     0.117 C 
HETATM   38  O3  UNL     1       7.412  -1.483   1.128  1.00  0.00    -0.274 OA
ATOM     39  H2  UNL     1      10.558  -1.763   1.014  1.00  0.00     0.167 HD
ENDBRANCH  34  35
ENDBRANCH  33  34
ENDBRANCH  32  33
ENDBRANCH  30  32
ENDBRANCH  27  28
ENDBRANCH  25  27
ENDBRANCH  19  25
BRANCH   1  40
HETATM   40  C2  UNL     1      -6.973  -0.639   2.108  1.00  0.00    -0.031 C 
HETATM   41  C1  UNL     1      -8.225  -0.375   1.923  1.00  0.00     0.007 C 
ENDBRANCH   1  40
BRANCH   2  42
HETATM   42  C5  UNL     1      -7.193  -3.553   0.687  1.00  0.00     0.169 C 
BRANCH  42  43
HETATM   43  O1  UNL     1      -8.362  -3.426   1.344  1.00  0.00    -0.400 OA
ATOM     44  H1  UNL     1      -8.845  -4.204   1.598  1.00  0.00     0.209 HD
ENDBRANCH  42  43
ENDBRANCH   2  42
TORSDOF 10
