REMARK  11 active torsions:
REMARK  status: ('A' for Active; 'I' for Inactive)
REMARK    1  A    between atoms: C2_2  and  O2_4 
REMARK    2  A    between atoms: O2_4  and  C3_5 
REMARK    3  A    between atoms: C4_6  and  C5_7 
REMARK    4  A    between atoms: C4_6  and  C19_25 
REMARK    5  A    between atoms: C5_7  and  C6_8 
REMARK    6  A    between atoms: C6_8  and  C7_9 
REMARK    7  A    between atoms: C7_9  and  C8_10 
REMARK    8  A    between atoms: C8_10  and  C10_12 
REMARK    9  A    between atoms: C13_15  and  C15_17 
REMARK   10  A    between atoms: C16_20  and  O5_21 
REMARK   11  A    between atoms: C27_33  and  O6_34 
ROOT
HETATM    1  C3  UNL     1       0.422  -1.283  -0.450  1.00  0.00     0.153 C 
HETATM    2  C4  UNL     1      -0.264  -0.119  -0.949  1.00  0.00    -0.033 C 
ENDROOT
BRANCH   2   3
HETATM    3  C5  UNL     1       0.426   1.220  -0.657  1.00  0.00     0.041 C 
BRANCH   3   4
HETATM    4  C6  UNL     1       1.733   1.515  -1.178  1.00  0.00     0.005 C 
BRANCH   4   5
HETATM    5  C7  UNL     1       3.034   0.945  -0.902  1.00  0.00     0.005 C 
BRANCH   5   6
HETATM    6  C8  UNL     1       3.677   1.090   0.411  1.00  0.00    -0.011 C 
HETATM    7  C9  UNL     1       2.992   0.527   1.600  1.00  0.00     0.010 C 
BRANCH   6   8
HETATM    8  C10 UNL     1       5.048   0.431   0.348  1.00  0.00     0.018 C 
HETATM    9  C11 UNL     1       5.965   0.998  -0.635  1.00  0.00    -0.024 C 
HETATM   10  C12 UNL     1       7.223   0.522  -0.613  1.00  0.00    -0.008 C 
HETATM   11  C13 UNL     1       7.668  -0.516   0.345  1.00  0.00     0.088 C 
HETATM   12  C14 UNL     1       7.546  -1.879  -0.345  1.00  0.00     0.034 C 
HETATM   13  C16 UNL     1       6.868  -0.579   1.596  1.00  0.00     0.145 C 
HETATM   14  C17 UNL     1       5.758   0.454   1.682  1.00  0.00     0.020 C 
HETATM   15  C18 UNL     1       6.303   1.841   1.923  1.00  0.00     0.013 C 
BRANCH  11  16
HETATM   16  C15 UNL     1       9.101  -0.358   0.681  1.00  0.00     0.188 C 
HETATM   17  O3  UNL     1       9.452  -0.157   1.867  1.00  0.00    -0.647 OA
HETATM   18  O4  UNL     1      10.079  -0.426  -0.294  1.00  0.00    -0.647 OA
ENDBRANCH  11  16
BRANCH  13  19
HETATM   19  O5  UNL     1       6.274  -1.826   1.790  1.00  0.00    -0.394 OA
ATOM     20  H5  UNL     1       5.763  -1.866   2.590  1.00  0.00     0.210 HD
ENDBRANCH  13  19
ENDBRANCH   6   8
ENDBRANCH   5   6
ENDBRANCH   4   5
ENDBRANCH   3   4
ENDBRANCH   2   3
BRANCH   2  21
HETATM   21  C19 UNL     1      -1.725   0.057  -0.953  1.00  0.00    -0.063 C 
HETATM   22  C20 UNL     1      -2.440  -0.995  -1.777  1.00  0.00     0.036 C 
HETATM   23  C21 UNL     1      -3.849  -0.322  -1.628  1.00  0.00     0.011 C 
HETATM   24  C22 UNL     1      -3.840  -0.404  -0.111  1.00  0.00     0.007 C 
HETATM   25  C23 UNL     1      -5.165  -0.152   0.384  1.00  0.00    -0.035 C 
HETATM   26  C33 UNL     1      -2.585   0.313   0.232  1.00  0.00    -0.014 C 
HETATM   27  C24 UNL     1      -5.426  -0.249   1.857  1.00  0.00     0.016 C 
HETATM   28  C25 UNL     1      -6.047  -1.258  -0.239  1.00  0.00     0.012 C 
HETATM   29  C29 UNL     1      -5.755   1.145  -0.093  1.00  0.00    -0.002 C 
HETATM   30  C26 UNL     1      -7.098  -0.755  -1.154  1.00  0.00     0.032 C 
HETATM   31  C27 UNL     1      -8.065   0.178  -0.447  1.00  0.00     0.118 C 
HETATM   32  C28 UNL     1      -7.260   1.264   0.158  1.00  0.00     0.037 C 
HETATM   33  C30 UNL     1      -5.146   2.384   0.379  1.00  0.00     0.025 C 
HETATM   34  C31 UNL     1      -3.885   2.300   1.178  1.00  0.00     0.083 C 
HETATM   35 CL1  UNL     1      -3.486   4.055   1.489  1.00  0.00    -0.125 Cl
HETATM   36  C32 UNL     1      -2.786   1.818   0.323  1.00  0.00     0.034 C 
HETATM   37  C34 UNL     1      -2.035  -0.077   1.574  1.00  0.00     0.020 C 
BRANCH  31  38
HETATM   38  O6  UNL     1      -8.968   0.635  -1.418  1.00  0.00    -0.396 OA
ATOM     39  H6  UNL     1      -9.573   1.219  -0.976  1.00  0.00     0.210 HD
ENDBRANCH  31  38
ENDBRANCH   2  21
BRANCH   1  40
HETATM   40  O2  UNL     1      -0.039  -2.576  -0.707  1.00  0.00    -0.291 OA
BRANCH  40  41
HETATM   41  C2  UNL     1      -0.000  -3.208  -1.941  1.00  0.00     0.259 C 
HETATM   42  C1  UNL     1      -0.540  -4.575  -2.057  1.00  0.00     0.126 C 
HETATM   43  O1  UNL     1       0.479  -2.625  -2.912  1.00  0.00    -0.265 OA
ENDBRANCH  40  41
ENDBRANCH   1  40
TORSDOF 11
