REMARK  6 active torsions:
REMARK  status: ('A' for Active; 'I' for Inactive)
REMARK    1  A    between atoms: C2_2  and  C3_3 
REMARK    2  A    between atoms: C3_3  and  C4_4 
REMARK    3  A    between atoms: C3_3  and  N1_6 
REMARK    4  A    between atoms: N1_6  and  C6_8 
REMARK    5  A    between atoms: C10_14  and  O1_15 
REMARK    6  A    between atoms: C14_22  and  C15_23 
ROOT
HETATM    1  C6  UNL     1      -0.222   0.579  -0.196  1.00  0.00     0.043 A 
HETATM    2  C7  UNL     1       0.430   1.759  -0.593  1.00  0.00     0.047 A 
HETATM    3  C8  UNL     1      -0.284   2.897  -0.872  1.00  0.00     0.090 A 
HETATM    4  N2  UNL     1      -1.593   2.944  -0.783  1.00  0.00    -0.363 N 
ATOM      5  H2  UNL     1      -2.094   3.806  -0.998  1.00  0.00     0.165 HD
HETATM    6  C9  UNL     1      -2.272   1.835  -0.403  1.00  0.00     0.079 A 
HETATM    7  C10 UNL     1      -3.642   1.958  -0.316  1.00  0.00     0.095 A 
HETATM    8  C11 UNL     1      -4.342   0.865   0.081  1.00  0.00     0.069 A 
HETATM    9  C12 UNL     1      -3.714  -0.322   0.385  1.00  0.00     0.046 A 
HETATM   10  N3  UNL     1      -4.217  -1.469   0.798  1.00  0.00    -0.364 N 
ATOM     11  H3  UNL     1      -5.205  -1.668   0.955  1.00  0.00     0.165 HD
HETATM   12  C13 UNL     1      -3.220  -2.313   0.973  1.00  0.00     0.105 A 
HETATM   13  C14 UNL     1      -1.956  -1.710   0.663  1.00  0.00     0.076 A 
HETATM   14  C16 UNL     1      -2.312  -0.452   0.295  1.00  0.00     0.022 A 
HETATM   15  C17 UNL     1      -1.573   0.649  -0.109  1.00  0.00     0.033 A 
ENDROOT
BRANCH   1  16
HETATM   16  N1  UNL     1       0.578  -0.348  -0.005  1.00  0.00    -0.385 N 
ATOM     17  H1  UNL     1       0.185  -1.243   0.285  1.00  0.00     0.160 HD
BRANCH  16  18
HETATM   18  C3  UNL     1       2.019  -0.284  -0.154  1.00  0.00     0.081 C 
BRANCH  18  19
HETATM   19  C2  UNL     1       2.665   0.299   1.062  1.00  0.00     0.020 C 
HETATM   20  C1  UNL     1       4.091   0.701   0.984  1.00  0.00     0.007 C 
ENDBRANCH  18  19
BRANCH  18  21
HETATM   21  C4  UNL     1       2.629  -1.569  -0.621  1.00  0.00     0.020 C 
HETATM   22  C5  UNL     1       4.053  -1.502  -1.050  1.00  0.00     0.007 C 
ENDBRANCH  18  21
ENDBRANCH  16  18
ENDBRANCH   1  16
BRANCH   7  23
HETATM   23  O1  UNL     1      -4.337   3.098  -0.599  1.00  0.00    -0.358 OA
ATOM     24  H1  UNL     1      -5.281   3.183  -0.539  1.00  0.00     0.217 HD
ENDBRANCH   7  23
BRANCH  13  25
HETATM   25  C15 UNL     1      -0.761  -2.479   0.769  1.00  0.00     0.419 C 
HETATM   26  F1  UNL     1      -1.273  -3.775   1.307  1.00  0.00    -0.166 F 
HETATM   27  F2  UNL     1      -0.288  -3.165  -0.346  1.00  0.00    -0.166 F 
HETATM   28  F3  UNL     1       0.066  -2.362   1.870  1.00  0.00    -0.166 F 
ENDBRANCH  13  25
TORSDOF 6
