REMARK  5 active torsions:
REMARK  status: ('A' for Active; 'I' for Inactive)
REMARK    1  A    between atoms: C3_3  and  C4_4 
REMARK    2  A    between atoms: C7_7  and  O1_8 
REMARK    3  A    between atoms: O1_8  and  C8_9 
REMARK    4  A    between atoms: C15_20  and  C16_21 
REMARK    5  A    between atoms: C16_21  and  N2_24 
ROOT
HETATM    1  C1  UNL     1       0.964  -2.622   0.935  1.00  0.00     0.051 C 
HETATM    2  C2  UNL     1       0.516  -1.215   0.707  1.00  0.00    -0.024 A 
HETATM    3  C3  UNL     1       1.205  -0.124   0.278  1.00  0.00     0.050 A 
HETATM    4  N1  UNL     1       0.291   0.902   0.284  1.00  0.00    -0.341 N 
ATOM      5  H1  UNL     1       0.506   1.861   0.010  1.00  0.00     0.167 HD
HETATM    6  C11 UNL     1      -0.897   0.497   0.687  1.00  0.00     0.108 A 
HETATM    7  C12 UNL     1      -0.814  -0.827   0.967  1.00  0.00    -0.006 A 
HETATM    8  C13 UNL     1      -2.011  -1.577   1.451  1.00  0.00     0.045 C 
HETATM    9  C14 UNL     1      -3.184  -1.093   0.624  1.00  0.00     0.032 C 
HETATM   10  C15 UNL     1      -3.412   0.385   0.869  1.00  0.00     0.118 C 
HETATM   11  N3  UNL     1      -2.180   1.127   0.879  1.00  0.00    -0.369 N 
ATOM     12  H3  UNL     1      -2.215   2.136   1.027  1.00  0.00     0.161 HD
ENDROOT
BRANCH   3  13
HETATM   13  C4  UNL     1       2.596   0.002  -0.085  1.00  0.00    -0.009 A 
HETATM   14  C5  UNL     1       3.486  -1.006  -0.248  1.00  0.00     0.016 A 
HETATM   15  C6  UNL     1       4.845  -0.810  -0.569  1.00  0.00     0.038 A 
HETATM   16  C7  UNL     1       5.333   0.448  -0.735  1.00  0.00     0.074 A 
HETATM   17  C9  UNL     1       4.448   1.513  -0.576  1.00  0.00     0.038 A 
HETATM   18  C10 UNL     1       3.132   1.291  -0.263  1.00  0.00     0.016 A 
BRANCH  16  19
HETATM   19  O1  UNL     1       6.651   0.734  -1.050  1.00  0.00    -0.290 OA
BRANCH  19  20
HETATM   20  C8  UNL     1       7.686  -0.169  -1.250  1.00  0.00     0.505 C 
HETATM   21  F1  UNL     1       8.281  -0.050  -2.494  1.00  0.00    -0.184 F 
HETATM   22  F2  UNL     1       8.684   0.084  -0.310  1.00  0.00    -0.184 F 
ENDBRANCH  19  20
ENDBRANCH  16  19
ENDBRANCH   3  13
BRANCH  10  23
HETATM   23  C16 UNL     1      -4.378   0.900  -0.175  1.00  0.00     0.136 C 
HETATM   24  C17 UNL     1      -4.660   2.364  -0.004  1.00  0.00     0.048 C 
HETATM   25  C18 UNL     1      -3.768   0.691  -1.547  1.00  0.00     0.048 C 
BRANCH  23  26
HETATM   26  N2  UNL     1      -5.592   0.105  -0.098  1.00  0.00    -0.069 N 
ATOM     27  H23 UNL     1      -5.414  -0.896  -0.186  1.00  0.00     0.275 HD
ATOM     28  H22 UNL     1      -5.995   0.091   0.839  1.00  0.00     0.275 HD
ATOM     29  H21 UNL     1      -6.243   0.452  -0.802  1.00  0.00     0.275 HD
ENDBRANCH  23  26
ENDBRANCH  10  23
TORSDOF 5
