REMARK  17 active torsions:
REMARK  status: ('A' for Active; 'I' for Inactive)
REMARK    1  A    between atoms: C3_3  and  C4_4 
REMARK    2  A    between atoms: C5_5  and  C6_6 
REMARK       I    between atoms: C6_6  and  N1_8 
REMARK    3  A    between atoms: N1_8  and  C7_10 
REMARK    4  A    between atoms: C9_12  and  C10_13 
REMARK       I    between atoms: C10_13  and  N2_15 
REMARK    5  A    between atoms: N2_15  and  C11_17 
REMARK    6  A    between atoms: C15_27  and  O4_28 
REMARK    7  A    between atoms: C16_30  and  C17_31 
REMARK    8  A    between atoms: C17_31  and  O5_32 
REMARK    9  A    between atoms: C18_34  and  O6_35 
REMARK   10  A    between atoms: N8_40  and  C19_41 
REMARK   11  A    between atoms: N12_48  and  C20_49 
REMARK   12  A    between atoms: C20_49  and  O7_50 
REMARK   13  A    between atoms: O7_50  and  C21_51 
REMARK   14  A    between atoms: C21_51  and  C22_53 
REMARK   15  A    between atoms: C22_53  and  O9_54 
REMARK   16  A    between atoms: O9_54  and  S1_55 
REMARK   17  A    between atoms: S1_55  and  N13_56 
ROOT
HETATM    1  C6  UNL     1      -0.792   0.643   0.336  1.00  0.00     0.245 C 
HETATM    2  O1  UNL     1      -1.268   1.706   0.780  1.00  0.00    -0.268 OA
HETATM    3  N1  UNL     1      -1.613  -0.468   0.081  1.00  0.00    -0.321 N 
ATOM      4  H1  UNL     1      -1.165  -1.310  -0.281  1.00  0.00     0.169 HD
ENDROOT
BRANCH   1   5
HETATM    5  C5  UNL     1       0.659   0.592   0.087  1.00  0.00     0.077 C 
HETATM    6  C4  UNL     1       1.302  -0.450  -0.377  1.00  0.00     0.038 C 
BRANCH   6   7
HETATM    7  C3  UNL     1       2.754  -0.323  -0.563  1.00  0.00     0.070 A 
HETATM    8  C2  UNL     1       3.585  -1.313  -1.041  1.00  0.00     0.074 A 
HETATM    9  C1  UNL     1       3.176  -2.676  -1.451  1.00  0.00     0.073 C 
HETATM   10  N8  UNL     1       4.858  -0.858  -1.084  1.00  0.00    -0.070 N 
HETATM   11  N7  UNL     1       4.816   0.388  -0.643  1.00  0.00     0.000 NA
HETATM   12  N6  UNL     1       3.561   0.723  -0.327  1.00  0.00    -0.281 N 
ATOM     13  H6  UNL     1       3.264   1.629   0.036  1.00  0.00     0.184 HD
BRANCH  10  14
HETATM   14  C19 UNL     1       5.988  -1.598  -1.523  1.00  0.00     0.738 A 
HETATM   15  N9  UNL     1       6.269  -1.977  -2.773  1.00  0.00    -0.113 N 
HETATM   16  N10 UNL     1       7.397  -2.647  -2.805  1.00  0.00    -0.213 N 
ATOM     17  H9  UNL     1       5.689  -1.774  -3.587  1.00  0.00     0.207 HD
HETATM   18  N11 UNL     1       7.830  -2.692  -1.573  1.00  0.00    -0.209 N 
ATOM     19  H10 UNL     1       7.846  -3.052  -3.627  1.00  0.00     0.210 HD
HETATM   20  N12 UNL     1       7.018  -2.075  -0.761  1.00  0.00    -0.081 N 
ATOM     21  H11 UNL     1       8.693  -3.151  -1.283  1.00  0.00     0.210 HD
BRANCH  20  22
HETATM   22  C20 UNL     1       7.123  -1.918   0.668  1.00  0.00     0.348 C 
BRANCH  22  23
HETATM   23  O7  UNL     1       7.765  -0.731   0.993  1.00  0.00    -0.297 OA
BRANCH  23  24
HETATM   24  C21 UNL     1       9.052  -0.404   0.654  1.00  0.00     0.285 C 
HETATM   25  O8  UNL     1       9.771  -1.194   0.001  1.00  0.00    -0.263 OA
BRANCH  24  26
HETATM   26  C22 UNL     1       9.631   0.917   1.060  1.00  0.00     0.302 C 
BRANCH  26  27
HETATM   27  O9  UNL     1      10.957   1.023   0.601  1.00  0.00    -0.250 OA
BRANCH  27  28
HETATM   28  S1  UNL     1      11.591   2.505   1.064  1.00  0.00     0.356 S 
HETATM   29  O10 UNL     1      10.797   2.999   2.231  1.00  0.00    -0.176 OA
HETATM   30  O11 UNL     1      13.032   2.273   1.454  1.00  0.00    -0.176 OA
BRANCH  28  31
HETATM   31  N13 UNL     1      11.565   3.625  -0.252  1.00  0.00    -0.306 N 
ATOM     32 2H13 UNL     1      11.208   3.399  -1.181  1.00  0.00     0.171 HD
ATOM     33 1H13 UNL     1      11.951   4.526   0.030  1.00  0.00     0.171 HD
ENDBRANCH  28  31
ENDBRANCH  27  28
ENDBRANCH  26  27
ENDBRANCH  24  26
ENDBRANCH  23  24
ENDBRANCH  22  23
ENDBRANCH  20  22
ENDBRANCH  10  14
ENDBRANCH   6   7
ENDBRANCH   1   5
BRANCH   3  34
HETATM   34  C7  UNL     1      -3.004  -0.511   0.286  1.00  0.00     0.070 A 
HETATM   35  C8  UNL     1      -3.806   0.499   0.726  1.00  0.00     0.052 A 
HETATM   36  C9  UNL     1      -5.194   0.379   0.900  1.00  0.00     0.069 A 
HETATM   37  C15 UNL     1      -5.778  -0.827   0.608  1.00  0.00     0.092 A 
HETATM   38  C16 UNL     1      -5.025  -1.881   0.161  1.00  0.00     0.035 A 
HETATM   39  C18 UNL     1      -3.653  -1.719   0.003  1.00  0.00     0.103 A 
BRANCH  36  40
HETATM   40  C10 UNL     1      -5.953   1.521   1.375  1.00  0.00     0.272 C 
HETATM   41  O2  UNL     1      -5.415   2.616   1.639  1.00  0.00    -0.267 OA
HETATM   42  N2  UNL     1      -7.358   1.393   1.546  1.00  0.00    -0.155 N 
ATOM     43  H2  UNL     1      -7.719   0.871   2.345  1.00  0.00     0.187 HD
BRANCH  42  44
HETATM   44  C11 UNL     1      -8.190   1.927   0.706  1.00  0.00     0.689 A 
HETATM   45  N3  UNL     1      -9.511   1.780   0.909  1.00  0.00    -0.178 N 
HETATM   46  C12 UNL     1     -10.409   2.326   0.048  1.00  0.00     0.137 A 
ATOM     47  H3  UNL     1      -9.842   1.253   1.717  1.00  0.00     0.185 HD
HETATM   48  N4  UNL     1     -11.804   2.182   0.246  1.00  0.00    -0.082 NA
HETATM   49  C13 UNL     1      -9.969   3.035  -1.039  1.00  0.00     0.120 A 
HETATM   50  C14 UNL     1      -8.607   3.175  -1.230  1.00  0.00     0.262 A 
HETATM   51  O3  UNL     1      -8.189   3.821  -2.220  1.00  0.00    -0.268 OA
HETATM   52  N5  UNL     1      -7.758   2.620  -0.356  1.00  0.00    -0.156 N 
ATOM     53  H5  UNL     1      -6.754   2.728  -0.503  1.00  0.00     0.187 HD
ENDBRANCH  42  44
ENDBRANCH  36  40
BRANCH  37  54
HETATM   54  O4  UNL     1      -7.133  -0.988   0.763  1.00  0.00    -0.359 OA
ATOM     55  H4  UNL     1      -7.538  -1.823   0.561  1.00  0.00     0.217 HD
ENDBRANCH  37  54
BRANCH  38  56
HETATM   56  C17 UNL     1      -5.622  -3.191  -0.161  1.00  0.00     0.208 C 
BRANCH  56  57
HETATM   57  O5  UNL     1      -4.641  -4.058  -0.584  1.00  0.00    -0.396 OA
ATOM     58  H5  UNL     1      -5.025  -4.902  -0.791  1.00  0.00     0.209 HD
ENDBRANCH  56  57
ENDBRANCH  38  56
BRANCH  39  59
HETATM   59  O6  UNL     1      -2.943  -2.787  -0.441  1.00  0.00    -0.358 OA
ATOM     60  H6  UNL     1      -3.383  -3.607  -0.633  1.00  0.00     0.217 HD
ENDBRANCH  39  59
ENDBRANCH   3  34
TORSDOF 17
