REMARK  2 active torsions:
REMARK  status: ('A' for Active; 'I' for Inactive)
REMARK       I    between atoms: C1_2  and  N1_3 
REMARK    1  A    between atoms: C1_2  and  C10_13 
REMARK    2  A    between atoms: N1_3  and  C2_5 
ROOT
HETATM    1  O1  UNL     1      -0.550   1.106   1.160  1.00  0.00    -0.273 OA
HETATM    2  C1  UNL     1      -0.344   0.343   0.172  1.00  0.00     0.222 C 
HETATM    3  N1  UNL     1      -1.410  -0.288  -0.474  1.00  0.00    -0.351 N 
ATOM      4  H1  UNL     1      -1.175  -0.891  -1.263  1.00  0.00     0.163 HD
ENDROOT
BRANCH   2   5
HETATM    5  C10 UNL     1       1.056   0.162  -0.249  1.00  0.00     0.078 C 
HETATM    6  C11 UNL     1       1.524  -1.265  -0.183  1.00  0.00     0.019 C 
HETATM    7  C12 UNL     1       2.877  -1.349  -0.814  1.00  0.00     0.069 C 
HETATM    8  C13 UNL     1       3.857  -0.343  -0.322  1.00  0.00     0.164 C 
HETATM    9  C14 UNL     1       3.320   1.041  -0.177  1.00  0.00     0.069 C 
HETATM   10  O2  UNL     1       4.452  -0.770   0.861  1.00  0.00    -0.353 OA
HETATM   11  O3  UNL     1       4.905  -0.282  -1.268  1.00  0.00    -0.353 OA
HETATM   12  C15 UNL     1       2.011   0.988   0.585  1.00  0.00     0.019 C 
HETATM   13  C16 UNL     1       5.686  -0.166   0.883  1.00  0.00     0.197 C 
HETATM   14  C17 UNL     1       6.066  -0.091  -0.564  1.00  0.00     0.197 C 
ENDBRANCH   2   5
BRANCH   3  15
HETATM   15  C2  UNL     1      -2.792  -0.176  -0.144  1.00  0.00     0.037 C 
HETATM   16  C3  UNL     1      -3.194  -0.616   1.258  1.00  0.00     0.036 C 
HETATM   17  C4  UNL     1      -4.441   0.190   1.494  1.00  0.00    -0.011 C 
HETATM   18  C5  UNL     1      -5.459  -0.139   0.422  1.00  0.00     0.010 C 
HETATM   19  C9  UNL     1      -3.997   1.565   0.968  1.00  0.00     0.012 C 
HETATM   20  C6  UNL     1      -4.706   0.273  -0.839  1.00  0.00    -0.005 C 
HETATM   21  C7  UNL     1      -3.729  -0.837  -1.169  1.00  0.00     0.036 C 
HETATM   22  C8  UNL     1      -3.515   1.092  -0.389  1.00  0.00     0.018 C 
ENDBRANCH   3  15
TORSDOF 2
