REMARK  5 active torsions:
REMARK  status: ('A' for Active; 'I' for Inactive)
REMARK    1  A    between atoms: C3_3  and  O1_4 
REMARK    2  A    between atoms: C8_10  and  O2_11 
REMARK    3  A    between atoms: C15_20  and  C16_21 
REMARK    4  A    between atoms: C16_21  and  S1_24 
REMARK    5  A    between atoms: S1_24  and  S2_25 
ROOT
HETATM    1  C1  UNL     1      -3.435   2.508  -0.942  1.00  0.00     0.017 C 
HETATM    2  C2  UNL     1      -3.664   1.454  -0.178  1.00  0.00    -0.056 C 
HETATM    3  C3  UNL     1      -5.081   1.088   0.167  1.00  0.00     0.146 C 
HETATM    4  C4  UNL     1      -5.043  -0.405   0.448  1.00  0.00     0.036 C 
HETATM    5  C5  UNL     1      -4.141  -1.018  -0.569  1.00  0.00     0.008 C 
HETATM    6  C6  UNL     1      -2.663  -0.794  -0.164  1.00  0.00    -0.002 C 
HETATM    7  C7  UNL     1      -1.779  -1.279  -1.206  1.00  0.00     0.066 C 
HETATM    8  C8  UNL     1      -0.722  -0.452  -1.807  1.00  0.00     0.260 C 
HETATM    9  O3  UNL     1       0.216   0.126  -1.091  1.00  0.00    -0.326 OA
HETATM   10  C9  UNL     1       0.607  -0.218   0.126  1.00  0.00     0.167 C 
HETATM   11  C10 UNL     1      -0.309   0.419   1.160  1.00  0.00     0.069 C 
HETATM   12  C11 UNL     1      -1.332   1.294   0.466  1.00  0.00     0.015 C 
HETATM   13  C12 UNL     1      -2.610   0.564   0.392  1.00  0.00     0.020 C 
HETATM   14  C13 UNL     1       0.881  -1.656   0.422  1.00  0.00     0.071 C 
HETATM   15  C14 UNL     1       2.041  -1.687   1.398  1.00  0.00     0.039 C 
HETATM   16  C15 UNL     1       2.431  -0.254   1.445  1.00  0.00     0.144 C 
HETATM   17  O4  UNL     1       1.887   0.346   0.349  1.00  0.00    -0.348 OA
ENDROOT
BRANCH   8  18
HETATM   18  O2  UNL     1      -0.096  -1.255  -2.801  1.00  0.00    -0.371 OA
ATOM     19  H2  UNL     1       0.587  -0.721  -3.189  1.00  0.00     0.212 HD
ENDBRANCH   8  18
BRANCH  16  20
HETATM   20  C16 UNL     1       3.936  -0.136   1.412  1.00  0.00     0.037 C 
HETATM   21  C17 UNL     1       4.592  -0.836   2.584  1.00  0.00     0.030 C 
HETATM   22  C18 UNL     1       4.510  -0.799   0.161  1.00  0.00     0.030 C 
BRANCH  20  23
HETATM   23  S1  UNL     1       4.504   1.580   1.388  1.00  0.00    -0.086 SA
BRANCH  23  24
HETATM   24  S2  UNL     1       3.930   2.529  -0.443  1.00  0.00    -0.101 SA
HETATM   25  C19 UNL     1       5.209   2.328  -1.713  1.00  0.00     0.102 C 
ENDBRANCH  23  24
ENDBRANCH  20  23
ENDBRANCH  16  20
BRANCH   3  26
HETATM   26  O1  UNL     1      -5.349   1.708   1.393  1.00  0.00    -0.391 OA
ATOM     27  H1  UNL     1      -6.244   1.477   1.611  1.00  0.00     0.210 HD
ENDBRANCH   3  26
TORSDOF 5
