REMARK  9 active torsions:
REMARK  status: ('A' for Active; 'I' for Inactive)
REMARK    1  A    between atoms: C3_3  and  C4_4 
REMARK       I    between atoms: C4_4  and  N1_6 
REMARK       I    between atoms: C5_8  and  N3_10 
REMARK    2  A    between atoms: N3_10  and  C6_12 
REMARK    3  A    between atoms: C6_12  and  C7_13 
REMARK    4  A    between atoms: C7_13  and  S1_14 
REMARK    5  A    between atoms: S1_14  and  S2_15 
REMARK    6  A    between atoms: S2_15  and  C8_16 
REMARK    7  A    between atoms: C8_16  and  C9_17 
REMARK    8  A    between atoms: C9_17  and  N4_18 
REMARK       I    between atoms: N4_18  and  C10_20 
REMARK    9  A    between atoms: C10_20  and  C11_22 
ROOT
HETATM    1  C1  UNL     1       7.312  -1.728   2.636  1.00  0.00     0.012 C 
HETATM    2  C2  UNL     1       6.917  -0.792   1.985  1.00  0.00    -0.108 C 
HETATM    3  C3  UNL     1       6.451   0.354   1.171  1.00  0.00     0.196 C 
ENDROOT
BRANCH   3   4
HETATM    4  C4  UNL     1       6.194  -0.087  -0.211  1.00  0.00     0.235 C 
HETATM    5  O1  UNL     1       6.380  -1.309  -0.522  1.00  0.00    -0.272 OA
HETATM    6  N1  UNL     1       5.749   0.780  -1.218  1.00  0.00    -0.301 N 
HETATM    7  C5  UNL     1       4.601   1.324  -1.315  1.00  0.00     0.190 C 
ATOM      8  H1  UNL     1       6.419   1.000  -1.955  1.00  0.00     0.171 HD
HETATM    9  N2  UNL     1       4.367   2.181  -2.438  1.00  0.00    -0.063 NA
HETATM   10  N3  UNL     1       3.525   1.164  -0.416  1.00  0.00    -0.364 N 
ATOM     11  H3  UNL     1       3.266   1.951   0.179  1.00  0.00     0.162 HD
BRANCH  10  12
HETATM   12  C6  UNL     1       2.781  -0.052  -0.302  1.00  0.00     0.133 C 
BRANCH  12  13
HETATM   13  C7  UNL     1       1.944  -0.354  -1.543  1.00  0.00     0.105 C 
BRANCH  13  14
HETATM   14  S1  UNL     1       1.083  -1.927  -1.198  1.00  0.00    -0.096 SA
BRANCH  14  15
HETATM   15  S2  UNL     1      -0.315  -1.697   0.373  1.00  0.00    -0.096 SA
BRANCH  15  16
HETATM   16  C8  UNL     1      -1.947  -1.219  -0.244  1.00  0.00     0.105 C 
BRANCH  16  17
HETATM   17  C9  UNL     1      -2.875  -1.081   0.917  1.00  0.00     0.134 C 
BRANCH  17  18
HETATM   18  N4  UNL     1      -4.184  -0.702   0.454  1.00  0.00    -0.356 N 
HETATM   19  C10 UNL     1      -5.222  -0.517   1.385  1.00  0.00     0.258 C 
HETATM   20  O2  UNL     1      -5.002  -0.681   2.605  1.00  0.00    -0.267 OA
ATOM     21  H4  UNL     1      -4.358  -0.569  -0.542  1.00  0.00     0.162 HD
BRANCH  19  22
HETATM   22  C11 UNL     1      -6.583  -0.127   0.949  1.00  0.00     0.075 A 
HETATM   23  C12 UNL     1      -7.023   0.100  -0.331  1.00  0.00     0.045 A 
HETATM   24  C13 UNL     1      -8.306   0.444  -0.485  1.00  0.00     0.036 A 
HETATM   25 BR1  UNL     1      -9.089   0.801  -2.223  1.00  0.00    -0.049 Br
HETATM   26  C14 UNL     1      -9.072   0.540   0.643  1.00  0.00     0.069 A 
HETATM   27 BR2  UNL     1     -10.938   1.007   0.794  1.00  0.00    -0.042 Br
HETATM   28  S3  UNL     1      -7.977   0.147   1.889  1.00  0.00    -0.076 SA
ENDBRANCH  19  22
ENDBRANCH  17  18
ENDBRANCH  16  17
ENDBRANCH  15  16
ENDBRANCH  14  15
ENDBRANCH  13  14
ENDBRANCH  12  13
ENDBRANCH  10  12
ENDBRANCH   3   4
TORSDOF 9
