REMARK  6 active torsions:
REMARK  status: ('A' for Active; 'I' for Inactive)
REMARK    1  A    between atoms: O1_1  and  C1_3 
REMARK    2  A    between atoms: C2_4  and  N1_5 
REMARK    3  A    between atoms: N2_10  and  C7_11 
REMARK    4  A    between atoms: C7_11  and  C8_12 
REMARK    5  A    between atoms: N3_21  and  N4_22 
REMARK    6  A    between atoms: N4_22  and  C15_24 
ROOT
HETATM    1  C1  UNL     1       0.381   0.571   0.907  1.00  0.00     0.209 A 
HETATM    2  C2  UNL     1      -0.797   0.781   0.184  1.00  0.00     0.162 A 
HETATM    3  N2  UNL     1      -0.801  -0.187  -0.743  1.00  0.00    -0.300 N 
HETATM    4  C14 UNL     1       0.327  -0.951  -0.590  1.00  0.00     0.204 A 
HETATM    5  S1  UNL     1       0.750  -2.246  -1.496  1.00  0.00    -0.038 SA
HETATM    6  N3  UNL     1       1.056  -0.484   0.428  1.00  0.00    -0.204 N 
ENDROOT
BRANCH   6   7
HETATM    7  N4  UNL     1       2.261  -0.974   0.906  1.00  0.00    -0.296 N 
ATOM      8  H4  UNL     1       2.210  -1.629   1.686  1.00  0.00     0.187 HD
BRANCH   7   9
HETATM    9  C15 UNL     1       3.429  -0.692   0.473  1.00  0.00     0.022 C 
HETATM   10  C16 UNL     1       4.597  -1.326   1.127  1.00  0.00     0.056 C 
HETATM   11  C17 UNL     1       5.760  -1.496   0.179  1.00  0.00     0.006 C 
HETATM   12  C18 UNL     1       5.941  -0.195  -0.573  1.00  0.00     0.002 C 
HETATM   13  C19 UNL     1       4.763  -0.063  -1.520  1.00  0.00     0.026 C 
HETATM   14  C20 UNL     1       3.558   0.251  -0.658  1.00  0.00     0.129 C 
HETATM   15 CL2  UNL     1       3.867   1.885   0.027  1.00  0.00    -0.119 Cl
ENDBRANCH   7   9
ENDBRANCH   6   7
BRANCH   1  16
HETATM   16  O1  UNL     1       0.813   1.338   1.979  1.00  0.00    -0.342 OA
ATOM     17  H1  UNL     1       1.613   1.195   2.470  1.00  0.00     0.219 HD
ENDBRANCH   1  16
BRANCH   2  18
HETATM   18  N1  UNL     1      -1.742   1.807   0.431  1.00  0.00    -0.363 N 
HETATM   19  C3  UNL     1      -1.616   2.700   1.594  1.00  0.00     0.124 C 
HETATM   20  C4  UNL     1      -2.877   3.505   1.665  1.00  0.00     0.021 C 
HETATM   21  C5  UNL     1      -3.528   3.386   0.315  1.00  0.00     0.021 C 
HETATM   22  C6  UNL     1      -2.888   2.161  -0.337  1.00  0.00     0.124 C 
ENDBRANCH   2  18
BRANCH   3  23
HETATM   23  C7  UNL     1      -1.760  -0.496  -1.753  1.00  0.00     0.173 C 
BRANCH  23  24
HETATM   24  C8  UNL     1      -2.779  -1.484  -1.292  1.00  0.00    -0.018 A 
HETATM   25  C9  UNL     1      -2.791  -2.037  -0.029  1.00  0.00     0.010 A 
HETATM   26  C10 UNL     1      -3.765  -2.959   0.353  1.00  0.00     0.001 A 
HETATM   27  C11 UNL     1      -4.739  -3.324  -0.558  1.00  0.00     0.002 A 
HETATM   28  C12 UNL     1      -4.720  -2.767  -1.817  1.00  0.00     0.024 A 
HETATM   29  C13 UNL     1      -3.750  -1.850  -2.195  1.00  0.00     0.042 A 
HETATM   30 CL1  UNL     1      -3.767  -1.177  -3.791  1.00  0.00    -0.084 Cl
ENDBRANCH  23  24
ENDBRANCH   3  23
TORSDOF 6
