REMARK  9 active torsions:
REMARK  status: ('A' for Active; 'I' for Inactive)
REMARK    1  A    between atoms: N1_1  and  C1_4 
REMARK    2  A    between atoms: C2_7  and  O1_8 
REMARK    3  A    between atoms: C3_10  and  C4_11 
REMARK    4  A    between atoms: N3_12  and  N4_14 
REMARK    5  A    between atoms: N4_14  and  C5_16 
REMARK    6  A    between atoms: C6_17  and  N5_18 
REMARK    7  A    between atoms: C8_22  and  S1_23 
REMARK    8  A    between atoms: C10_28  and  S2_29 
REMARK    9  A    between atoms: S2_29  and  N6_30 
ROOT
HETATM    1  C5  UNL     1      -1.426   0.023   1.164  1.00  0.00     0.104 A 
HETATM    2  C6  UNL     1      -1.977  -1.156   1.614  1.00  0.00     0.134 A 
HETATM    3  C7  UNL     1      -3.339  -1.385   1.345  1.00  0.00     0.065 A 
HETATM    4  C8  UNL     1      -4.123  -0.501   0.668  1.00  0.00     0.084 A 
HETATM    5  C9  UNL     1      -3.536   0.668   0.234  1.00  0.00     0.054 A 
HETATM    6  C10 UNL     1      -2.185   0.953   0.471  1.00  0.00     0.111 A 
ENDROOT
BRANCH   1   7
HETATM    7  N4  UNL     1      -0.072   0.333   1.408  1.00  0.00    -0.297 N 
ATOM      8  H4  UNL     1       0.139   0.807   2.286  1.00  0.00     0.187 HD
BRANCH   7   9
HETATM    9  N3  UNL     1       1.003   0.058   0.573  1.00  0.00    -0.310 N 
HETATM   10  C4  UNL     1       2.205   0.398   0.878  1.00  0.00     0.128 C 
ATOM     11  H3  UNL     1       0.834  -0.428  -0.308  1.00  0.00     0.186 HD
BRANCH  10  12
HETATM   12  C3  UNL     1       3.346   0.122   0.020  1.00  0.00     0.100 A 
HETATM   13  C2  UNL     1       3.165  -0.533  -1.183  1.00  0.00     0.172 A 
HETATM   14  N2  UNL     1       4.240  -0.777  -1.961  1.00  0.00    -0.170 N 
HETATM   15  C1  UNL     1       5.486  -0.409  -1.615  1.00  0.00     0.680 A 
ATOM     16  H2  UNL     1       4.102  -1.261  -2.848  1.00  0.00     0.186 HD
HETATM   17  N7  UNL     1       5.638   0.227  -0.440  1.00  0.00    -0.155 N 
HETATM   18  C11 UNL     1       4.616   0.500   0.377  1.00  0.00     0.275 A 
ATOM     19  H7  UNL     1       6.576   0.514  -0.159  1.00  0.00     0.187 HD
HETATM   20  O9  UNL     1       4.770   1.103   1.491  1.00  0.00    -0.267 OA
BRANCH  13  21
HETATM   21  O1  UNL     1       1.873  -0.916  -1.544  1.00  0.00    -0.345 OA
ATOM     22  H1  UNL     1       1.116  -0.744  -0.996  1.00  0.00     0.219 HD
ENDBRANCH  13  21
BRANCH  15  23
HETATM   23  N1  UNL     1       6.512  -0.660  -2.392  1.00  0.00    -0.234 N 
ATOM     24  H12 UNL     1       6.397  -1.142  -3.283  1.00  0.00     0.174 HD
ATOM     25  H11 UNL     1       7.457  -0.381  -2.130  1.00  0.00     0.174 HD
ENDBRANCH  15  23
ENDBRANCH  10  12
ENDBRANCH   7   9
ENDBRANCH   1   7
BRANCH   2  26
HETATM   26  N5  UNL     1      -1.234  -2.098   2.334  1.00  0.00    -0.113 N 
HETATM   27  O2  UNL     1      -1.823  -2.829   3.152  1.00  0.00    -0.532 OA
HETATM   28  O3  UNL     1       0.099  -2.241   2.171  1.00  0.00    -0.532 OA
ENDBRANCH   2  26
BRANCH   6  29
HETATM   29  S2  UNL     1      -1.537   2.452  -0.128  1.00  0.00     0.259 S 
HETATM   30  O7  UNL     1      -2.631   3.291  -0.759  1.00  0.00    -0.201 OA
HETATM   31  O8  UNL     1      -0.867   3.201   0.988  1.00  0.00    -0.201 OA
BRANCH  29  32
HETATM   32  N6  UNL     1      -0.341   2.099  -1.315  1.00  0.00    -0.324 N 
ATOM     33  H62 UNL     1      -0.069   1.161  -1.608  1.00  0.00     0.169 HD
ATOM     34  H61 UNL     1       0.039   2.978  -1.666  1.00  0.00     0.169 HD
ENDBRANCH  29  32
ENDBRANCH   6  29
BRANCH   4  35
HETATM   35  S1  UNL     1      -5.816  -0.803   0.344  1.00  0.00     0.137 S 
HETATM   36  O4  UNL     1      -5.980  -2.313   0.306  1.00  0.00    -0.591 OA
HETATM   37  O5  UNL     1      -6.164  -0.300  -1.011  1.00  0.00    -0.591 OA
HETATM   38  O6  UNL     1      -6.812  -0.231   1.536  1.00  0.00    -0.591 OA
ENDBRANCH   4  35
TORSDOF 9
