REMARK  8 active torsions:
REMARK  status: ('A' for Active; 'I' for Inactive)
REMARK    1  A    between atoms: C2_2  and  C3_3 
REMARK    2  A    between atoms: C3_3  and  N1_4 
REMARK    3  A    between atoms: C3_3  and  C14_20 
REMARK       I    between atoms: N1_4  and  C4_6 
REMARK    4  A    between atoms: C4_6  and  C5_8 
REMARK    5  A    between atoms: C5_8  and  N2_9 
REMARK    6  A    between atoms: C5_8  and  C8_14 
REMARK       I    between atoms: N2_9  and  C6_11 
REMARK    7  A    between atoms: C14_20  and  O4_22 
REMARK    8  A    between atoms: O4_22  and  C15_23 
ROOT
HETATM    1  N1  UNL     1       0.194   0.384  -0.905  1.00  0.00    -0.345 N 
ATOM      2  H1  UNL     1      -0.144  -0.499  -1.289  1.00  0.00     0.163 HD
HETATM    3  C4  UNL     1      -0.736   1.333  -0.433  1.00  0.00     0.241 C 
HETATM    4  O1  UNL     1      -0.227   2.429   0.040  1.00  0.00    -0.271 OA
ENDROOT
BRANCH   3   5
HETATM    5  C5  UNL     1      -2.191   1.200  -0.432  1.00  0.00     0.180 C 
BRANCH   5   6
HETATM    6  N2  UNL     1      -2.740   2.503  -0.020  1.00  0.00    -0.348 N 
HETATM    7  C6  UNL     1      -3.568   3.195  -0.900  1.00  0.00     0.214 C 
HETATM    8  C7  UNL     1      -4.178   4.529  -0.578  1.00  0.00     0.117 C 
HETATM    9  O2  UNL     1      -3.849   2.725  -2.031  1.00  0.00    -0.274 OA
ATOM     10  H2  UNL     1      -2.517   2.893   0.896  1.00  0.00     0.163 HD
ENDBRANCH   5   6
BRANCH   5  11
HETATM   11  C8  UNL     1      -2.732   0.146   0.506  1.00  0.00     0.018 C 
HETATM   12  C9  UNL     1      -4.242   0.107   0.439  1.00  0.00     0.007 C 
HETATM   13  C10 UNL     1      -4.853  -1.008   1.210  1.00  0.00     0.000 C 
HETATM   14  C11 UNL     1      -4.270  -2.338   0.792  1.00  0.00     0.000 C 
HETATM   15  C12 UNL     1      -2.807  -2.278   1.138  1.00  0.00     0.000 C 
HETATM   16  C13 UNL     1      -2.090  -1.174   0.391  1.00  0.00     0.007 C 
ENDBRANCH   5  11
ENDBRANCH   3   5
BRANCH   1  17
HETATM   17  C3  UNL     1       1.622   0.638  -0.856  1.00  0.00     0.184 C 
BRANCH  17  18
HETATM   18  C2  UNL     1       2.169   0.798  -2.281  1.00  0.00     0.031 C 
HETATM   19  C1  UNL     1       3.653   1.069  -2.251  1.00  0.00     0.007 C 
ENDBRANCH  17  18
BRANCH  17  20
HETATM   20  C14 UNL     1       2.386  -0.420  -0.158  1.00  0.00     0.282 C 
HETATM   21  O3  UNL     1       1.765  -1.416   0.291  1.00  0.00    -0.263 OA
BRANCH  20  22
HETATM   22  O4  UNL     1       3.739  -0.394   0.036  1.00  0.00    -0.310 OA
BRANCH  22  23
HETATM   23  C15 UNL     1       4.497  -1.364   0.686  1.00  0.00     0.060 C 
HETATM   24  C16 UNL     1       4.413  -2.722   0.042  1.00  0.00     0.045 C 
HETATM   25  C17 UNL     1       4.139  -1.526   2.150  1.00  0.00     0.045 C 
HETATM   26  C18 UNL     1       5.952  -0.873   0.666  1.00  0.00     0.045 C 
ENDBRANCH  22  23
ENDBRANCH  20  22
ENDBRANCH  17  20
ENDBRANCH   1  17
TORSDOF 8
