REMARK  4 active torsions:
REMARK  status: ('A' for Active; 'I' for Inactive)
REMARK    1  A    between atoms: C5_5  and  C6_6 
REMARK    2  A    between atoms: C6_6  and  C7_8 
REMARK    3  A    between atoms: C9_14  and  N2_15 
REMARK    4  A    between atoms: N3_17  and  N4_19 
ROOT
HETATM    1  C7  UNL     1      -1.913  -0.673  -0.580  1.00  0.00     0.101 A 
HETATM    2  S1  UNL     1      -1.735  -2.349  -0.816  1.00  0.00    -0.022 SA
HETATM    3  C8  UNL     1      -3.367  -2.800  -0.636  1.00  0.00     0.290 A 
HETATM    4  O2  UNL     1      -3.890  -3.970  -0.706  1.00  0.00    -0.260 OA
HETATM    5  N1  UNL     1      -3.978  -1.639  -0.402  1.00  0.00    -0.301 N 
ATOM      6  H1  UNL     1      -4.986  -1.603  -0.252  1.00  0.00     0.171 HD
HETATM    7  C9  UNL     1      -3.261  -0.548  -0.369  1.00  0.00     0.145 A 
ENDROOT
BRANCH   1   8
HETATM    8  C6  UNL     1      -0.896   0.400  -0.592  1.00  0.00     0.174 C 
HETATM    9  O1  UNL     1      -1.292   1.575  -0.398  1.00  0.00    -0.291 OA
BRANCH   8  10
HETATM   10  C5  UNL     1       0.535   0.069  -0.829  1.00  0.00     0.061 C 
HETATM   11  C4  UNL     1       1.356   1.318  -0.835  1.00  0.00     0.013 C 
HETATM   12  C3  UNL     1       2.828   1.118  -0.718  1.00  0.00     0.005 C 
HETATM   13  C2  UNL     1       3.212  -0.199  -0.088  1.00  0.00    -0.019 C 
HETATM   14  C1  UNL     1       4.571  -0.064   0.558  1.00  0.00     0.010 C 
HETATM   15  C11 UNL     1       2.142  -0.493   0.965  1.00  0.00     0.005 C 
HETATM   16  C10 UNL     1       0.947  -0.966   0.146  1.00  0.00     0.013 C 
ENDBRANCH   8  10
ENDBRANCH   1   8
BRANCH   7  17
HETATM   17  N2  UNL     1      -3.884   0.755  -0.116  1.00  0.00    -0.270 N 
HETATM   18  N3  UNL     1      -4.309   1.025   1.046  1.00  0.00    -0.248 N 
ATOM     19  H3  UNL     1      -4.218   0.341   1.798  1.00  0.00     0.207 HD
ATOM     20  H2  UNL     1      -3.974   1.437  -0.869  1.00  0.00     0.190 HD
BRANCH  18  21
HETATM   21  N4  UNL     1      -4.902   2.264   1.291  1.00  0.00    -0.331 N 
ATOM     22  H42 UNL     1      -4.985   2.936   0.529  1.00  0.00     0.178 HD
ATOM     23  H41 UNL     1      -5.244   2.481   2.227  1.00  0.00     0.178 HD
ENDBRANCH  18  21
ENDBRANCH   7  17
TORSDOF 4
