REMARK  3 active torsions:
REMARK  status: ('A' for Active; 'I' for Inactive)
REMARK    1  A    between atoms: C3_3  and  C4_4 
REMARK    2  A    between atoms: C4_4  and  N1_5 
REMARK    3  A    between atoms: C9_12  and  C10_13 
ROOT
HETATM    1  C1  UNL     1      -2.101  -1.285  -2.174  1.00  0.00     0.098 C 
HETATM    2  C2  UNL     1      -1.427  -0.854  -1.250  1.00  0.00    -0.175 C 
HETATM    3  C3  UNL     1      -0.636  -0.323  -0.137  1.00  0.00     0.040 C 
HETATM    4  C5  UNL     1      -1.445   0.696   0.620  1.00  0.00     0.024 C 
HETATM    5  C6  UNL     1      -0.960   2.096   0.431  1.00  0.00     0.002 C 
HETATM    6  C7  UNL     1       0.503   2.277   0.702  1.00  0.00     0.001 C 
HETATM    7  C8  UNL     1       1.351   1.123   0.259  1.00  0.00     0.010 C 
HETATM    8  C9  UNL     1       0.625   0.293  -0.746  1.00  0.00     0.029 C 
ENDROOT
BRANCH   3   9
HETATM    9  C4  UNL     1      -0.182  -1.463   0.735  1.00  0.00     0.223 C 
BRANCH   9  10
HETATM   10  N1  UNL     1      -1.281  -2.207   1.285  1.00  0.00    -0.154 N 
HETATM   11  O1  UNL     1      -2.437  -1.875   1.017  1.00  0.00    -0.536 OA
HETATM   12  O2  UNL     1      -1.050  -3.272   2.097  1.00  0.00    -0.536 OA
ENDBRANCH   9  10
ENDBRANCH   3   9
BRANCH   8  13
HETATM   13  C10 UNL     1       1.497  -0.794  -1.244  1.00  0.00    -0.030 C 
HETATM   14  C11 UNL     1       2.743  -0.967  -0.825  1.00  0.00     0.007 C 
ENDBRANCH   8  13
TORSDOF 3
