REMARK  11 active torsions:
REMARK  status: ('A' for Active; 'I' for Inactive)
REMARK       I    between atoms: N1_2  and  C2_4 
REMARK    1  A    between atoms: C2_4  and  C3_6 
REMARK    2  A    between atoms: C3_6  and  N2_8 
REMARK    3  A    between atoms: N2_8  and  C5_10 
REMARK    4  A    between atoms: C5_10  and  O2_11 
REMARK    5  A    between atoms: C5_10  and  C6_13 
REMARK    6  A    between atoms: C6_13  and  C7_14 
REMARK    7  A    between atoms: C6_13  and  N3_19 
REMARK    8  A    between atoms: C7_14  and  C8_15 
REMARK    9  A    between atoms: C8_15  and  C9_16 
REMARK       I    between atoms: N3_19  and  C10_21 
REMARK   10  A    between atoms: C10_21  and  C11_23 
REMARK   11  A    between atoms: C23_38  and  O8_39 
ROOT
HETATM    1  N3  UNL     1       0.591  -0.129  -0.378  1.00  0.00    -0.349 N 
ATOM      2  H3  UNL     1       0.409  -1.086  -0.076  1.00  0.00     0.163 HD
HETATM    3  C10 UNL     1      -0.393   0.478  -1.200  1.00  0.00     0.223 C 
HETATM    4  O5  UNL     1      -0.042   1.646  -1.494  1.00  0.00    -0.273 OA
ENDROOT
BRANCH   1   5
HETATM    5  C6  UNL     1       1.815   0.467   0.071  1.00  0.00     0.159 C 
BRANCH   5   6
HETATM    6  C5  UNL     1       2.960  -0.167  -0.607  1.00  0.00     0.135 C 
BRANCH   6   7
HETATM    7  N2  UNL     1       4.148  -0.650  -0.055  1.00  0.00    -0.360 N 
ATOM      8  H2  UNL     1       4.297  -0.588   0.952  1.00  0.00     0.162 HD
BRANCH   7   9
HETATM    9  C3  UNL     1       5.175  -1.240  -0.898  1.00  0.00     0.171 C 
HETATM   10  C4  UNL     1       5.436  -2.684  -0.497  1.00  0.00     0.042 C 
BRANCH   9  11
HETATM   11  C2  UNL     1       6.474  -0.527  -0.707  1.00  0.00     0.239 C 
HETATM   12  N1  UNL     1       7.610  -0.942  -1.432  1.00  0.00    -0.364 N 
HETATM   13  C1  UNL     1       8.870  -0.276  -1.267  1.00  0.00     0.149 C 
ATOM     14  H1  UNL     1       7.535  -1.725  -2.081  1.00  0.00     0.161 HD
HETATM   15  O1  UNL     1       6.516   0.435   0.107  1.00  0.00    -0.271 OA
ENDBRANCH   9  11
ENDBRANCH   7   9
ENDBRANCH   6   7
BRANCH   6  16
HETATM   16  O2  UNL     1       2.885  -0.323  -1.904  1.00  0.00    -0.348 OA
ATOM     17  H2  UNL     1       2.077   0.006  -2.280  1.00  0.00     0.219 HD
ENDBRANCH   6  16
ENDBRANCH   5   6
BRANCH   5  18
HETATM   18  C7  UNL     1       1.942   0.663   1.514  1.00  0.00     0.044 C 
BRANCH  18  19
HETATM   19  C8  UNL     1       3.042   1.634   1.851  1.00  0.00     0.116 C 
BRANCH  19  20
HETATM   20  C9  UNL     1       3.155   1.769   3.334  1.00  0.00     0.172 C 
HETATM   21  O3  UNL     1       2.368   1.096   4.042  1.00  0.00    -0.648 OA
HETATM   22  O4  UNL     1       4.094   2.604   3.910  1.00  0.00    -0.648 OA
ENDBRANCH  19  20
ENDBRANCH  18  19
ENDBRANCH   5  18
ENDBRANCH   1   5
BRANCH   3  23
HETATM   23  C11 UNL     1      -1.570  -0.258  -1.565  1.00  0.00     0.088 C 
HETATM   24  C12 UNL     1      -2.708   0.440  -2.316  1.00  0.00     0.006 C 
HETATM   25  C13 UNL     1      -2.292   1.647  -3.082  1.00  0.00     0.011 C 
HETATM   26  C14 UNL     1      -3.517   0.553  -1.101  1.00  0.00    -0.002 C 
HETATM   27  C15 UNL     1      -3.517   1.897  -0.621  1.00  0.00     0.019 C 
HETATM   28  C16 UNL     1      -2.652  -0.609  -0.727  1.00  0.00     0.019 C 
HETATM   29  C23 UNL     1      -4.798  -0.123  -0.791  1.00  0.00     0.084 C 
HETATM   30  C17 UNL     1      -2.938  -0.836   0.648  1.00  0.00    -0.035 C 
HETATM   31  C18 UNL     1      -2.434  -0.024   1.732  1.00  0.00     0.016 C 
HETATM   32  C19 UNL     1      -2.560  -2.288   1.013  1.00  0.00     0.016 C 
HETATM   33  C20 UNL     1      -4.472  -0.854   0.510  1.00  0.00     0.044 C 
HETATM   34  C21 UNL     1      -5.215  -0.280   1.623  1.00  0.00     0.148 C 
HETATM   35  S1  UNL     1      -6.805  -0.060   0.802  1.00  0.00     0.147 S 
HETATM   36  O6  UNL     1      -7.444  -1.352   0.500  1.00  0.00    -0.228 OA
HETATM   37  O7  UNL     1      -7.658   0.910   1.520  1.00  0.00    -0.228 OA
HETATM   38  C22 UNL     1      -6.024   0.669  -0.651  1.00  0.00     0.179 C 
BRANCH  29  39
HETATM   39  O8  UNL     1      -5.019  -1.051  -1.840  1.00  0.00    -0.388 OA
ATOM     40  H8  UNL     1      -5.841  -1.485  -1.641  1.00  0.00     0.210 HD
ENDBRANCH  29  39
ENDBRANCH   3  23
TORSDOF 11
