REMARK  6 active torsions:
REMARK  status: ('A' for Active; 'I' for Inactive)
REMARK    1  A    between atoms: C1_2  and  C2_4 
REMARK    2  A    between atoms: C2_4  and  N2_5 
REMARK    3  A    between atoms: C5_8  and  C6_9 
REMARK    4  A    between atoms: C7_13  and  C8_14 
REMARK    5  A    between atoms: C10_18  and  C11_19 
REMARK    6  A    between atoms: C13_21  and  N5_22 
ROOT
HETATM    1  C8  UNL     1      -1.479   0.814   0.308  1.00  0.00     0.103 A 
HETATM    2  C9  UNL     1      -1.596  -0.561   0.095  1.00  0.00     0.123 A 
HETATM    3  N4  UNL     1      -2.919  -0.843   0.172  1.00  0.00    -0.353 N 
ATOM      4  H4  UNL     1      -3.323  -1.773   0.058  1.00  0.00     0.166 HD
HETATM    5  C10 UNL     1      -3.623   0.272   0.419  1.00  0.00     0.086 A 
HETATM    6  N6  UNL     1      -2.723   1.258   0.496  1.00  0.00    -0.341 N 
ATOM      7  H6  UNL     1      -2.959   2.234   0.677  1.00  0.00     0.167 HD
ENDROOT
BRANCH   1   8
HETATM    8  C7  UNL     1      -0.223   1.561   0.312  1.00  0.00     0.200 A 
HETATM    9  O2  UNL     1      -0.167   2.859   0.515  1.00  0.00    -0.216 OA
HETATM   10  N3  UNL     1       1.083   3.218   0.457  1.00  0.00    -0.246 N 
HETATM   11  C6  UNL     1       1.843   2.138   0.213  1.00  0.00     0.108 A 
ATOM     12  H3  UNL     1       1.430   4.169   0.578  1.00  0.00     0.196 HD
HETATM   13  N7  UNL     1       1.014   1.091   0.122  1.00  0.00    -0.321 N 
ATOM     14  H7  UNL     1       1.276   0.122  -0.058  1.00  0.00     0.169 HD
BRANCH  11  15
HETATM   15  C5  UNL     1       3.324   2.035   0.057  1.00  0.00     0.058 C 
HETATM   16  C4  UNL     1       3.732   1.549  -1.281  1.00  0.00     0.042 C 
HETATM   17  C3  UNL     1       4.102   0.090  -1.368  1.00  0.00     0.273 C 
HETATM   18  N2  UNL     1       5.039  -0.104  -0.247  1.00  0.00     0.096 N 
HETATM   19  C17 UNL     1       4.253  -0.126   0.978  1.00  0.00     0.273 C 
HETATM   20  C16 UNL     1       3.917   1.326   1.238  1.00  0.00     0.042 C 
BRANCH  18  21
HETATM   21  C2  UNL     1       5.851  -1.258  -0.434  1.00  0.00     0.371 C 
BRANCH  21  22
HETATM   22  C1  UNL     1       6.947  -1.290   0.552  1.00  0.00     0.259 C 
HETATM   23  N1  UNL     1       7.870  -2.400   0.562  1.00  0.00    -0.061 NA
HETATM   24  O1  UNL     1       7.088  -0.359   1.387  1.00  0.00    -0.275 OA
ENDBRANCH  21  22
ENDBRANCH  18  21
ENDBRANCH  11  15
ENDBRANCH   1   8
BRANCH   5  25
HETATM   25  C11 UNL     1      -5.084   0.376   0.574  1.00  0.00     0.058 C 
HETATM   26  C12 UNL     1      -5.792  -0.020  -0.705  1.00  0.00     0.048 C 
HETATM   27  C13 UNL     1      -7.107  -0.571  -0.140  1.00  0.00     0.222 C 
HETATM   28  C14 UNL     1      -6.563  -1.503   0.927  1.00  0.00     0.142 C 
HETATM   29 CL1  UNL     1      -5.669  -2.807   0.122  1.00  0.00    -0.099 Cl
HETATM   30 CL2  UNL     1      -7.802  -2.096   2.023  1.00  0.00    -0.099 Cl
HETATM   31  C15 UNL     1      -5.551  -0.598   1.630  1.00  0.00     0.056 C 
BRANCH  27  32
HETATM   32  N5  UNL     1      -7.832  -1.242  -1.177  1.00  0.00    -0.072 N 
ATOM     33  H53 UNL     1      -7.983  -0.644  -1.990  1.00  0.00     0.274 HD
ATOM     34  H52 UNL     1      -7.274  -1.966  -1.630  1.00  0.00     0.274 HD
ATOM     35  H51 UNL     1      -8.707  -1.608  -0.801  1.00  0.00     0.274 HD
ENDBRANCH  27  32
ENDBRANCH   5  25
TORSDOF 6
