REMARK  9 active torsions:
REMARK  status: ('A' for Active; 'I' for Inactive)
REMARK    1  A    between atoms: C2_2  and  C3_4 
REMARK    2  A    between atoms: C3_4  and  N1_5 
REMARK    3  A    between atoms: C4_6  and  C5_7 
REMARK    4  A    between atoms: C7_10  and  O2_11 
REMARK    5  A    between atoms: C8_13  and  O3_14 
REMARK    6  A    between atoms: C9_16  and  O4_17 
REMARK    7  A    between atoms: N2_19  and  C10_20 
REMARK    8  A    between atoms: C10_20  and  C11_21 
REMARK    9  A    between atoms: C11_21  and  C12_22 
ROOT
HETATM    1  N1  UNL     1      -1.470   0.912  -0.326  1.00  0.00    -0.295 N 
HETATM    2  C4  UNL     1      -1.655  -0.275   0.206  1.00  0.00     0.099 A 
HETATM    3  C9  UNL     1      -0.391  -0.729   0.689  1.00  0.00     0.172 A 
HETATM    4  N2  UNL     1       0.510   0.217   0.417  1.00  0.00    -0.278 N 
HETATM    5  C17 UNL     1      -0.131   1.207  -0.195  1.00  0.00     0.331 A 
HETATM    6  O5  UNL     1       0.397   2.258  -0.595  1.00  0.00    -0.246 OA
ENDROOT
BRANCH   2   7
HETATM    7  C5  UNL     1      -2.813  -1.144   0.382  1.00  0.00     0.207 C 
HETATM    8  O1  UNL     1      -2.512  -2.489   0.408  1.00  0.00    -0.374 OA
HETATM    9  C6  UNL     1      -3.538  -3.201  -0.154  1.00  0.00     0.203 C 
HETATM   10  C7  UNL     1      -4.743  -2.290  -0.052  1.00  0.00     0.173 C 
HETATM   11  C8  UNL     1      -4.001  -0.965  -0.482  1.00  0.00     0.184 C 
BRANCH  10  12
HETATM   12  O2  UNL     1      -5.123  -2.220   1.266  1.00  0.00    -0.391 OA
ATOM     13  H2  UNL     1      -5.879  -1.648   1.330  1.00  0.00     0.210 HD
ENDBRANCH  10  12
BRANCH  11  14
HETATM   14  O3  UNL     1      -3.781  -1.186  -1.843  1.00  0.00    -0.390 OA
ATOM     15  H3  UNL     1      -4.544  -1.071  -2.398  1.00  0.00     0.210 HD
ENDBRANCH  11  14
ENDBRANCH   2   7
BRANCH   1  16
HETATM   16  C3  UNL     1      -2.379   1.862  -0.870  1.00  0.00     0.149 C 
BRANCH  16  17
HETATM   17  C2  UNL     1      -2.815   2.959   0.061  1.00  0.00     0.072 C 
HETATM   18  C1  UNL     1      -3.785   3.825  -0.763  1.00  0.00     0.023 C 
HETATM   19 BR1  UNL     1      -3.779   2.380   1.608  1.00  0.00    -0.090 Br
ENDBRANCH  16  17
ENDBRANCH   1  16
BRANCH   3  20
HETATM   20  O4  UNL     1      -0.117  -1.929   1.328  1.00  0.00    -0.344 OA
ATOM     21  H4  UNL     1       0.724  -2.231   1.649  1.00  0.00     0.219 HD
ENDBRANCH   3  20
BRANCH   4  22
HETATM   22  C10 UNL     1       1.937   0.154   0.749  1.00  0.00     0.136 C 
BRANCH  22  23
HETATM   23  C11 UNL     1       2.736  -0.494  -0.357  1.00  0.00     0.025 C 
BRANCH  23  24
HETATM   24  C12 UNL     1       4.171  -0.517   0.056  1.00  0.00    -0.013 C 
HETATM   25  C13 UNL     1       5.098  -1.139  -0.950  1.00  0.00     0.005 C 
HETATM   26  C14 UNL     1       6.451  -0.625  -0.508  1.00  0.00     0.000 C 
HETATM   27  C15 UNL     1       6.212   0.743   0.088  1.00  0.00     0.000 C 
HETATM   28  C16 UNL     1       4.694   0.912   0.101  1.00  0.00     0.005 C 
ENDBRANCH  23  24
ENDBRANCH  22  23
ENDBRANCH   4  22
TORSDOF 9
