REMARK  14 active torsions:
REMARK  status: ('A' for Active; 'I' for Inactive)
REMARK    1  A    between atoms: C15_16  and  O2_17 
REMARK    2  A    between atoms: O2_17  and  C16_18 
REMARK    3  A    between atoms: C16_18  and  C17_20 
REMARK    4  A    between atoms: C17_20  and  C18_21 
REMARK    5  A    between atoms: C18_21  and  N1_22 
REMARK       I    between atoms: N1_22  and  C19_23 
REMARK    6  A    between atoms: C19_23  and  C20_25 
REMARK    7  A    between atoms: C20_25  and  C21_26 
REMARK    8  A    between atoms: C21_26  and  C22_27 
REMARK    9  A    between atoms: C22_27  and  C23_28 
REMARK   10  A    between atoms: C23_28  and  C24_29 
REMARK   11  A    between atoms: C24_29  and  C25_30 
REMARK   12  A    between atoms: C25_30  and  C26_31 
REMARK       I    between atoms: N2_32  and  C27_34 
REMARK   13  A    between atoms: C27_34  and  C28_36 
REMARK   14  A    between atoms: C34_46  and  O8_47 
ROOT
HETATM    1  C28 UNL     1      13.623   2.054  -0.308  1.00  0.00     0.226 C 
HETATM    2  C29 UNL     1      13.773   1.697   1.095  1.00  0.00     0.068 C 
HETATM    3  N3  UNL     1      13.867   1.407   2.230  1.00  0.00    -0.197 NA
ENDROOT
BRANCH   1   4
HETATM    4  C27 UNL     1      13.427   0.810  -1.091  1.00  0.00     0.234 C 
HETATM    5  N2  UNL     1      12.158   0.310  -1.406  1.00  0.00    -0.340 N 
HETATM    6  C26 UNL     1      11.095   0.854  -0.945  1.00  0.00     0.064 C 
ATOM      7  H2  UNL     1      12.079  -0.504  -2.015  1.00  0.00     0.167 HD
HETATM    8  O5  UNL     1      14.422   0.156  -1.499  1.00  0.00    -0.272 OA
BRANCH   6   9
HETATM    9  C25 UNL     1       9.810   0.208  -1.365  1.00  0.00     0.044 C 
BRANCH   9  10
HETATM   10  C24 UNL     1       9.372  -0.718  -0.218  1.00  0.00     0.005 C 
BRANCH  10  11
HETATM   11  C23 UNL     1       8.088  -1.381  -0.646  1.00  0.00     0.000 C 
BRANCH  11  12
HETATM   12  C22 UNL     1       7.660  -2.345   0.447  1.00  0.00     0.001 C 
BRANCH  12  13
HETATM   13  C21 UNL     1       7.435  -1.639   1.723  1.00  0.00     0.010 C 
BRANCH  13  14
HETATM   14  C20 UNL     1       6.378  -0.627   1.743  1.00  0.00     0.119 C 
BRANCH  14  15
HETATM   15  C19 UNL     1       4.980  -1.235   1.537  1.00  0.00     0.291 C 
HETATM   16  N1  UNL     1       3.966  -0.454   1.894  1.00  0.00    -0.383 NA
HETATM   17  O4  UNL     1       4.979  -2.429   1.049  1.00  0.00    -0.257 OA
BRANCH  16  18
HETATM   18  C18 UNL     1       2.912   0.351   2.264  1.00  0.00     0.192 C 
BRANCH  18  19
HETATM   19  C17 UNL     1       2.005   0.790   1.188  1.00  0.00     0.114 C 
BRANCH  19  20
HETATM   20  C16 UNL     1       1.259  -0.140   0.379  1.00  0.00     0.286 C 
HETATM   21  O3  UNL     1       1.817  -1.039  -0.313  1.00  0.00    -0.260 OA
BRANCH  20  22
HETATM   22  O2  UNL     1      -0.122  -0.159   0.258  1.00  0.00    -0.297 OA
BRANCH  22  23
HETATM   23  C15 UNL     1      -0.915  -0.994  -0.510  1.00  0.00     0.254 C 
HETATM   24  C14 UNL     1      -1.610  -0.233  -1.637  1.00  0.00     0.049 C 
HETATM   25  C13 UNL     1      -2.710   0.645  -1.170  1.00  0.00     0.010 C 
HETATM   26  C12 UNL     1      -3.594   0.088  -0.111  1.00  0.00     0.013 C 
HETATM   27  C11 UNL     1      -3.691  -1.369  -0.022  1.00  0.00     0.116 C 
HETATM   28  C30 UNL     1      -4.954   0.755  -0.167  1.00  0.00    -0.034 C 
HETATM   29  C10 UNL     1      -4.450  -1.697   1.236  1.00  0.00     0.021 C 
HETATM   30  S1  UNL     1      -2.040  -2.051   0.325  1.00  0.00     0.176 S 
HETATM   31  C9  UNL     1      -5.773  -1.054   1.389  1.00  0.00     0.008 C 
HETATM   32  C8  UNL     1      -5.880   0.362   0.933  1.00  0.00     0.009 C 
HETATM   33  C6  UNL     1      -7.341   0.697   0.725  1.00  0.00     0.010 C 
HETATM   34  C5  UNL     1      -8.223  -0.300   1.371  1.00  0.00    -0.010 C 
HETATM   35  C7  UNL     1      -7.681   2.011   1.472  1.00  0.00     0.023 C 
HETATM   36  C34 UNL     1      -7.722   0.913  -0.697  1.00  0.00     0.079 C 
HETATM   37  C4  UNL     1      -9.487  -0.431   1.071  1.00  0.00     0.047 C 
HETATM   38  C3  UNL     1     -10.040   0.454   0.048  1.00  0.00     0.155 C 
HETATM   39  C2  UNL     1      -9.144   0.754  -1.078  1.00  0.00     0.091 C 
HETATM   40  O1  UNL     1     -11.207   0.914   0.147  1.00  0.00    -0.293 OA
HETATM   41  C1  UNL     1      -9.394  -0.342  -2.115  1.00  0.00     0.021 C 
HETATM   42  C33 UNL     1      -6.892   0.016  -1.609  1.00  0.00     0.040 C 
HETATM   43  C32 UNL     1      -5.484   0.565  -1.540  1.00  0.00     0.013 C 
HETATM   44  O6  UNL     1      -2.069  -3.434  -0.256  1.00  0.00    -0.225 OA
HETATM   45  O7  UNL     1      -1.793  -2.195   1.768  1.00  0.00    -0.225 OA
HETATM   46  C31 UNL     1      -4.585   2.250   0.009  1.00  0.00     0.016 C 
BRANCH  36  47
HETATM   47  O8  UNL     1      -7.388   2.236  -1.130  1.00  0.00    -0.388 OA
ATOM     48  H8  UNL     1      -6.476   2.338  -0.886  1.00  0.00     0.210 HD
ENDBRANCH  36  47
ENDBRANCH  22  23
ENDBRANCH  20  22
ENDBRANCH  19  20
ENDBRANCH  18  19
ENDBRANCH  16  18
ENDBRANCH  14  15
ENDBRANCH  13  14
ENDBRANCH  12  13
ENDBRANCH  11  12
ENDBRANCH  10  11
ENDBRANCH   9  10
ENDBRANCH   6   9
ENDBRANCH   1   4
TORSDOF 14
