REMARK  14 active torsions:
REMARK  status: ('A' for Active; 'I' for Inactive)
REMARK    1  A    between atoms: O1_2  and  C2_3 
REMARK    2  A    between atoms: C2_3  and  C3_4 
REMARK    3  A    between atoms: C2_3  and  C23_31 
REMARK    4  A    between atoms: C3_4  and  C4_5 
REMARK    5  A    between atoms: C5_7  and  C6_8 
REMARK    6  A    between atoms: C20_26  and  O4_27 
REMARK    7  A    between atoms: C23_31  and  C24_33 
REMARK    8  A    between atoms: C24_33  and  C25_34 
REMARK    9  A    between atoms: C24_33  and  N3_38 
REMARK   10  A    between atoms: C25_34  and  C26_35 
REMARK       I    between atoms: N3_38  and  C29_40 
REMARK   11  A    between atoms: C29_40  and  C30_42 
REMARK   12  A    between atoms: C30_42  and  C31_43 
REMARK   13  A    between atoms: C30_42  and  N4_47 
REMARK   14  A    between atoms: C31_43  and  C32_44 
REMARK       I    between atoms: N4_47  and  C35_49 
ROOT
HETATM    1  C4  UNL     1      -2.617   0.533   0.442  1.00  0.00     0.088 C 
HETATM    2  O2  UNL     1      -3.075  -0.418   1.313  1.00  0.00    -0.313 OA
HETATM    3  C5  UNL     1      -3.953  -0.449   2.353  1.00  0.00     0.069 C 
HETATM    4  C10 UNL     1      -5.294  -0.195   2.283  1.00  0.00     0.098 C 
HETATM    5  C11 UNL     1      -5.908   0.119   1.085  1.00  0.00    -0.069 C 
HETATM    6  C12 UNL     1      -6.259   0.280   0.096  1.00  0.00    -0.041 C 
HETATM    7  C13 UNL     1      -6.465   0.383  -1.283  1.00  0.00     0.118 A 
HETATM    8  N1  UNL     1      -5.404  -0.276  -1.890  1.00  0.00    -0.329 N 
ATOM      9  H1  UNL     1      -4.666  -0.763  -1.381  1.00  0.00     0.168 HD
HETATM   10  C14 UNL     1      -5.464  -0.199  -3.159  1.00  0.00     0.147 A 
HETATM   11  O3  UNL     1      -6.502   0.466  -3.458  1.00  0.00    -0.297 OA
HETATM   12  C15 UNL     1      -7.153   0.846  -2.325  1.00  0.00     0.086 A 
HETATM   13  C16 UNL     1      -8.413   1.641  -2.211  1.00  0.00     0.080 C 
HETATM   14  C17 UNL     1      -4.365  -0.859  -3.919  1.00  0.00     0.157 C 
HETATM   15  C18 UNL     1      -3.853   0.149  -4.888  1.00  0.00     0.041 C 
HETATM   16  N2  UNL     1      -3.292  -1.305  -2.976  1.00  0.00    -0.354 N 
HETATM   17  C19 UNL     1      -2.572  -2.447  -3.608  1.00  0.00     0.152 C 
HETATM   18  C20 UNL     1      -2.916  -0.880  -1.720  1.00  0.00     0.147 C 
HETATM   19  C21 UNL     1      -2.356   0.237  -0.986  1.00  0.00     0.023 C 
HETATM   20  C22 UNL     1      -2.304   1.478  -1.879  1.00  0.00     0.056 C 
ENDROOT
BRANCH   1  21
HETATM   21  C3  UNL     1      -1.520   1.408   1.003  1.00  0.00     0.079 C 
BRANCH  21  22
HETATM   22  C2  UNL     1      -0.207   0.921   1.407  1.00  0.00     0.122 C 
BRANCH  22  23
HETATM   23  O1  UNL     1      -0.055  -0.020   2.364  1.00  0.00    -0.352 OA
HETATM   24  C1  UNL     1       0.550   0.434   3.536  1.00  0.00     0.210 C 
ENDBRANCH  22  23
BRANCH  22  25
HETATM   25  C23 UNL     1       0.871   0.891   0.386  1.00  0.00     0.227 C 
HETATM   26  O5  UNL     1       0.888   1.930  -0.362  1.00  0.00    -0.283 OA
BRANCH  25  27
HETATM   27  C24 UNL     1       1.924  -0.030   0.037  1.00  0.00     0.065 C 
BRANCH  27  28
HETATM   28  C25 UNL     1       2.016  -1.350   0.652  1.00  0.00     0.065 C 
BRANCH  28  29
HETATM   29  C26 UNL     1       0.880  -2.312   0.458  1.00  0.00    -0.017 C 
HETATM   30  C27 UNL     1       0.623  -2.646  -1.001  1.00  0.00     0.010 C 
HETATM   31  C28 UNL     1       1.403  -3.644   1.055  1.00  0.00     0.010 C 
ENDBRANCH  28  29
ENDBRANCH  27  28
BRANCH  27  32
HETATM   32  N3  UNL     1       3.188   0.656  -0.089  1.00  0.00    -0.325 N 
HETATM   33  C29 UNL     1       4.442   0.203   0.259  1.00  0.00     0.244 C 
HETATM   34  O6  UNL     1       4.689  -0.898   0.767  1.00  0.00    -0.271 OA
ATOM     35  H3  UNL     1       3.148   1.595  -0.486  1.00  0.00     0.168 HD
BRANCH  33  36
HETATM   36  C30 UNL     1       5.676   1.080   0.034  1.00  0.00     0.177 C 
BRANCH  36  37
HETATM   37  C31 UNL     1       5.831   1.380  -1.406  1.00  0.00     0.038 C 
BRANCH  37  38
HETATM   38  C32 UNL     1       6.983   2.235  -1.822  1.00  0.00    -0.020 C 
HETATM   39  C33 UNL     1       6.833   2.373  -3.365  1.00  0.00     0.009 C 
HETATM   40  C34 UNL     1       8.337   1.601  -1.641  1.00  0.00     0.009 C 
ENDBRANCH  37  38
ENDBRANCH  36  37
BRANCH  36  41
HETATM   41  N4  UNL     1       6.827   0.506   0.669  1.00  0.00    -0.348 N 
HETATM   42  C35 UNL     1       7.397   1.131   1.840  1.00  0.00     0.214 C 
HETATM   43  C36 UNL     1       8.576   0.585   2.532  1.00  0.00     0.117 C 
HETATM   44  O7  UNL     1       6.854   2.170   2.261  1.00  0.00    -0.274 OA
ATOM     45  H4  UNL     1       7.244  -0.345   0.293  1.00  0.00     0.163 HD
ENDBRANCH  36  41
ENDBRANCH  33  36
ENDBRANCH  27  32
ENDBRANCH  25  27
ENDBRANCH  22  25
ENDBRANCH  21  22
ENDBRANCH   1  21
BRANCH   3  46
HETATM   46  C6  UNL     1      -3.515  -0.790   3.734  1.00  0.00    -0.001 C 
HETATM   47  C7  UNL     1      -4.730  -1.326   4.554  1.00  0.00     0.021 C 
HETATM   48  C8  UNL     1      -3.044   0.366   4.546  1.00  0.00     0.021 C 
HETATM   49  C9  UNL     1      -2.581  -1.985   3.747  1.00  0.00     0.021 C 
ENDBRANCH   3  46
BRANCH  18  50
HETATM   50  O4  UNL     1      -3.133  -1.838  -0.811  1.00  0.00    -0.346 OA
ATOM     51  H4  UNL     1      -2.874  -1.545   0.055  1.00  0.00     0.219 HD
ENDBRANCH  18  50
TORSDOF 14
