REMARK  15 active torsions:
REMARK  status: ('A' for Active; 'I' for Inactive)
REMARK    1  A    between atoms: C2_2  and  C3_3 
REMARK    2  A    between atoms: C14_15  and  C15_16 
REMARK    3  A    between atoms: C15_16  and  O2_17 
REMARK    4  A    between atoms: C15_16  and  C16_19 
REMARK    5  A    between atoms: C16_19  and  C17_20 
REMARK    6  A    between atoms: C17_20  and  C18_21 
REMARK    7  A    between atoms: C18_21  and  C19_22 
REMARK    8  A    between atoms: C25_29  and  C26_30 
REMARK    9  A    between atoms: C26_30  and  C27_31 
REMARK   10  A    between atoms: C27_31  and  C28_32 
REMARK   11  A    between atoms: C29_33  and  C31_35 
REMARK   12  A    between atoms: C31_35  and  C32_36 
REMARK   13  A    between atoms: C32_36  and  O4_37 
REMARK   14  A    between atoms: O4_37  and  C33_38 
REMARK   15  A    between atoms: C40_48  and  O8_49 
ROOT
HETATM    1  C3  UNL     1       2.743  -4.367  -0.439  1.00  0.00     0.050 C 
HETATM    2  C4  UNL     1       2.926  -3.753  -1.842  1.00  0.00     0.019 C 
HETATM    3  C5  UNL     1       1.570  -3.194  -2.216  1.00  0.00     0.080 C 
HETATM    4  C6  UNL     1       1.430  -2.008  -1.284  1.00  0.00     0.144 C 
HETATM    5  O1  UNL     1       1.951  -1.041  -1.713  1.00  0.00    -0.296 OA
HETATM    6  C7  UNL     1       0.719  -2.065   0.027  1.00  0.00     0.078 C 
HETATM    7  C8  UNL     1      -0.503  -2.878  -0.192  1.00  0.00    -0.066 C 
HETATM    8  C9  UNL     1      -0.875  -4.202   0.307  1.00  0.00     0.044 C 
HETATM    9  C10 UNL     1      -1.450  -2.314  -0.960  1.00  0.00    -0.017 C 
HETATM   10  C11 UNL     1      -1.376  -0.986  -1.587  1.00  0.00     0.022 A 
HETATM   11  C12 UNL     1      -0.486  -0.032  -0.812  1.00  0.00     0.006 A 
HETATM   12  C13 UNL     1      -1.700   0.830  -0.582  1.00  0.00     0.014 A 
HETATM   13  C14 UNL     1      -2.223   0.914   0.808  1.00  0.00     0.089 C 
HETATM   14  C21 UNL     1      -3.192  -0.222   0.930  1.00  0.00     0.134 C 
HETATM   15  O3  UNL     1      -3.551  -0.757   1.939  1.00  0.00    -0.297 OA
HETATM   16  C22 UNL     1      -3.648  -0.583  -0.461  1.00  0.00     0.089 C 
HETATM   17  C23 UNL     1      -2.563  -0.100  -1.386  1.00  0.00    -0.025 A 
HETATM   18  C24 UNL     1      -3.143   0.450  -2.669  1.00  0.00     0.016 C 
HETATM   19  C25 UNL     1       0.158  -0.655   0.341  1.00  0.00     0.026 C 
HETATM   20  C35 UNL     1       1.680  -2.514   1.024  1.00  0.00     0.027 C 
HETATM   21  C36 UNL     1       1.114  -2.981   2.314  1.00  0.00     0.188 C 
HETATM   22  O6  UNL     1       0.070  -2.637   2.809  1.00  0.00    -0.290 OA
HETATM   23  C37 UNL     1       2.043  -3.943   2.898  1.00  0.00     0.234 A 
HETATM   24  O7  UNL     1       2.334  -5.151   2.279  1.00  0.00    -0.358 OA
HETATM   25  C38 UNL     1       3.145  -4.085   1.960  1.00  0.00     0.127 A 
HETATM   26  C39 UNL     1       4.529  -3.974   2.555  1.00  0.00     0.053 C 
HETATM   27  C40 UNL     1       2.811  -3.399   0.645  1.00  0.00     0.127 C 
ENDROOT
BRANCH  19  28
HETATM   28  C26 UNL     1       1.135   0.235   0.998  1.00  0.00     0.091 C 
BRANCH  28  29
HETATM   29  C27 UNL     1       1.601   1.367   0.739  1.00  0.00    -0.155 C 
BRANCH  29  30
HETATM   30  C28 UNL     1       2.127   2.647   0.448  1.00  0.00     0.053 C 
HETATM   31  C29 UNL     1       1.950   3.494  -0.510  1.00  0.00    -0.075 C 
HETATM   32  C30 UNL     1       1.081   3.343  -1.661  1.00  0.00     0.044 C 
BRANCH  31  33
HETATM   33  C31 UNL     1       2.667   4.822  -0.415  1.00  0.00     0.061 C 
BRANCH  33  34
HETATM   34  C32 UNL     1       3.625   5.019  -1.565  1.00  0.00     0.183 C 
BRANCH  34  35
HETATM   35  O4  UNL     1       4.629   4.029  -1.584  1.00  0.00    -0.321 OA
BRANCH  35  36
HETATM   36  C33 UNL     1       5.563   3.820  -0.604  1.00  0.00     0.254 C 
HETATM   37  C34 UNL     1       6.606   2.769  -0.634  1.00  0.00     0.126 C 
HETATM   38  O5  UNL     1       5.551   4.573   0.419  1.00  0.00    -0.266 OA
ENDBRANCH  35  36
ENDBRANCH  34  35
ENDBRANCH  33  34
ENDBRANCH  31  33
ENDBRANCH  29  30
ENDBRANCH  28  29
ENDBRANCH  19  28
BRANCH  27  39
HETATM   39  O8  UNL     1       4.009  -2.665   0.353  1.00  0.00    -0.381 OA
ATOM     40  H8  UNL     1       4.053  -2.033   1.061  1.00  0.00     0.211 HD
ENDBRANCH  27  39
BRANCH   1  41
HETATM   41  C2  UNL     1       3.974  -5.257  -0.345  1.00  0.00    -0.029 C 
HETATM   42  C1  UNL     1       3.830  -6.558  -0.175  1.00  0.00     0.007 C 
ENDBRANCH   1  41
BRANCH  13  43
HETATM   43  C15 UNL     1      -2.908   2.212   1.138  1.00  0.00     0.130 C 
BRANCH  43  44
HETATM   44  O2  UNL     1      -2.073   3.312   0.970  1.00  0.00    -0.395 OA
ATOM     45  H2  UNL     1      -2.506   4.132   1.178  1.00  0.00     0.210 HD
ENDBRANCH  43  44
BRANCH  43  46
HETATM   46  C16 UNL     1      -4.286   2.379   0.562  1.00  0.00     0.032 C 
BRANCH  46  47
HETATM   47  C17 UNL     1      -4.839   3.730   0.997  1.00  0.00     0.002 C 
BRANCH  47  48
HETATM   48  C18 UNL     1      -6.212   3.944   0.451  1.00  0.00    -0.000 C 
BRANCH  48  49
HETATM   49  C19 UNL     1      -7.164   2.908   0.941  1.00  0.00    -0.005 C 
HETATM   50  C20 UNL     1      -8.564   3.190   0.368  1.00  0.00     0.005 C 
ENDBRANCH  48  49
ENDBRANCH  47  48
ENDBRANCH  46  47
ENDBRANCH  43  46
ENDBRANCH  13  43
TORSDOF 15
