REMARK  2 active torsions:
REMARK  status: ('A' for Active; 'I' for Inactive)
REMARK    1  A    between atoms: N1_5  and  N2_6 
REMARK    2  A    between atoms: C7_12  and  O1_13 
ROOT
HETATM    1  N2  UNL     1       1.826   0.061  -0.104  1.00  0.00    -0.171 N 
HETATM    2  N3  UNL     1       2.722   0.819   0.555  1.00  0.00    -0.264 N 
ATOM      3  H3  UNL     1       2.628   1.518   1.292  1.00  0.00     0.190 HD
HETATM    4  C5  UNL     1       3.784   0.327  -0.103  1.00  0.00     0.184 A 
HETATM    5  C6  UNL     1       5.186   0.589  -0.049  1.00  0.00     0.123 C 
HETATM    6  N4  UNL     1       6.334   0.821  -0.020  1.00  0.00    -0.190 NA
HETATM    7  C7  UNL     1       2.859  -0.447  -0.773  1.00  0.00     0.218 A 
ENDROOT
BRANCH   7   8
HETATM    8  O1  UNL     1       2.998  -1.399  -1.772  1.00  0.00    -0.341 OA
ATOM      9  H1  UNL     1       3.735  -1.761  -2.249  1.00  0.00     0.219 HD
ENDBRANCH   7   8
BRANCH   1  10
HETATM   10  N1  UNL     1       0.426  -0.025  -0.023  1.00  0.00    -0.305 N 
HETATM   11  C4  UNL     1      -0.181  -1.193   0.512  1.00  0.00     0.145 C 
HETATM   12  C3  UNL     1      -1.639  -1.068   0.857  1.00  0.00     0.026 C 
HETATM   13  C2  UNL     1      -2.282   0.212   0.457  1.00  0.00    -0.015 C 
HETATM   14  C1  UNL     1      -3.770   0.139   0.232  1.00  0.00     0.010 C 
HETATM   15  C9  UNL     1      -1.691   0.794  -0.820  1.00  0.00     0.026 C 
HETATM   16  C8  UNL     1      -0.282   1.153  -0.508  1.00  0.00     0.145 C 
ENDBRANCH   1  10
TORSDOF 2
