REMARK  9 active torsions:
REMARK  status: ('A' for Active; 'I' for Inactive)
REMARK       I    between atoms: N1_2  and  C2_4 
REMARK    1  A    between atoms: C2_4  and  O2_6 
REMARK    2  A    between atoms: O2_6  and  N2_7 
REMARK    3  A    between atoms: N2_7  and  C3_9 
REMARK    4  A    between atoms: C3_9  and  C4_13 
REMARK    5  A    between atoms: C4_13  and  N4_14 
REMARK    6  A    between atoms: C6_16  and  C7_17 
REMARK       I    between atoms: C7_17  and  N5_19 
REMARK    7  A    between atoms: N5_19  and  N6_21 
REMARK    8  A    between atoms: N6_21  and  C8_23 
REMARK    9  A    between atoms: C12_27  and  N7_28 
ROOT
HETATM    1  N4  UNL     1      -1.265   1.613   1.276  1.00  0.00    -0.277 N 
HETATM    2  C5  UNL     1      -0.354   0.827   0.645  1.00  0.00     0.144 A 
HETATM    3  C6  UNL     1       0.478   0.258   1.571  1.00  0.00     0.132 A 
HETATM    4  N8  UNL     1       0.066   0.703   2.764  1.00  0.00    -0.278 N 
ATOM      5  H8  UNL     1       0.477   0.464   3.666  1.00  0.00     0.184 HD
HETATM    6  N9  UNL     1      -0.976   1.513   2.568  1.00  0.00    -0.020 NA
ENDROOT
BRANCH   3   7
HETATM    7  C7  UNL     1       1.601  -0.607   1.310  1.00  0.00     0.289 C 
HETATM    8  O3  UNL     1       2.198  -1.133   2.303  1.00  0.00    -0.264 OA
HETATM    9  N5  UNL     1       2.047  -0.870  -0.038  1.00  0.00    -0.264 N 
ATOM     10  H5  UNL     1       1.549  -0.440  -0.817  1.00  0.00     0.190 HD
BRANCH   9  11
HETATM   11  N6  UNL     1       3.137  -1.693  -0.304  1.00  0.00    -0.298 N 
ATOM     12  H6  UNL     1       3.127  -2.696  -0.117  1.00  0.00     0.187 HD
BRANCH  11  13
HETATM   13  C8  UNL     1       4.278  -1.021  -0.862  1.00  0.00     0.050 A 
HETATM   14  C9  UNL     1       4.458  -0.995  -2.246  1.00  0.00     0.031 A 
HETATM   15  C10 UNL     1       5.530  -0.359  -2.791  1.00  0.00     0.005 A 
HETATM   16  C11 UNL     1       6.474   0.283  -1.990  1.00  0.00     0.036 A 
HETATM   17  C12 UNL     1       6.309   0.268  -0.617  1.00  0.00     0.105 A 
HETATM   18  C13 UNL     1       5.208  -0.388  -0.073  1.00  0.00     0.067 A 
BRANCH  17  19
HETATM   19  N7  UNL     1       7.226   0.919   0.252  1.00  0.00    -0.116 N 
HETATM   20  O4  UNL     1       8.219   1.470  -0.253  1.00  0.00    -0.532 OA
HETATM   21  O5  UNL     1       7.074   0.963   1.601  1.00  0.00    -0.532 OA
ENDBRANCH  17  19
ENDBRANCH  11  13
ENDBRANCH   9  11
ENDBRANCH   3   7
BRANCH   1  22
HETATM   22  C4  UNL     1      -2.300   2.340   0.619  1.00  0.00     0.223 C 
BRANCH  22  23
HETATM   23  C3  UNL     1      -3.547   1.492   0.584  1.00  0.00     0.115 C 
HETATM   24  N3  UNL     1      -4.551   1.817   1.383  1.00  0.00    -0.386 N 
ATOM     25  H32 UNL     1      -5.394   1.244   1.359  1.00  0.00     0.157 HD
ATOM     26  H31 UNL     1      -4.479   2.633   1.991  1.00  0.00     0.157 HD
BRANCH  23  27
HETATM   27  N2  UNL     1      -3.646   0.373  -0.249  1.00  0.00    -0.243 N 
ATOM     28  H2  UNL     1      -3.233   0.358  -1.181  1.00  0.00     0.196 HD
BRANCH  27  29
HETATM   29  O2  UNL     1      -4.339  -0.718   0.264  1.00  0.00    -0.180 OA
BRANCH  29  30
HETATM   30  C2  UNL     1      -5.714  -0.745   0.076  1.00  0.00     0.382 C 
HETATM   31  N1  UNL     1      -6.489  -1.820   0.569  1.00  0.00    -0.340 N 
HETATM   32  C1  UNL     1      -7.921  -1.802   0.353  1.00  0.00     0.151 C 
ATOM     33  H1  UNL     1      -6.048  -2.593   1.067  1.00  0.00     0.164 HD
HETATM   34  O1  UNL     1      -6.256   0.208  -0.544  1.00  0.00    -0.236 OA
ENDBRANCH  29  30
ENDBRANCH  27  29
ENDBRANCH  23  27
ENDBRANCH  22  23
ENDBRANCH   1  22
TORSDOF 9
