REMARK  6 active torsions:
REMARK  status: ('A' for Active; 'I' for Inactive)
REMARK    1  A    between atoms: C2_2  and  C3_3 
REMARK    2  A    between atoms: C7_9  and  O1_10 
REMARK    3  A    between atoms: O1_10  and  C8_11 
REMARK       I    between atoms: C8_11  and  N1_13 
REMARK    4  A    between atoms: C10_16  and  N2_17 
REMARK    5  A    between atoms: N2_17  and  S1_19 
REMARK    6  A    between atoms: S1_19  and  C11_22 
ROOT
HETATM    1  C3  UNL     1       2.726  -2.430  -0.457  1.00  0.00    -0.006 A 
HETATM    2  C4  UNL     1       3.780  -3.089   0.141  1.00  0.00     0.044 A 
HETATM    3 CL1  UNL     1       3.736  -4.844   0.388  1.00  0.00    -0.084 Cl
HETATM    4  C5  UNL     1       4.858  -2.342   0.537  1.00  0.00     0.051 A 
HETATM    5  C6  UNL     1       4.902  -0.978   0.351  1.00  0.00     0.072 A 
HETATM    6 CL2  UNL     1       6.323  -0.053   0.846  1.00  0.00    -0.081 Cl
HETATM    7  C7  UNL     1       3.839  -0.294  -0.252  1.00  0.00     0.130 A 
HETATM    8  C10 UNL     1       2.750  -1.029  -0.655  1.00  0.00     0.086 A 
ENDROOT
BRANCH   8   9
HETATM    9  N2  UNL     1       1.757  -0.424  -1.468  1.00  0.00    -0.277 N 
ATOM     10  H2  UNL     1       1.865  -0.716  -2.439  1.00  0.00     0.179 HD
BRANCH   9  11
HETATM   11  S1  UNL     1       0.488   0.603  -1.317  1.00  0.00     0.264 S 
HETATM   12  O3  UNL     1       0.916   1.995  -0.915  1.00  0.00    -0.200 OA
HETATM   13  O4  UNL     1      -0.172   0.725  -2.722  1.00  0.00    -0.200 OA
BRANCH  11  14
HETATM   14  C11 UNL     1      -0.833   0.158  -0.217  1.00  0.00     0.094 A 
HETATM   15  C12 UNL     1      -0.680  -0.783   0.758  1.00  0.00     0.076 A 
HETATM   16  S2  UNL     1      -2.170  -0.785   1.576  1.00  0.00    -0.104 SA
HETATM   17  C13 UNL     1      -2.969   0.412   0.671  1.00  0.00    -0.007 A 
HETATM   18  C14 UNL     1      -2.052   0.790  -0.256  1.00  0.00    -0.012 A 
HETATM   19  C19 UNL     1      -4.353   1.034   0.722  1.00  0.00     0.066 C 
HETATM   20  C15 UNL     1      -2.549   1.894  -1.187  1.00  0.00     0.116 C 
HETATM   21  S3  UNL     1      -4.080   1.233  -1.918  1.00  0.00    -0.155 SA
HETATM   22  C16 UNL     1      -5.138   0.691  -0.514  1.00  0.00     0.005 C 
HETATM   23  C17 UNL     1      -5.488  -0.759  -0.615  1.00  0.00     0.027 C 
HETATM   24  C18 UNL     1      -6.383   1.560  -0.508  1.00  0.00     0.027 C 
ENDBRANCH  11  14
ENDBRANCH   9  11
ENDBRANCH   8   9
BRANCH   1  25
HETATM   25  C2  UNL     1       1.658  -3.274  -1.044  1.00  0.00     0.038 C 
HETATM   26  C1  UNL     1       0.872  -4.094  -0.099  1.00  0.00     0.010 C 
ENDBRANCH   1  25
BRANCH   7  27
HETATM   27  O1  UNL     1       3.946   1.080  -0.407  1.00  0.00    -0.257 OA
BRANCH  27  28
HETATM   28  C8  UNL     1       3.925   1.920   0.724  1.00  0.00     0.365 C 
HETATM   29  O2  UNL     1       3.799   1.341   1.815  1.00  0.00    -0.238 OA
HETATM   30  N1  UNL     1       4.043   3.325   0.572  1.00  0.00    -0.341 N 
HETATM   31  C9  UNL     1       4.025   4.209   1.705  1.00  0.00     0.151 C 
ATOM     32  H1  UNL     1       4.143   3.718  -0.364  1.00  0.00     0.164 HD
ENDBRANCH  27  28
ENDBRANCH   7  27
TORSDOF 6
