REMARK  8 active torsions:
REMARK  status: ('A' for Active; 'I' for Inactive)
REMARK    1  A    between atoms: C2_2  and  C3_3 
REMARK    2  A    between atoms: C3_3  and  N1_5 
REMARK    3  A    between atoms: N1_5  and  C5_7 
REMARK    4  A    between atoms: C9_13  and  N3_14 
REMARK    5  A    between atoms: N3_14  and  C10_16 
REMARK    6  A    between atoms: C16_23  and  O1_24 
REMARK    7  A    between atoms: O1_24  and  C17_25 
REMARK    8  A    between atoms: C21_33  and  O2_34 
ROOT
HETATM    1  C10 UNL     1      -0.929   1.688  -1.443  1.00  0.00     0.070 A 
HETATM    2  C11 UNL     1      -0.882   2.524  -2.531  1.00  0.00     0.039 A 
HETATM    3  C12 UNL     1      -1.544   3.731  -2.514  1.00  0.00    -0.058 A 
HETATM    4  C13 UNL     1      -1.473   4.612  -3.708  1.00  0.00     0.048 C 
HETATM    5  C14 UNL     1      -2.251   4.077  -1.382  1.00  0.00     0.033 A 
HETATM    6  C15 UNL     1      -2.303   3.226  -0.269  1.00  0.00     0.070 A 
HETATM    7 CL1  UNL     1      -3.208   3.807   1.090  1.00  0.00    -0.081 Cl
HETATM    8  C16 UNL     1      -1.650   2.012  -0.265  1.00  0.00     0.126 A 
ENDROOT
BRANCH   1   9
HETATM    9  N3  UNL     1      -0.159   0.498  -1.497  1.00  0.00    -0.340 N 
ATOM     10  H3  UNL     1      -0.559  -0.337  -1.924  1.00  0.00     0.167 HD
BRANCH   9  11
HETATM   11  C9  UNL     1       1.033   0.451  -1.018  1.00  0.00     0.123 A 
HETATM   12  C8  UNL     1       1.577   1.586  -0.435  1.00  0.00     0.074 A 
HETATM   13  C6  UNL     1       2.855   1.535   0.079  1.00  0.00     0.026 A 
HETATM   14  N2  UNL     1       3.591   0.412   0.031  1.00  0.00    -0.196 N 
HETATM   15  C7  UNL     1       3.380   2.790   0.691  1.00  0.00     0.069 C 
HETATM   16  C5  UNL     1       3.082  -0.691  -0.526  1.00  0.00     0.680 A 
ATOM     17  H2  UNL     1       4.535   0.401   0.418  1.00  0.00     0.184 HD
HETATM   18  N6  UNL     1       1.795  -0.629  -1.041  1.00  0.00    -0.177 N 
ATOM     19  H6  UNL     1       1.411  -1.473  -1.466  1.00  0.00     0.186 HD
BRANCH  16  20
HETATM   20  N1  UNL     1       3.689  -1.794  -0.620  1.00  0.00    -0.222 N 
ATOM     21  H1  UNL     1       3.163  -2.542  -1.072  1.00  0.00     0.178 HD
BRANCH  20  22
HETATM   22  C3  UNL     1       4.978  -2.144  -0.196  1.00  0.00     0.095 C 
HETATM   23  C4  UNL     1       6.102  -1.282  -0.668  1.00  0.00     0.032 C 
BRANCH  22  24
HETATM   24  C2  UNL     1       5.030  -2.328   1.311  1.00  0.00     0.021 C 
HETATM   25  C1  UNL     1       6.350  -2.987   1.664  1.00  0.00     0.007 C 
ENDBRANCH  22  24
ENDBRANCH  20  22
ENDBRANCH  16  20
ENDBRANCH   9  11
ENDBRANCH   1   9
BRANCH   8  26
HETATM   26  O1  UNL     1      -1.696   1.174   0.793  1.00  0.00    -0.289 OA
BRANCH  26  27
HETATM   27  C17 UNL     1      -2.742   0.635   1.458  1.00  0.00     0.161 A 
HETATM   28  N4  UNL     1      -3.143   1.236   2.644  1.00  0.00    -0.332 N 
HETATM   29  C18 UNL     1      -4.147   0.812   3.390  1.00  0.00     0.182 A 
ATOM     30  H4  UNL     1      -2.629   2.058   2.959  1.00  0.00     0.168 HD
HETATM   31  N5  UNL     1      -4.856  -0.265   3.020  1.00  0.00    -0.351 N 
HETATM   32  C19 UNL     1      -4.563  -0.934   1.890  1.00  0.00     0.050 A 
ATOM     33  H5  UNL     1      -5.630  -0.582   3.605  1.00  0.00     0.166 HD
HETATM   34  C20 UNL     1      -5.317  -2.053   1.532  1.00  0.00     0.069 A 
HETATM   35  C25 UNL     1      -3.500  -0.462   1.126  1.00  0.00     0.044 A 
HETATM   36  C21 UNL     1      -5.026  -2.741   0.388  1.00  0.00     0.092 A 
HETATM   37  C23 UNL     1      -3.978  -2.278  -0.367  1.00  0.00     0.068 A 
HETATM   38 CL2  UNL     1      -3.565  -3.134  -1.853  1.00  0.00    -0.081 Cl
HETATM   39  C24 UNL     1      -3.226  -1.171  -0.022  1.00  0.00     0.045 A 
BRANCH  36  40
HETATM   40  O2  UNL     1      -5.722  -3.860  -0.041  1.00  0.00    -0.354 OA
HETATM   41  C22 UNL     1      -6.802  -4.439   0.619  1.00  0.00     0.210 C 
ENDBRANCH  36  40
ENDBRANCH  26  27
ENDBRANCH   8  26
TORSDOF 8
