REMARK  11 active torsions:
REMARK  status: ('A' for Active; 'I' for Inactive)
REMARK    1  A    between atoms: C4_4  and  C5_5 
REMARK    2  A    between atoms: C5_5  and  C6_6 
REMARK    3  A    between atoms: C7_7  and  O1_8 
REMARK    4  A    between atoms: C8_10  and  O2_11 
REMARK    5  A    between atoms: C10_14  and  O3_15 
REMARK    6  A    between atoms: C16_22  and  C17_23 
REMARK    7  A    between atoms: C17_23  and  C18_24 
REMARK    8  A    between atoms: C18_24  and  C19_25 
REMARK    9  A    between atoms: C19_25  and  O5_27 
REMARK   10  A    between atoms: O5_27  and  C20_28 
REMARK   11  A    between atoms: C20_28  and  C21_29 
ROOT
HETATM    1  C1  UNL     1      -0.103   1.158  -1.641  1.00  0.00     0.015 C 
HETATM    2  C2  UNL     1      -0.446   0.766  -0.225  1.00  0.00    -0.037 C 
HETATM    3  C3  UNL     1       0.228   1.911   0.607  1.00  0.00     0.015 C 
HETATM    4  C4  UNL     1      -1.879   0.999   0.010  1.00  0.00     0.026 C 
HETATM    5  C8  UNL     1      -2.878  -0.061  -0.171  1.00  0.00     0.126 C 
HETATM    6  C9  UNL     1      -2.424  -1.332   0.455  1.00  0.00     0.070 C 
HETATM    7  C10 UNL     1      -1.544  -2.027  -0.513  1.00  0.00     0.068 C 
HETATM    8  C11 UNL     1      -1.752  -3.518  -0.243  1.00  0.00     0.038 C 
HETATM    9  C12 UNL     1      -1.029  -3.677   1.069  1.00  0.00     0.004 C 
HETATM   10  C13 UNL     1       0.196  -2.812   0.838  1.00  0.00     0.012 C 
HETATM   11  C14 UNL     1      -0.075  -1.787  -0.235  1.00  0.00    -0.009 C 
HETATM   12  C15 UNL     1       0.662  -2.239  -1.451  1.00  0.00     0.019 C 
HETATM   13  C16 UNL     1       0.231  -0.446   0.294  1.00  0.00     0.005 C 
ENDROOT
BRANCH  13  14
HETATM   14  C17 UNL     1       1.702  -0.186   0.310  1.00  0.00     0.016 C 
BRANCH  14  15
HETATM   15  C18 UNL     1       2.643  -1.225   0.792  1.00  0.00     0.111 C 
BRANCH  15  16
HETATM   16  C19 UNL     1       4.075  -0.659   0.743  1.00  0.00     0.259 C 
HETATM   17  O4  UNL     1       4.995  -1.413   1.117  1.00  0.00    -0.265 OA
BRANCH  16  18
HETATM   18  O5  UNL     1       4.343   0.602   0.315  1.00  0.00    -0.311 OA
BRANCH  18  19
HETATM   19  C20 UNL     1       5.667   1.096   0.281  1.00  0.00     0.291 C 
BRANCH  19  20
HETATM   20  C21 UNL     1       5.700   2.502  -0.225  1.00  0.00     0.198 C 
HETATM   21  O6  UNL     1       6.777   3.136  -0.338  1.00  0.00    -0.646 OA
HETATM   22  O7  UNL     1       4.495   3.091  -0.570  1.00  0.00    -0.646 OA
ENDBRANCH  19  20
ENDBRANCH  18  19
ENDBRANCH  16  18
ENDBRANCH  15  16
ENDBRANCH  14  15
ENDBRANCH  13  14
BRANCH   4  23
HETATM   23  C5  UNL     1      -2.355   2.189  -0.799  1.00  0.00     0.037 C 
BRANCH  23  24
HETATM   24  C6  UNL     1      -3.787   2.519  -0.637  1.00  0.00    -0.002 C 
HETATM   25  C7  UNL     1      -4.181   3.648  -0.058  1.00  0.00     0.127 C 
BRANCH  25  26
HETATM   26  O1  UNL     1      -3.208   4.528   0.398  1.00  0.00    -0.373 OA
ATOM     27  H1  UNL     1      -3.490   5.335   0.812  1.00  0.00     0.216 HD
ENDBRANCH  25  26
ENDBRANCH  23  24
ENDBRANCH   4  23
BRANCH   7  28
HETATM   28  O3  UNL     1      -1.844  -1.814  -1.829  1.00  0.00    -0.389 OA
ATOM     29  H3  UNL     1      -1.280  -2.260  -2.450  1.00  0.00     0.210 HD
ENDBRANCH   7  28
BRANCH   5  30
HETATM   30  O2  UNL     1      -4.038   0.289   0.568  1.00  0.00    -0.395 OA
ATOM     31  H2  UNL     1      -4.685  -0.397   0.451  1.00  0.00     0.210 HD
ENDBRANCH   5  30
TORSDOF 11
