REMARK  16 active torsions:
REMARK  status: ('A' for Active; 'I' for Inactive)
REMARK    1  A    between atoms: C2_2  and  C3_3 
REMARK    2  A    between atoms: C3_3  and  C4_4 
REMARK    3  A    between atoms: C4_4  and  C5_5 
REMARK    4  A    between atoms: C5_5  and  C6_6 
REMARK    5  A    between atoms: C6_6  and  C7_7 
REMARK    6  A    between atoms: C7_7  and  C8_8 
REMARK    7  A    between atoms: C9_9  and  C10_10 
REMARK    8  A    between atoms: C10_10  and  C11_11 
REMARK    9  A    between atoms: C11_11  and  O1_12 
REMARK   10  A    between atoms: C12_15  and  C13_16 
REMARK   11  A    between atoms: C13_16  and  C15_18 
REMARK   12  A    between atoms: C15_18  and  O3_19 
REMARK   13  A    between atoms: C15_18  and  C16_21 
REMARK   14  A    between atoms: C16_21  and  O4_22 
REMARK   15  A    between atoms: C20_27  and  O5_28 
REMARK   16  A    between atoms: C25_34  and  O6_36 
ROOT
HETATM    1  C8  UNL     1       0.929   0.242  -0.808  1.00  0.00     0.049 C 
HETATM    2  C9  UNL     1       0.323  -0.271   0.468  1.00  0.00     0.131 C 
HETATM    3  O2  UNL     1      -0.918   0.245   0.756  1.00  0.00    -0.379 OA
HETATM    4  C12 UNL     1      -1.345   1.306   0.018  1.00  0.00     0.139 C 
HETATM    5  C22 UNL     1      -0.213   2.310   0.011  1.00  0.00     0.010 C 
HETATM    6  C23 UNL     1      -0.587   3.650  -0.560  1.00  0.00     0.020 C 
HETATM    7  C24 UNL     1       0.319   2.498   1.359  1.00  0.00     0.020 C 
HETATM    8  C25 UNL     1       0.759   1.699  -1.021  1.00  0.00     0.069 C 
HETATM    9  C26 UNL     1       1.956   2.537  -1.240  1.00  0.00     0.047 C 
ENDROOT
BRANCH   4  10
HETATM   10  C13 UNL     1      -2.691   1.853   0.336  1.00  0.00     0.043 C 
HETATM   11  C14 UNL     1      -2.879   2.315   1.761  1.00  0.00     0.015 C 
BRANCH  10  12
HETATM   12  C15 UNL     1      -3.854   1.351  -0.392  1.00  0.00     0.158 C 
BRANCH  12  13
HETATM   13  O3  UNL     1      -3.608   1.631  -1.774  1.00  0.00    -0.392 OA
ATOM     14  H3  UNL     1      -4.364   1.305  -2.247  1.00  0.00     0.210 HD
ENDBRANCH  12  13
BRANCH  12  15
HETATM   15  C16 UNL     1      -4.419   0.016  -0.325  1.00  0.00     0.086 C 
HETATM   16  C17 UNL     1      -4.969  -0.430   1.015  1.00  0.00     0.041 C 
HETATM   17  C18 UNL     1      -5.166  -1.918   1.120  1.00  0.00     0.006 C 
HETATM   18  C19 UNL     1      -5.724  -2.404  -0.200  1.00  0.00     0.032 C 
HETATM   19  C20 UNL     1      -4.778  -2.167  -1.339  1.00  0.00     0.121 C 
HETATM   20  C21 UNL     1      -3.725  -1.107  -1.038  1.00  0.00     0.072 C 
BRANCH  15  21
HETATM   21  O4  UNL     1      -5.622   0.125  -1.127  1.00  0.00    -0.387 OA
ATOM     22  H4  UNL     1      -5.992  -0.749  -1.083  1.00  0.00     0.210 HD
ENDBRANCH  15  21
BRANCH  19  23
HETATM   23  O5  UNL     1      -5.478  -1.873  -2.502  1.00  0.00    -0.395 OA
ATOM     24  H5  UNL     1      -4.879  -1.723  -3.224  1.00  0.00     0.210 HD
ENDBRANCH  19  23
ENDBRANCH  12  15
ENDBRANCH  10  12
ENDBRANCH   4  10
BRANCH   2  25
HETATM   25  C10 UNL     1       0.165  -1.779   0.508  1.00  0.00     0.058 C 
BRANCH  25  26
HETATM   26  C11 UNL     1      -0.422  -2.176   1.857  1.00  0.00     0.166 C 
BRANCH  26  27
HETATM   27  O1  UNL     1      -1.642  -1.570   2.049  1.00  0.00    -0.401 OA
ATOM     28  H1  UNL     1      -2.008  -1.818   2.890  1.00  0.00     0.209 HD
ENDBRANCH  26  27
ENDBRANCH  25  26
ENDBRANCH   2  25
BRANCH   8  29
HETATM   29  O6  UNL     1      -0.002   1.853  -2.224  1.00  0.00    -0.389 OA
ATOM     30  H6  UNL     1      -0.111   2.787  -2.361  1.00  0.00     0.210 HD
ENDBRANCH   8  29
BRANCH   1  31
HETATM   31  C7  UNL     1       2.321  -0.296  -0.945  1.00  0.00     0.010 C 
BRANCH  31  32
HETATM   32  C6  UNL     1       3.271   0.037   0.148  1.00  0.00     0.001 C 
BRANCH  32  33
HETATM   33  C5  UNL     1       4.625  -0.601  -0.195  1.00  0.00     0.000 C 
BRANCH  33  34
HETATM   34  C4  UNL     1       5.611  -0.275   0.906  1.00  0.00     0.000 C 
BRANCH  34  35
HETATM   35  C3  UNL     1       6.949  -0.877   0.618  1.00  0.00    -0.000 C 
BRANCH  35  36
HETATM   36  C2  UNL     1       6.918  -2.370   0.496  1.00  0.00    -0.005 C 
HETATM   37  C1  UNL     1       8.325  -2.850   0.206  1.00  0.00     0.005 C 
ENDBRANCH  35  36
ENDBRANCH  34  35
ENDBRANCH  33  34
ENDBRANCH  32  33
ENDBRANCH  31  32
ENDBRANCH   1  31
TORSDOF 16
