REMARK  10 active torsions:
REMARK  status: ('A' for Active; 'I' for Inactive)
REMARK    1  A    between atoms: N1_2  and  C3_4 
REMARK    2  A    between atoms: C3_4  and  C4_5 
REMARK    3  A    between atoms: C7_8  and  C8_9 
REMARK    4  A    between atoms: C8_9  and  C9_10 
REMARK    5  A    between atoms: C11_16  and  C12_17 
REMARK    6  A    between atoms: C12_17  and  C13_18 
REMARK    7  A    between atoms: C17_22  and  C18_23 
REMARK    8  A    between atoms: N4_26  and  C21_27 
REMARK    9  A    between atoms: C21_27  and  C22_28 
REMARK   10  A    between atoms: C25_31  and  C26_32 
ROOT
HETATM    1  C13 UNL     1      -2.009   0.858   0.674  1.00  0.00     0.028 A 
HETATM    2  C14 UNL     1      -0.768   1.284   0.536  1.00  0.00     0.003 A 
HETATM    3  C15 UNL     1      -0.189   2.066  -0.453  1.00  0.00     0.015 A 
HETATM    4  C16 UNL     1       1.155   2.432  -0.425  1.00  0.00     0.015 A 
HETATM    5  C17 UNL     1       1.939   2.005   0.619  1.00  0.00    -0.006 A 
HETATM    6  C34 UNL     1       1.372   1.227   1.606  1.00  0.00     0.044 A 
HETATM    7  C35 UNL     1       0.026   0.860   1.580  1.00  0.00     0.046 A 
HETATM    8  N6  UNL     1      -0.694   0.158   2.399  1.00  0.00    -0.322 N 
ATOM      9  H6  UNL     1      -0.358  -0.278   3.258  1.00  0.00     0.169 HD
HETATM   10  C36 UNL     1      -2.025   0.094   1.909  1.00  0.00     0.253 A 
HETATM   11  O1  UNL     1      -3.028  -0.469   2.376  1.00  0.00    -0.268 OA
ENDROOT
BRANCH   1  12
HETATM   12  C12 UNL     1      -3.161   1.117  -0.238  1.00  0.00     0.104 C 
BRANCH  12  13
HETATM   13  C11 UNL     1      -4.181   1.919   0.496  1.00  0.00     0.037 A 
HETATM   14  C9  UNL     1      -5.317   2.452  -0.038  1.00  0.00     0.037 A 
HETATM   15  N2  UNL     1      -5.923   3.128   0.994  1.00  0.00    -0.354 N 
HETATM   16  C10 UNL     1      -5.193   3.013   2.107  1.00  0.00     0.180 A 
ATOM     17  H2  UNL     1      -6.801   3.642   0.921  1.00  0.00     0.166 HD
HETATM   18  N3  UNL     1      -4.123   2.275   1.813  1.00  0.00    -0.354 N 
ATOM     19  H3  UNL     1      -3.382   2.018   2.465  1.00  0.00     0.166 HD
BRANCH  14  20
HETATM   20  C8  UNL     1      -5.873   2.355  -1.402  1.00  0.00     0.097 C 
BRANCH  20  21
HETATM   21  C7  UNL     1      -6.632   1.111  -1.651  1.00  0.00    -0.052 A 
HETATM   22  C6  UNL     1      -6.138  -0.042  -2.206  1.00  0.00     0.008 A 
HETATM   23  C5  UNL     1      -6.906  -1.166  -2.419  1.00  0.00     0.009 A 
HETATM   24  C4  UNL     1      -8.241  -1.205  -2.082  1.00  0.00    -0.030 A 
HETATM   25  C38 UNL     1      -8.762  -0.039  -1.515  1.00  0.00     0.009 A 
HETATM   26  C37 UNL     1      -7.996   1.084  -1.302  1.00  0.00     0.008 A 
BRANCH  24  27
HETATM   27  C3  UNL     1      -9.104  -2.379  -2.297  1.00  0.00     0.309 C 
BRANCH  27  28
HETATM   28  N1  UNL     1      -8.959  -3.319  -1.213  1.00  0.00     0.084 N 
HETATM   29  C1  UNL     1      -9.800  -4.483  -1.382  1.00  0.00     0.309 C 
HETATM   30  C2  UNL     1      -9.113  -2.705   0.079  1.00  0.00     0.309 C 
ENDBRANCH  27  28
ENDBRANCH  24  27
ENDBRANCH  20  21
ENDBRANCH  14  20
ENDBRANCH  12  13
ENDBRANCH   1  12
BRANCH   5  31
HETATM   31  C18 UNL     1       3.359   2.394   0.682  1.00  0.00     0.059 A 
HETATM   32  C19 UNL     1       4.052   3.228  -0.168  1.00  0.00     0.050 A 
HETATM   33  C20 UNL     1       5.348   3.288   0.325  1.00  0.00     0.113 A 
HETATM   34  N4  UNL     1       5.440   2.529   1.418  1.00  0.00    -0.299 N 
HETATM   35  N5  UNL     1       4.254   2.003   1.621  1.00  0.00    -0.298 N 
ATOM     36  H5  UNL     1       4.033   1.375   2.394  1.00  0.00     0.187 HD
BRANCH  34  37
HETATM   37  C21 UNL     1       6.655   2.342   2.223  1.00  0.00     0.186 C 
BRANCH  37  38
HETATM   38  C22 UNL     1       7.431   1.188   1.672  1.00  0.00    -0.038 A 
HETATM   39  C23 UNL     1       7.113  -0.103   2.030  1.00  0.00     0.010 A 
HETATM   40  C24 UNL     1       7.830  -1.193   1.523  1.00  0.00     0.013 A 
HETATM   41  C25 UNL     1       8.870  -0.981   0.652  1.00  0.00    -0.026 A 
HETATM   42  C32 UNL     1       9.179   0.313   0.302  1.00  0.00     0.013 A 
HETATM   43  C33 UNL     1       8.486   1.402   0.790  1.00  0.00     0.010 A 
BRANCH  41  44
HETATM   44  C26 UNL     1       9.625  -2.082   0.102  1.00  0.00    -0.026 A 
HETATM   45  C27 UNL     1      10.957  -1.914  -0.198  1.00  0.00     0.012 A 
HETATM   46  C28 UNL     1      11.665  -2.960  -0.729  1.00  0.00     0.001 A 
HETATM   47  C29 UNL     1      11.084  -4.174  -0.971  1.00  0.00     0.000 A 
HETATM   48  C30 UNL     1       9.735  -4.386  -0.679  1.00  0.00     0.001 A 
HETATM   49  C31 UNL     1       9.043  -3.316  -0.145  1.00  0.00     0.012 A 
ENDBRANCH  41  44
ENDBRANCH  37  38
ENDBRANCH  34  37
ENDBRANCH   5  31
TORSDOF 10
