REMARK  12 active torsions:
REMARK  status: ('A' for Active; 'I' for Inactive)
REMARK    1  A    between atoms: C2_2  and  C28_37 
REMARK    2  A    between atoms: C3_3  and  C4_4 
REMARK    3  A    between atoms: C4_4  and  C5_5 
REMARK    4  A    between atoms: C6_6  and  C7_7 
REMARK    5  A    between atoms: C7_7  and  N1_8 
REMARK    6  A    between atoms: C16_18  and  N3_19 
REMARK       I    between atoms: N3_19  and  C17_21 
REMARK    7  A    between atoms: N5_23  and  C18_25 
REMARK    8  A    between atoms: C18_25  and  C19_26 
REMARK    9  A    between atoms: C19_26  and  C20_27 
REMARK   10  A    between atoms: C23_32  and  C24_33 
REMARK   11  A    between atoms: C28_37  and  C29_38 
REMARK   12  A    between atoms: C29_38  and  N7_39 
ROOT
HETATM    1  C5  UNL     1      -0.163  -0.035   0.983  1.00  0.00    -0.020 A 
HETATM    2  C6  UNL     1       0.123   1.183   0.289  1.00  0.00    -0.001 A 
HETATM    3  C15 UNL     1       1.382   1.424  -0.192  1.00  0.00     0.062 A 
HETATM    4  C16 UNL     1       2.356   0.468   0.015  1.00  0.00     0.108 A 
HETATM    5  N6  UNL     1       2.062  -0.654   0.665  1.00  0.00    -0.345 N 
ATOM      6  H6  UNL     1       2.810  -1.335   0.797  1.00  0.00     0.167 HD
HETATM    7  C23 UNL     1       0.825  -0.961   1.171  1.00  0.00     0.026 A 
ENDROOT
BRANCH   1   8
HETATM    8  C4  UNL     1      -1.527  -0.226   1.439  1.00  0.00     0.068 C 
BRANCH   8   9
HETATM    9  C3  UNL     1      -2.533  -0.702   0.461  1.00  0.00    -0.020 C 
HETATM   10  C2  UNL     1      -3.522  -1.514   0.791  1.00  0.00    -0.086 C 
HETATM   11  C1  UNL     1      -3.780  -2.057   2.146  1.00  0.00     0.043 C 
BRANCH  10  12
HETATM   12  C28 UNL     1      -4.488  -1.941  -0.274  1.00  0.00     0.053 C 
BRANCH  12  13
HETATM   13  C29 UNL     1      -5.903  -1.491   0.112  1.00  0.00     0.137 C 
BRANCH  13  14
HETATM   14  N7  UNL     1      -6.855  -1.891  -0.901  1.00  0.00    -0.309 N 
HETATM   15  C30 UNL     1      -7.169  -1.112  -1.948  1.00  0.00     0.101 A 
HETATM   16  C31 UNL     1      -8.086  -1.571  -2.869  1.00  0.00     0.092 A 
HETATM   17  C32 UNL     1      -8.690  -2.822  -2.732  1.00  0.00     0.250 A 
HETATM   18  O1  UNL     1      -9.532  -3.223  -3.592  1.00  0.00    -0.268 OA
HETATM   19  N8  UNL     1      -8.335  -3.550  -1.667  1.00  0.00    -0.275 N 
HETATM   20  C33 UNL     1      -7.440  -3.096  -0.774  1.00  0.00     0.329 A 
ATOM     21  H8  UNL     1      -8.753  -4.470  -1.530  1.00  0.00     0.173 HD
HETATM   22  O2  UNL     1      -7.173  -3.867   0.200  1.00  0.00    -0.246 OA
ENDBRANCH  13  14
ENDBRANCH  12  13
ENDBRANCH  10  12
ENDBRANCH   8   9
ENDBRANCH   1   8
BRANCH   2  23
HETATM   23  C7  UNL     1      -0.934   2.170   0.183  1.00  0.00     0.214 C 
BRANCH  23  24
HETATM   24  N1  UNL     1      -0.766   3.402  -0.494  1.00  0.00    -0.041 N 
HETATM   25  C8  UNL     1       0.146   4.349   0.100  1.00  0.00     0.271 C 
HETATM   26  C9  UNL     1      -0.417   5.783  -0.082  1.00  0.00     0.265 C 
HETATM   27  N2  UNL     1      -1.001   5.752  -1.417  1.00  0.00    -0.066 N 
HETATM   28  C10 UNL     1      -0.979   7.062  -1.964  1.00  0.00     0.272 C 
HETATM   29  C11 UNL     1      -2.333   5.193  -1.216  1.00  0.00     0.265 C 
HETATM   30  C13 UNL     1      -0.280   4.841  -2.312  1.00  0.00     0.265 C 
HETATM   31  C12 UNL     1      -2.167   4.016  -0.321  1.00  0.00     0.271 C 
HETATM   32  C14 UNL     1      -0.622   3.397  -1.906  1.00  0.00     0.271 C 
ENDBRANCH  23  24
ENDBRANCH   2  23
BRANCH   7  33
HETATM   33  C24 UNL     1       0.614  -2.230   1.875  1.00  0.00    -0.008 C 
HETATM   34  C25 UNL     1       1.998  -2.942   1.887  1.00  0.00     0.021 C 
HETATM   35  C26 UNL     1      -0.217  -3.251   1.105  1.00  0.00     0.021 C 
HETATM   36  C27 UNL     1       0.305  -2.169   3.328  1.00  0.00     0.021 C 
ENDBRANCH   7  33
BRANCH   4  37
HETATM   37  N3  UNL     1       3.516   0.725  -0.440  1.00  0.00    -0.317 N 
HETATM   38  C17 UNL     1       4.683  -0.080  -0.364  1.00  0.00     0.193 C 
HETATM   39  N4  UNL     1       5.249  -0.444  -1.623  1.00  0.00    -0.063 NA
HETATM   40  N5  UNL     1       5.204  -0.460   0.707  1.00  0.00    -0.344 N 
ATOM     41  H5  UNL     1       4.674  -0.111   1.505  1.00  0.00     0.167 HD
ATOM     42  H3  UNL     1       3.620   1.620  -0.918  1.00  0.00     0.170 HD
BRANCH  40  43
HETATM   43  C18 UNL     1       6.286  -1.213   1.135  1.00  0.00     0.064 C 
BRANCH  43  44
HETATM   44  C19 UNL     1       7.109  -1.760  -0.002  1.00  0.00     0.048 C 
BRANCH  44  45
HETATM   45  C20 UNL     1       8.286  -2.583   0.525  1.00  0.00    -0.018 C 
HETATM   46  C21 UNL     1       7.748  -3.736   1.347  1.00  0.00     0.010 C 
HETATM   47  C22 UNL     1       9.023  -3.144  -0.652  1.00  0.00     0.010 C 
ENDBRANCH  44  45
ENDBRANCH  43  44
ENDBRANCH  40  43
ENDBRANCH   4  37
TORSDOF 12
