REMARK  17 active torsions:
REMARK  status: ('A' for Active; 'I' for Inactive)
REMARK       I    between atoms: C2_2  and  N1_4 
REMARK    1  A    between atoms: N1_4  and  C3_5 
REMARK    2  A    between atoms: C3_5  and  C5_7 
REMARK    3  A    between atoms: C3_5  and  C12_15 
REMARK    4  A    between atoms: C5_7  and  C6_8 
REMARK    5  A    between atoms: C7_9  and  C8_10 
REMARK    6  A    between atoms: C8_10  and  N2_11 
REMARK       I    between atoms: C12_15  and  N3_17 
REMARK    7  A    between atoms: N3_17  and  C13_18 
REMARK    8  A    between atoms: C13_18  and  C14_19 
REMARK    9  A    between atoms: C14_19  and  N4_20 
REMARK   10  A    between atoms: C18_24  and  C19_25 
REMARK       I    between atoms: C19_25  and  N5_26 
REMARK   11  A    between atoms: C21_31  and  C22_32 
REMARK   12  A    between atoms: C22_32  and  O4_33 
REMARK   13  A    between atoms: N6_35  and  C23_37 
REMARK   14  A    between atoms: C23_37  and  C24_38 
REMARK   15  A    between atoms: C32_46  and  C33_47 
REMARK   16  A    between atoms: C33_47  and  C34_49 
REMARK   17  A    between atoms: C35_50  and  C36_51 
ROOT
HETATM    1  N4  UNL     1       0.321   0.693  -0.481  1.00  0.00    -0.053 N 
HETATM    2  C15 UNL     1      -0.085   1.897   0.110  1.00  0.00     0.274 C 
HETATM    3  C16 UNL     1       0.117  -0.399   0.494  1.00  0.00     0.243 C 
HETATM    4  C17 UNL     1       0.729  -1.685   0.008  1.00  0.00     0.068 C 
HETATM    5  C18 UNL     1       0.107  -2.055  -1.313  1.00  0.00    -0.009 C 
HETATM    6  C20 UNL     1       0.089  -0.931  -2.269  1.00  0.00     0.082 C 
HETATM    7  C21 UNL     1      -0.440   0.412  -1.675  1.00  0.00     0.268 C 
ENDROOT
BRANCH   7   8
HETATM    8  C22 UNL     1      -1.881   0.300  -1.629  1.00  0.00     0.143 C 
HETATM    9  N6  UNL     1      -2.939   0.157  -0.813  1.00  0.00    -0.372 N 
ATOM     10  H6  UNL     1      -2.733   0.178   0.186  1.00  0.00     0.161 HD
BRANCH   8  11
HETATM   11  O4  UNL     1      -2.376   0.314  -2.969  1.00  0.00    -0.348 OA
ATOM     12  H4  UNL     1      -3.323   0.240  -2.939  1.00  0.00     0.219 HD
ENDBRANCH   8  11
BRANCH   9  13
HETATM   13  C23 UNL     1      -4.328  -0.022  -1.161  1.00  0.00     0.131 C 
BRANCH  13  14
HETATM   14  C24 UNL     1      -5.199  -0.461  -0.019  1.00  0.00    -0.012 C 
HETATM   15  C25 UNL     1      -5.273   0.502   1.075  1.00  0.00     0.016 C 
HETATM   16  C26 UNL     1      -6.005  -0.090   2.266  1.00  0.00    -0.013 C 
HETATM   17  C27 UNL     1      -5.328  -1.345   2.782  1.00  0.00     0.009 C 
HETATM   18  C31 UNL     1      -7.376  -0.512   1.809  1.00  0.00     0.010 C 
HETATM   19  C28 UNL     1      -5.302  -2.342   1.640  1.00  0.00    -0.013 C 
HETATM   20  C29 UNL     1      -6.696  -2.740   1.173  1.00  0.00     0.010 C 
HETATM   21  C39 UNL     1      -4.496  -1.755   0.539  1.00  0.00     0.016 C 
HETATM   22  C30 UNL     1      -7.342  -1.466   0.661  1.00  0.00    -0.001 C 
HETATM   23  C32 UNL     1      -6.515  -1.017  -0.529  1.00  0.00     0.083 C 
BRANCH  23  24
HETATM   24  C33 UNL     1      -7.252  -0.165  -1.442  1.00  0.00     0.207 C 
HETATM   25  O5  UNL     1      -7.449  -0.488  -2.669  1.00  0.00    -0.283 OA
BRANCH  24  26
HETATM   26  C34 UNL     1      -7.840   1.116  -1.080  1.00  0.00    -0.028 C 
HETATM   27  C35 UNL     1      -8.366   2.161  -0.765  1.00  0.00    -0.094 C 
BRANCH  27  28
HETATM   28  C36 UNL     1      -9.049   3.419  -0.349  1.00  0.00     0.057 C 
HETATM   29  C37 UNL     1     -10.318   3.563  -1.160  1.00  0.00     0.023 C 
HETATM   30  C38 UNL     1      -8.075   4.535  -0.524  1.00  0.00     0.023 C 
ENDBRANCH  27  28
ENDBRANCH  24  26
ENDBRANCH  23  24
ENDBRANCH  13  14
ENDBRANCH   9  13
ENDBRANCH   7   8
BRANCH   1  31
HETATM   31  C14 UNL     1       1.719   0.703  -0.806  1.00  0.00     0.297 C 
BRANCH  31  32
HETATM   32  C13 UNL     1       2.736   0.929   0.282  1.00  0.00     0.187 C 
BRANCH  32  33
HETATM   33  N3  UNL     1       3.905   0.436  -0.157  1.00  0.00    -0.383 NA
HETATM   34  C12 UNL     1       5.134  -0.048  -0.651  1.00  0.00     0.333 C 
HETATM   35  O2  UNL     1       5.896   0.280  -1.446  1.00  0.00    -0.253 OA
BRANCH  34  36
HETATM   36  C3  UNL     1       5.441  -1.442   0.094  1.00  0.00     0.190 C 
HETATM   37  C4  UNL     1       4.966  -1.281   1.472  1.00  0.00     0.067 C 
BRANCH  36  38
HETATM   38  N1  UNL     1       4.784  -2.355  -0.754  1.00  0.00    -0.393 NA
HETATM   39  C2  UNL     1       4.161  -3.225  -1.558  1.00  0.00     0.283 C 
HETATM   40  C1  UNL     1       3.627  -2.669  -2.897  1.00  0.00     0.134 C 
HETATM   41  O1  UNL     1       3.947  -4.466  -1.354  1.00  0.00    -0.258 OA
ENDBRANCH  36  38
BRANCH  36  42
HETATM   42  C5  UNL     1       6.913  -1.696   0.002  1.00  0.00     0.083 C 
BRANCH  42  43
HETATM   43  C6  UNL     1       7.748  -0.808   0.831  1.00  0.00    -0.025 C 
HETATM   44  C7  UNL     1       8.686  -0.055   0.429  1.00  0.00    -0.003 C 
BRANCH  44  45
HETATM   45  C8  UNL     1       9.438   0.802   1.499  1.00  0.00     0.263 C 
BRANCH  45  46
HETATM   46  N2  UNL     1       9.335   2.179   1.125  1.00  0.00    -0.075 N 
HETATM   47  C9  UNL     1       8.410   2.369   0.019  1.00  0.00     0.272 C 
HETATM   48  C10 UNL     1      10.635   2.655   0.720  1.00  0.00     0.272 C 
HETATM   49  C11 UNL     1       8.942   3.004   2.266  1.00  0.00     0.272 C 
ENDBRANCH  45  46
ENDBRANCH  44  45
ENDBRANCH  42  43
ENDBRANCH  36  42
ENDBRANCH  34  36
ENDBRANCH  32  33
ENDBRANCH  31  32
ENDBRANCH   1  31
BRANCH   5  50
HETATM   50  C19 UNL     1      -1.109  -2.872  -1.226  1.00  0.00     0.241 C 
HETATM   51  N5  UNL     1      -1.364  -3.755  -0.199  1.00  0.00    -0.366 N 
ATOM     52  H52 UNL     1      -0.675  -3.855   0.546  1.00  0.00     0.159 HD
ATOM     53  H51 UNL     1      -2.209  -4.323  -0.139  1.00  0.00     0.159 HD
HETATM   54  O3  UNL     1      -1.962  -2.748  -2.148  1.00  0.00    -0.269 OA
ENDBRANCH   5  50
TORSDOF 17
