REMARK  2 active torsions:
REMARK  status: ('A' for Active; 'I' for Inactive)
REMARK    1  A    between atoms: N1_2  and  C2_4 
REMARK    2  A    between atoms: C10_14  and  C11_15 
ROOT
HETATM    1  C2  UNL     1       1.720  -0.332  -0.517  1.00  0.00     0.148 C 
HETATM    2  C3  UNL     1       0.550  -0.911   0.292  1.00  0.00     0.255 C 
HETATM    3  C4  UNL     1      -0.248  -1.939  -0.434  1.00  0.00     0.038 C 
HETATM    4  C5  UNL     1      -0.907  -1.514  -1.689  1.00  0.00     0.009 C 
HETATM    5  C6  UNL     1      -2.275  -0.918  -1.513  1.00  0.00     0.009 C 
HETATM    6  C7  UNL     1      -2.242  -0.041  -0.308  1.00  0.00     0.043 C 
HETATM    7  C8  UNL     1      -2.396  -0.738   0.996  1.00  0.00     0.120 C 
HETATM    8  N2  UNL     1      -2.357  -2.149   0.822  1.00  0.00    -0.420 N 
ATOM      9  H2  UNL     1      -3.195  -2.724   0.909  1.00  0.00     0.153 HD
HETATM   10  C9  UNL     1      -1.084  -2.719   0.520  1.00  0.00     0.120 C 
HETATM   11  C10 UNL     1      -1.010   0.860  -0.338  1.00  0.00     0.293 C 
HETATM   12  N5  UNL     1       0.052   0.371   0.423  1.00  0.00     0.118 N 
HETATM   13  C12 UNL     1       1.377   0.895   0.281  1.00  0.00     0.176 C 
HETATM   14  C13 UNL     1       1.536   2.192  -0.459  1.00  0.00     0.051 C 
HETATM   15  C14 UNL     1       2.065   0.970   1.634  1.00  0.00     0.051 C 
ENDROOT
BRANCH  11  16
HETATM   16  C11 UNL     1      -1.484   2.126   0.235  1.00  0.00     0.121 C 
HETATM   17  N3  UNL     1      -1.247   2.451   1.439  1.00  0.00    -0.389 N 
ATOM     18  H32 UNL     1      -0.671   1.851   2.029  1.00  0.00     0.157 HD
ATOM     19  H31 UNL     1      -1.576   3.330   1.837  1.00  0.00     0.157 HD
HETATM   20  N4  UNL     1      -2.297   2.973  -0.597  1.00  0.00    -0.086 NA
ENDBRANCH  11  16
BRANCH   1  21
HETATM   21  N1  UNL     1       2.887  -1.060  -0.254  1.00  0.00    -0.417 N 
HETATM   22  C1  UNL     1       4.106  -0.435   0.013  1.00  0.00     0.140 C 
ATOM     23  H1  UNL     1       2.845  -2.079  -0.258  1.00  0.00     0.153 HD
ENDBRANCH   1  21
TORSDOF 2
