REMARK  10 active torsions:
REMARK  status: ('A' for Active; 'I' for Inactive)
REMARK    1  A    between atoms: C6_6  and  C8_8 
REMARK    2  A    between atoms: C8_8  and  O1_9 
REMARK    3  A    between atoms: C14_16  and  C15_17 
REMARK    4  A    between atoms: C15_17  and  C16_18 
REMARK    5  A    between atoms: C16_18  and  C17_19 
REMARK    6  A    between atoms: C17_19  and  C19_21 
REMARK    7  A    between atoms: C20_23  and  O3_24 
REMARK    8  A    between atoms: C21_26  and  C22_27 
REMARK    9  A    between atoms: C22_27  and  C23_28 
REMARK   10  A    between atoms: C27_33  and  O4_34 
ROOT
HETATM    1  C23 UNL     1       7.392   0.056  -0.075  1.00  0.00    -0.004 C 
HETATM    2  C24 UNL     1       8.506   0.373   0.501  1.00  0.00     0.015 C 
HETATM    3  C25 UNL     1       9.178   1.654   0.081  1.00  0.00     0.060 C 
HETATM    4  C26 UNL     1       9.143  -0.410   1.504  1.00  0.00     0.094 C 
HETATM    5  N1  UNL     1       9.666  -1.043   2.352  1.00  0.00    -0.192 NA
ENDROOT
BRANCH   1   6
HETATM    6  C22 UNL     1       6.518  -1.104   0.109  1.00  0.00     0.075 C 
BRANCH   6   7
HETATM    7  C21 UNL     1       5.098  -0.778   0.388  1.00  0.00     0.039 A 
HETATM    8  C20 UNL     1       4.388  -0.639   1.542  1.00  0.00     0.193 A 
HETATM    9  O2  UNL     1       3.164  -0.269   1.269  1.00  0.00    -0.289 OA
HETATM   10  C19 UNL     1       3.010  -0.144  -0.046  1.00  0.00     0.093 A 
HETATM   11  C27 UNL     1       4.185  -0.454  -0.645  1.00  0.00     0.109 A 
BRANCH   8  12
HETATM   12  O3  UNL     1       4.905  -0.867   2.830  1.00  0.00    -0.340 OA
ATOM     13  H3  UNL     1       5.794  -1.136   3.028  1.00  0.00     0.220 HD
ENDBRANCH   8  12
BRANCH  10  14
HETATM   14  C17 UNL     1       1.769   0.290  -0.689  1.00  0.00     0.042 C 
HETATM   15  C18 UNL     1       1.700   0.189  -2.159  1.00  0.00     0.017 C 
BRANCH  14  16
HETATM   16  C16 UNL     1       0.559  -0.260   0.055  1.00  0.00     0.015 C 
BRANCH  16  17
HETATM   17  C15 UNL     1      -0.724   0.456  -0.349  1.00  0.00     0.036 C 
BRANCH  17  18
HETATM   18  C14 UNL     1      -1.916  -0.181   0.258  1.00  0.00    -0.066 C 
HETATM   19  C2  UNL     1      -1.951  -0.158   1.696  1.00  0.00    -0.064 C 
HETATM   20  C1  UNL     1      -1.298   0.535   2.581  1.00  0.00     0.019 C 
HETATM   21  C3  UNL     1      -2.983  -1.151   2.253  1.00  0.00     0.038 C 
HETATM   22  C4  UNL     1      -4.260  -0.477   1.803  1.00  0.00     0.011 C 
HETATM   23  C5  UNL     1      -4.432  -0.362   0.321  1.00  0.00     0.008 C 
HETATM   24  C6  UNL     1      -5.655   0.464   0.078  1.00  0.00    -0.018 C 
HETATM   25  C12 UNL     1      -3.226   0.059  -0.464  1.00  0.00    -0.016 C 
HETATM   26  C7  UNL     1      -6.609   0.279   1.283  1.00  0.00     0.018 C 
HETATM   27  C9  UNL     1      -5.465   1.929  -0.043  1.00  0.00     0.012 C 
HETATM   28  C10 UNL     1      -4.042   2.401  -0.129  1.00  0.00     0.002 C 
HETATM   29  C11 UNL     1      -3.331   1.448  -1.044  1.00  0.00     0.014 C 
HETATM   30  C13 UNL     1      -3.170  -0.863  -1.704  1.00  0.00     0.020 C 
BRANCH  24  31
HETATM   31  C8  UNL     1      -6.534  -0.080  -1.059  1.00  0.00     0.173 C 
BRANCH  31  32
HETATM   32  O1  UNL     1      -6.987  -1.356  -0.809  1.00  0.00    -0.400 OA
ATOM     33  H1  UNL     1      -7.530  -1.692  -1.512  1.00  0.00     0.209 HD
ENDBRANCH  31  32
ENDBRANCH  24  31
ENDBRANCH  17  18
ENDBRANCH  16  17
ENDBRANCH  14  16
ENDBRANCH  10  14
BRANCH  11  34
HETATM   34  O4  UNL     1       4.597  -0.511  -1.986  1.00  0.00    -0.353 OA
HETATM   35  C28 UNL     1       4.586  -1.748  -2.697  1.00  0.00     0.210 C 
ENDBRANCH  11  34
ENDBRANCH   6   7
ENDBRANCH   1   6
TORSDOF 10
