REMARK  1 active torsions:
REMARK  status: ('A' for Active; 'I' for Inactive)
REMARK    1  A    between atoms: C1_2  and  C2_4 
ROOT
HETATM    1  C2  UNL     1       2.170  -0.483  -0.164  1.00  0.00     0.157 C 
HETATM    2  C3  UNL     1       1.619   0.358  -1.285  1.00  0.00     0.100 C 
HETATM    3  S1  UNL     1       0.228   1.398  -0.712  1.00  0.00    -0.154 SA
HETATM    4  C4  UNL     1      -0.965   0.289   0.072  1.00  0.00     0.040 C 
HETATM    5  C5  UNL     1      -2.276   1.016   0.385  1.00  0.00     0.049 C 
HETATM    6  C6  UNL     1      -3.186  -0.215   0.457  1.00  0.00     0.169 C 
HETATM    7  O3  UNL     1      -2.789  -1.007  -0.589  1.00  0.00    -0.389 OA
HETATM    8  C7  UNL     1      -1.478  -0.761  -0.883  1.00  0.00     0.189 C 
HETATM    9  C8  UNL     1      -0.403  -0.299   1.337  1.00  0.00     0.097 C 
HETATM   10  S2  UNL     1       1.395  -0.098   1.423  1.00  0.00    -0.151 SA
ENDROOT
BRANCH   1  11
HETATM   11  C1  UNL     1       3.618  -0.235  -0.076  1.00  0.00     0.188 C 
HETATM   12  O1  UNL     1       4.447  -1.194  -0.231  1.00  0.00    -0.647 OA
HETATM   13  O2  UNL     1       4.130   1.019   0.172  1.00  0.00    -0.647 OA
ENDBRANCH   1  11
TORSDOF 1
