REMARK  7 active torsions:
REMARK  status: ('A' for Active; 'I' for Inactive)
REMARK    1  A    between atoms: C2_2  and  O1_3 
REMARK    2  A    between atoms: O1_3  and  C3_4 
REMARK    3  A    between atoms: C3_4  and  C4_6 
REMARK    4  A    between atoms: C7_9  and  O3_10 
REMARK    5  A    between atoms: C10_16  and  C11_17 
REMARK    6  A    between atoms: C11_17  and  C12_19 
REMARK    7  A    between atoms: C12_19  and  C13_20 
ROOT
HETATM    1  C4  UNL     1      -3.501  -1.066   0.127  1.00  0.00     0.054 C 
HETATM    2  C5  UNL     1      -4.929  -1.590  -0.106  1.00  0.00     0.027 C 
HETATM    3  C6  UNL     1      -3.155  -1.376   1.545  1.00  0.00     0.054 C 
HETATM    4  C7  UNL     1      -1.724  -1.530   1.864  1.00  0.00     0.153 C 
HETATM    5  C8  UNL     1      -0.744  -1.229   0.809  1.00  0.00     0.190 C 
HETATM    6  O4  UNL     1      -0.060   0.017   1.062  1.00  0.00    -0.308 OA
HETATM    7  C9  UNL     1       0.844   0.657   0.180  1.00  0.00     0.266 C 
HETATM    8  O5  UNL     1       0.940   1.907   0.234  1.00  0.00    -0.265 OA
HETATM    9  C10 UNL     1       1.657  -0.125  -0.783  1.00  0.00     0.123 C 
HETATM   10  C17 UNL     1       0.840  -0.523  -1.974  1.00  0.00     0.045 C 
HETATM   11  C18 UNL     1      -0.520  -0.976  -1.668  1.00  0.00    -0.020 C 
HETATM   12  C19 UNL     1      -1.219  -1.277  -0.579  1.00  0.00    -0.047 C 
HETATM   13  C20 UNL     1      -2.607  -1.695  -0.880  1.00  0.00     0.031 C 
HETATM   14  C21 UNL     1      -2.754  -3.200  -0.939  1.00  0.00     0.016 C 
ENDROOT
BRANCH   9  15
HETATM   15  C11 UNL     1       2.823   0.716  -1.245  1.00  0.00     0.186 C 
HETATM   16  F1  UNL     1       3.591   0.020  -2.182  1.00  0.00    -0.248 F 
BRANCH  15  17
HETATM   17  C12 UNL     1       3.733   0.942  -0.029  1.00  0.00     0.073 C 
BRANCH  17  18
HETATM   18  C13 UNL     1       4.934   1.779  -0.385  1.00  0.00     0.159 A 
HETATM   19  O6  UNL     1       5.735   1.127  -1.425  1.00  0.00    -0.370 OA
HETATM   20  C14 UNL     1       6.320   1.242  -0.175  1.00  0.00     0.080 A 
HETATM   21  C15 UNL     1       6.449   0.005   0.678  1.00  0.00     0.048 C 
HETATM   22  C16 UNL     1       7.400   2.310   0.004  1.00  0.00     0.048 C 
ENDBRANCH  17  18
ENDBRANCH  15  17
ENDBRANCH   9  15
BRANCH   4  23
HETATM   23  O3  UNL     1      -1.469  -2.806   2.432  1.00  0.00    -0.393 OA
ATOM     24  H3  UNL     1      -0.547  -2.905   2.638  1.00  0.00     0.210 HD
ENDBRANCH   4  23
BRANCH   1  25
HETATM   25  C3  UNL     1      -3.558   0.389  -0.100  1.00  0.00     0.268 C 
HETATM   26  O2  UNL     1      -2.869   0.911  -0.994  1.00  0.00    -0.264 OA
BRANCH  25  27
HETATM   27  O1  UNL     1      -4.374   1.182   0.679  1.00  0.00    -0.321 OA
BRANCH  27  28
HETATM   28  C2  UNL     1      -4.445   2.601   0.476  1.00  0.00     0.174 C 
HETATM   29  C1  UNL     1      -5.435   3.125   1.507  1.00  0.00     0.034 C 
ENDBRANCH  27  28
ENDBRANCH  25  27
ENDBRANCH   1  25
TORSDOF 7
