REMARK  9 active torsions:
REMARK  status: ('A' for Active; 'I' for Inactive)
REMARK    1  A    between atoms: O1_2  and  C2_3 
REMARK    2  A    between atoms: C2_3  and  C3_4 
REMARK    3  A    between atoms: N1_6  and  C5_7 
REMARK    4  A    between atoms: C11_15  and  C12_16 
REMARK    5  A    between atoms: C12_16  and  O3_17 
REMARK    6  A    between atoms: C12_16  and  C13_19 
REMARK    7  A    between atoms: C13_19  and  O4_20 
REMARK    8  A    between atoms: C15_23  and  N2_24 
REMARK    9  A    between atoms: C16_27  and  C17_28 
ROOT
HETATM    1  C3  UNL     1       0.770   2.702  -1.023  1.00  0.00     0.017 A 
HETATM    2  C4  UNL     1      -0.436   2.124  -0.854  1.00  0.00     0.104 A 
HETATM    3  N1  UNL     1      -0.227   0.825  -0.525  1.00  0.00    -0.345 N 
HETATM    4  C14 UNL     1       1.080   0.525  -0.482  1.00  0.00     0.097 A 
HETATM    5  C15 UNL     1       1.874  -0.608  -0.239  1.00  0.00     0.069 A 
HETATM    6  C16 UNL     1       3.239  -0.488  -0.293  1.00  0.00     0.027 A 
HETATM    7  C23 UNL     1       3.820   0.754  -0.598  1.00  0.00     0.157 A 
HETATM    8  O5  UNL     1       3.036   1.774  -0.828  1.00  0.00    -0.319 OA
HETATM    9  C24 UNL     1       1.749   1.721  -0.793  1.00  0.00     0.114 A 
ENDROOT
BRANCH   3  10
HETATM   10  C5  UNL     1      -1.257  -0.081  -0.098  1.00  0.00     0.123 C 
HETATM   11  C6  UNL     1      -1.186  -0.581   1.327  1.00  0.00     0.051 C 
HETATM   12  C7  UNL     1      -2.074  -1.797   1.341  1.00  0.00     0.118 C 
HETATM   13 CL1  UNL     1      -2.573  -2.296   2.975  1.00  0.00    -0.122 Cl
HETATM   14  C8  UNL     1      -3.145  -1.791   0.338  1.00  0.00     0.071 C 
HETATM   15  C9  UNL     1      -2.957  -2.886  -0.729  1.00  0.00     0.047 C 
HETATM   16  C10 UNL     1      -4.436  -2.237   1.084  1.00  0.00     0.047 C 
HETATM   17  O2  UNL     1      -3.512  -0.671  -0.331  1.00  0.00    -0.369 OA
HETATM   18  C11 UNL     1      -2.665   0.443  -0.160  1.00  0.00     0.176 C 
BRANCH  18  19
HETATM   19  C12 UNL     1      -3.210   1.116   1.046  1.00  0.00     0.172 C 
BRANCH  19  20
HETATM   20  O3  UNL     1      -2.533   2.227   1.503  1.00  0.00    -0.391 OA
ATOM     21  H3  UNL     1      -2.882   2.658   2.275  1.00  0.00     0.210 HD
ENDBRANCH  19  20
BRANCH  19  22
HETATM   22  C13 UNL     1      -4.649   1.628   0.804  1.00  0.00     0.198 C 
BRANCH  22  23
HETATM   23  O4  UNL     1      -5.155   2.144   2.024  1.00  0.00    -0.398 OA
ATOM     24  H4  UNL     1      -6.039   2.459   1.875  1.00  0.00     0.209 HD
ENDBRANCH  22  23
ENDBRANCH  19  22
ENDBRANCH  18  19
ENDBRANCH   3  10
BRANCH   1  25
HETATM   25  C2  UNL     1       1.084   4.120  -1.341  1.00  0.00     0.210 C 
BRANCH  25  26
HETATM   26  O1  UNL     1       1.896   4.161  -2.498  1.00  0.00    -0.391 OA
HETATM   27  C1  UNL     1       2.187   5.436  -2.886  1.00  0.00     0.201 C 
ENDBRANCH  25  26
ENDBRANCH   1  25
BRANCH   5  28
HETATM   28  N2  UNL     1       1.299  -1.730  -0.106  1.00  0.00    -0.396 N 
ATOM     29  H22 UNL     1       0.284  -1.819  -0.066  1.00  0.00     0.156 HD
ATOM     30  H21 UNL     1       1.876  -2.553   0.070  1.00  0.00     0.156 HD
ENDBRANCH   5  28
BRANCH   6  31
HETATM   31  C17 UNL     1       4.061  -1.663  -0.048  1.00  0.00     0.002 A 
HETATM   32  C18 UNL     1       4.059  -2.742  -0.872  1.00  0.00     0.016 A 
HETATM   33  C19 UNL     1       4.888  -3.836  -0.590  1.00  0.00     0.026 A 
HETATM   34  C20 UNL     1       5.715  -3.874   0.491  1.00  0.00     0.057 A 
HETATM   35 CL2  UNL     1       6.744  -5.239   0.864  1.00  0.00    -0.082 Cl
HETATM   36  C21 UNL     1       5.708  -2.757   1.325  1.00  0.00     0.078 A 
HETATM   37 CL3  UNL     1       6.734  -2.771   2.744  1.00  0.00    -0.081 Cl
HETATM   38  C22 UNL     1       4.903  -1.676   1.067  1.00  0.00     0.068 A 
HETATM   39 CL4  UNL     1       4.926  -0.303   2.168  1.00  0.00    -0.082 Cl
ENDBRANCH   6  31
TORSDOF 9
