REMARK  2 active torsions:
REMARK  status: ('A' for Active; 'I' for Inactive)
REMARK    1  A    between atoms: O1_1  and  N1_3 
REMARK    2  A    between atoms: N4_22  and  O2_23 
ROOT
HETATM    1  N1  UNL     1      -0.676   1.375  -0.124  1.00  0.00    -0.120 N 
HETATM    2  C1  UNL     1      -1.271   0.193   0.092  1.00  0.00     0.099 A 
HETATM    3  C2  UNL     1      -2.699  -0.040   0.089  1.00  0.00    -0.005 A 
HETATM    4  C3  UNL     1      -3.628   0.912   0.380  1.00  0.00     0.014 A 
HETATM    5  C4  UNL     1      -4.997   0.622   0.333  1.00  0.00     0.001 A 
HETATM    6  C5  UNL     1      -5.453  -0.626  -0.005  1.00  0.00     0.000 A 
HETATM    7  C6  UNL     1      -4.530  -1.604  -0.302  1.00  0.00     0.001 A 
HETATM    8  C7  UNL     1      -3.188  -1.295  -0.250  1.00  0.00     0.014 A 
HETATM    9  C8  UNL     1      -0.398  -0.880   0.306  1.00  0.00     0.085 A 
HETATM   10  C9  UNL     1       0.964  -0.721   0.294  1.00  0.00     0.134 A 
HETATM   11  N2  UNL     1       1.968  -1.633   0.480  1.00  0.00    -0.339 N 
ATOM     12  H2  UNL     1       1.849  -2.629   0.666  1.00  0.00     0.167 HD
HETATM   13  C10 UNL     1       3.135  -0.982   0.374  1.00  0.00     0.062 A 
HETATM   14  C11 UNL     1       4.473  -1.365   0.464  1.00  0.00     0.032 A 
HETATM   15  C12 UNL     1       5.467  -0.442   0.304  1.00  0.00     0.002 A 
HETATM   16  C13 UNL     1       5.166   0.881   0.050  1.00  0.00     0.002 A 
HETATM   17  C14 UNL     1       3.851   1.245  -0.037  1.00  0.00     0.034 A 
HETATM   18  C15 UNL     1       2.817   0.334   0.121  1.00  0.00     0.089 A 
HETATM   19  N3  UNL     1       1.482   0.484   0.074  1.00  0.00    -0.194 N 
HETATM   20  N4  UNL     1       0.658   1.491  -0.128  1.00  0.00    -0.058 N 
ENDROOT
BRANCH   1  21
HETATM   21  O1  UNL     1      -1.401   2.522  -0.373  1.00  0.00    -0.265 OA
ATOM     22  H1  UNL     1      -0.979   3.359  -0.526  1.00  0.00     0.247 HD
ENDBRANCH   1  21
BRANCH  20  23
HETATM   23  O2  UNL     1       1.191   2.759  -0.359  1.00  0.00    -0.251 OA
ATOM     24  H2  UNL     1       2.137   2.841  -0.362  1.00  0.00     0.248 HD
ENDBRANCH  20  23
TORSDOF 2
