REMARK  13 active torsions:
REMARK  status: ('A' for Active; 'I' for Inactive)
REMARK    1  A    between atoms: O1_2  and  C2_3 
REMARK    2  A    between atoms: C5_6  and  N1_7 
REMARK    3  A    between atoms: N1_7  and  C6_9 
REMARK    4  A    between atoms: C6_9  and  N2_11 
REMARK    5  A    between atoms: N2_11  and  C7_13 
REMARK    6  A    between atoms: C7_13  and  C8_14 
REMARK    7  A    between atoms: C8_14  and  S2_15 
REMARK    8  A    between atoms: S2_15  and  C9_16 
REMARK    9  A    between atoms: C9_16  and  C10_17 
REMARK   10  A    between atoms: C10_17  and  O2_18 
REMARK   11  A    between atoms: O2_18  and  N3_19 
REMARK   12  A    between atoms: N3_19  and  C11_21 
REMARK   13  A    between atoms: N4_22  and  C12_24 
ROOT
HETATM    1  N2  UNL     1       1.146   1.391   0.750  1.00  0.00    -0.366 N 
ATOM      2  H2  UNL     1       0.946   2.344   1.054  1.00  0.00     0.161 HD
ENDROOT
BRANCH   1   3
HETATM    3  C6  UNL     1       2.448   0.898   0.575  1.00  0.00     0.172 C 
HETATM    4  S1  UNL     1       2.381  -0.628  -0.152  1.00  0.00    -0.041 SA
BRANCH   3   5
HETATM    5  N1  UNL     1       3.693   1.525   0.792  1.00  0.00    -0.333 N 
ATOM      6  H1  UNL     1       3.763   2.480   1.142  1.00  0.00     0.168 HD
BRANCH   5   7
HETATM    7  C5  UNL     1       4.885   0.719   0.483  1.00  0.00     0.034 A 
HETATM    8  C4  UNL     1       4.681  -0.667   0.504  1.00  0.00     0.032 A 
HETATM    9  C3  UNL     1       5.496  -1.575  -0.150  1.00  0.00     0.039 A 
HETATM   10  C2  UNL     1       6.641  -1.039  -0.887  1.00  0.00     0.068 A 
HETATM   11  C14 UNL     1       6.890   0.377  -0.881  1.00  0.00     0.039 A 
HETATM   12  C13 UNL     1       5.899   1.071  -0.154  1.00  0.00     0.032 A 
BRANCH  10  13
HETATM   13  O1  UNL     1       7.400  -1.922  -1.584  1.00  0.00    -0.356 OA
HETATM   14  C1  UNL     1       7.084  -3.309  -1.695  1.00  0.00     0.210 C 
ENDBRANCH  10  13
ENDBRANCH   5   7
ENDBRANCH   3   5
ENDBRANCH   1   3
BRANCH   1  15
HETATM   15  C7  UNL     1       0.106   0.413   0.457  1.00  0.00     0.132 C 
BRANCH  15  16
HETATM   16  C8  UNL     1      -1.320   0.806   0.421  1.00  0.00     0.093 C 
BRANCH  16  17
HETATM   17  S2  UNL     1      -2.206  -0.676  -0.323  1.00  0.00    -0.165 SA
BRANCH  17  18
HETATM   18  C9  UNL     1      -3.956  -0.418  -0.268  1.00  0.00     0.102 C 
BRANCH  18  19
HETATM   19  C10 UNL     1      -4.216   1.090  -0.507  1.00  0.00     0.211 C 
BRANCH  19  20
HETATM   20  O2  UNL     1      -5.655   1.210  -0.507  1.00  0.00    -0.279 OA
BRANCH  20  21
HETATM   21  N3  UNL     1      -6.015   2.373   0.436  1.00  0.00    -0.262 N 
ATOM     22  H3  UNL     1      -5.736   3.354   0.435  1.00  0.00     0.195 HD
BRANCH  21  23
HETATM   23  C11 UNL     1      -6.828   1.667   1.274  1.00  0.00     0.204 C 
HETATM   24  N4  UNL     1      -7.166   0.383   1.141  1.00  0.00    -0.349 N 
ATOM     25  H4  UNL     1      -6.639  -0.406   1.515  1.00  0.00     0.167 HD
BRANCH  24  26
HETATM   26  C12 UNL     1      -8.334   0.287   0.422  1.00  0.00     0.190 C 
HETATM   27  N5  UNL     1      -8.758  -1.040   0.285  1.00  0.00    -0.097 NA
ENDBRANCH  24  26
ENDBRANCH  21  23
ENDBRANCH  20  21
ENDBRANCH  19  20
ENDBRANCH  18  19
ENDBRANCH  17  18
ENDBRANCH  16  17
ENDBRANCH  15  16
ENDBRANCH   1  15
TORSDOF 13
