REMARK  10 active torsions:
REMARK  status: ('A' for Active; 'I' for Inactive)
REMARK    1  A    between atoms: C2_2  and  C4_4 
REMARK    2  A    between atoms: C5_5  and  C6_6 
REMARK    3  A    between atoms: C6_6  and  C9_9 
REMARK    4  A    between atoms: C9_9  and  N1_10 
REMARK    5  A    between atoms: C9_9  and  C25_36 
REMARK       I    between atoms: N1_10  and  C10_12 
REMARK    6  A    between atoms: C10_12  and  C11_14 
REMARK       I    between atoms: N2_18  and  C15_19 
REMARK    7  A    between atoms: C15_19  and  C16_21 
REMARK    8  A    between atoms: C16_21  and  N3_22 
REMARK    9  A    between atoms: C16_21  and  C22_33 
REMARK       I    between atoms: N3_22  and  C17_24 
REMARK   10  A    between atoms: C17_24  and  C18_26 
ROOT
HETATM    1  C11 UNL     1       0.098   1.841  -0.056  1.00  0.00     0.179 C 
HETATM    2  C12 UNL     1       0.077   2.784  -1.297  1.00  0.00     0.037 C 
HETATM    3  C13 UNL     1       1.346   3.571  -1.045  1.00  0.00     0.022 C 
HETATM    4  C14 UNL     1       2.056   2.896   0.085  1.00  0.00     0.127 C 
HETATM    5  N2  UNL     1       1.465   1.537  -0.025  1.00  0.00    -0.337 N 
HETATM    6  C15 UNL     1       2.255   0.394  -0.031  1.00  0.00     0.243 C 
HETATM    7  O2  UNL     1       1.836  -0.813  -0.014  1.00  0.00    -0.271 OA
ENDROOT
BRANCH   1   8
HETATM    8  C10 UNL     1      -0.923   0.837  -0.151  1.00  0.00     0.241 C 
HETATM    9  N1  UNL     1      -2.295   1.305  -0.170  1.00  0.00    -0.353 N 
ATOM     10  H1  UNL     1      -2.477   2.307  -0.115  1.00  0.00     0.163 HD
HETATM   11  O1  UNL     1      -0.811  -0.403  -0.222  1.00  0.00    -0.271 OA
BRANCH   9  12
HETATM   12  C9  UNL     1      -3.423   0.383  -0.265  1.00  0.00     0.107 C 
BRANCH  12  13
HETATM   13  C6  UNL     1      -4.261   0.394   0.978  1.00  0.00     0.037 C 
HETATM   14  C7  UNL     1      -3.440  -0.157   2.158  1.00  0.00     0.031 C 
HETATM   15  C8  UNL     1      -4.802   1.727   1.371  1.00  0.00     0.031 C 
BRANCH  13  16
HETATM   16  C5  UNL     1      -5.376  -0.542   0.823  1.00  0.00    -0.095 C 
HETATM   17  C4  UNL     1      -6.320  -1.304   0.691  1.00  0.00    -0.102 C 
BRANCH  17  18
HETATM   18  C2  UNL     1      -7.462  -2.217   0.551  1.00  0.00     0.057 C 
HETATM   19  C1  UNL     1      -8.757  -1.453   0.327  1.00  0.00     0.023 C 
HETATM   20  C3  UNL     1      -7.659  -3.059   1.795  1.00  0.00     0.023 C 
ENDBRANCH  17  18
ENDBRANCH  13  16
ENDBRANCH  12  13
BRANCH  12  21
HETATM   21  C25 UNL     1      -4.177   0.481  -1.546  1.00  0.00     0.002 C 
HETATM   22  C26 UNL     1      -3.142   0.450  -2.680  1.00  0.00     0.011 C 
HETATM   23  C27 UNL     1      -5.084   1.651  -1.690  1.00  0.00     0.011 C 
ENDBRANCH  12  21
ENDBRANCH   9  12
ENDBRANCH   1   8
BRANCH   6  24
HETATM   24  C16 UNL     1       3.763   0.471  -0.058  1.00  0.00     0.180 C 
BRANCH  24  25
HETATM   25  N3  UNL     1       4.348  -0.865   0.151  1.00  0.00    -0.346 N 
HETATM   26  C17 UNL     1       5.217  -1.128   1.227  1.00  0.00     0.249 C 
HETATM   27  O3  UNL     1       5.491  -0.189   2.016  1.00  0.00    -0.271 OA
ATOM     28  H3  UNL     1       4.118  -1.617  -0.499  1.00  0.00     0.163 HD
BRANCH  26  29
HETATM   29  C18 UNL     1       5.829  -2.455   1.479  1.00  0.00     0.277 C 
HETATM   30  C19 UNL     1       6.702  -2.939   0.362  1.00  0.00     0.044 C 
HETATM   31  C20 UNL     1       8.090  -2.495   0.730  1.00  0.00     0.030 C 
HETATM   32  C21 UNL     1       8.037  -2.323   2.217  1.00  0.00     0.233 C 
HETATM   33  N4  UNL     1       6.676  -2.426   2.640  1.00  0.00    -0.062 N 
ATOM     34  H42 UNL     1       6.415  -1.688   3.294  1.00  0.00     0.278 HD
ATOM     35  H41 UNL     1       6.519  -3.224   3.256  1.00  0.00     0.278 HD
ENDBRANCH  26  29
ENDBRANCH  24  25
BRANCH  24  36
HETATM   36  C22 UNL     1       4.263   0.914  -1.430  1.00  0.00     0.009 C 
HETATM   37  C23 UNL     1       5.778   0.957  -1.317  1.00  0.00     0.012 C 
HETATM   38  C24 UNL     1       3.933  -0.179  -2.465  1.00  0.00     0.012 C 
ENDBRANCH  24  36
ENDBRANCH   6  24
TORSDOF 10
