REMARK  12 active torsions:
REMARK  status: ('A' for Active; 'I' for Inactive)
REMARK    1  A    between atoms: C2_2  and  C3_3 
REMARK    2  A    between atoms: C3_3  and  C4_4 
REMARK    3  A    between atoms: C4_4  and  N1_5 
REMARK    4  A    between atoms: C4_4  and  C7_9 
REMARK    5  A    between atoms: N1_5  and  C5_7 
REMARK    6  A    between atoms: C7_9  and  O2_11 
REMARK    7  A    between atoms: O2_11  and  C8_12 
REMARK    8  A    between atoms: N2_15  and  C10_16 
REMARK    9  A    between atoms: C10_16  and  C11_17 
REMARK   10  A    between atoms: C25_31  and  O4_32 
REMARK   11  A    between atoms: C27_35  and  C28_36 
REMARK   12  A    between atoms: C28_36  and  O5_39 
ROOT
HETATM    1  C8  UNL     1       2.005   0.896  -0.149  1.00  0.00     0.233 C 
HETATM    2  C9  UNL     1       2.538   1.969  -1.047  1.00  0.00     0.250 C 
HETATM    3  O3  UNL     1       3.727   1.973  -1.345  1.00  0.00    -0.270 OA
HETATM    4  N2  UNL     1       1.655   2.956  -1.532  1.00  0.00    -0.349 N 
HETATM    5  C15 UNL     1       0.224   2.675  -1.691  1.00  0.00     0.131 C 
HETATM    6  C16 UNL     1      -0.238   1.801  -0.515  1.00  0.00     0.015 C 
HETATM    7  C17 UNL     1      -1.712   1.554  -0.703  1.00  0.00     0.012 C 
HETATM    8  C18 UNL     1      -2.192   0.453   0.207  1.00  0.00    -0.002 C 
HETATM    9  C19 UNL     1      -1.383  -0.762  -0.036  1.00  0.00    -0.005 C 
HETATM   10  C20 UNL     1      -1.965  -1.961   0.645  1.00  0.00     0.006 C 
HETATM   11  C21 UNL     1      -3.377  -2.234   0.207  1.00  0.00     0.010 C 
HETATM   12  C22 UNL     1      -4.118  -1.103  -0.374  1.00  0.00    -0.031 C 
HETATM   13  C23 UNL     1      -4.087  -1.024  -1.879  1.00  0.00     0.016 C 
HETATM   14  C24 UNL     1      -3.667   0.255   0.151  1.00  0.00     0.027 C 
HETATM   15  C25 UNL     1      -4.384   0.390   1.466  1.00  0.00     0.123 C 
HETATM   16  C26 UNL     1      -5.445  -0.721   1.499  1.00  0.00     0.040 C 
HETATM   17  C27 UNL     1      -5.566  -1.014   0.028  1.00  0.00     0.030 C 
HETATM   18  C31 UNL     1       0.036  -0.491   0.434  1.00  0.00    -0.003 C 
HETATM   19  C32 UNL     1       0.096  -0.080   1.863  1.00  0.00     0.011 C 
HETATM   20  C33 UNL     1       0.582   0.563  -0.504  1.00  0.00     0.000 C 
HETATM   21  C34 UNL     1       0.527  -0.035  -1.909  1.00  0.00     0.019 C 
ENDROOT
BRANCH   1  22
HETATM   22  O2  UNL     1       2.873  -0.215  -0.139  1.00  0.00    -0.301 OA
BRANCH  22  23
HETATM   23  C7  UNL     1       3.712  -0.598   0.877  1.00  0.00     0.306 C 
HETATM   24  O1  UNL     1       3.697   0.149   1.912  1.00  0.00    -0.258 OA
BRANCH  23  25
HETATM   25  C4  UNL     1       4.591  -1.792   0.806  1.00  0.00     0.084 C 
BRANCH  25  26
HETATM   26  C3  UNL     1       4.772  -2.365  -0.549  1.00  0.00     0.063 C 
BRANCH  26  27
HETATM   27  C2  UNL     1       5.299  -3.792  -0.437  1.00  0.00     0.002 C 
HETATM   28  C1  UNL     1       5.514  -4.466  -1.746  1.00  0.00     0.005 C 
ENDBRANCH  26  27
ENDBRANCH  25  26
BRANCH  25  29
HETATM   29  N1  UNL     1       5.685  -1.678   1.668  1.00  0.00    -0.368 N 
ATOM     30  H1  UNL     1       5.662  -2.160   2.566  1.00  0.00     0.165 HD
BRANCH  29  31
HETATM   31  C5  UNL     1       6.814  -0.917   1.329  1.00  0.00     0.057 C 
HETATM   32  C6  UNL     1       6.645   0.578   1.246  1.00  0.00     0.054 C 
ENDBRANCH  29  31
ENDBRANCH  25  29
ENDBRANCH  23  25
ENDBRANCH  22  23
ENDBRANCH   1  22
BRANCH   4  33
HETATM   33  C10 UNL     1       2.108   4.282  -1.888  1.00  0.00     0.131 C 
BRANCH  33  34
HETATM   34  C11 UNL     1       1.995   5.121  -0.617  1.00  0.00     0.012 A 
HETATM   35  C12 UNL     1       2.442   6.579  -0.792  1.00  0.00    -0.004 A 
HETATM   36  C13 UNL     1       3.936   6.759  -0.661  1.00  0.00     0.011 A 
HETATM   37  C14 UNL     1       3.195   5.643   0.047  1.00  0.00    -0.004 A 
ENDBRANCH  33  34
ENDBRANCH   4  33
BRANCH  15  38
HETATM   38  O4  UNL     1      -3.580   0.388   2.574  1.00  0.00    -0.395 OA
ATOM     39  H4  UNL     1      -4.033   0.473   3.405  1.00  0.00     0.210 HD
ENDBRANCH  15  38
BRANCH  17  40
HETATM   40  C28 UNL     1      -6.485  -2.075  -0.364  1.00  0.00     0.055 C 
HETATM   41  C29 UNL     1      -7.881  -1.676   0.175  1.00  0.00     0.045 C 
HETATM   42  C30 UNL     1      -6.219  -3.420   0.274  1.00  0.00     0.045 C 
BRANCH  40  43
HETATM   43  O5  UNL     1      -6.651  -2.278  -1.714  1.00  0.00    -0.390 OA
ATOM     44  H5  UNL     1      -7.250  -2.970  -1.970  1.00  0.00     0.210 HD
ENDBRANCH  40  43
ENDBRANCH  17  40
TORSDOF 12
