REMARK  15 active torsions:
REMARK  status: ('A' for Active; 'I' for Inactive)
REMARK    1  A    between atoms: N1_1  and  C1_5 
REMARK    2  A    between atoms: C1_5  and  C2_6 
REMARK    3  A    between atoms: C2_6  and  C3_7 
REMARK    4  A    between atoms: C3_7  and  N2_8 
REMARK    5  A    between atoms: C3_7  and  C5_15 
REMARK    6  A    between atoms: N2_8  and  N3_9 
REMARK    7  A    between atoms: N3_9  and  C4_10 
REMARK    8  A    between atoms: C4_10  and  N4_11 
REMARK       I    between atoms: C5_15  and  N5_17 
REMARK    9  A    between atoms: N5_17  and  C6_19 
REMARK   10  A    between atoms: N7_25  and  C9_26 
REMARK   11  A    between atoms: N7_25  and  C11_30 
REMARK   12  A    between atoms: C9_26  and  C10_27 
REMARK   13  A    between atoms: C10_27  and  O2_28 
REMARK   14  A    between atoms: C11_30  and  C12_31 
REMARK   15  A    between atoms: C12_31  and  O3_32 
ROOT
HETATM    1  C5  UNL     1       1.206   0.186   0.530  1.00  0.00     0.240 C 
HETATM    2  O1  UNL     1       1.099   0.987   1.426  1.00  0.00    -0.272 OA
HETATM    3  N5  UNL     1       0.063  -0.599   0.137  1.00  0.00    -0.330 N 
ATOM      4  H5  UNL     1       0.143  -1.253  -0.642  1.00  0.00     0.164 HD
ENDROOT
BRANCH   3   5
HETATM    5  C6  UNL     1      -1.186  -0.470   0.831  1.00  0.00     0.319 C 
HETATM    6  C7  UNL     1      -1.445  -1.878   1.421  1.00  0.00     0.289 C 
HETATM    7  N6  UNL     1      -2.826  -1.880   1.650  1.00  0.00    -0.047 N 
HETATM    8  C8  UNL     1      -3.344  -0.604   1.308  1.00  0.00     0.470 C 
ATOM      9  H62 UNL     1      -3.302  -2.639   1.162  1.00  0.00     0.279 HD
ATOM     10  H61 UNL     1      -3.064  -2.156   2.603  1.00  0.00     0.279 HD
HETATM   11  N7  UNL     1      -2.381  -0.137   0.216  1.00  0.00    -0.017 N 
BRANCH  11  12
HETATM   12  C9  UNL     1      -2.762  -0.968  -0.875  1.00  0.00     0.268 C 
BRANCH  12  13
HETATM   13  C10 UNL     1      -3.630  -0.426  -1.945  1.00  0.00     0.192 C 
BRANCH  13  14
HETATM   14  O2  UNL     1      -3.111   0.674  -2.632  1.00  0.00    -0.399 OA
ATOM     15  H2  UNL     1      -3.668   1.022  -3.319  1.00  0.00     0.209 HD
ENDBRANCH  13  14
ENDBRANCH  12  13
ENDBRANCH  11  12
BRANCH  11  16
HETATM   16  C11 UNL     1      -2.586   1.264   0.066  1.00  0.00     0.268 C 
BRANCH  16  17
HETATM   17  C12 UNL     1      -3.048   1.968   1.333  1.00  0.00     0.192 C 
BRANCH  17  18
HETATM   18  O3  UNL     1      -3.224   3.334   0.974  1.00  0.00    -0.399 OA
ATOM     19  H3  UNL     1      -3.513   3.774   1.765  1.00  0.00     0.209 HD
ENDBRANCH  17  18
ENDBRANCH  16  17
ENDBRANCH  11  16
ENDBRANCH   3   5
BRANCH   1  20
HETATM   20  C3  UNL     1       2.517  -0.095  -0.285  1.00  0.00     0.188 C 
BRANCH  20  21
HETATM   21  C2  UNL     1       2.772  -1.533  -0.311  1.00  0.00     0.059 C 
BRANCH  21  22
HETATM   22  C1  UNL     1       3.297  -2.022   1.048  1.00  0.00     0.231 C 
BRANCH  22  23
HETATM   23  N1  UNL     1       2.544  -1.682   2.177  1.00  0.00    -0.079 N 
ATOM     24  H13 UNL     1       2.412  -0.671   2.207  1.00  0.00     0.274 HD
ATOM     25  H12 UNL     1       1.581  -1.994   2.051  1.00  0.00     0.274 HD
ATOM     26  H11 UNL     1       2.892  -2.007   3.079  1.00  0.00     0.274 HD
ENDBRANCH  22  23
ENDBRANCH  21  22
ENDBRANCH  20  21
BRANCH  20  27
HETATM   27  N2  UNL     1       2.275   0.590  -1.494  1.00  0.00    -0.132 NA
BRANCH  27  28
HETATM   28  N3  UNL     1       3.445   0.913  -2.226  1.00  0.00    -0.120 NA
BRANCH  28  29
HETATM   29  C4  UNL     1       4.238   1.831  -1.414  1.00  0.00     0.359 C 
BRANCH  29  30
HETATM   30  N4  UNL     1       4.900   2.852  -2.245  1.00  0.00    -0.065 N 
ATOM     31  H43 UNL     1       5.461   2.426  -2.983  1.00  0.00     0.275 HD
ATOM     32  H42 UNL     1       4.228   3.353  -2.827  1.00  0.00     0.275 HD
ATOM     33  H41 UNL     1       5.454   3.493  -1.678  1.00  0.00     0.275 HD
ENDBRANCH  29  30
ENDBRANCH  28  29
ENDBRANCH  27  28
ENDBRANCH  20  27
ENDBRANCH   1  20
TORSDOF 15
