REMARK  12 active torsions:
REMARK  status: ('A' for Active; 'I' for Inactive)
REMARK    1  A    between atoms: C2_2  and  C3_3 
REMARK    2  A    between atoms: C3_3  and  N1_4 
REMARK    3  A    between atoms: N1_4  and  C4_6 
REMARK    4  A    between atoms: C4_6  and  C5_7 
REMARK    5  A    between atoms: N2_9  and  C6_11 
REMARK    6  A    between atoms: C6_11  and  N3_13 
REMARK    7  A    between atoms: C6_11  and  C10_28 
REMARK       I    between atoms: N3_13  and  C8_15 
REMARK    8  A    between atoms: C8_15  and  C9_17 
REMARK    9  A    between atoms: C9_17  and  N6_23 
REMARK   10  A    between atoms: N4_18  and  N5_20 
REMARK   11  A    between atoms: N6_23  and  N7_25 
REMARK       I    between atoms: C10_28  and  N8_30 
REMARK   12  A    between atoms: N8_30  and  N9_32 
ROOT
HETATM    1  C6  UNL     1       0.673  -0.652  -1.246  1.00  0.00     0.189 C 
HETATM    2  C7  UNL     1       0.597   0.261  -2.475  1.00  0.00     0.074 C 
ENDROOT
BRANCH   1   3
HETATM    3  N2  UNL     1      -0.455  -0.681  -0.442  1.00  0.00    -0.340 N 
HETATM    4  C4  UNL     1      -1.687  -0.550  -0.485  1.00  0.00     0.138 C 
ATOM      5  H2  UNL     1      -0.174  -0.879   0.519  1.00  0.00     0.164 HD
BRANCH   4   6
HETATM    6  N1  UNL     1      -2.470  -0.686   0.737  1.00  0.00    -0.371 N 
ATOM      7  H1  UNL     1      -2.659  -1.584   1.182  1.00  0.00     0.161 HD
BRANCH   6   8
HETATM    8  C3  UNL     1      -2.957   0.584   1.263  1.00  0.00     0.148 C 
BRANCH   8   9
HETATM    9  C2  UNL     1      -3.707   0.414   2.526  1.00  0.00    -0.018 C 
HETATM   10  C1  UNL     1      -4.958   0.796   2.612  1.00  0.00     0.008 C 
ENDBRANCH   8   9
ENDBRANCH   6   8
ENDBRANCH   4   6
BRANCH   4  11
HETATM   11  C5  UNL     1      -2.436  -0.258  -1.686  1.00  0.00     0.306 C 
HETATM   12  O1  UNL     1      -3.705  -0.140  -1.578  1.00  0.00    -0.298 OA
ENDBRANCH   4  11
ENDBRANCH   1   3
BRANCH   1  13
HETATM   13  N3  UNL     1       1.817  -0.189  -0.446  1.00  0.00    -0.320 N 
HETATM   14  C8  UNL     1       1.833   1.125   0.078  1.00  0.00     0.290 C 
HETATM   15  O2  UNL     1       0.858   1.876  -0.166  1.00  0.00    -0.264 OA
ATOM     16  H3  UNL     1       2.601  -0.817  -0.269  1.00  0.00     0.165 HD
BRANCH  14  17
HETATM   17  C9  UNL     1       2.925   1.639   0.887  1.00  0.00     0.203 C 
HETATM   18  N4  UNL     1       2.928   2.838   1.355  1.00  0.00    -0.286 N 
ATOM     19  H4  UNL     1       3.711   3.164   1.921  1.00  0.00     0.188 HD
BRANCH  18  20
HETATM   20  N5  UNL     1       1.875   3.677   1.090  1.00  0.00    -0.343 N 
ATOM     21  H52 UNL     1       1.100   3.336   0.522  1.00  0.00     0.176 HD
ATOM     22  H51 UNL     1       1.877   4.627   1.461  1.00  0.00     0.176 HD
ENDBRANCH  18  20
BRANCH  17  23
HETATM   23  N6  UNL     1       4.074   0.835   1.229  1.00  0.00    -0.286 N 
ATOM     24  H6  UNL     1       4.582   0.300   0.525  1.00  0.00     0.188 HD
BRANCH  23  25
HETATM   25  N7  UNL     1       4.455   0.826   2.569  1.00  0.00    -0.343 N 
ATOM     26  H72 UNL     1       3.937   1.366   3.262  1.00  0.00     0.176 HD
ATOM     27  H71 UNL     1       5.267   0.258   2.811  1.00  0.00     0.176 HD
ENDBRANCH  23  25
ENDBRANCH  17  23
ENDBRANCH  14  17
ENDBRANCH   1  13
BRANCH   1  28
HETATM   28  C10 UNL     1       1.090  -1.996  -1.754  1.00  0.00     0.284 C 
HETATM   29  O3  UNL     1       2.306  -2.248  -1.926  1.00  0.00    -0.267 OA
HETATM   30  N8  UNL     1       0.131  -2.996  -2.045  1.00  0.00    -0.273 N 
ATOM     31  H8  UNL     1      -0.863  -2.813  -1.907  1.00  0.00     0.189 HD
BRANCH  30  32
HETATM   32  N9  UNL     1       0.567  -4.256  -2.530  1.00  0.00    -0.342 N 
ATOM     33  H92 UNL     1       1.564  -4.423  -2.662  1.00  0.00     0.176 HD
ATOM     34  H91 UNL     1      -0.124  -4.976  -2.740  1.00  0.00     0.176 HD
ENDBRANCH  30  32
ENDBRANCH   1  28
TORSDOF 12
