REMARK  9 active torsions:
REMARK  status: ('A' for Active; 'I' for Inactive)
REMARK    1  A    between atoms: N1_1  and  C1_5 
REMARK    2  A    between atoms: C1_5  and  C2_6 
REMARK    3  A    between atoms: N3_9  and  C3_10 
REMARK    4  A    between atoms: C4_11  and  N4_12 
REMARK    5  A    between atoms: N5_17  and  N6_19 
REMARK    6  A    between atoms: C7_24  and  C8_25 
REMARK    7  A    between atoms: C8_25  and  O3_26 
REMARK    8  A    between atoms: C8_25  and  N8_28 
REMARK    9  A    between atoms: N8_28  and  N9_30 
ROOT
HETATM    1  C3  UNL     1      -0.212  -0.378  -0.769  1.00  0.00     0.121 A 
HETATM    2  C4  UNL     1      -0.335  -1.274  -1.837  1.00  0.00     0.176 A 
HETATM    3  S1  UNL     1      -1.614  -2.382  -1.738  1.00  0.00    -0.043 SA
HETATM    4  C5  UNL     1      -2.540  -2.214  -0.343  1.00  0.00     0.116 A 
HETATM    5  N5  UNL     1      -3.585  -2.962  -0.046  1.00  0.00    -0.299 N 
ATOM      6  H5  UNL     1      -4.106  -2.809   0.818  1.00  0.00     0.187 HD
HETATM    7  C6  UNL     1      -2.132  -1.218   0.502  1.00  0.00     0.098 A 
HETATM    8  N7  UNL     1      -2.990  -1.119   1.674  1.00  0.00    -0.098 NA
HETATM    9  C7  UNL     1      -1.045  -0.340   0.331  1.00  0.00     0.075 A 
ENDROOT
BRANCH   1  10
HETATM   10  N3  UNL     1       0.931   0.509  -0.883  1.00  0.00    -0.218 N 
HETATM   11  N2  UNL     1       2.161   0.405  -0.415  1.00  0.00    -0.282 N 
HETATM   12  C2  UNL     1       2.908   1.458  -0.820  1.00  0.00     0.111 A 
ATOM     13  H2  UNL     1       2.500  -0.360   0.169  1.00  0.00     0.188 HD
HETATM   14  S2  UNL     1       1.442   1.933  -1.595  1.00  0.00     0.027 SA
BRANCH  12  15
HETATM   15  C1  UNL     1       4.291   1.977  -0.686  1.00  0.00     0.297 C 
BRANCH  15  16
HETATM   16  N1  UNL     1       4.439   2.842   0.468  1.00  0.00    -0.073 N 
ATOM     17  H13 UNL     1       3.759   3.602   0.450  1.00  0.00     0.274 HD
ATOM     18  H12 UNL     1       4.135   2.374   1.322  1.00  0.00     0.274 HD
ATOM     19  H11 UNL     1       5.390   3.199   0.560  1.00  0.00     0.274 HD
ENDBRANCH  15  16
ENDBRANCH  12  15
ENDBRANCH   1  10
BRANCH   2  20
HETATM   20  N4  UNL     1       0.534  -1.300  -2.961  1.00  0.00    -0.106 N 
HETATM   21  O1  UNL     1       1.501  -0.605  -3.217  1.00  0.00    -0.531 OA
HETATM   22  O2  UNL     1       0.273  -2.272  -3.964  1.00  0.00    -0.531 OA
ENDBRANCH   2  20
BRANCH   9  23
HETATM   23  C8  UNL     1      -0.863   0.585   1.442  1.00  0.00     0.169 C 
BRANCH  23  24
HETATM   24  O3  UNL     1      -1.665   0.337   2.480  1.00  0.00    -0.344 OA
ATOM     25  H3  UNL     1      -1.546   0.940   3.204  1.00  0.00     0.219 HD
ENDBRANCH  23  24
BRANCH  23  26
HETATM   26  N8  UNL     1      -0.066   1.672   1.698  1.00  0.00    -0.286 N 
ATOM     27  H8  UNL     1       0.604   2.017   1.010  1.00  0.00     0.188 HD
BRANCH  26  28
HETATM   28  N9  UNL     1      -0.221   2.309   2.994  1.00  0.00    -0.343 N 
ATOM     29  H92 UNL     1      -0.895   1.953   3.671  1.00  0.00     0.176 HD
ATOM     30  H91 UNL     1       0.372   3.117   3.184  1.00  0.00     0.176 HD
ENDBRANCH  26  28
ENDBRANCH  23  26
ENDBRANCH   9  23
BRANCH   5  31
HETATM   31  N6  UNL     1      -3.964  -3.968  -0.939  1.00  0.00    -0.344 N 
ATOM     32  H62 UNL     1      -3.433  -4.108  -1.798  1.00  0.00     0.176 HD
ATOM     33  H61 UNL     1      -4.772  -4.546  -0.709  1.00  0.00     0.176 HD
ENDBRANCH   5  31
TORSDOF 9
