REMARK  7 active torsions:
REMARK  status: ('A' for Active; 'I' for Inactive)
REMARK    1  A    between atoms: C2_3  and  S1_4 
REMARK    2  A    between atoms: S1_4  and  C3_7 
REMARK    3  A    between atoms: C10_16  and  N2_17 
REMARK    4  A    between atoms: N2_17  and  C11_18 
REMARK    5  A    between atoms: C11_18  and  O3_19 
REMARK    6  A    between atoms: C11_18  and  C12_21 
REMARK    7  A    between atoms: C15_25  and  O4_26 
ROOT
HETATM    1  N1  UNL     1      -2.739  -0.850   2.324  1.00  0.00    -0.099 NA
HETATM    2  C1  UNL     1      -1.556  -0.869   1.501  1.00  0.00     0.091 A 
HETATM    3  C2  UNL     1      -1.475  -0.086   0.375  1.00  0.00     0.093 A 
HETATM    4  C9  UNL     1      -0.306  -0.145  -0.324  1.00  0.00     0.072 A 
HETATM    5  C10 UNL     1       0.820  -0.934   0.011  1.00  0.00     0.135 A 
HETATM    6  C18 UNL     1       0.701  -1.699   1.132  1.00  0.00     0.098 A 
HETATM    7 CL3  UNL     1       1.925  -2.832   1.694  1.00  0.00    -0.079 Cl
HETATM    8  C19 UNL     1      -0.494  -1.651   1.863  1.00  0.00     0.084 A 
HETATM    9 CL4  UNL     1      -0.614  -2.637   3.335  1.00  0.00    -0.080 Cl
ENDROOT
BRANCH   5  10
HETATM   10  N2  UNL     1       2.016  -0.650  -0.635  1.00  0.00    -0.378 NA
BRANCH  10  11
HETATM   11  C11 UNL     1       3.157  -0.379  -1.250  1.00  0.00     0.228 C 
BRANCH  11  12
HETATM   12  O3  UNL     1       3.352  -0.442  -2.575  1.00  0.00    -0.335 OA
ATOM     13  H3  UNL     1       4.171  -0.248  -3.016  1.00  0.00     0.220 HD
ENDBRANCH  11  12
BRANCH  11  14
HETATM   14  C12 UNL     1       4.445   0.064  -0.639  1.00  0.00     0.069 A 
HETATM   15  C13 UNL     1       4.891   1.317  -1.106  1.00  0.00     0.042 A 
HETATM   16  C14 UNL     1       6.016   1.947  -0.622  1.00  0.00     0.045 A 
HETATM   17 BR1  UNL     1       6.584   3.632  -1.270  1.00  0.00    -0.048 Br
HETATM   18  C15 UNL     1       6.768   1.336   0.376  1.00  0.00     0.086 A 
HETATM   19  C16 UNL     1       6.348   0.122   0.833  1.00  0.00     0.081 A 
HETATM   20  C17 UNL     1       5.180  -0.502   0.313  1.00  0.00     0.134 A 
HETATM   21  F1  UNL     1       4.902  -1.718   0.799  1.00  0.00    -0.205 F 
BRANCH  18  22
HETATM   22  O4  UNL     1       7.903   1.983   0.849  1.00  0.00    -0.359 OA
ATOM     23  H4  UNL     1       8.417   1.566   1.531  1.00  0.00     0.217 HD
ENDBRANCH  18  22
ENDBRANCH  11  14
ENDBRANCH  10  11
ENDBRANCH   5  10
BRANCH   3  24
HETATM   24  S1  UNL     1      -2.724   0.987  -0.073  1.00  0.00     0.210 S 
HETATM   25  O1  UNL     1      -2.275   1.727  -1.346  1.00  0.00    -0.217 OA
HETATM   26  O2  UNL     1      -2.913   2.112   0.963  1.00  0.00    -0.217 OA
BRANCH  24  27
HETATM   27  C3  UNL     1      -4.284   0.340  -0.395  1.00  0.00     0.086 A 
HETATM   28  C4  UNL     1      -4.640  -0.983  -0.459  1.00  0.00     0.027 A 
HETATM   29  C5  UNL     1      -5.943  -1.335  -0.726  1.00  0.00     0.025 A 
HETATM   30  C6  UNL     1      -6.944  -0.425  -0.943  1.00  0.00     0.035 A 
HETATM   31 CL1  UNL     1      -8.601  -0.889  -1.280  1.00  0.00    -0.084 Cl
HETATM   32  C7  UNL     1      -6.569   0.904  -0.875  1.00  0.00     0.049 A 
HETATM   33  C8  UNL     1      -5.288   1.296  -0.611  1.00  0.00     0.057 A 
HETATM   34 CL2  UNL     1      -4.880   3.041  -0.546  1.00  0.00    -0.083 Cl
ENDBRANCH  24  27
ENDBRANCH   3  24
TORSDOF 7
