REMARK  8 active torsions:
REMARK  status: ('A' for Active; 'I' for Inactive)
REMARK    1  A    between atoms: O1_2  and  C2_3 
REMARK    2  A    between atoms: C4_5  and  C5_6 
REMARK    3  A    between atoms: C5_6  and  C6_7 
REMARK    4  A    between atoms: C6_7  and  C7_9 
REMARK    5  A    between atoms: C7_9  and  S1_10 
REMARK    6  A    between atoms: S1_10  and  C8_11 
REMARK    7  A    between atoms: C16_24  and  C17_25 
REMARK    8  A    between atoms: C18_28  and  O4_29 
ROOT
HETATM    1  C8  UNL     1       4.789   0.481  -1.084  1.00  0.00     0.046 A 
HETATM    2  C9  UNL     1       5.837   1.410  -1.298  1.00  0.00     0.075 A 
HETATM    3 CL1  UNL     1       5.547   2.748  -2.349  1.00  0.00    -0.081 Cl
HETATM    4  C10 UNL     1       7.031   1.222  -0.681  1.00  0.00     0.080 A 
HETATM    5 CL2  UNL     1       8.336   2.377  -0.963  1.00  0.00    -0.081 Cl
HETATM    6  C11 UNL     1       7.299   0.168   0.156  1.00  0.00     0.080 A 
HETATM    7 CL3  UNL     1       8.850  -0.016   0.908  1.00  0.00    -0.081 Cl
HETATM    8  C12 UNL     1       6.282  -0.729   0.358  1.00  0.00     0.079 A 
HETATM    9 CL4  UNL     1       6.563  -2.074   1.409  1.00  0.00    -0.081 Cl
HETATM   10  C13 UNL     1       5.053  -0.561  -0.260  1.00  0.00     0.086 A 
HETATM   11  C14 UNL     1       4.029  -1.533  -0.005  1.00  0.00     0.102 C 
HETATM   12  N1  UNL     1       3.213  -2.294   0.224  1.00  0.00    -0.191 NA
ENDROOT
BRANCH   1  13
HETATM   13  S1  UNL     1       3.219   0.805  -1.881  1.00  0.00    -0.119 SA
BRANCH  13  14
HETATM   14  C7  UNL     1       2.098   1.687  -0.719  1.00  0.00     0.158 C 
BRANCH  14  15
HETATM   15  C6  UNL     1       0.941   0.836  -0.363  1.00  0.00     0.140 C 
HETATM   16  O2  UNL     1       0.739  -0.164  -1.000  1.00  0.00    -0.297 OA
BRANCH  15  17
HETATM   17  C5  UNL     1       0.051   1.209   0.740  1.00  0.00     0.117 C 
BRANCH  17  18
HETATM   18  C4  UNL     1      -1.224   0.483   0.748  1.00  0.00    -0.047 A 
HETATM   19  C3  UNL     1      -2.350   1.193   0.316  1.00  0.00     0.047 A 
HETATM   20  C2  UNL     1      -3.587   0.611   0.259  1.00  0.00     0.103 A 
HETATM   21  C18 UNL     1      -3.737  -0.725   0.636  1.00  0.00     0.116 A 
HETATM   22  C16 UNL     1      -2.666  -1.457   1.067  1.00  0.00     0.066 A 
HETATM   23  C15 UNL     1      -1.407  -0.818   1.111  1.00  0.00     0.027 A 
BRANCH  20  24
HETATM   24  O1  UNL     1      -4.707   1.327  -0.175  1.00  0.00    -0.353 OA
HETATM   25  C1  UNL     1      -4.567   2.663  -0.561  1.00  0.00     0.210 C 
ENDBRANCH  20  24
BRANCH  21  26
HETATM   26  O4  UNL     1      -5.000  -1.300   0.564  1.00  0.00    -0.352 OA
HETATM   27  C19 UNL     1      -5.462  -1.849  -0.669  1.00  0.00     0.210 C 
ENDBRANCH  21  26
BRANCH  22  28
HETATM   28  C17 UNL     1      -2.749  -2.837   1.497  1.00  0.00     0.267 C 
HETATM   29  N2  UNL     1      -3.865  -3.633   1.657  1.00  0.00    -0.057 NA
HETATM   30  O3  UNL     1      -1.621  -3.415   1.774  1.00  0.00    -0.271 OA
ENDBRANCH  22  28
ENDBRANCH  17  18
ENDBRANCH  15  17
ENDBRANCH  14  15
ENDBRANCH  13  14
ENDBRANCH   1  13
TORSDOF 8
