REMARK  20 active torsions:
REMARK  status: ('A' for Active; 'I' for Inactive)
REMARK    1  A    between atoms: C3_3  and  C4_4 
REMARK    2  A    between atoms: C4_4  and  C5_5 
REMARK    3  A    between atoms: C6_6  and  C7_7 
REMARK    4  A    between atoms: C7_7  and  C8_8 
REMARK    5  A    between atoms: C8_8  and  C9_10 
REMARK    6  A    between atoms: C10_11  and  C11_12 
REMARK    7  A    between atoms: C11_12  and  C12_13 
REMARK    8  A    between atoms: C12_13  and  O2_14 
REMARK    9  A    between atoms: C12_13  and  C13_16 
REMARK   10  A    between atoms: C14_17  and  C15_18 
REMARK   11  A    between atoms: C18_21  and  O3_22 
REMARK   12  A    between atoms: C19_24  and  O4_25 
REMARK   13  A    between atoms: C20_27  and  O5_28 
REMARK   14  A    between atoms: C21_30  and  O6_31 
REMARK   15  A    between atoms: C24_35  and  C25_36 
REMARK   16  A    between atoms: C24_35  and  C29_44 
REMARK   17  A    between atoms: C25_36  and  C26_37 
REMARK   18  A    between atoms: C26_37  and  C27_38 
REMARK   19  A    between atoms: C27_38  and  C28_39 
REMARK   20  A    between atoms: C28_39  and  N1_40 
ROOT
HETATM    1  C11 UNL     1      -0.665   0.459   0.442  1.00  0.00     0.063 C 
ENDROOT
BRANCH   1   2
HETATM    2  C10 UNL     1       0.675   0.686  -0.142  1.00  0.00    -0.020 C 
HETATM    3  C9  UNL     1       0.848   1.449  -1.180  1.00  0.00     0.052 C 
BRANCH   3   4
HETATM    4  C8  UNL     1       2.181   1.707  -1.805  1.00  0.00     0.182 C 
HETATM    5  O1  UNL     1       2.147   2.475  -2.784  1.00  0.00    -0.288 OA
BRANCH   4   6
HETATM    6  C7  UNL     1       3.384   1.097  -1.292  1.00  0.00     0.020 C 
HETATM    7  C24 UNL     1       4.701   1.679  -1.403  1.00  0.00    -0.044 C 
BRANCH   6   8
HETATM    8  C6  UNL     1       3.449  -0.398  -1.459  1.00  0.00     0.012 C 
HETATM    9  C5  UNL     1       4.552  -1.092  -1.619  1.00  0.00    -0.022 C 
BRANCH   9  10
HETATM   10  C4  UNL     1       4.453  -2.571  -1.773  1.00  0.00     0.054 C 
BRANCH  10  11
HETATM   11  C3  UNL     1       5.196  -3.274  -0.701  1.00  0.00    -0.027 C 
HETATM   12  C2  UNL     1       5.854  -2.637   0.256  1.00  0.00    -0.035 C 
HETATM   13  C1  UNL     1       6.601  -3.328   1.334  1.00  0.00     0.036 C 
ENDBRANCH  10  11
ENDBRANCH   9  10
ENDBRANCH   6   8
BRANCH   7  14
HETATM   14  C25 UNL     1       5.346   1.929  -0.241  1.00  0.00     0.008 C 
BRANCH  14  15
HETATM   15  C26 UNL     1       6.647   2.501  -0.107  1.00  0.00    -0.002 C 
BRANCH  15  16
HETATM   16  C27 UNL     1       7.252   2.726   1.051  1.00  0.00     0.000 C 
BRANCH  16  17
HETATM   17  C28 UNL     1       6.715   2.437   2.388  1.00  0.00     0.257 C 
BRANCH  17  18
HETATM   18  N1  UNL     1       6.640   3.704   3.131  1.00  0.00    -0.076 N 
ATOM     19  H13 UNL     1       7.533   4.197   3.162  1.00  0.00     0.274 HD
ATOM     20  H12 UNL     1       6.106   4.420   2.638  1.00  0.00     0.274 HD
ATOM     21  H11 UNL     1       6.267   3.503   4.059  1.00  0.00     0.274 HD
ENDBRANCH  17  18
ENDBRANCH  16  17
ENDBRANCH  15  16
ENDBRANCH  14  15
ENDBRANCH   7  14
BRANCH   7  22
HETATM   22  C29 UNL     1       5.466   1.893  -2.621  1.00  0.00     0.035 C 
HETATM   23  C30 UNL     1       5.015   3.022  -3.496  1.00  0.00     0.010 C 
ENDBRANCH   7  22
ENDBRANCH   4   6
ENDBRANCH   3   4
ENDBRANCH   1   2
BRANCH   1  24
HETATM   24  C12 UNL     1      -1.052  -1.010   0.422  1.00  0.00     0.144 C 
BRANCH  24  25
HETATM   25  O2  UNL     1      -1.056  -1.438  -0.909  1.00  0.00    -0.391 OA
ATOM     26  H2  UNL     1      -1.298  -2.357  -0.922  1.00  0.00     0.210 HD
ENDBRANCH  24  25
BRANCH  24  27
HETATM   27  C13 UNL     1      -2.407  -1.102   1.000  1.00  0.00     0.001 C 
HETATM   28  C14 UNL     1      -3.465  -0.833   0.258  1.00  0.00    -0.023 C 
BRANCH  28  29
HETATM   29  C15 UNL     1      -4.879  -0.894   0.738  1.00  0.00     0.020 C 
HETATM   30  C16 UNL     1      -5.347   0.524   0.849  1.00  0.00     0.021 C 
HETATM   31  C17 UNL     1      -5.215   1.321  -0.420  1.00  0.00     0.013 C 
HETATM   32  C18 UNL     1      -6.675   0.689   1.515  1.00  0.00     0.153 C 
HETATM   33  C19 UNL     1      -7.343  -0.592   1.895  1.00  0.00     0.178 C 
HETATM   34  C20 UNL     1      -7.973  -1.166   0.668  1.00  0.00     0.178 C 
HETATM   35  C21 UNL     1      -7.048  -1.624  -0.387  1.00  0.00     0.153 C 
HETATM   36  C22 UNL     1      -5.632  -1.850  -0.032  1.00  0.00     0.021 C 
HETATM   37  C23 UNL     1      -5.558  -3.225   0.658  1.00  0.00     0.013 C 
BRANCH  32  38
HETATM   38  O3  UNL     1      -6.627   1.491   2.663  1.00  0.00    -0.393 OA
ATOM     39  H3  UNL     1      -7.471   1.596   3.086  1.00  0.00     0.210 HD
ENDBRANCH  32  38
BRANCH  33  40
HETATM   40  O4  UNL     1      -8.401  -0.254   2.772  1.00  0.00    -0.390 OA
ATOM     41  H4  UNL     1      -8.826  -1.069   3.014  1.00  0.00     0.210 HD
ENDBRANCH  33  40
BRANCH  34  42
HETATM   42  O5  UNL     1      -8.844  -0.173   0.158  1.00  0.00    -0.390 OA
ATOM     43  H5  UNL     1      -9.245  -0.538  -0.622  1.00  0.00     0.210 HD
ENDBRANCH  34  42
BRANCH  35  44
HETATM   44  O6  UNL     1      -7.127  -0.860  -1.577  1.00  0.00    -0.393 OA
ATOM     45  H6  UNL     1      -6.532  -1.155  -2.256  1.00  0.00     0.210 HD
ENDBRANCH  35  44
ENDBRANCH  28  29
ENDBRANCH  24  27
ENDBRANCH   1  24
TORSDOF 20
