REMARK  6 active torsions:
REMARK  status: ('A' for Active; 'I' for Inactive)
REMARK    1  A    between atoms: C1_2  and  O2_3 
REMARK    2  A    between atoms: C1_2  and  C9_17 
REMARK    3  A    between atoms: O2_3  and  C2_4 
REMARK    4  A    between atoms: C2_4  and  C3_5 
REMARK    5  A    between atoms: C6_11  and  O4_12 
REMARK    6  A    between atoms: C7_14  and  C8_15 
ROOT
HETATM    1  C3  UNL     1      -0.285  -0.088   0.287  1.00  0.00    -0.017 A 
HETATM    2  C4  UNL     1       0.036   1.230   0.059  1.00  0.00     0.084 A 
HETATM    3  C5  UNL     1      -0.924   2.228  -0.136  1.00  0.00     0.247 A 
HETATM    4  O3  UNL     1      -0.538   3.413  -0.340  1.00  0.00    -0.268 OA
HETATM    5  N1  UNL     1      -2.207   1.874  -0.098  1.00  0.00    -0.304 N 
ATOM      6  H1  UNL     1      -2.928   2.581  -0.238  1.00  0.00     0.171 HD
HETATM    7  C6  UNL     1      -2.565   0.597   0.123  1.00  0.00     0.150 A 
HETATM    8  C7  UNL     1      -1.650  -0.404   0.318  1.00  0.00     0.011 A 
ENDROOT
BRANCH   1   9
HETATM    9  C2  UNL     1       0.723  -1.138   0.550  1.00  0.00     0.218 C 
BRANCH   9  10
HETATM   10  O2  UNL     1       2.040  -0.762   0.427  1.00  0.00    -0.313 OA
BRANCH  10  11
HETATM   11  C1  UNL     1       2.703  -0.350  -0.714  1.00  0.00     0.314 C 
HETATM   12  O1  UNL     1       2.063  -0.312  -1.787  1.00  0.00    -0.260 OA
BRANCH  11  13
HETATM   13  C9  UNL     1       4.143   0.029  -0.621  1.00  0.00     0.276 C 
HETATM   14 CL1  UNL     1       5.075  -1.360  -0.063  1.00  0.00    -0.073 Cl
HETATM   15 CL2  UNL     1       4.779   0.576  -2.175  1.00  0.00    -0.073 Cl
HETATM   16 CL3  UNL     1       4.281   1.395   0.516  1.00  0.00    -0.073 Cl
ENDBRANCH  11  13
ENDBRANCH  10  11
ENDBRANCH   9  10
ENDBRANCH   1   9
BRANCH   8  17
HETATM   17  C8  UNL     1      -2.050  -1.808   0.542  1.00  0.00     0.128 C 
HETATM   18 BR1  UNL     1      -1.884  -2.868  -1.083  1.00  0.00    -0.091 Br
ENDBRANCH   8  17
BRANCH   7  19
HETATM   19  O4  UNL     1      -3.909   0.243   0.161  1.00  0.00    -0.346 OA
ATOM     20  H4  UNL     1      -4.162  -0.659   0.317  1.00  0.00     0.219 HD
ENDBRANCH   7  19
TORSDOF 6
