REMARK  5 active torsions:
REMARK  status: ('A' for Active; 'I' for Inactive)
REMARK    1  A    between atoms: O1_2  and  C2_3 
REMARK    2  A    between atoms: N1_5  and  C4_6 
REMARK    3  A    between atoms: C9_11  and  O2_12 
REMARK    4  A    between atoms: C9_11  and  C10_14 
REMARK    5  A    between atoms: C10_14  and  C11_15 
ROOT
HETATM    1  C2  UNL     1      -0.027  -1.291  -0.476  1.00  0.00     0.172 C 
HETATM    2  C3  UNL     1      -1.503  -0.894  -0.457  1.00  0.00     0.152 C 
HETATM    3  N1  UNL     1      -1.692   0.445   0.028  1.00  0.00    -0.406 N 
HETATM    4  C7  UNL     1      -1.048   1.446  -0.755  1.00  0.00     0.120 C 
HETATM    5  C8  UNL     1      -0.026   0.833  -1.661  1.00  0.00     0.060 C 
HETATM    6  C9  UNL     1       0.855  -0.193  -0.923  1.00  0.00     0.087 C 
ENDROOT
BRANCH   6   7
HETATM    7  O2  UNL     1       1.677  -0.702  -1.968  1.00  0.00    -0.387 OA
ATOM      8  H2  UNL     1       2.244   0.004  -2.255  1.00  0.00     0.210 HD
ENDBRANCH   6   7
BRANCH   6   9
HETATM    9  C10 UNL     1       1.640   0.557   0.063  1.00  0.00     0.044 C 
BRANCH   9  10
HETATM   10  C11 UNL     1       2.639  -0.112   0.906  1.00  0.00    -0.020 C 
HETATM   11  C12 UNL     1       3.253   0.997   1.791  1.00  0.00     0.009 C 
HETATM   12  C13 UNL     1       3.798  -0.729   0.165  1.00  0.00     0.009 C 
ENDBRANCH   9  10
ENDBRANCH   6   9
BRANCH   1  13
HETATM   13  O1  UNL     1       0.320  -1.896   0.724  1.00  0.00    -0.386 OA
HETATM   14  C1  UNL     1       0.543  -3.238   0.556  1.00  0.00     0.202 C 
ENDBRANCH   1  13
BRANCH   3  15
HETATM   15  C4  UNL     1      -3.009   0.742   0.451  1.00  0.00     0.071 C 
HETATM   16  C5  UNL     1      -4.061   0.658  -0.624  1.00  0.00     0.031 C 
HETATM   17  C6  UNL     1      -2.988   2.122   1.116  1.00  0.00     0.031 C 
ENDBRANCH   3  15
TORSDOF 5
