REMARK  10 active torsions:
REMARK  status: ('A' for Active; 'I' for Inactive)
REMARK    1  A    between atoms: C2_2  and  C3_3 
REMARK    2  A    between atoms: C3_3  and  C4_4 
REMARK    3  A    between atoms: C4_4  and  C5_5 
REMARK    4  A    between atoms: C6_6  and  C7_7 
REMARK    5  A    between atoms: C8_8  and  C9_9 
REMARK    6  A    between atoms: C15_16  and  O2_17 
REMARK    7  A    between atoms: C18_21  and  O3_22 
REMARK    8  A    between atoms: N1_31  and  C24_32 
REMARK    9  A    between atoms: C24_32  and  C25_33 
REMARK   10  A    between atoms: C28_36  and  O6_37 
ROOT
HETATM    1  C9  UNL     1       2.214  -0.126   1.581  1.00  0.00     0.046 A 
HETATM    2  C10 UNL     1       1.833   0.803   0.472  1.00  0.00     0.050 A 
HETATM    3  C11 UNL     1       0.818  -0.127   0.919  1.00  0.00     0.076 A 
HETATM    4  O1  UNL     1      -0.157   0.297   1.776  1.00  0.00    -0.365 OA
HETATM    5  C12 UNL     1      -1.470  -0.070   1.367  1.00  0.00     0.204 C 
HETATM    6  C13 UNL     1      -1.807   0.358  -0.002  1.00  0.00     0.026 C 
HETATM    7  C14 UNL     1      -1.673  -0.727  -1.053  1.00  0.00    -0.021 C 
HETATM    8  C15 UNL     1      -0.227  -1.193  -1.100  1.00  0.00     0.156 C 
HETATM    9  C16 UNL     1       0.424  -1.388   0.215  1.00  0.00     0.057 C 
HETATM   10  C17 UNL     1      -0.340  -2.292   1.145  1.00  0.00     0.054 C 
HETATM   11  C18 UNL     1      -1.541  -1.531   1.645  1.00  0.00     0.118 C 
HETATM   12  C19 UNL     1      -2.856  -2.201   1.371  1.00  0.00     0.199 C 
HETATM   13  O4  UNL     1      -3.770  -1.763   2.337  1.00  0.00    -0.310 OA
HETATM   14  C20 UNL     1      -4.947  -1.180   2.419  1.00  0.00     0.259 C 
HETATM   15  O5  UNL     1      -6.045  -1.816   2.501  1.00  0.00    -0.265 OA
HETATM   16  C21 UNL     1      -5.110   0.298   2.427  1.00  0.00     0.112 C 
HETATM   17  C22 UNL     1      -5.044   0.929   1.060  1.00  0.00     0.025 C 
HETATM   18  C23 UNL     1      -3.747   1.664   0.788  1.00  0.00     0.096 C 
HETATM   19  N1  UNL     1      -2.946   1.144  -0.248  1.00  0.00    -0.284 NA
HETATM   20  C28 UNL     1      -3.327  -2.353  -0.001  1.00  0.00     0.163 C 
HETATM   21  C29 UNL     1      -2.687  -1.761  -1.153  1.00  0.00     0.008 C 
HETATM   22  C30 UNL     1      -2.080  -2.886  -2.035  1.00  0.00     0.022 C 
HETATM   23  C31 UNL     1      -3.798  -1.303  -2.138  1.00  0.00     0.022 C 
ENDROOT
BRANCH   1  24
HETATM   24  C8  UNL     1       3.128  -1.243   1.247  1.00  0.00    -0.019 C 
HETATM   25  C7  UNL     1       4.304  -1.167   0.717  1.00  0.00    -0.004 C 
BRANCH  25  26
HETATM   26  C6  UNL     1       5.015   0.042   0.322  1.00  0.00    -0.004 C 
HETATM   27  C5  UNL     1       6.211   0.027  -0.219  1.00  0.00    -0.026 C 
BRANCH  27  28
HETATM   28  C4  UNL     1       6.855   1.306  -0.588  1.00  0.00     0.031 C 
BRANCH  28  29
HETATM   29  C3  UNL     1       8.150   1.431   0.184  1.00  0.00     0.030 C 
BRANCH  29  30
HETATM   30  C2  UNL     1       8.996   0.274  -0.195  1.00  0.00    -0.037 C 
HETATM   31  C1  UNL     1      10.176   0.483  -0.757  1.00  0.00     0.007 C 
ENDBRANCH  29  30
ENDBRANCH  28  29
ENDBRANCH  27  28
ENDBRANCH  25  26
ENDBRANCH   1  24
BRANCH   8  32
HETATM   32  O2  UNL     1       0.583  -0.242  -1.781  1.00  0.00    -0.391 OA
ATOM     33  H2  UNL     1       1.487  -0.533  -1.810  1.00  0.00     0.210 HD
ENDBRANCH   8  32
BRANCH  11  34
HETATM   34  O3  UNL     1      -1.443  -1.635   3.069  1.00  0.00    -0.384 OA
ATOM     35  H3  UNL     1      -1.488  -2.567   3.246  1.00  0.00     0.210 HD
ENDBRANCH  11  34
BRANCH  19  36
HETATM   36  C24 UNL     1      -2.679   2.207  -1.238  1.00  0.00     0.100 C 
BRANCH  36  37
HETATM   37  C25 UNL     1      -1.752   3.271  -0.685  1.00  0.00    -0.001 A 
HETATM   38  C26 UNL     1      -1.450   4.377  -1.667  1.00  0.00     0.006 A 
HETATM   39  C27 UNL     1      -2.317   4.675  -0.526  1.00  0.00     0.006 A 
ENDBRANCH  36  37
ENDBRANCH  19  36
BRANCH  20  40
HETATM   40  O6  UNL     1      -3.553  -3.738  -0.276  1.00  0.00    -0.392 OA
ATOM     41  H6  UNL     1      -3.860  -3.837  -1.170  1.00  0.00     0.210 HD
ENDBRANCH  20  40
TORSDOF 10
