REMARK  8 active torsions:
REMARK  status: ('A' for Active; 'I' for Inactive)
REMARK    1  A    between atoms: C2_2  and  C3_3 
REMARK    2  A    between atoms: C3_3  and  C5_5 
REMARK    3  A    between atoms: C5_5  and  O1_6 
REMARK    4  A    between atoms: C5_5  and  N1_8 
REMARK    5  A    between atoms: C7_10  and  O2_11 
REMARK    6  A    between atoms: O2_11  and  C8_12 
REMARK    7  A    between atoms: C15_22  and  C16_23 
REMARK       I    between atoms: C16_23  and  N2_25 
REMARK    8  A    between atoms: N2_25  and  C17_27 
ROOT
HETATM    1  N1  UNL     1      -0.812   0.017   0.192  1.00  0.00    -0.372 N 
HETATM    2  C6  UNL     1       0.200  -0.467   1.055  1.00  0.00     0.152 C 
HETATM    3  C7  UNL     1       1.442   0.042   0.355  1.00  0.00     0.149 C 
HETATM    4  C14 UNL     1       0.979   1.434  -0.058  1.00  0.00     0.069 C 
HETATM    5  C15 UNL     1      -0.560   1.391   0.059  1.00  0.00     0.177 C 
ENDROOT
BRANCH   5   6
HETATM    6  C16 UNL     1      -1.004   2.265   1.166  1.00  0.00     0.258 C 
HETATM    7  O3  UNL     1      -1.546   1.785   2.179  1.00  0.00    -0.270 OA
HETATM    8  N2  UNL     1      -0.824   3.667   1.097  1.00  0.00    -0.156 N 
ATOM      9  H2  UNL     1      -0.117   4.083   1.703  1.00  0.00     0.187 HD
BRANCH   8  10
HETATM   10  C17 UNL     1      -1.487   4.456   0.326  1.00  0.00     0.710 A 
HETATM   11  N3  UNL     1      -1.307   5.799   0.267  1.00  0.00    -0.117 N 
HETATM   12  N4  UNL     1      -2.145   6.307  -0.623  1.00  0.00     0.006 NA
ATOM     13  H3  UNL     1      -0.635   6.331   0.819  1.00  0.00     0.202 HD
HETATM   14  N5  UNL     1      -2.862   5.322  -1.141  1.00  0.00     0.006 NA
HETATM   15  N6  UNL     1      -2.461   4.190  -0.561  1.00  0.00    -0.117 N 
ATOM     16  H6  UNL     1      -2.837   3.263  -0.760  1.00  0.00     0.202 HD
ENDBRANCH   8  10
ENDBRANCH   5   6
BRANCH   1  17
HETATM   17  C5  UNL     1      -2.128  -0.416   0.335  1.00  0.00     0.220 C 
BRANCH  17  18
HETATM   18  C3  UNL     1      -2.350  -1.889   0.105  1.00  0.00     0.030 C 
HETATM   19  C4  UNL     1      -3.812  -2.159   0.389  1.00  0.00     0.014 C 
BRANCH  18  20
HETATM   20  C2  UNL     1      -1.975  -2.325  -1.286  1.00  0.00     0.004 C 
HETATM   21  C1  UNL     1      -2.191  -3.783  -1.531  1.00  0.00     0.005 C 
ENDBRANCH  18  20
ENDBRANCH  17  18
BRANCH  17  22
HETATM   22  O1  UNL     1      -2.929   0.270  -0.595  1.00  0.00    -0.377 OA
ATOM     23  H1  UNL     1      -2.789   1.198  -0.450  1.00  0.00     0.212 HD
ENDBRANCH  17  22
ENDBRANCH   1  17
BRANCH   3  24
HETATM   24  O2  UNL     1       2.577   0.093   1.184  1.00  0.00    -0.341 OA
BRANCH  24  25
HETATM   25  C8  UNL     1       3.768  -0.515   0.829  1.00  0.00     0.112 A 
HETATM   26  C9  UNL     1       4.712   0.212   0.099  1.00  0.00     0.070 A 
HETATM   27 CL1  UNL     1       4.416   1.868  -0.372  1.00  0.00    -0.081 Cl
HETATM   28  C10 UNL     1       5.917  -0.362  -0.275  1.00  0.00     0.050 A 
HETATM   29  C11 UNL     1       6.228  -1.659   0.056  1.00  0.00     0.037 A 
HETATM   30 CL2  UNL     1       7.769  -2.352  -0.435  1.00  0.00    -0.084 Cl
HETATM   31  C12 UNL     1       5.311  -2.385   0.772  1.00  0.00     0.050 A 
HETATM   32  C13 UNL     1       4.106  -1.808   1.145  1.00  0.00     0.070 A 
HETATM   33 CL3  UNL     1       2.996  -2.781   2.048  1.00  0.00    -0.081 Cl
ENDBRANCH  24  25
ENDBRANCH   3  24
TORSDOF 8
