REMARK  7 active torsions:
REMARK  status: ('A' for Active; 'I' for Inactive)
REMARK    1  A    between atoms: O1_2  and  C2_3 
REMARK    2  A    between atoms: C2_3  and  C3_5 
REMARK    3  A    between atoms: C15_17  and  O3_18 
REMARK    4  A    between atoms: C17_21  and  O4_22 
REMARK    5  A    between atoms: C20_26  and  C21_27 
REMARK    6  A    between atoms: C26_32  and  C27_33 
REMARK    7  A    between atoms: C27_33  and  O5_34 
ROOT
HETATM    1  C3  UNL     1       2.948   0.627  -0.949  1.00  0.00     0.101 C 
HETATM    2  C4  UNL     1       2.877  -0.680  -1.778  1.00  0.00     0.016 C 
HETATM    3  C5  UNL     1       3.181  -1.596  -0.653  1.00  0.00     0.007 C 
HETATM    4  C6  UNL     1       2.629  -0.937   0.603  1.00  0.00     0.009 C 
HETATM    5  C7  UNL     1       2.060  -1.821   1.586  1.00  0.00    -0.040 C 
HETATM    6  C8  UNL     1       3.240  -2.401   2.450  1.00  0.00     0.015 C 
HETATM    7  C9  UNL     1       1.070  -1.419   2.588  1.00  0.00     0.015 C 
HETATM    8  C10 UNL     1       1.580  -3.168   1.013  1.00  0.00     0.036 C 
HETATM    9  C11 UNL     1       0.583  -3.034  -0.027  1.00  0.00    -0.025 C 
HETATM   10  C12 UNL     1      -0.162  -2.105  -0.594  1.00  0.00     0.004 C 
HETATM   11  C13 UNL     1      -0.312  -0.670  -0.389  1.00  0.00    -0.037 C 
HETATM   12  C14 UNL     1       0.573   0.332  -0.080  1.00  0.00    -0.032 C 
HETATM   13  C15 UNL     1      -0.068   1.634   0.027  1.00  0.00     0.153 C 
HETATM   14  C16 UNL     1      -1.319   1.896  -0.727  1.00  0.00     0.109 C 
HETATM   15  C17 UNL     1      -2.109   0.794  -1.269  1.00  0.00     0.276 C 
HETATM   16  N1  UNL     1      -3.391   0.686  -0.594  1.00  0.00     0.127 N 
HETATM   17  C19 UNL     1      -4.028   1.891  -0.188  1.00  0.00     0.314 C 
HETATM   18  C20 UNL     1      -2.649  -0.031   0.460  1.00  0.00     0.247 C 
HETATM   19  C24 UNL     1      -1.738  -0.503  -0.600  1.00  0.00     0.076 C 
HETATM   20  C25 UNL     1      -2.446  -1.588  -1.380  1.00  0.00     0.028 C 
HETATM   21  C26 UNL     1       2.006   0.395   0.200  1.00  0.00     0.024 C 
ENDROOT
BRANCH   1  22
HETATM   22  C2  UNL     1       2.867   1.657  -1.893  1.00  0.00     0.263 C 
HETATM   23  O2  UNL     1       2.252   1.577  -3.000  1.00  0.00    -0.265 OA
BRANCH  22  24
HETATM   24  O1  UNL     1       3.488   2.905  -1.668  1.00  0.00    -0.326 OA
HETATM   25  C1  UNL     1       3.412   3.948  -2.612  1.00  0.00     0.213 C 
ENDBRANCH  22  24
ENDBRANCH   1  22
BRANCH  21  26
HETATM   26  C27 UNL     1       2.393   1.391   1.257  1.00  0.00     0.179 C 
BRANCH  26  27
HETATM   27  O5  UNL     1       3.729   1.193   1.714  1.00  0.00    -0.400 OA
ATOM     28  H5  UNL     1       3.974   1.823   2.382  1.00  0.00     0.209 HD
ENDBRANCH  26  27
ENDBRANCH  21  26
BRANCH  13  29
HETATM   29  O3  UNL     1       0.600   2.798  -0.203  1.00  0.00    -0.391 OA
ATOM     30  H3  UNL     1       0.182   3.648  -0.133  1.00  0.00     0.210 HD
ENDBRANCH  13  29
BRANCH  15  31
HETATM   31  O4  UNL     1      -2.146   0.623  -2.636  1.00  0.00    -0.356 OA
HETATM   32  C18 UNL     1      -2.644   1.637  -3.385  1.00  0.00     0.205 C 
ENDBRANCH  15  31
BRANCH  18  33
HETATM   33  C21 UNL     1      -3.586  -1.038   1.090  1.00  0.00     0.012 C 
HETATM   34  C22 UNL     1      -4.803  -0.327   1.707  1.00  0.00     0.012 C 
HETATM   35  C23 UNL     1      -2.864  -1.677   2.254  1.00  0.00     0.012 C 
ENDBRANCH  18  33
TORSDOF 7
