REMARK  2 active torsions:
REMARK  status: ('A' for Active; 'I' for Inactive)
REMARK    1  A    between atoms: C8_11  and  C9_12 
REMARK    2  A    between atoms: C15_18  and  C16_19 
ROOT
HETATM    1  O1  UNL     1       1.293  -3.527  -2.886  1.00  0.00    -0.266 OA
HETATM    2  C1  UNL     1       0.640  -3.036  -1.952  1.00  0.00     0.273 C 
HETATM    3  N1  UNL     1      -0.718  -3.430  -1.956  1.00  0.00    -0.321 N 
ATOM      4  H1  UNL     1      -0.877  -4.384  -2.280  1.00  0.00     0.169 HD
HETATM    5  C2  UNL     1      -1.895  -2.736  -1.590  1.00  0.00     0.046 A 
HETATM    6  C3  UNL     1      -2.886  -3.517  -2.179  1.00  0.00     0.030 A 
HETATM    7  C4  UNL     1      -4.202  -3.121  -2.093  1.00  0.00     0.002 A 
HETATM    8  C5  UNL     1      -4.522  -1.957  -1.427  1.00  0.00     0.001 A 
HETATM    9  C6  UNL     1      -3.529  -1.167  -0.833  1.00  0.00     0.014 A 
HETATM   10  C7  UNL     1      -2.225  -1.550  -0.908  1.00  0.00     0.003 A 
HETATM   11  C8  UNL     1      -1.452  -0.497  -0.175  1.00  0.00    -0.001 C 
HETATM   12  C15 UNL     1      -0.168  -0.275   0.083  1.00  0.00     0.001 C 
HETATM   13  C24 UNL     1       1.039  -1.100  -0.225  1.00  0.00     0.009 A 
HETATM   14  C25 UNL     1       2.015  -0.581   0.556  1.00  0.00     0.028 A 
HETATM   15  C26 UNL     1       3.304  -1.132   0.491  1.00  0.00    -0.009 A 
HETATM   16  C27 UNL     1       4.269  -0.558   1.313  1.00  0.00     0.014 A 
HETATM   17  C28 UNL     1       5.561  -1.077   1.275  1.00  0.00     0.001 A 
HETATM   18  C29 UNL     1       5.852  -2.135   0.434  1.00  0.00     0.002 A 
HETATM   19  C30 UNL     1       4.891  -2.690  -0.370  1.00  0.00     0.030 A 
HETATM   20  C31 UNL     1       3.630  -2.186  -0.335  1.00  0.00     0.043 A 
HETATM   21  N3  UNL     1       2.632  -2.674  -1.091  1.00  0.00    -0.350 N 
ATOM     22  H3  UNL     1       2.826  -3.455  -1.717  1.00  0.00     0.166 HD
HETATM   23  C32 UNL     1       1.385  -2.167  -1.050  1.00  0.00     0.112 A 
ENDROOT
BRANCH  12  24
HETATM   24  C16 UNL     1       0.122   0.908   0.830  1.00  0.00     0.004 A 
HETATM   25  C17 UNL     1      -0.023   1.397   2.106  1.00  0.00     0.101 A 
HETATM   26  N2  UNL     1       0.412   2.649   2.227  1.00  0.00    -0.364 N 
HETATM   27  C18 UNL     1       0.872   3.078   1.063  1.00  0.00     0.043 A 
ATOM     28  H2  UNL     1       0.394   3.196   3.088  1.00  0.00     0.165 HD
HETATM   29  C19 UNL     1       1.426   4.290   0.683  1.00  0.00     0.030 A 
HETATM   30  C23 UNL     1       0.713   2.040   0.177  1.00  0.00     0.003 A 
HETATM   31  C20 UNL     1       1.831   4.471  -0.611  1.00  0.00     0.002 A 
HETATM   32  C21 UNL     1       1.685   3.458  -1.509  1.00  0.00     0.001 A 
HETATM   33  C22 UNL     1       1.126   2.242  -1.116  1.00  0.00     0.014 A 
ENDBRANCH  12  24
BRANCH  11  34
HETATM   34  C9  UNL     1      -2.305   0.497   0.454  1.00  0.00    -0.024 A 
HETATM   35  C10 UNL     1      -2.550   1.782  -0.008  1.00  0.00     0.012 A 
HETATM   36  C11 UNL     1      -3.344   2.700   0.609  1.00  0.00     0.001 A 
HETATM   37  C12 UNL     1      -3.971   2.365   1.791  1.00  0.00     0.000 A 
HETATM   38  C13 UNL     1      -3.784   1.118   2.316  1.00  0.00     0.001 A 
HETATM   39  C14 UNL     1      -2.984   0.218   1.676  1.00  0.00     0.012 A 
ENDBRANCH  11  34
TORSDOF 2
