REMARK  4 active torsions:
REMARK  status: ('A' for Active; 'I' for Inactive)
REMARK    1  A    between atoms: C2_2  and  O1_3 
REMARK    2  A    between atoms: O1_3  and  C3_4 
REMARK    3  A    between atoms: C3_4  and  C4_5 
REMARK    4  A    between atoms: N2_12  and  C8_13 
ROOT
HETATM    1  C4  UNL     1       0.323   0.820  -0.453  1.00  0.00     0.034 C 
HETATM    2  C5  UNL     1       0.042   2.322  -0.239  1.00  0.00     0.286 C 
HETATM    3  N1  UNL     1      -1.245   2.500   0.409  1.00  0.00    -0.069 N 
ATOM      4  H11 UNL     1      -1.394   3.468   0.693  1.00  0.00     0.277 HD
ATOM      5  H12 UNL     1      -1.267   2.064   1.331  1.00  0.00     0.277 HD
HETATM    6  C6  UNL     1      -2.328   2.014  -0.446  1.00  0.00     0.252 C 
HETATM    7  C7  UNL     1      -1.857   0.808  -1.186  1.00  0.00     0.150 C 
HETATM    8  N2  UNL     1      -0.851   0.119  -0.401  1.00  0.00    -0.379 N 
ENDROOT
BRANCH   1   9
HETATM    9  C3  UNL     1       1.575   0.446   0.208  1.00  0.00     0.221 C 
BRANCH   9  10
HETATM   10  O1  UNL     1       2.114  -0.797  -0.203  1.00  0.00    -0.386 OA
BRANCH  10  11
HETATM   11  C2  UNL     1       3.327  -1.015   0.456  1.00  0.00     0.163 C 
HETATM   12  C1  UNL     1       3.993  -2.283   0.045  1.00  0.00     0.033 C 
ENDBRANCH  10  11
ENDBRANCH   9  10
ENDBRANCH   1   9
BRANCH   8  13
HETATM   13  C8  UNL     1      -1.292  -0.756   0.552  1.00  0.00     0.075 C 
HETATM   14  C9  UNL     1      -2.749  -0.604   1.015  1.00  0.00     0.032 C 
HETATM   15  C10 UNL     1      -1.269  -2.186  -0.030  1.00  0.00     0.032 C 
ENDBRANCH   8  13
TORSDOF 4
