REMARK  0 active torsions:
REMARK  status: ('A' for Active; 'I' for Inactive)
ROOT
HETATM    1  C1  UNL     1      -1.721   0.207  -0.177  1.00  0.00     0.035 C 
HETATM    2  C2  UNL     1      -1.228  -1.137  -0.515  1.00  0.00     0.116 C 
HETATM    3  N1  UNL     1       0.121  -1.436  -0.216  1.00  0.00    -0.403 N 
ATOM      4  H1  UNL     1       0.570  -2.241  -0.653  1.00  0.00     0.154 HD
HETATM    5  C3  UNL     1       0.833  -0.649   0.660  1.00  0.00     0.184 C 
HETATM    6  C4  UNL     1       2.045   0.012  -0.003  1.00  0.00     0.170 C 
HETATM    7  N2  UNL     1       1.634   1.247   0.637  1.00  0.00    -0.160 NA
HETATM    8  N3  UNL     1       0.412   0.638   0.993  1.00  0.00    -0.211 NA
HETATM    9  C5  UNL     1      -0.741   1.171   0.373  1.00  0.00     0.113 C 
ENDROOT
TORSDOF 0
