REMARK  12 active torsions:
REMARK  status: ('A' for Active; 'I' for Inactive)
REMARK    1  A    between atoms: C2_2  and  C3_3 
REMARK    2  A    between atoms: C3_3  and  C4_4 
REMARK    3  A    between atoms: C4_4  and  C5_5 
REMARK    4  A    between atoms: C5_5  and  C6_6 
REMARK    5  A    between atoms: C6_6  and  S1_7 
REMARK    6  A    between atoms: S1_7  and  C7_8 
REMARK    7  A    between atoms: C7_8  and  C8_9 
REMARK    8  A    between atoms: C8_9  and  O1_10 
REMARK    9  A    between atoms: C10_16  and  C12_18 
REMARK   10  A    between atoms: C13_22  and  O2_23 
REMARK   11  A    between atoms: C14_25  and  O3_26 
REMARK   12  A    between atoms: C15_28  and  O4_29 
ROOT
HETATM    1  C8  UNL     1      -0.675  -0.591   0.142  1.00  0.00     0.259 C 
HETATM    2  C9  UNL     1      -1.018  -2.053  -0.060  1.00  0.00     0.304 C 
HETATM    3  N1  UNL     1      -2.435  -2.034   0.271  1.00  0.00    -0.034 N 
ATOM      4  H11 UNL     1      -2.636  -2.113   1.268  1.00  0.00     0.280 HD
ATOM      5  H12 UNL     1      -2.945  -2.872  -0.008  1.00  0.00     0.280 HD
HETATM    6  C10 UNL     1      -2.921  -0.788  -0.353  1.00  0.00     0.317 C 
HETATM    7  C11 UNL     1      -3.459  -1.232  -1.700  1.00  0.00     0.081 C 
HETATM    8  N3  UNL     1      -1.769   0.067  -0.493  1.00  0.00    -0.004 N 
ATOM      9  H31 UNL     1      -1.575   0.320  -1.462  1.00  0.00     0.284 HD
ATOM     10  H32 UNL     1      -1.927   1.011  -0.140  1.00  0.00     0.284 HD
ENDROOT
BRANCH   6  11
HETATM   11  C12 UNL     1      -3.955  -0.248   0.567  1.00  0.00     0.284 C 
HETATM   12  N2  UNL     1      -5.065  -1.115   0.783  1.00  0.00    -0.035 N 
HETATM   13  C13 UNL     1      -6.025  -0.304   1.519  1.00  0.00     0.351 C 
ATOM     14  H22 UNL     1      -5.439  -1.532  -0.069  1.00  0.00     0.281 HD
ATOM     15  H21 UNL     1      -4.824  -1.993   1.242  1.00  0.00     0.281 HD
HETATM   16  C14 UNL     1      -5.667   1.148   1.260  1.00  0.00     0.205 C 
HETATM   17  C15 UNL     1      -4.618   1.027   0.143  1.00  0.00     0.186 C 
BRANCH  13  18
HETATM   18  O2  UNL     1      -7.318  -0.490   0.995  1.00  0.00    -0.368 OA
ATOM     19  H2  UNL     1      -7.944   0.039   1.475  1.00  0.00     0.212 HD
ENDBRANCH  13  18
BRANCH  16  20
HETATM   20  O3  UNL     1      -6.757   1.900   0.864  1.00  0.00    -0.389 OA
ATOM     21  H3  UNL     1      -6.533   2.809   0.702  1.00  0.00     0.210 HD
ENDBRANCH  16  20
BRANCH  17  22
HETATM   22  O4  UNL     1      -5.311   0.968  -1.037  1.00  0.00    -0.391 OA
ATOM     23  H4  UNL     1      -5.731   1.776  -1.306  1.00  0.00     0.210 HD
ENDBRANCH  17  22
ENDBRANCH   6  11
BRANCH   1  24
HETATM   24  C7  UNL     1       0.672  -0.250  -0.447  1.00  0.00     0.144 C 
BRANCH  24  25
HETATM   25  S1  UNL     1       1.904  -1.241   0.447  1.00  0.00    -0.164 SA
BRANCH  25  26
HETATM   26  C6  UNL     1       3.584  -0.942  -0.158  1.00  0.00     0.074 C 
BRANCH  26  27
HETATM   27  C5  UNL     1       3.965   0.465   0.168  1.00  0.00     0.010 C 
BRANCH  27  28
HETATM   28  C4  UNL     1       5.357   0.826  -0.295  1.00  0.00     0.001 C 
BRANCH  28  29
HETATM   29  C3  UNL     1       6.405  -0.058   0.339  1.00  0.00    -0.000 C 
BRANCH  29  30
HETATM   30  C2  UNL     1       7.757   0.406  -0.210  1.00  0.00    -0.005 C 
HETATM   31  C1  UNL     1       7.975   1.855   0.163  1.00  0.00     0.005 C 
ENDBRANCH  29  30
ENDBRANCH  28  29
ENDBRANCH  27  28
ENDBRANCH  26  27
ENDBRANCH  25  26
ENDBRANCH  24  25
ENDBRANCH   1  24
BRANCH   1  32
HETATM   32  O1  UNL     1      -0.715  -0.291   1.497  1.00  0.00    -0.363 OA
ATOM     33  H1  UNL     1      -1.563  -0.506   1.868  1.00  0.00     0.212 HD
ENDBRANCH   1  32
TORSDOF 12
