REMARK  3 active torsions:
REMARK  status: ('A' for Active; 'I' for Inactive)
REMARK    1  A    between atoms: C3_3  and  C4_4 
REMARK    2  A    between atoms: C4_4  and  C7_7 
REMARK    3  A    between atoms: C13_14  and  O2_15 
ROOT
HETATM    1  C1  UNL     1       4.546  -0.010  -1.232  1.00  0.00     0.112 C 
HETATM    2  C2  UNL     1       3.271   0.081  -0.526  1.00  0.00    -0.110 C 
HETATM    3  C3  UNL     1       2.225   0.149   0.074  1.00  0.00    -0.097 C 
ENDROOT
BRANCH   3   4
HETATM    4  C4  UNL     1       0.922   0.247   0.797  1.00  0.00     0.024 C 
HETATM    5  C5  UNL     1       0.758   1.672   1.157  1.00  0.00     0.029 C 
HETATM    6  C6  UNL     1       1.143  -0.591   2.055  1.00  0.00     0.029 C 
BRANCH   4   7
HETATM    7  C7  UNL     1      -0.088  -0.356  -0.084  1.00  0.00    -0.018 C 
HETATM    8  C8  UNL     1       0.364  -1.818  -0.292  1.00  0.00     0.017 C 
HETATM    9  C9  UNL     1       0.003   0.266  -1.490  1.00  0.00     0.012 C 
HETATM   10  C10 UNL     1      -1.423   0.741  -1.823  1.00  0.00     0.008 C 
HETATM   11  C11 UNL     1      -1.984   0.943  -0.493  1.00  0.00     0.019 C 
HETATM   12  C12 UNL     1      -3.412   0.677  -0.235  1.00  0.00     0.176 C 
HETATM   13  C14 UNL     1      -1.474  -0.356   0.177  1.00  0.00     0.057 C 
HETATM   14  O1  UNL     1      -3.425   0.313   1.110  1.00  0.00    -0.361 OA
HETATM   15  C13 UNL     1      -2.177  -0.283   1.418  1.00  0.00     0.262 C 
BRANCH  15  16
HETATM   16  O2  UNL     1      -2.530  -1.575   1.878  1.00  0.00    -0.371 OA
ATOM     17  H2  UNL     1      -1.693  -1.975   2.085  1.00  0.00     0.212 HD
ENDBRANCH  15  16
ENDBRANCH   4   7
ENDBRANCH   3   4
TORSDOF 3
