REMARK  3 active torsions:
REMARK  status: ('A' for Active; 'I' for Inactive)
REMARK    1  A    between atoms: C5_6  and  C6_7 
REMARK    2  A    between atoms: C6_7  and  C7_8 
REMARK    3  A    between atoms: C7_8  and  N1_9 
ROOT
HETATM    1  C1  UNL     1      -3.058  -0.392   0.554  1.00  0.00     0.048 C 
HETATM    2  C2  UNL     1      -1.808   0.369   0.093  1.00  0.00     0.076 C 
HETATM    3  C3  UNL     1      -2.325   1.731  -0.393  1.00  0.00     0.048 C 
HETATM    4  C4  UNL     1      -0.890   0.615   1.223  1.00  0.00     0.209 C 
HETATM    5  O1  UNL     1       0.249  -0.112   1.288  1.00  0.00    -0.350 OA
HETATM    6  C5  UNL     1       0.844  -0.449   0.097  1.00  0.00     0.192 C 
HETATM    7  O2  UNL     1       1.718  -1.483   0.328  1.00  0.00    -0.353 OA
HETATM    8  C8  UNL     1       1.127  -2.672   0.018  1.00  0.00     0.174 C 
HETATM    9  C9  UNL     1      -0.313  -2.404  -0.373  1.00  0.00     0.064 C 
HETATM   10  C10 UNL     1      -0.169  -0.975  -0.853  1.00  0.00     0.187 C 
HETATM   11  O3  UNL     1      -1.316  -0.290  -0.981  1.00  0.00    -0.368 OA
ENDROOT
BRANCH   6  12
HETATM   12  C6  UNL     1       1.593   0.694  -0.536  1.00  0.00     0.098 C 
BRANCH  12  13
HETATM   13  C7  UNL     1       2.700   1.184   0.394  1.00  0.00     0.235 C 
BRANCH  13  14
HETATM   14  N1  UNL     1       3.396   2.281  -0.249  1.00  0.00    -0.079 N 
ATOM     15  H13 UNL     1       3.745   2.032  -1.174  1.00  0.00     0.274 HD
ATOM     16  H12 UNL     1       2.765   3.030  -0.533  1.00  0.00     0.274 HD
ATOM     17  H11 UNL     1       4.136   2.608   0.372  1.00  0.00     0.274 HD
ENDBRANCH  13  14
ENDBRANCH  12  13
ENDBRANCH   6  12
TORSDOF 3
