REMARK  6 active torsions:
REMARK  status: ('A' for Active; 'I' for Inactive)
REMARK    1  A    between atoms: O1_2  and  C2_3 
REMARK    2  A    between atoms: C3_4  and  C4_5 
REMARK    3  A    between atoms: C4_5  and  C5_6 
REMARK    4  A    between atoms: C9_10  and  O2_11 
REMARK    5  A    between atoms: C12_15  and  C13_16 
REMARK    6  A    between atoms: C19_24  and  C20_25 
ROOT
HETATM    1  C2  UNL     1      -2.236  -1.403  -0.528  1.00  0.00     0.092 A 
HETATM    2  C3  UNL     1      -2.571  -0.072  -0.677  1.00  0.00     0.014 A 
HETATM    3  C9  UNL     1      -1.607   0.888  -0.472  1.00  0.00     0.090 A 
HETATM    4  C10 UNL     1      -0.312   0.559  -0.119  1.00  0.00     0.067 A 
HETATM    5  C11 UNL     1      -0.017  -0.797   0.021  1.00  0.00     0.049 A 
HETATM    6  C12 UNL     1      -0.927  -1.810  -0.167  1.00  0.00     0.059 A 
HETATM    7  C15 UNL     1       1.318  -1.294   0.324  1.00  0.00     0.195 C 
HETATM    8  O4  UNL     1       1.378  -2.411   0.847  1.00  0.00    -0.287 OA
HETATM    9  C16 UNL     1       2.615  -0.616   0.077  1.00  0.00     0.029 A 
HETATM   10  C17 UNL     1       3.624  -1.533  -0.075  1.00  0.00     0.017 A 
HETATM   11  C18 UNL     1       4.921  -1.078  -0.312  1.00  0.00     0.008 A 
HETATM   12  C19 UNL     1       5.223   0.269  -0.397  1.00  0.00    -0.054 A 
HETATM   13  C23 UNL     1       4.190   1.168  -0.240  1.00  0.00     0.024 A 
HETATM   14  C24 UNL     1       2.905   0.728  -0.006  1.00  0.00     0.033 A 
HETATM   15  C25 UNL     1       1.976   1.856   0.133  1.00  0.00     0.233 C 
HETATM   16  O5  UNL     1       2.508   2.970   0.339  1.00  0.00    -0.283 OA
HETATM   17  C26 UNL     1       0.531   1.755   0.047  1.00  0.00     0.236 C 
HETATM   18  O6  UNL     1      -0.091   2.834   0.124  1.00  0.00    -0.283 OA
ENDROOT
BRANCH   2  19
HETATM   19  C4  UNL     1      -3.958   0.321  -1.018  1.00  0.00     0.072 C 
BRANCH  19  20
HETATM   20  C5  UNL     1      -4.865   0.442   0.133  1.00  0.00    -0.020 C 
HETATM   21  C6  UNL     1      -5.657   1.502   0.376  1.00  0.00    -0.091 C 
HETATM   22  C7  UNL     1      -5.737   2.705  -0.479  1.00  0.00     0.042 C 
HETATM   23  C8  UNL     1      -6.540   1.501   1.600  1.00  0.00     0.042 C 
ENDBRANCH  19  20
ENDBRANCH   2  19
BRANCH   1  24
HETATM   24  O1  UNL     1      -3.125  -2.409  -0.722  1.00  0.00    -0.354 OA
HETATM   25  C1  UNL     1      -3.993  -3.069   0.131  1.00  0.00     0.210 C 
ENDBRANCH   1  24
BRANCH   3  26
HETATM   26  O2  UNL     1      -1.863   2.241  -0.604  1.00  0.00    -0.359 OA
ATOM     27  H2  UNL     1      -1.197   2.904  -0.462  1.00  0.00     0.217 HD
ENDBRANCH   3  26
BRANCH   6  28
HETATM   28  C13 UNL     1      -0.639  -3.227  -0.071  1.00  0.00     0.159 C 
HETATM   29  C14 UNL     1      -0.851  -4.098   1.099  1.00  0.00     0.097 C 
HETATM   30  O3  UNL     1      -0.166  -3.784  -1.095  1.00  0.00    -0.293 OA
ENDBRANCH   6  28
BRANCH  12  31
HETATM   31  C20 UNL     1       6.621   0.717  -0.648  1.00  0.00     0.010 C 
HETATM   32  C21 UNL     1       7.020   1.590   0.531  1.00  0.00     0.015 C 
HETATM   33  C22 UNL     1       6.713   1.548  -1.913  1.00  0.00     0.015 C 
ENDBRANCH  12  31
TORSDOF 6
