REMARK  5 active torsions:
REMARK  status: ('A' for Active; 'I' for Inactive)
REMARK    1  A    between atoms: N1_4  and  N2_6 
REMARK    2  A    between atoms: N2_6  and  C4_8 
REMARK    3  A    between atoms: N4_15  and  O3_16 
REMARK    4  A    between atoms: C7_18  and  C8_19 
REMARK       I    between atoms: C8_19  and  N5_21 
REMARK    5  A    between atoms: N5_21  and  C9_23 
ROOT
HETATM    1  C4  UNL     1      -0.780  -0.839   0.392  1.00  0.00     0.158 A 
HETATM    2  N3  UNL     1      -1.592  -1.899   0.562  1.00  0.00    -0.302 N 
ATOM      3  H3  UNL     1      -2.593  -1.734   0.668  1.00  0.00     0.171 HD
HETATM    4  C5  UNL     1      -1.149  -3.147   0.598  1.00  0.00     0.317 A 
HETATM    5  O1  UNL     1      -1.909  -4.158   0.760  1.00  0.00    -0.262 OA
HETATM    6  C6  UNL     1       0.193  -3.362   0.455  1.00  0.00     0.340 A 
HETATM    7  O2  UNL     1       0.702  -4.523   0.476  1.00  0.00    -0.260 OA
HETATM    8  N4  UNL     1       1.025  -2.309   0.283  1.00  0.00    -0.174 N 
HETATM    9  C7  UNL     1       0.574  -1.023   0.246  1.00  0.00     0.180 A 
ENDROOT
BRANCH   9  10
HETATM   10  C8  UNL     1       1.524   0.066   0.055  1.00  0.00     0.293 C 
HETATM   11  O4  UNL     1       1.165   1.271  -0.007  1.00  0.00    -0.265 OA
HETATM   12  N5  UNL     1       2.905  -0.255  -0.062  1.00  0.00    -0.152 N 
ATOM     13  H5  UNL     1       3.204  -1.208   0.145  1.00  0.00     0.188 HD
BRANCH  12  14
HETATM   14  C9  UNL     1       3.785   0.597  -0.414  1.00  0.00     0.713 A 
HETATM   15  N6  UNL     1       3.588   1.877  -0.723  1.00  0.00    -0.113 N 
HETATM   16  N7  UNL     1       4.764   2.408  -1.026  1.00  0.00     0.009 NA
ATOM     17  H6  UNL     1       2.691   2.363  -0.726  1.00  0.00     0.203 HD
HETATM   18  N8  UNL     1       5.682   1.442  -0.900  1.00  0.00    -0.212 N 
HETATM   19  N9  UNL     1       5.109   0.319  -0.526  1.00  0.00    -0.118 N 
ATOM     20  H8  UNL     1       6.681   1.560  -1.069  1.00  0.00     0.206 HD
ATOM     21  H9  UNL     1       5.566  -0.577  -0.355  1.00  0.00     0.207 HD
ENDBRANCH  12  14
ENDBRANCH   9  10
BRANCH   1  22
HETATM   22  N2  UNL     1      -1.315   0.468   0.375  1.00  0.00    -0.283 N 
ATOM     23  H2  UNL     1      -1.029   1.122   1.103  1.00  0.00     0.188 HD
BRANCH  22  24
HETATM   24  N1  UNL     1      -2.218   0.903  -0.595  1.00  0.00    -0.308 N 
HETATM   25  C2  UNL     1      -3.310   1.499  -0.329  1.00  0.00    -0.004 C 
HETATM   26  C1  UNL     1      -3.706   1.780   1.075  1.00  0.00     0.064 C 
HETATM   27  C3  UNL     1      -4.222   1.920  -1.431  1.00  0.00     0.064 C 
ATOM     28  H1  UNL     1      -1.990   0.733  -1.575  1.00  0.00     0.186 HD
ENDBRANCH  22  24
ENDBRANCH   1  22
BRANCH   8  29
HETATM   29  O3  UNL     1       2.371  -2.522   0.136  1.00  0.00    -0.279 OA
ATOM     30  H3  UNL     1       2.955  -1.783   0.015  1.00  0.00     0.245 HD
ENDBRANCH   8  29
TORSDOF 5
