REMARK  3 active torsions:
REMARK  status: ('A' for Active; 'I' for Inactive)
REMARK       I    between atoms: C1_4  and  N3_6 
REMARK       I    between atoms: N3_6  and  C2_8 
REMARK    1  A    between atoms: C2_8  and  C3_10 
REMARK    2  A    between atoms: C7_14  and  N4_15 
REMARK    3  A    between atoms: C10_18  and  N5_19 
ROOT
HETATM    1  C3  UNL     1       1.256   0.426  -0.293  1.00  0.00     0.102 A 
HETATM    2  C4  UNL     1       1.226   1.535  -1.110  1.00  0.00     0.035 A 
HETATM    3  C5  UNL     1       0.032   2.062  -1.570  1.00  0.00     0.006 A 
HETATM    4  C6  UNL     1      -1.144   1.451  -1.191  1.00  0.00     0.049 A 
HETATM    5  C7  UNL     1      -1.116   0.341  -0.373  1.00  0.00     0.112 A 
HETATM    6  N7  UNL     1       0.056  -0.133   0.046  1.00  0.00    -0.338 N 
ATOM      7  H7  UNL     1       0.058  -0.955   0.650  1.00  0.00     0.167 HD
ENDROOT
BRANCH   5   8
HETATM    8  N4  UNL     1      -2.367  -0.264  -0.003  1.00  0.00    -0.304 N 
HETATM    9  C8  UNL     1      -3.474   0.480   0.227  1.00  0.00     0.103 A 
HETATM   10  C9  UNL     1      -4.678  -0.083   0.581  1.00  0.00     0.066 A 
HETATM   11  C10 UNL     1      -4.757  -1.454   0.706  1.00  0.00     0.100 A 
HETATM   12  N6  UNL     1      -3.664  -2.166   0.477  1.00  0.00    -0.339 N 
HETATM   13  C11 UNL     1      -2.502  -1.596   0.133  1.00  0.00     0.191 A 
ATOM     14  H6  UNL     1      -3.709  -3.181   0.565  1.00  0.00     0.168 HD
BRANCH  11  15
HETATM   15  N5  UNL     1      -5.880  -1.996   1.038  1.00  0.00    -0.385 N 
ATOM     16  H52 UNL     1      -6.722  -1.448   1.214  1.00  0.00     0.157 HD
ATOM     17  H51 UNL     1      -5.938  -3.010   1.130  1.00  0.00     0.157 HD
ENDBRANCH  11  15
ENDBRANCH   5   8
BRANCH   1  18
HETATM   18  C2  UNL     1       2.500  -0.161   0.214  1.00  0.00     0.274 C 
HETATM   19  N3  UNL     1       3.764   0.353  -0.089  1.00  0.00    -0.296 N 
HETATM   20  C1  UNL     1       4.939  -0.257   0.430  1.00  0.00     0.188 C 
ATOM     21  H3  UNL     1       3.844   1.174  -0.689  1.00  0.00     0.171 HD
HETATM   22  N1  UNL     1       6.124   0.185   0.177  1.00  0.00    -0.373 N 
HETATM   23  N2  UNL     1       4.826  -1.388   1.255  1.00  0.00    -0.064 NA
ATOM     24  H12 UNL     1       6.967  -0.253   0.549  1.00  0.00     0.158 HD
ATOM     25  H11 UNL     1       6.206   1.006  -0.422  1.00  0.00     0.158 HD
HETATM   26  O1  UNL     1       2.398  -1.170   0.949  1.00  0.00    -0.266 OA
ENDBRANCH   1  18
TORSDOF 3
