REMARK  15 active torsions:
REMARK  status: ('A' for Active; 'I' for Inactive)
REMARK    1  A    between atoms: O1_1  and  C1_3 
REMARK    2  A    between atoms: C1_3  and  C2_4 
REMARK    3  A    between atoms: C3_5  and  O2_6 
REMARK    4  A    between atoms: C4_8  and  O3_9 
REMARK    5  A    between atoms: N2_15  and  C6_16 
REMARK    6  A    between atoms: C6_16  and  C7_17 
REMARK    7  A    between atoms: C7_17  and  C8_18 
REMARK    8  A    between atoms: C8_18  and  C9_19 
REMARK    9  A    between atoms: C9_19  and  C10_20 
REMARK   10  A    between atoms: C10_20  and  C11_21 
REMARK   11  A    between atoms: C11_21  and  C12_22 
REMARK   12  A    between atoms: C12_22  and  C13_23 
REMARK   13  A    between atoms: C13_23  and  C14_24 
REMARK   14  A    between atoms: C14_24  and  N3_25 
REMARK   15  A    between atoms: N3_25  and  C15_27 
ROOT
HETATM    1  C10 UNL     1       0.986  -0.779   0.819  1.00  0.00     0.000 C 
ENDROOT
BRANCH   1   2
HETATM    2  C9  UNL     1       1.779  -0.122  -0.260  1.00  0.00     0.000 C 
BRANCH   2   3
HETATM    3  C8  UNL     1       3.135   0.363   0.228  1.00  0.00     0.002 C 
BRANCH   3   4
HETATM    4  C7  UNL     1       3.799   1.008  -0.966  1.00  0.00     0.019 C 
BRANCH   4   5
HETATM    5  C6  UNL     1       5.157   1.538  -0.692  1.00  0.00     0.119 C 
BRANCH   5   6
HETATM    6  N2  UNL     1       6.132   0.600  -0.292  1.00  0.00    -0.382 N 
HETATM    7  C2  UNL     1       7.419   1.103   0.064  1.00  0.00     0.137 C 
HETATM    8  C3  UNL     1       7.988   0.202   1.182  1.00  0.00     0.199 C 
HETATM    9  C4  UNL     1       7.208  -1.109   1.137  1.00  0.00     0.351 C 
HETATM   10  N1  UNL     1       7.009  -1.570  -0.194  1.00  0.00    -0.031 N 
HETATM   11  C5  UNL     1       6.146  -0.670  -0.921  1.00  0.00     0.356 C 
ATOM     12  H12 UNL     1       7.894  -1.720  -0.679  1.00  0.00     0.282 HD
ATOM     13  H11 UNL     1       6.660  -2.528  -0.214  1.00  0.00     0.282 HD
BRANCH   7  14
HETATM   14  C1  UNL     1       8.350   1.035  -1.125  1.00  0.00     0.191 C 
BRANCH  14  15
HETATM   15  O1  UNL     1       7.829   1.800  -2.146  1.00  0.00    -0.399 OA
ATOM     16  H1  UNL     1       8.414   1.757  -2.893  1.00  0.00     0.209 HD
ENDBRANCH  14  15
ENDBRANCH   7  14
BRANCH   8  17
HETATM   17  O2  UNL     1       9.327  -0.017   0.983  1.00  0.00    -0.389 OA
ATOM     18  H2  UNL     1       9.677  -0.571   1.671  1.00  0.00     0.210 HD
ENDBRANCH   8  17
BRANCH   9  19
HETATM   19  O3  UNL     1       7.918  -2.018   1.919  1.00  0.00    -0.368 OA
ATOM     20  H3  UNL     1       7.432  -2.834   1.891  1.00  0.00     0.212 HD
ENDBRANCH   9  19
ENDBRANCH   5   6
ENDBRANCH   4   5
ENDBRANCH   3   4
ENDBRANCH   2   3
ENDBRANCH   1   2
BRANCH   1  21
HETATM   21  C11 UNL     1      -0.331  -1.251   0.265  1.00  0.00     0.000 C 
BRANCH  21  22
HETATM   22  C12 UNL     1      -1.109  -0.082  -0.284  1.00  0.00     0.002 C 
BRANCH  22  23
HETATM   23  C13 UNL     1      -2.440  -0.665  -0.804  1.00  0.00     0.020 C 
BRANCH  23  24
HETATM   24  C14 UNL     1      -3.258   0.471  -1.379  1.00  0.00     0.121 C 
BRANCH  24  25
HETATM   25  N3  UNL     1      -4.503  -0.059  -1.862  1.00  0.00    -0.378 N 
ATOM     26  H3  UNL     1      -4.678  -0.073  -2.867  1.00  0.00     0.160 HD
BRANCH  25  27
HETATM   27  C15 UNL     1      -5.493  -0.562  -0.986  1.00  0.00     0.104 C 
HETATM   28  N4  UNL     1      -5.481  -1.807  -0.689  1.00  0.00    -0.378 N 
HETATM   29  C16 UNL     1      -6.395  -2.491   0.174  1.00  0.00     0.121 C 
ATOM     30  H4  UNL     1      -4.743  -2.370  -1.111  1.00  0.00     0.160 HD
HETATM   31  C17 UNL     1      -7.522  -1.627   0.695  1.00  0.00     0.027 C 
HETATM   32  C18 UNL     1      -7.800  -0.543  -0.323  1.00  0.00     0.025 C 
HETATM   33  C19 UNL     1      -8.996   0.253   0.116  1.00  0.00     0.009 C 
HETATM   34  C22 UNL     1      -6.545   0.295  -0.400  1.00  0.00     0.256 C 
HETATM   35  C20 UNL     1      -8.628   1.723   0.340  1.00  0.00     0.028 C 
HETATM   36  C21 UNL     1      -7.930   2.195  -0.899  1.00  0.00     0.233 C 
HETATM   37  N5  UNL     1      -6.722   1.491  -1.179  1.00  0.00    -0.064 N 
ATOM     38  H52 UNL     1      -6.653   1.282  -2.175  1.00  0.00     0.278 HD
ATOM     39  H51 UNL     1      -5.916   2.108  -1.075  1.00  0.00     0.278 HD
ENDBRANCH  25  27
ENDBRANCH  24  25
ENDBRANCH  23  24
ENDBRANCH  22  23
ENDBRANCH  21  22
ENDBRANCH   1  21
TORSDOF 15
