REMARK  17 active torsions:
REMARK  status: ('A' for Active; 'I' for Inactive)
REMARK    1  A    between atoms: C2_2  and  C3_3 
REMARK    2  A    between atoms: C3_3  and  C4_4 
REMARK    3  A    between atoms: C4_4  and  C5_5 
REMARK    4  A    between atoms: C6_6  and  C7_7 
REMARK    5  A    between atoms: C7_7  and  C8_8 
REMARK    6  A    between atoms: C8_8  and  C9_9 
REMARK    7  A    between atoms: C9_9  and  C10_10 
REMARK    8  A    between atoms: C11_12  and  C12_13 
REMARK    9  A    between atoms: C13_14  and  C14_15 
REMARK   10  A    between atoms: C14_15  and  O2_16 
REMARK   11  A    between atoms: C14_15  and  C15_18 
REMARK   12  A    between atoms: C15_18  and  C16_19 
REMARK   13  A    between atoms: C19_22  and  O3_23 
REMARK   14  A    between atoms: C20_25  and  O4_26 
REMARK   15  A    between atoms: C21_28  and  O5_29 
REMARK   16  A    between atoms: C22_31  and  O6_32 
REMARK   17  A    between atoms: C23_34  and  O7_35 
ROOT
HETATM    1  C10 UNL     1       1.672   1.007   0.721  1.00  0.00     0.153 C 
HETATM    2  O1  UNL     1       0.460   0.244   0.681  1.00  0.00    -0.371 OA
HETATM    3  C11 UNL     1       0.621  -0.391  -0.526  1.00  0.00     0.176 C 
HETATM    4  C22 UNL     1       1.070   0.667  -1.516  1.00  0.00     0.182 C 
HETATM    5  C23 UNL     1       1.400   1.823  -0.559  1.00  0.00     0.178 C 
ENDROOT
BRANCH   3   6
HETATM    6  C12 UNL     1      -0.546  -1.148  -1.009  1.00  0.00     0.006 C 
HETATM    7  C13 UNL     1      -1.801  -0.860  -0.785  1.00  0.00     0.003 C 
BRANCH   7   8
HETATM    8  C14 UNL     1      -2.307   0.293   0.003  1.00  0.00     0.141 C 
BRANCH   8   9
HETATM    9  O2  UNL     1      -2.338   0.017   1.367  1.00  0.00    -0.392 OA
ATOM     10  H2  UNL     1      -2.662   0.754   1.871  1.00  0.00     0.210 HD
ENDBRANCH   8   9
BRANCH   8  11
HETATM   11  C15 UNL     1      -3.671   0.738  -0.444  1.00  0.00     0.043 C 
BRANCH  11  12
HETATM   12  C16 UNL     1      -4.739  -0.294  -0.341  1.00  0.00     0.020 C 
HETATM   13  C17 UNL     1      -4.977  -0.813   1.060  1.00  0.00     0.010 C 
HETATM   14  C18 UNL     1      -6.395  -1.318   1.232  1.00  0.00     0.035 C 
HETATM   15  C19 UNL     1      -6.938  -1.844  -0.077  1.00  0.00     0.149 C 
HETATM   16  C20 UNL     1      -7.093  -0.687  -1.039  1.00  0.00     0.175 C 
HETATM   17  C21 UNL     1      -6.045   0.371  -0.777  1.00  0.00     0.153 C 
BRANCH  15  18
HETATM   18  O3  UNL     1      -8.167  -2.428   0.119  1.00  0.00    -0.393 OA
ATOM     19  H3  UNL     1      -8.508  -2.759  -0.704  1.00  0.00     0.210 HD
ENDBRANCH  15  18
BRANCH  16  20
HETATM   20  O4  UNL     1      -6.849  -1.190  -2.323  1.00  0.00    -0.390 OA
ATOM     21  H4  UNL     1      -6.946  -0.463  -2.927  1.00  0.00     0.210 HD
ENDBRANCH  16  20
BRANCH  17  22
HETATM   22  O5  UNL     1      -6.442   1.299   0.172  1.00  0.00    -0.393 OA
ATOM     23  H5  UNL     1      -7.253   1.712  -0.099  1.00  0.00     0.210 HD
ENDBRANCH  17  22
ENDBRANCH  11  12
ENDBRANCH   8  11
ENDBRANCH   7   8
ENDBRANCH   3   6
BRANCH   4  24
HETATM   24  O6  UNL     1       2.271   0.327  -2.137  1.00  0.00    -0.390 OA
ATOM     25  H6  UNL     1       2.552   0.990  -2.757  1.00  0.00     0.210 HD
ENDBRANCH   4  24
BRANCH   1  26
HETATM   26  C9  UNL     1       1.708   1.849   1.927  1.00  0.00     0.035 C 
BRANCH  26  27
HETATM   27  C8  UNL     1       2.920   2.666   2.098  1.00  0.00     0.006 C 
BRANCH  27  28
HETATM   28  C7  UNL     1       4.236   2.060   2.336  1.00  0.00     0.027 C 
BRANCH  28  29
HETATM   29  C6  UNL     1       4.813   1.145   1.377  1.00  0.00    -0.031 C 
HETATM   30  C5  UNL     1       5.160  -0.103   1.725  1.00  0.00    -0.031 C 
BRANCH  30  31
HETATM   31  C4  UNL     1       5.752  -1.065   0.771  1.00  0.00     0.027 C 
BRANCH  31  32
HETATM   32  C3  UNL     1       5.889  -0.420  -0.570  1.00  0.00     0.003 C 
BRANCH  32  33
HETATM   33  C2  UNL     1       6.483  -1.360  -1.603  1.00  0.00    -0.004 C 
HETATM   34  C1  UNL     1       7.845  -1.837  -1.224  1.00  0.00     0.005 C 
ENDBRANCH  32  33
ENDBRANCH  31  32
ENDBRANCH  30  31
ENDBRANCH  28  29
ENDBRANCH  27  28
ENDBRANCH  26  27
ENDBRANCH   1  26
BRANCH   5  35
HETATM   35  O7  UNL     1       2.491   2.524  -0.973  1.00  0.00    -0.390 OA
ATOM     36  H7  UNL     1       2.323   3.027  -1.762  1.00  0.00     0.210 HD
ENDBRANCH   5  35
TORSDOF 17
