REMARK  10 active torsions:
REMARK  status: ('A' for Active; 'I' for Inactive)
REMARK    1  A    between atoms: N1_1  and  C1_4 
REMARK    2  A    between atoms: C2_7  and  C3_8 
REMARK    3  A    between atoms: C4_11  and  C5_12 
REMARK    4  A    between atoms: C5_12  and  N4_13 
REMARK    5  A    between atoms: N4_13  and  N5_14 
REMARK       I    between atoms: N5_14  and  C6_16 
REMARK    6  A    between atoms: C6_16  and  C7_18 
REMARK    7  A    between atoms: C7_18  and  N6_19 
REMARK    8  A    between atoms: C10_26  and  N9_27 
REMARK    9  A    between atoms: C11_32  and  N11_33 
REMARK   10  A    between atoms: C13_40  and  N13_41 
ROOT
HETATM    1  N5  UNL     1      -0.680  -1.984  -1.243  1.00  0.00    -0.272 N 
ATOM      2  H5  UNL     1      -0.806  -2.592  -2.053  1.00  0.00     0.185 HD
HETATM    3  C6  UNL     1      -1.792  -1.499  -0.551  1.00  0.00     0.254 C 
HETATM    4  O1  UNL     1      -1.605  -0.735   0.445  1.00  0.00    -0.270 OA
ENDROOT
BRANCH   1   5
HETATM    5  N4  UNL     1       0.617  -1.631  -0.819  1.00  0.00    -0.133 NA
BRANCH   5   6
HETATM    6  C5  UNL     1       1.269  -2.745  -0.177  1.00  0.00     0.192 C 
BRANCH   6   7
HETATM    7  C4  UNL     1       2.613  -2.296   0.298  1.00  0.00     0.033 A 
HETATM    8  N3  UNL     1       3.125  -1.115   0.060  1.00  0.00    -0.349 N 
HETATM    9  C3  UNL     1       4.314  -0.805   0.528  1.00  0.00     0.127 A 
ATOM     10  H3  UNL     1       2.601  -0.434  -0.489  1.00  0.00     0.166 HD
HETATM   11  S1  UNL     1       4.774  -2.223   1.354  1.00  0.00    -0.078 SA
HETATM   12  C12 UNL     1       3.379  -3.161   1.046  1.00  0.00     0.078 A 
BRANCH   9  13
HETATM   13  C2  UNL     1       5.024   0.454   0.360  1.00  0.00     0.200 A 
HETATM   14  N2  UNL     1       6.260   0.537   0.949  1.00  0.00    -0.167 N 
HETATM   15  C1  UNL     1       7.015   1.657   0.860  1.00  0.00     0.681 A 
ATOM     16  H2  UNL     1       6.619  -0.265   1.467  1.00  0.00     0.186 HD
HETATM   17  N14 UNL     1       6.524   2.704   0.172  1.00  0.00    -0.155 N 
HETATM   18  C13 UNL     1       5.321   2.604  -0.394  1.00  0.00     0.238 A 
ATOM     19  H14 UNL     1       7.066   3.564   0.085  1.00  0.00     0.188 HD
HETATM   20  O2  UNL     1       4.609   1.492  -0.287  1.00  0.00    -0.258 OA
BRANCH  15  21
HETATM   21  N1  UNL     1       8.175   1.743   1.408  1.00  0.00    -0.234 N 
ATOM     22  H12 UNL     1       8.547   0.949   1.930  1.00  0.00     0.174 HD
ATOM     23  H11 UNL     1       8.744   2.587   1.341  1.00  0.00     0.174 HD
ENDBRANCH  15  21
BRANCH  18  24
HETATM   24  N13 UNL     1       4.865   3.624  -1.054  1.00  0.00    -0.364 N 
ATOM     25 2H13 UNL     1       3.945   3.547  -1.487  1.00  0.00     0.159 HD
ATOM     26 1H13 UNL     1       5.413   4.480  -1.136  1.00  0.00     0.159 HD
ENDBRANCH  18  24
ENDBRANCH   9  13
ENDBRANCH   6   7
ENDBRANCH   5   6
ENDBRANCH   1   5
BRANCH   3  27
HETATM   27  C7  UNL     1      -3.208  -1.837  -0.921  1.00  0.00     0.274 C 
BRANCH  27  28
HETATM   28  N6  UNL     1      -4.109  -1.227   0.052  1.00  0.00    -0.203 N 
HETATM   29  N7  UNL     1      -4.513  -1.817   1.189  1.00  0.00    -0.290 N 
HETATM   30  C8  UNL     1      -5.328  -1.035   1.882  1.00  0.00     0.160 A 
ATOM     31  H7  UNL     1      -4.228  -2.751   1.483  1.00  0.00     0.188 HD
HETATM   32  C9  UNL     1      -5.445   0.123   1.129  1.00  0.00     0.179 A 
HETATM   33  N8  UNL     1      -6.129   1.262   1.316  1.00  0.00    -0.172 N 
HETATM   34  N12 UNL     1      -4.683  -0.046   0.025  1.00  0.00    -0.051 N 
HETATM   35  C10 UNL     1      -6.099   2.282   0.435  1.00  0.00     0.692 A 
ATOM     36  H8  UNL     1      -6.695   1.360   2.159  1.00  0.00     0.186 HD
HETATM   37  N10 UNL     1      -5.346   2.127  -0.668  1.00  0.00    -0.021 N 
HETATM   38  C11 UNL     1      -4.660   0.980  -0.851  1.00  0.00     0.715 A 
ATOM     39  H10 UNL     1      -5.294   2.872  -1.362  1.00  0.00     0.203 HD
BRANCH  35  40
HETATM   40  N9  UNL     1      -6.760   3.364   0.622  1.00  0.00    -0.234 N 
ATOM     41  H92 UNL     1      -7.331   3.482   1.459  1.00  0.00     0.174 HD
ATOM     42  H91 UNL     1      -6.737   4.136  -0.045  1.00  0.00     0.174 HD
ENDBRANCH  35  40
BRANCH  38  43
HETATM   43  N11 UNL     1      -3.927   0.835  -1.929  1.00  0.00    -0.232 N 
ATOM     44 2H11 UNL     1      -3.910   1.611  -2.591  1.00  0.00     0.174 HD
ATOM     45 1H11 UNL     1      -3.408  -0.032  -2.067  1.00  0.00     0.174 HD
ENDBRANCH  38  43
ENDBRANCH  27  28
ENDBRANCH   3  27
TORSDOF 10
