REMARK  6 active torsions:
REMARK  status: ('A' for Active; 'I' for Inactive)
REMARK    1  A    between atoms: C8_10  and  C9_11 
REMARK       I    between atoms: C9_11  and  N2_13 
REMARK    2  A    between atoms: N2_13  and  C10_15 
REMARK    3  A    between atoms: C10_15  and  O3_16 
REMARK    4  A    between atoms: C10_15  and  N3_18 
REMARK    5  A    between atoms: C12_22  and  C13_23 
REMARK    6  A    between atoms: C13_23  and  C14_24 
ROOT
HETATM    1  C1  UNL     1      -3.968  -1.399  -1.573  1.00  0.00     0.033 C 
HETATM    2  C2  UNL     1      -4.158   0.018  -1.091  1.00  0.00     0.067 C 
HETATM    3  C3  UNL     1      -3.570   0.922  -2.059  1.00  0.00     0.070 C 
HETATM    4  N1  UNL     1      -3.115   1.655  -2.845  1.00  0.00    -0.196 NA
HETATM    5  C4  UNL     1      -5.637   0.316  -1.019  1.00  0.00     0.033 C 
HETATM    6  C5  UNL     1      -5.862   1.778  -0.831  1.00  0.00     0.174 C 
HETATM    7  O1  UNL     1      -6.108   2.006   0.519  1.00  0.00    -0.385 OA
HETATM    8  C6  UNL     1      -5.286   1.292   1.354  1.00  0.00     0.126 C 
HETATM    9  C7  UNL     1      -3.854   1.467   0.924  1.00  0.00     0.053 C 
HETATM   10  C8  UNL     1      -3.543   0.147   0.277  1.00  0.00     0.065 C 
HETATM   11  C19 UNL     1      -4.184  -0.842   1.209  1.00  0.00     0.028 C 
HETATM   12  C20 UNL     1      -5.572  -0.199   1.357  1.00  0.00     0.016 C 
HETATM   13  C21 UNL     1      -6.323  -0.489   0.061  1.00  0.00     0.015 C 
ENDROOT
BRANCH  10  14
HETATM   14  C9  UNL     1      -2.058  -0.027   0.210  1.00  0.00     0.235 C 
HETATM   15  O2  UNL     1      -1.550  -0.155  -0.924  1.00  0.00    -0.272 OA
HETATM   16  N2  UNL     1      -1.331  -0.035   1.405  1.00  0.00    -0.290 N 
ATOM     17  H2  UNL     1      -1.910   0.081   2.237  1.00  0.00     0.172 HD
BRANCH  16  18
HETATM   18  C10 UNL     1       0.022  -0.169   1.683  1.00  0.00     0.252 C 
BRANCH  18  19
HETATM   19  O3  UNL     1       0.317  -0.125   2.964  1.00  0.00    -0.330 OA
ATOM     20  H3  UNL     1       1.243  -0.217   3.154  1.00  0.00     0.221 HD
ENDBRANCH  18  19
BRANCH  18  21
HETATM   21  N3  UNL     1       1.069  -0.340   0.773  1.00  0.00    -0.191 N 
HETATM   22  N4  UNL     1       1.181  -0.433  -0.572  1.00  0.00    -0.299 N 
HETATM   23  C11 UNL     1       2.259  -0.246  -1.160  1.00  0.00     0.098 C 
ATOM     24  H4  UNL     1       0.353  -0.664  -1.121  1.00  0.00     0.187 HD
HETATM   25  C12 UNL     1       3.436   0.089  -0.318  1.00  0.00     0.111 C 
HETATM   26  S1  UNL     1       2.804  -0.501   1.290  1.00  0.00    -0.016 SA
BRANCH  25  27
HETATM   27  C13 UNL     1       4.576  -0.760  -0.741  1.00  0.00     0.027 C 
BRANCH  27  28
HETATM   28  C14 UNL     1       5.851  -0.530   0.033  1.00  0.00    -0.009 C 
HETATM   29  C15 UNL     1       6.266   0.911  -0.150  1.00  0.00     0.031 C 
HETATM   30  C16 UNL     1       7.618   1.084   0.528  1.00  0.00     0.168 C 
HETATM   31  O4  UNL     1       8.530   0.252  -0.078  1.00  0.00    -0.391 OA
HETATM   32  C17 UNL     1       8.230  -1.074   0.247  1.00  0.00     0.168 C 
HETATM   33  C18 UNL     1       6.959  -1.417  -0.495  1.00  0.00     0.031 C 
ENDBRANCH  27  28
ENDBRANCH  25  27
ENDBRANCH  18  21
ENDBRANCH  16  18
ENDBRANCH  10  14
TORSDOF 6
