REMARK  6 active torsions:
REMARK  status: ('A' for Active; 'I' for Inactive)
REMARK    1  A    between atoms: C9_11  and  O3_12 
REMARK    2  A    between atoms: C18_22  and  C19_23 
REMARK    3  A    between atoms: C19_23  and  O4_24 
REMARK    4  A    between atoms: O4_24  and  C20_25 
REMARK    5  A    between atoms: C20_25  and  C21_27 
REMARK    6  A    between atoms: C24_30  and  O6_31 
ROOT
HETATM    1  C1  UNL     1      -2.352   3.885  -1.361  1.00  0.00     0.025 C 
HETATM    2  C2  UNL     1      -1.799   2.936  -0.638  1.00  0.00     0.010 C 
HETATM    3  C3  UNL     1      -1.057   1.779  -1.118  1.00  0.00     0.194 C 
HETATM    4  O1  UNL     1      -0.535   1.699  -2.262  1.00  0.00    -0.289 OA
HETATM    5  C4  UNL     1      -1.092   0.824   0.016  1.00  0.00     0.156 C 
HETATM    6  O2  UNL     1      -1.203   1.654   1.174  1.00  0.00    -0.359 OA
HETATM    7  C5  UNL     1      -1.802   2.826   0.826  1.00  0.00     0.155 C 
HETATM    8  C6  UNL     1      -3.138   3.081   1.462  1.00  0.00     0.045 C 
HETATM    9  C7  UNL     1      -2.291  -0.021   0.097  1.00  0.00     0.037 C 
HETATM   10  C8  UNL     1      -2.448  -0.579   1.520  1.00  0.00     0.040 C 
HETATM   11  C9  UNL     1      -2.054  -2.040   1.620  1.00  0.00     0.123 C 
HETATM   12  C10 UNL     1      -2.085  -2.733   0.316  1.00  0.00     0.019 C 
HETATM   13  C11 UNL     1      -3.378  -2.161  -0.325  1.00  0.00     0.012 C 
HETATM   14  C12 UNL     1      -2.718  -0.911  -0.964  1.00  0.00    -0.006 C 
HETATM   15  C13 UNL     1      -1.747  -1.643  -1.801  1.00  0.00     0.011 C 
HETATM   16  C14 UNL     1      -1.119  -2.552  -0.743  1.00  0.00     0.001 C 
HETATM   17  C15 UNL     1       0.307  -2.213  -0.536  1.00  0.00    -0.035 C 
HETATM   18  C16 UNL     1       0.886  -2.968   0.633  1.00  0.00     0.016 C 
HETATM   19  C17 UNL     1       1.049  -2.843  -1.764  1.00  0.00     0.016 C 
HETATM   20  C18 UNL     1       0.738  -0.802  -0.658  1.00  0.00     0.050 C 
HETATM   21  C24 UNL     1       0.271   0.224   0.255  1.00  0.00     0.170 C 
ENDROOT
BRANCH  21  22
HETATM   22  O6  UNL     1       0.491  -0.040   1.594  1.00  0.00    -0.387 OA
HETATM   23  C25 UNL     1       1.319   0.755   2.303  1.00  0.00     0.202 C 
ENDBRANCH  21  22
BRANCH  20  24
HETATM   24  C19 UNL     1       2.258  -0.787  -0.586  1.00  0.00     0.186 C 
BRANCH  24  25
HETATM   25  O4  UNL     1       2.713   0.571  -0.734  1.00  0.00    -0.321 OA
BRANCH  25  26
HETATM   26  C20 UNL     1       4.042   0.904  -0.711  1.00  0.00     0.263 C 
HETATM   27  O5  UNL     1       4.876  -0.031  -0.553  1.00  0.00    -0.265 OA
BRANCH  26  28
HETATM   28  C21 UNL     1       4.556   2.291  -0.860  1.00  0.00     0.085 A 
HETATM   29  C22 UNL     1       5.642   2.629   0.161  1.00  0.00     0.015 A 
HETATM   30  C23 UNL     1       5.965   2.474  -1.290  1.00  0.00     0.015 A 
ENDBRANCH  26  28
ENDBRANCH  25  26
ENDBRANCH  24  25
ENDBRANCH  20  24
BRANCH  11  31
HETATM   31  O3  UNL     1      -3.112  -2.634   2.383  1.00  0.00    -0.395 OA
ATOM     32  H3  UNL     1      -2.865  -3.549   2.446  1.00  0.00     0.210 HD
ENDBRANCH  11  31
TORSDOF 6
