REMARK  2 active torsions:
REMARK  status: ('A' for Active; 'I' for Inactive)
REMARK    1  A    between atoms: N1_2  and  C1_4 
REMARK    2  A    between atoms: N2_9  and  O3_10 
ROOT
HETATM    1  C1  UNL     1       0.874  -0.125   0.012  1.00  0.00     0.122 A 
HETATM    2  C2  UNL     1       0.009  -1.175  -0.282  1.00  0.00     0.058 A 
HETATM    3  C3  UNL     1      -1.345  -0.954  -0.294  1.00  0.00     0.031 A 
HETATM    4 BR1  UNL     1      -2.594  -2.363  -0.692  1.00  0.00    -0.050 Br
HETATM    5  C4  UNL     1      -1.777   0.323  -0.008  1.00  0.00     0.141 A 
HETATM    6  N2  UNL     1      -0.940   1.319   0.272  1.00  0.00    -0.244 N 
HETATM    7  C5  UNL     1       0.389   1.125   0.289  1.00  0.00     0.158 A 
ENDROOT
BRANCH   1   8
HETATM    8  N1  UNL     1       2.285  -0.341   0.028  1.00  0.00    -0.114 N 
HETATM    9  O1  UNL     1       2.817  -1.432  -0.209  1.00  0.00    -0.532 OA
HETATM   10  O2  UNL     1       3.107   0.715   0.321  1.00  0.00    -0.532 OA
ENDBRANCH   1   8
BRANCH   6  11
HETATM   11  O3  UNL     1      -1.424   2.592   0.555  1.00  0.00    -0.284 OA
ATOM     12  H3  UNL     1      -0.826   3.303   0.755  1.00  0.00     0.245 HD
ENDBRANCH   6  11
TORSDOF 2
