REMARK  2 active torsions:
REMARK  status: ('A' for Active; 'I' for Inactive)
REMARK    1  A    between atoms: N2_6  and  C5_7 
REMARK    2  A    between atoms: C5_7  and  C6_8 
ROOT
HETATM    1  N1  UNL     1       3.590   1.694   1.333  1.00  0.00    -0.194 NA
HETATM    2  C1  UNL     1       3.021   0.776   0.925  1.00  0.00     0.095 C 
HETATM    3  C2  UNL     1       2.278  -0.410   0.393  1.00  0.00     0.254 C 
HETATM    4  C3  UNL     1       1.762  -0.130  -0.950  1.00  0.00     0.036 C 
HETATM    5  C4  UNL     1       0.457   0.051  -1.116  1.00  0.00     0.087 C 
HETATM    6  N2  UNL     1      -0.341  -0.048   0.050  1.00  0.00    -0.368 N 
HETATM    7  C7  UNL     1       0.111  -1.072   1.005  1.00  0.00     0.294 C 
HETATM    8  O1  UNL     1       1.394  -0.782   1.345  1.00  0.00    -0.349 OA
ENDROOT
BRANCH   6   9
HETATM    9  C5  UNL     1      -1.490   0.788   0.251  1.00  0.00     0.135 C 
BRANCH   9  10
HETATM   10  C6  UNL     1      -2.809   0.049   0.182  1.00  0.00     0.105 C 
HETATM   11 BR1  UNL     1      -4.207   1.353   0.495  1.00  0.00    -0.095 Br
ENDBRANCH   9  10
ENDBRANCH   6   9
TORSDOF 2
