REMARK  4 active torsions:
REMARK  status: ('A' for Active; 'I' for Inactive)
REMARK    1  A    between atoms: O1_1  and  C1_3 
REMARK    2  A    between atoms: C1_3  and  C2_4 
REMARK    3  A    between atoms: C1_3  and  C8_13 
REMARK    4  A    between atoms: N2_8  and  C4_9 
ROOT
HETATM    1  C2  UNL     1      -0.372   0.840   0.491  1.00  0.00     0.005 A 
HETATM    2  C3  UNL     1       0.457   1.458   1.412  1.00  0.00     0.118 A 
HETATM    3  N1  UNL     1       1.641   0.832   1.331  1.00  0.00    -0.309 N 
ATOM      4  H1  UNL     1       2.453   1.075   1.898  1.00  0.00     0.186 HD
HETATM    5  N2  UNL     1       1.632  -0.129   0.438  1.00  0.00    -0.298 N 
HETATM    6  C7  UNL     1       0.395  -0.134  -0.087  1.00  0.00     0.121 A 
ENDROOT
BRANCH   1   7
HETATM    7  C1  UNL     1      -1.787   1.231   0.256  1.00  0.00     0.158 C 
BRANCH   7   8
HETATM    8  O1  UNL     1      -2.459   1.423   1.456  1.00  0.00    -0.390 OA
ATOM      9  H1  UNL     1      -3.363   1.673   1.306  1.00  0.00     0.210 HD
ENDBRANCH   7   8
BRANCH   7  10
HETATM   10  C8  UNL     1      -2.476   0.258  -0.655  1.00  0.00     0.019 A 
HETATM   11  C9  UNL     1      -2.725  -1.142  -0.259  1.00  0.00     0.008 A 
HETATM   12  C10 UNL     1      -3.877  -0.138  -0.195  1.00  0.00     0.008 A 
ENDBRANCH   7  10
ENDBRANCH   1   7
BRANCH   5  13
HETATM   13  C4  UNL     1       2.743  -0.992   0.108  1.00  0.00     0.107 A 
HETATM   14  C5  UNL     1       4.154  -0.436   0.374  1.00  0.00     0.029 A 
HETATM   15  C6  UNL     1       3.671  -0.630  -1.001  1.00  0.00     0.029 A 
ENDBRANCH   5  13
TORSDOF 4
