REMARK  4 active torsions:
REMARK  status: ('A' for Active; 'I' for Inactive)
REMARK    1  A    between atoms: C6_7  and  N1_8 
REMARK       I    between atoms: N1_8  and  C7_10 
REMARK    2  A    between atoms: C7_10  and  C8_12 
REMARK    3  A    between atoms: C11_17  and  O2_18 
REMARK    4  A    between atoms: O2_18  and  C12_19 
ROOT
HETATM    1  C8  UNL     1       0.221  -0.754   0.685  1.00  0.00     0.118 A 
HETATM    2  C9  UNL     1       0.320  -1.527   1.811  1.00  0.00     0.123 A 
HETATM    3  N2  UNL     1      -0.757  -1.837   2.571  1.00  0.00    -0.369 N 
ATOM      4  H2  UNL     1      -0.650  -2.415   3.405  1.00  0.00     0.164 HD
HETATM    5  C10 UNL     1      -1.961  -1.378   2.218  1.00  0.00     0.143 A 
HETATM    6  C11 UNL     1      -2.097  -0.598   1.093  1.00  0.00     0.159 A 
HETATM    7  N3  UNL     1      -1.017  -0.303   0.355  1.00  0.00    -0.330 N 
ATOM      8  H3  UNL     1      -1.128   0.276  -0.477  1.00  0.00     0.168 HD
ENDROOT
BRANCH   1   9
HETATM    9  C7  UNL     1       1.356  -0.399  -0.157  1.00  0.00     0.270 C 
HETATM   10  N1  UNL     1       2.663  -0.821   0.112  1.00  0.00    -0.348 N 
ATOM     11  H1  UNL     1       2.843  -1.403   0.930  1.00  0.00     0.163 HD
HETATM   12  O1  UNL     1       1.129   0.335  -1.188  1.00  0.00    -0.266 OA
BRANCH  10  13
HETATM   13  C6  UNL     1       3.763  -0.448  -0.748  1.00  0.00     0.124 C 
HETATM   14  C2  UNL     1       4.844   0.273   0.025  1.00  0.00     0.120 C 
HETATM   15  C1  UNL     1       5.142   1.587  -0.660  1.00  0.00     0.054 C 
HETATM   16  F1  UNL     1       4.496   0.460   1.346  1.00  0.00    -0.241 F 
HETATM   17  C3  UNL     1       6.084  -0.582  -0.033  1.00  0.00     0.045 C 
HETATM   18  C4  UNL     1       5.486  -1.973  -0.276  1.00  0.00     0.006 C 
HETATM   19  C5  UNL     1       4.457  -1.657  -1.331  1.00  0.00     0.028 C 
ENDBRANCH  10  13
ENDBRANCH   1   9
BRANCH   6  20
HETATM   20  O2  UNL     1      -3.364  -0.126   0.738  1.00  0.00    -0.329 OA
BRANCH  20  21
HETATM   21  C12 UNL     1      -3.488   0.680  -0.428  1.00  0.00     0.130 C 
HETATM   22  C13 UNL     1      -4.000   2.028  -0.003  1.00  0.00     0.032 C 
HETATM   23  C14 UNL     1      -5.169   1.817   0.914  1.00  0.00     0.002 C 
HETATM   24  C15 UNL     1      -6.217   1.006   0.235  1.00  0.00     0.000 C 
HETATM   25  C16 UNL     1      -5.886   0.584  -1.155  1.00  0.00     0.002 C 
HETATM   26  C17 UNL     1      -4.507   0.021  -1.315  1.00  0.00     0.032 C 
ENDBRANCH  20  21
ENDBRANCH   6  20
TORSDOF 4
