REMARK  0 active torsions:
REMARK  status: ('A' for Active; 'I' for Inactive)
ROOT
HETATM    1  C1  UNL     1       1.821  -0.262  -0.371  1.00  0.00     0.030 C 
HETATM    2  C2  UNL     1       0.468  -0.438   0.270  1.00  0.00     0.104 C 
HETATM    3  C3  UNL     1      -0.650  -0.078  -0.718  1.00  0.00     0.051 C 
HETATM    4  C4  UNL     1      -1.753   0.217   0.304  1.00  0.00     0.197 C 
HETATM    5  O1  UNL     1      -1.131   0.437   1.506  1.00  0.00    -0.286 OA
HETATM    6  N1  UNL     1       0.194   0.577   1.275  1.00  0.00    -0.097 NA
ENDROOT
TORSDOF 0
