REMARK  12 active torsions:
REMARK  status: ('A' for Active; 'I' for Inactive)
REMARK    1  A    between atoms: C2_2  and  C3_4 
REMARK    2  A    between atoms: C3_4  and  N1_5 
REMARK    3  A    between atoms: C3_4  and  C11_17 
REMARK       I    between atoms: N1_5  and  C4_7 
REMARK       I    between atoms: C4_7  and  N2_9 
REMARK    4  A    between atoms: N2_9  and  C5_11 
REMARK       I    between atoms: C11_17  and  N3_19 
REMARK    5  A    between atoms: N3_19  and  C12_21 
REMARK    6  A    between atoms: C12_21  and  C13_22 
REMARK    7  A    between atoms: C12_21  and  C17_26 
REMARK    8  A    between atoms: C13_22  and  C14_23 
REMARK       I    between atoms: C17_26  and  N4_28 
REMARK    9  A    between atoms: N4_28  and  C18_30 
REMARK   10  A    between atoms: C18_30  and  C19_31 
REMARK   11  A    between atoms: C19_31  and  C20_32 
REMARK   12  A    between atoms: C20_32  and  C21_33 
ROOT
HETATM    1  C11 UNL     1      -0.541   0.354   0.816  1.00  0.00     0.250 C 
HETATM    2  O2  UNL     1      -0.798  -0.871   1.025  1.00  0.00    -0.270 OA
HETATM    3  N3  UNL     1       0.780   0.696   0.489  1.00  0.00    -0.324 N 
ATOM      4  H3  UNL     1       1.007   1.677   0.325  1.00  0.00     0.169 HD
ENDROOT
BRANCH   1   5
HETATM    5  C3  UNL     1      -1.675   1.303   0.940  1.00  0.00     0.218 C 
BRANCH   5   6
HETATM    6  C2  UNL     1      -1.395   2.425   1.868  1.00  0.00     0.011 C 
HETATM    7  C1  UNL     1      -1.330   3.666   1.426  1.00  0.00     0.029 C 
HETATM    8 BR1  UNL     1      -1.130   2.030   3.711  1.00  0.00    -0.054 Br
ENDBRANCH   5   6
BRANCH   5   9
HETATM    9  N1  UNL     1      -2.884   0.657   1.366  1.00  0.00    -0.325 N 
HETATM   10  C4  UNL     1      -3.947   0.466   0.459  1.00  0.00     0.317 C 
HETATM   11  O1  UNL     1      -3.823   0.859  -0.724  1.00  0.00    -0.247 OA
HETATM   12  N2  UNL     1      -5.154  -0.160   0.842  1.00  0.00    -0.339 N 
ATOM     13  H2  UNL     1      -5.252  -0.468   1.809  1.00  0.00     0.164 HD
ATOM     14  H1  UNL     1      -2.975   0.335   2.329  1.00  0.00     0.165 HD
BRANCH  12  15
HETATM   15  C5  UNL     1      -6.254  -0.387  -0.061  1.00  0.00     0.086 C 
HETATM   16  C6  UNL     1      -6.622  -1.848  -0.144  1.00  0.00     0.025 C 
HETATM   17  C7  UNL     1      -7.858  -2.053  -0.937  1.00  0.00     0.002 C 
HETATM   18  C8  UNL     1      -8.364  -0.865  -1.679  1.00  0.00     0.000 C 
HETATM   19  C9  UNL     1      -8.457   0.376  -0.838  1.00  0.00     0.002 C 
HETATM   20  C10 UNL     1      -7.508   0.380   0.336  1.00  0.00     0.025 C 
ENDBRANCH  12  15
ENDBRANCH   5   9
ENDBRANCH   1   5
BRANCH   3  21
HETATM   21  C12 UNL     1       1.836  -0.295   0.376  1.00  0.00     0.080 C 
BRANCH  21  22
HETATM   22  C13 UNL     1       2.623  -0.423   1.633  1.00  0.00     0.067 C 
BRANCH  22  23
HETATM   23  C14 UNL     1       3.279   0.781   2.169  1.00  0.00    -0.017 C 
HETATM   24  C15 UNL     1       4.282   1.479   1.333  1.00  0.00     0.010 C 
HETATM   25  C16 UNL     1       4.030   0.334   3.439  1.00  0.00     0.010 C 
ENDBRANCH  22  23
ENDBRANCH  21  22
BRANCH  21  26
HETATM   26  C17 UNL     1       2.537  -0.302  -0.895  1.00  0.00     0.264 C 
HETATM   27  O3  UNL     1       2.249   0.659  -1.697  1.00  0.00    -0.266 OA
HETATM   28  N4  UNL     1       3.481  -1.276  -1.303  1.00  0.00    -0.356 N 
ATOM     29  H4  UNL     1       3.713  -2.030  -0.657  1.00  0.00     0.162 HD
BRANCH  28  30
HETATM   30  C18 UNL     1       4.120  -1.249  -2.573  1.00  0.00     0.123 C 
BRANCH  30  31
HETATM   31  C19 UNL     1       5.007  -0.093  -2.881  1.00  0.00     0.020 C 
BRANCH  31  32
HETATM   32  C20 UNL     1       6.180  -0.029  -1.934  1.00  0.00     0.001 C 
BRANCH  32  33
HETATM   33  C21 UNL     1       6.989  -1.305  -2.069  1.00  0.00    -0.004 C 
HETATM   34  C22 UNL     1       8.189  -1.223  -1.122  1.00  0.00     0.005 C 
ENDBRANCH  32  33
ENDBRANCH  31  32
ENDBRANCH  30  31
ENDBRANCH  28  30
ENDBRANCH  21  26
ENDBRANCH   3  21
TORSDOF 12
