REMARK  5 active torsions:
REMARK  status: ('A' for Active; 'I' for Inactive)
REMARK    1  A    between atoms: N1_1  and  N2_4 
REMARK    2  A    between atoms: N2_4  and  C1_6 
REMARK    3  A    between atoms: C3_10  and  C4_11 
REMARK    4  A    between atoms: C4_11  and  C5_12 
REMARK    5  A    between atoms: C5_12  and  C6_13 
ROOT
HETATM    1  C1  UNL     1       4.723   0.187  -0.322  1.00  0.00     0.710 A 
HETATM    2  N3  UNL     1       4.291  -1.096  -0.267  1.00  0.00    -0.197 N 
ATOM      3  H3  UNL     1       4.944  -1.864  -0.423  1.00  0.00     0.183 HD
HETATM    4  C2  UNL     1       2.988  -1.354  -0.004  1.00  0.00     0.132 A 
HETATM    5  C3  UNL     1       2.128  -0.312   0.201  1.00  0.00     0.042 A 
HETATM    6  N4  UNL     1       2.558   0.949   0.145  1.00  0.00    -0.289 N 
ATOM      7  H4  UNL     1       1.913   1.724   0.299  1.00  0.00     0.187 HD
HETATM    8  N5  UNL     1       3.835   1.178  -0.113  1.00  0.00    -0.131 N 
ATOM      9  H5  UNL     1       4.160   2.144  -0.155  1.00  0.00     0.205 HD
ENDROOT
BRANCH   5  10
HETATM   10  C4  UNL     1       0.687  -0.588   0.496  1.00  0.00     0.064 C 
BRANCH  10  11
HETATM   11  C5  UNL     1      -0.133  -0.663  -0.774  1.00  0.00     0.045 C 
BRANCH  11  12
HETATM   12  C6  UNL     1      -1.514  -0.927  -0.421  1.00  0.00    -0.047 A 
HETATM   13  C7  UNL     1      -1.964  -2.246  -0.506  1.00  0.00     0.008 A 
HETATM   14  C8  UNL     1      -3.251  -2.601  -0.163  1.00  0.00     0.001 A 
HETATM   15  C9  UNL     1      -4.143  -1.641   0.280  1.00  0.00     0.012 A 
HETATM   16  C10 UNL     1      -3.728  -0.335   0.373  1.00  0.00    -0.025 A 
HETATM   17  C11 UNL     1      -4.622   0.647   0.811  1.00  0.00     0.012 A 
HETATM   18  C15 UNL     1      -2.434   0.000   0.025  1.00  0.00    -0.020 A 
HETATM   19  C12 UNL     1      -4.196   1.957   0.891  1.00  0.00     0.001 A 
HETATM   20  C13 UNL     1      -2.909   2.310   0.546  1.00  0.00     0.001 A 
HETATM   21  C14 UNL     1      -2.045   1.305   0.114  1.00  0.00     0.013 A 
ENDBRANCH  11  12
ENDBRANCH  10  11
ENDBRANCH   5  10
BRANCH   1  22
HETATM   22  N2  UNL     1       5.970   0.439  -0.574  1.00  0.00    -0.137 N 
ATOM     23  H2  UNL     1       6.603  -0.347  -0.726  1.00  0.00     0.205 HD
BRANCH  22  24
HETATM   24  N1  UNL     1       6.486   1.726  -0.647  1.00  0.00    -0.331 N 
ATOM     25  H12 UNL     1       5.839   2.500  -0.492  1.00  0.00     0.177 HD
ATOM     26  H11 UNL     1       7.467   1.924  -0.845  1.00  0.00     0.177 HD
ENDBRANCH  22  24
ENDBRANCH   1  22
TORSDOF 5
