REMARK  8 active torsions:
REMARK  status: ('A' for Active; 'I' for Inactive)
REMARK    1  A    between atoms: C2_2  and  O1_3 
REMARK    2  A    between atoms: O1_3  and  C3_4 
REMARK    3  A    between atoms: C3_4  and  O2_5 
REMARK    4  A    between atoms: O2_5  and  O3_6 
REMARK    5  A    between atoms: C14_22  and  C15_23 
REMARK    6  A    between atoms: C15_23  and  C16_24 
REMARK    7  A    between atoms: C16_24  and  C17_25 
REMARK    8  A    between atoms: C18_26  and  C20_28 
ROOT
HETATM    1  C3  UNL     1      -2.577   1.539   0.567  1.00  0.00     0.448 C 
HETATM    2  O4  UNL     1      -1.936   0.313   0.634  1.00  0.00    -0.261 OA
HETATM    3  C4  UNL     1      -0.846   0.057  -0.089  1.00  0.00     0.247 C 
HETATM    4  O5  UNL     1      -0.604   0.932  -1.159  1.00  0.00    -0.190 OA
HETATM    5  O6  UNL     1      -1.192   0.299  -2.199  1.00  0.00    -0.192 OA
HETATM    6  C5  UNL     1      -2.427   0.837  -2.248  1.00  0.00     0.253 A 
HETATM    7  C6  UNL     1      -2.337   2.259  -2.849  1.00  0.00     0.088 C 
HETATM    8  O7  UNL     1      -3.615   0.427  -2.658  1.00  0.00    -0.306 OA
HETATM    9  C7  UNL     1      -3.269   0.434  -1.270  1.00  0.00     0.234 A 
HETATM   10  C8  UNL     1      -3.772  -0.802  -0.749  1.00  0.00     0.079 C 
HETATM   11  C9  UNL     1      -3.045  -2.081  -0.820  1.00  0.00    -0.013 C 
HETATM   12  C10 UNL     1      -3.142  -2.893   0.492  1.00  0.00     0.010 C 
HETATM   13  C11 UNL     1      -1.644  -2.111  -1.235  1.00  0.00     0.015 C 
HETATM   14  C12 UNL     1      -0.622  -1.301  -0.626  1.00  0.00     0.058 C 
HETATM   15  C13 UNL     1       0.223  -1.972   0.474  1.00  0.00     0.021 C 
HETATM   16  C14 UNL     1       1.313  -0.840   0.449  1.00  0.00     0.037 C 
HETATM   17  C22 UNL     1       0.338   0.221   0.866  1.00  0.00     0.050 C 
HETATM   18  N1  UNL     1       0.466   1.020   1.796  1.00  0.00    -0.401 N 
ATOM     19  H11 UNL     1       1.255   1.129   2.433  1.00  0.00     0.155 HD
ATOM     20  H12 UNL     1      -0.197   1.741   2.080  1.00  0.00     0.155 HD
HETATM   21  O8  UNL     1      -3.540   1.502  -0.434  1.00  0.00    -0.264 OA
ENDROOT
BRANCH  16  22
HETATM   22  C15 UNL     1       2.419  -1.138   1.348  1.00  0.00     0.014 C 
BRANCH  22  23
HETATM   23  C16 UNL     1       3.498  -0.121   1.295  1.00  0.00     0.028 C 
BRANCH  23  24
HETATM   24  C17 UNL     1       4.120   0.027  -0.036  1.00  0.00    -0.024 C 
HETATM   25  C18 UNL     1       5.406  -0.196  -0.192  1.00  0.00    -0.088 C 
HETATM   26  C19 UNL     1       6.253  -0.601   0.972  1.00  0.00     0.043 C 
BRANCH  25  27
HETATM   27  C20 UNL     1       6.100  -0.064  -1.515  1.00  0.00     0.029 C 
HETATM   28  C21 UNL     1       7.194   0.964  -1.482  1.00  0.00     0.010 C 
ENDBRANCH  25  27
ENDBRANCH  23  24
ENDBRANCH  22  23
ENDBRANCH  16  22
BRANCH   1  29
HETATM   29  O1  UNL     1      -2.962   1.970   1.792  1.00  0.00    -0.307 OA
BRANCH  29  30
HETATM   30  C2  UNL     1      -3.894   1.464   2.554  1.00  0.00     0.172 C 
HETATM   31  C1  UNL     1      -5.325   1.458   2.089  1.00  0.00     0.033 C 
ENDBRANCH  29  30
ENDBRANCH   1  29
BRANCH   1  32
HETATM   32  O2  UNL     1      -1.560   2.511   0.290  1.00  0.00    -0.146 OA
BRANCH  32  33
HETATM   33  O3  UNL     1      -2.061   3.728   0.343  1.00  0.00    -0.243 OA
ATOM     34  H3  UNL     1      -1.387   4.372   0.159  1.00  0.00     0.254 HD
ENDBRANCH  32  33
ENDBRANCH   1  32
TORSDOF 8
