REMARK  7 active torsions:
REMARK  status: ('A' for Active; 'I' for Inactive)
REMARK    1  A    between atoms: C2_2  and  N1_3 
REMARK    2  A    between atoms: C2_2  and  C5_9 
REMARK    3  A    between atoms: N1_3  and  O1_4 
REMARK    4  A    between atoms: O1_4  and  C3_5 
REMARK    5  A    between atoms: C3_5  and  C4_6 
REMARK    6  A    between atoms: C4_6  and  O2_7 
REMARK    7  A    between atoms: N2_11  and  C7_12 
ROOT
HETATM    1  C5  UNL     1       1.627  -1.204  -0.184  1.00  0.00     0.076 A 
HETATM    2  C6  UNL     1       0.736  -0.167  -0.465  1.00  0.00     0.123 A 
HETATM    3  N2  UNL     1      -0.417  -0.819  -0.338  1.00  0.00    -0.316 N 
HETATM    4  S1  UNL     1       0.340  -2.249   0.014  1.00  0.00    -0.007 SA
ENDROOT
BRANCH   3   5
HETATM    5  C7  UNL     1      -1.811  -0.316  -0.349  1.00  0.00     0.044 C 
HETATM    6  C8  UNL     1      -2.149   0.433  -1.549  1.00  0.00     0.036 C 
HETATM    7  C9  UNL     1      -3.539   1.056  -1.344  1.00  0.00    -0.012 C 
HETATM    8  C10 UNL     1      -4.539  -0.032  -1.095  1.00  0.00     0.009 C 
HETATM    9  C14 UNL     1      -3.444   1.953  -0.130  1.00  0.00     0.009 C 
HETATM   10  C11 UNL     1      -4.119  -0.887   0.073  1.00  0.00    -0.012 C 
HETATM   11  C12 UNL     1      -4.140   0.005   1.312  1.00  0.00     0.009 C 
HETATM   12  C16 UNL     1      -2.753  -1.477  -0.145  1.00  0.00     0.036 C 
HETATM   13  C13 UNL     1      -3.156   1.140   1.108  1.00  0.00    -0.012 C 
HETATM   14  C15 UNL     1      -1.817   0.527   0.932  1.00  0.00     0.036 C 
ENDBRANCH   3   5
BRANCH   1  15
HETATM   15  C2  UNL     1       3.111  -1.310  -0.050  1.00  0.00     0.133 C 
HETATM   16  C1  UNL     1       3.571  -2.634   0.598  1.00  0.00     0.089 C 
BRANCH  15  17
HETATM   17  N1  UNL     1       3.872  -0.455  -0.297  1.00  0.00    -0.285 NA
BRANCH  17  18
HETATM   18  O1  UNL     1       4.555   0.586  -0.638  1.00  0.00    -0.207 OA
BRANCH  18  19
HETATM   19  C3  UNL     1       5.340   1.299   0.429  1.00  0.00     0.243 C 
BRANCH  19  20
HETATM   20  C4  UNL     1       6.741   0.818  -0.025  1.00  0.00     0.194 C 
BRANCH  20  21
HETATM   21  O2  UNL     1       7.732   1.247   0.743  1.00  0.00    -0.399 OA
ATOM     22  H2  UNL     1       8.591   0.952   0.465  1.00  0.00     0.209 HD
ENDBRANCH  20  21
ENDBRANCH  19  20
ENDBRANCH  18  19
ENDBRANCH  17  18
ENDBRANCH  15  17
ENDBRANCH   1  15
TORSDOF 7
