REMARK  3 active torsions:
REMARK  status: ('A' for Active; 'I' for Inactive)
REMARK    1  A    between atoms: O1_1  and  C1_3 
REMARK    2  A    between atoms: C1_3  and  C2_4 
REMARK    3  A    between atoms: N1_8  and  C6_9 
ROOT
HETATM    1  C2  UNL     1      -1.413   0.315  -0.470  1.00  0.00     0.110 C 
HETATM    2  C3  UNL     1      -2.364  -0.582   0.297  1.00  0.00     0.029 C 
HETATM    3  C4  UNL     1      -1.904  -1.988   0.001  1.00  0.00     0.022 C 
HETATM    4  C5  UNL     1      -0.514  -1.804  -0.510  1.00  0.00     0.125 C 
HETATM    5  N1  UNL     1      -0.160  -0.397  -0.342  1.00  0.00    -0.355 N 
ENDROOT
BRANCH   5   6
HETATM    6  C6  UNL     1       1.143   0.059  -0.112  1.00  0.00     0.142 C 
HETATM    7  N2  UNL     1       1.859   0.793  -0.839  1.00  0.00    -0.350 N 
HETATM    8  C7  UNL     1       3.155   1.147  -0.432  1.00  0.00     0.073 C 
ATOM      9  H2  UNL     1       1.496   1.133  -1.730  1.00  0.00     0.167 HD
HETATM   10  C8  UNL     1       3.730   0.150   0.551  1.00  0.00     0.127 C 
HETATM   11  S1  UNL     1       2.122  -0.343   1.327  1.00  0.00    -0.089 SA
ENDBRANCH   5   6
BRANCH   1  12
HETATM   12  C1  UNL     1      -1.388   1.649   0.236  1.00  0.00     0.189 C 
BRANCH  12  13
HETATM   13  O1  UNL     1      -2.628   2.249   0.055  1.00  0.00    -0.399 OA
ATOM     14  H1  UNL     1      -2.612   3.089   0.499  1.00  0.00     0.209 HD
ENDBRANCH  12  13
ENDBRANCH   1  12
TORSDOF 3
