REMARK  2 active torsions:
REMARK  status: ('A' for Active; 'I' for Inactive)
REMARK    1  A    between atoms: S1_2  and  N1_4 
REMARK    2  A    between atoms: S1_2  and  N2_11 
ROOT
HETATM    1  O1  UNL     1       1.688  -0.291   2.521  1.00  0.00    -0.181 OA
HETATM    2  S1  UNL     1       1.288   0.393   1.177  1.00  0.00     0.334 S 
HETATM    3  O2  UNL     1       1.791   1.800   1.319  1.00  0.00    -0.181 OA
ENDROOT
BRANCH   2   4
HETATM    4  N1  UNL     1      -0.334   0.309   1.070  1.00  0.00    -0.240 N 
HETATM    5  C1  UNL     1      -1.171  -0.779   1.111  1.00  0.00     0.081 C 
HETATM    6  C2  UNL     1      -1.643  -1.099  -0.299  1.00  0.00     0.046 C 
HETATM    7  C3  UNL     1      -2.597  -0.030  -0.700  1.00  0.00     0.010 C 
HETATM    8  C4  UNL     1      -2.320   1.254  -0.024  1.00  0.00     0.060 C 
HETATM    9  C5  UNL     1      -0.975   1.505   0.511  1.00  0.00     0.287 C 
HETATM   10  F1  UNL     1      -1.057   2.411   1.542  1.00  0.00    -0.226 F 
ENDBRANCH   2   4
BRANCH   2  11
HETATM   11  N2  UNL     1       2.267  -0.401  -0.057  1.00  0.00    -0.217 N 
HETATM   12  C6  UNL     1       2.977   0.344  -0.914  1.00  0.00     0.119 A 
HETATM   13  C7  UNL     1       3.660  -0.295  -1.911  1.00  0.00     0.071 A 
HETATM   14  S2  UNL     1       3.293  -1.919  -1.625  1.00  0.00    -0.070 SA
HETATM   15  C8  UNL     1       2.293  -1.713  -0.253  1.00  0.00     0.159 A 
HETATM   16  S3  UNL     1       1.611  -2.940   0.635  1.00  0.00    -0.051 SA
ENDBRANCH   2  11
TORSDOF 2
