REMARK  2 active torsions:
REMARK  status: ('A' for Active; 'I' for Inactive)
REMARK       I    between atoms: C1_2  and  N1_3 
REMARK       I    between atoms: C1_2  and  N2_10 
REMARK    1  A    between atoms: N1_3  and  C2_5 
REMARK    2  A    between atoms: N2_10  and  C7_12 
ROOT
HETATM    1  O1  UNL     1       0.938  -1.375  -1.375  1.00  0.00    -0.247 OA
HETATM    2  C1  UNL     1       0.772  -0.517  -0.462  1.00  0.00     0.316 C 
HETATM    3  N1  UNL     1      -0.512  -0.079  -0.065  1.00  0.00    -0.339 N 
ATOM      4  H1  UNL     1      -0.601   0.616   0.676  1.00  0.00     0.164 HD
HETATM    5  N2  UNL     1       1.928   0.010   0.170  1.00  0.00    -0.339 N 
ATOM      6  H2  UNL     1       1.820   0.704   0.909  1.00  0.00     0.164 HD
ENDROOT
BRANCH   3   7
HETATM    7  C2  UNL     1      -1.690  -0.600  -0.691  1.00  0.00     0.086 C 
HETATM    8  C3  UNL     1      -2.476   0.609  -1.221  1.00  0.00     0.025 C 
HETATM    9  C4  UNL     1      -2.977   1.228   0.048  1.00  0.00     0.002 C 
HETATM   10  C5  UNL     1      -3.003   0.164   1.098  1.00  0.00     0.002 C 
HETATM   11  C6  UNL     1      -2.703  -1.107   0.343  1.00  0.00     0.025 C 
ENDBRANCH   3   7
BRANCH   5  12
HETATM   12  C7  UNL     1       3.246  -0.414  -0.210  1.00  0.00     0.086 A 
HETATM   13  C8  UNL     1       4.335   0.611  -0.225  1.00  0.00     0.027 A 
HETATM   14  C9  UNL     1       4.338  -0.442   0.840  1.00  0.00     0.027 A 
ENDBRANCH   5  12
TORSDOF 2
