REMARK  7 active torsions:
REMARK  status: ('A' for Active; 'I' for Inactive)
REMARK    1  A    between atoms: O1_2  and  C2_3 
REMARK    2  A    between atoms: C2_3  and  C3_4 
REMARK    3  A    between atoms: N1_7  and  C6_8 
REMARK    4  A    between atoms: C6_8  and  C7_9 
REMARK    5  A    between atoms: C7_9  and  C8_10 
REMARK    6  A    between atoms: C16_24  and  C17_25 
REMARK    7  A    between atoms: C17_25  and  C18_26 
ROOT
HETATM    1  C3  UNL     1      -2.060  -0.400   0.430  1.00  0.00    -0.001 C 
HETATM    2  C4  UNL     1      -0.717  -0.374   0.577  1.00  0.00     0.034 C 
HETATM    3  C5  UNL     1      -0.092  -1.398   1.417  1.00  0.00     0.070 C 
HETATM    4  N1  UNL     1       0.105   0.631  -0.017  1.00  0.00    -0.287 N 
HETATM    5  N2  UNL     1      -0.522   1.627  -0.782  1.00  0.00    -0.227 N 
HETATM    6  C13 UNL     1      -1.853   1.629  -0.951  1.00  0.00     0.136 A 
HETATM    7  N3  UNL     1      -2.207   2.715  -1.703  1.00  0.00    -0.329 N 
ATOM      8  H3  UNL     1      -3.162   2.950  -1.975  1.00  0.00     0.168 HD
HETATM    9  C14 UNL     1      -1.145   3.410  -2.024  1.00  0.00     0.141 A 
HETATM   10 CL1  UNL     1      -0.973   4.876  -2.957  1.00  0.00    -0.061 Cl
HETATM   11  C15 UNL     1      -0.064   2.731  -1.447  1.00  0.00     0.143 A 
HETATM   12 BR1  UNL     1       1.732   3.338  -1.645  1.00  0.00    -0.026 Br
HETATM   13  C16 UNL     1      -2.726   0.550  -0.415  1.00  0.00     0.001 C 
ENDROOT
BRANCH   4  14
HETATM   14  C6  UNL     1       1.523   0.608   0.152  1.00  0.00     0.152 C 
BRANCH  14  15
HETATM   15  C7  UNL     1       2.251  -0.486  -0.570  1.00  0.00     0.053 C 
BRANCH  15  16
HETATM   16  C8  UNL     1       3.746  -0.387  -0.237  1.00  0.00     0.123 C 
HETATM   17  C9  UNL     1       4.525  -1.458  -0.937  1.00  0.00     0.032 C 
HETATM   18  C10 UNL     1       5.985  -1.306  -0.554  1.00  0.00     0.004 C 
HETATM   19  C11 UNL     1       6.406   0.132  -0.651  1.00  0.00     0.026 C 
HETATM   20  C12 UNL     1       5.251   0.932  -1.268  1.00  0.00     0.168 C 
HETATM   21  O2  UNL     1       4.230   0.880  -0.331  1.00  0.00    -0.386 OA
ENDBRANCH  15  16
ENDBRANCH  14  15
ENDBRANCH   4  14
BRANCH   1  22
HETATM   22  C2  UNL     1      -2.711  -1.496   1.167  1.00  0.00     0.208 C 
BRANCH  22  23
HETATM   23  O1  UNL     1      -3.625  -1.102   2.133  1.00  0.00    -0.391 OA
HETATM   24  C1  UNL     1      -4.143  -2.242   2.744  1.00  0.00     0.201 C 
ENDBRANCH  22  23
ENDBRANCH   1  22
BRANCH  13  25
HETATM   25  C17 UNL     1      -4.024   1.158  -0.059  1.00  0.00     0.077 C 
BRANCH  25  26
HETATM   26  C18 UNL     1      -5.235   0.319   0.053  1.00  0.00     0.149 A 
HETATM   27  C19 UNL     1      -6.554   0.944   0.443  1.00  0.00     0.200 A 
HETATM   28  O3  UNL     1      -6.309   0.792  -0.902  1.00  0.00    -0.381 OA
ENDBRANCH  25  26
ENDBRANCH  13  25
TORSDOF 7
