REMARK  4 active torsions:
REMARK  status: ('A' for Active; 'I' for Inactive)
REMARK    1  A    between atoms: O1_2  and  C2_3 
REMARK       I    between atoms: N1_6  and  C5_7 
REMARK    2  A    between atoms: C5_7  and  C6_9 
REMARK    3  A    between atoms: N2_12  and  C9_13 
REMARK    4  A    between atoms: C11_19  and  N5_20 
ROOT
HETATM    1  C6  UNL     1      -0.047  -0.819  -0.941  1.00  0.00     0.081 C 
HETATM    2  C7  UNL     1      -1.132  -0.745  -2.009  1.00  0.00     0.034 C 
HETATM    3  C8  UNL     1      -2.388  -1.433  -1.447  1.00  0.00     0.125 C 
HETATM    4  N2  UNL     1      -2.904  -0.551  -0.400  1.00  0.00    -0.366 N 
HETATM    5  C13 UNL     1      -1.904   0.083   0.401  1.00  0.00     0.125 C 
HETATM    6  C14 UNL     1      -0.678  -0.870   0.405  1.00  0.00     0.034 C 
ENDROOT
BRANCH   4   7
HETATM    7  C9  UNL     1      -4.314  -0.436  -0.245  1.00  0.00     0.125 A 
HETATM    8  N3  UNL     1      -5.107  -1.437  -0.762  1.00  0.00    -0.337 N 
HETATM    9  C10 UNL     1      -6.420  -1.330  -0.650  1.00  0.00     0.183 A 
ATOM     10  H3  UNL     1      -4.689  -2.245  -1.223  1.00  0.00     0.168 HD
HETATM   11  N4  UNL     1      -7.049  -0.304  -0.062  1.00  0.00    -0.338 N 
HETATM   12  C11 UNL     1      -6.318   0.677   0.445  1.00  0.00     0.121 A 
ATOM     13  H4  UNL     1      -8.067  -0.279  -0.006  1.00  0.00     0.168 HD
HETATM   14  C12 UNL     1      -4.920   0.629   0.361  1.00  0.00     0.098 A 
HETATM   15 BR1  UNL     1      -3.885   2.077   1.059  1.00  0.00    -0.043 Br
BRANCH  12  16
HETATM   16  N5  UNL     1      -6.811   1.728   1.041  1.00  0.00    -0.384 N 
ATOM     17  H52 UNL     1      -7.829   1.763   1.102  1.00  0.00     0.157 HD
ATOM     18  H51 UNL     1      -6.248   2.484   1.432  1.00  0.00     0.157 HD
ENDBRANCH  12  16
ENDBRANCH   4   7
BRANCH   1  19
HETATM   19  C5  UNL     1       0.787   0.405  -1.058  1.00  0.00     0.224 C 
HETATM   20  N1  UNL     1       2.001   0.487  -0.366  1.00  0.00    -0.352 N 
HETATM   21  C4  UNL     1       2.816   1.700  -0.464  1.00  0.00     0.128 C 
HETATM   22  C15 UNL     1       2.521  -0.572   0.443  1.00  0.00     0.128 C 
HETATM   23  C3  UNL     1       3.752   1.716   0.704  1.00  0.00     0.051 C 
HETATM   24  C2  UNL     1       4.686   0.540   0.694  1.00  0.00     0.123 C 
HETATM   25  C16 UNL     1       3.999  -0.683   0.109  1.00  0.00     0.051 C 
HETATM   26  O2  UNL     1       0.401   1.380  -1.785  1.00  0.00    -0.273 OA
BRANCH  24  27
HETATM   27  O1  UNL     1       5.134   0.257   1.989  1.00  0.00    -0.391 OA
HETATM   28  C1  UNL     1       6.509   0.347   2.045  1.00  0.00     0.202 C 
ENDBRANCH  24  27
ENDBRANCH   1  19
TORSDOF 4
