REMARK  1 active torsions:
REMARK  status: ('A' for Active; 'I' for Inactive)
REMARK    1  A    between atoms: C13_14  and  C14_15 
ROOT
HETATM    1  C1  UNL     1      -4.243   2.043  -0.864  1.00  0.00     0.151 C 
HETATM    2  N1  UNL     1      -3.932   0.655  -0.940  1.00  0.00    -0.367 N 
HETATM    3  C2  UNL     1      -4.832  -0.446  -0.671  1.00  0.00     0.041 A 
HETATM    4  C3  UNL     1      -6.182  -0.609  -0.791  1.00  0.00     0.030 A 
HETATM    5  C4  UNL     1      -6.715  -1.829  -0.440  1.00  0.00     0.002 A 
HETATM    6  C5  UNL     1      -5.948  -2.877   0.020  1.00  0.00     0.001 A 
HETATM    7  C6  UNL     1      -4.560  -2.708   0.143  1.00  0.00     0.014 A 
HETATM    8  C7  UNL     1      -4.031  -1.488  -0.205  1.00  0.00     0.000 A 
HETATM    9  C8  UNL     1      -2.650  -1.003  -0.189  1.00  0.00    -0.001 C 
HETATM   10  C9  UNL     1      -1.569  -1.265   0.503  1.00  0.00     0.001 A 
HETATM   11  C10 UNL     1      -1.595  -2.217   1.496  1.00  0.00     0.014 A 
HETATM   12  C11 UNL     1      -0.420  -2.517   2.195  1.00  0.00     0.002 A 
HETATM   13  C12 UNL     1       0.718  -1.856   1.872  1.00  0.00     0.017 A 
HETATM   14  C13 UNL     1       0.795  -0.897   0.893  1.00  0.00     0.036 A 
HETATM   15  C23 UNL     1      -0.373  -0.607   0.210  1.00  0.00     0.059 A 
HETATM   16  N5  UNL     1      -0.331   0.379  -0.646  1.00  0.00    -0.323 N 
ATOM     17  H5  UNL     1       0.563   0.831  -0.836  1.00  0.00     0.169 HD
HETATM   18  C24 UNL     1      -1.490   0.839  -1.319  1.00  0.00     0.249 C 
HETATM   19  O2  UNL     1      -1.454   1.935  -1.907  1.00  0.00    -0.270 OA
HETATM   20  C25 UNL     1      -2.678   0.033  -1.306  1.00  0.00     0.212 C 
ENDROOT
BRANCH  14  21
HETATM   21  C14 UNL     1       2.052  -0.195   0.569  1.00  0.00     0.119 A 
HETATM   22  N2  UNL     1       2.064   0.734  -0.400  1.00  0.00    -0.351 N 
HETATM   23  C15 UNL     1       3.218   1.395  -0.715  1.00  0.00     0.106 A 
ATOM     24  H2  UNL     1       1.204   0.948  -0.906  1.00  0.00     0.166 HD
HETATM   25  C16 UNL     1       4.389   1.116  -0.043  1.00  0.00     0.045 A 
HETATM   26  C17 UNL     1       4.365   0.161   0.949  1.00  0.00     0.164 A 
HETATM   27  C22 UNL     1       5.684   1.576  -0.103  1.00  0.00     0.031 A 
HETATM   28  N3  UNL     1       3.191  -0.462   1.219  1.00  0.00    -0.321 N 
HETATM   29  O1  UNL     1       5.580   0.079   1.430  1.00  0.00    -0.275 OA
ATOM     30  H3  UNL     1       3.175  -1.169   1.954  1.00  0.00     0.169 HD
HETATM   31  C18 UNL     1       6.410   0.893   0.849  1.00  0.00     0.161 A 
HETATM   32  N4  UNL     1       7.731   1.176   0.983  1.00  0.00    -0.346 N 
HETATM   33  C19 UNL     1       8.344   2.096   0.220  1.00  0.00     0.090 A 
ATOM     34  H4  UNL     1       8.275   0.674   1.685  1.00  0.00     0.167 HD
HETATM   35  C20 UNL     1       7.663   2.807  -0.746  1.00  0.00     0.018 A 
HETATM   36  C21 UNL     1       6.320   2.525  -0.888  1.00  0.00     0.018 A 
ENDBRANCH  14  21
TORSDOF 1
