REMARK  5 active torsions:
REMARK  status: ('A' for Active; 'I' for Inactive)
REMARK    1  A    between atoms: C2_2  and  O2_4 
REMARK    2  A    between atoms: O2_4  and  C3_5 
REMARK    3  A    between atoms: C13_18  and  O6_19 
REMARK    4  A    between atoms: C15_22  and  O7_23 
REMARK    5  A    between atoms: C21_31  and  O9_33 
ROOT
HETATM    1  C3  UNL     1       0.029   1.875  -0.055  1.00  0.00     0.236 C 
HETATM    2  C4  UNL     1       1.243   2.822  -0.075  1.00  0.00     0.086 C 
HETATM    3  O3  UNL     1      -0.701   2.140   1.036  1.00  0.00    -0.254 OA
HETATM    4  C5  UNL     1      -0.994   2.491   2.240  1.00  0.00     0.410 C 
HETATM    5  O4  UNL     1      -0.789   3.599   2.850  1.00  0.00    -0.229 OA
HETATM    6  O5  UNL     1      -1.639   1.599   3.106  1.00  0.00    -0.283 OA
HETATM    7  C6  UNL     1      -2.626   0.645   2.712  1.00  0.00     0.083 C 
HETATM    8  C7  UNL     1      -3.923   1.510   2.759  1.00  0.00     0.051 C 
HETATM    9  C8  UNL     1      -2.819  -0.353   3.758  1.00  0.00     0.051 C 
HETATM   10  C9  UNL     1      -2.374   0.259   1.295  1.00  0.00     0.007 C 
HETATM   11  C10 UNL     1      -1.742  -0.628   0.642  1.00  0.00    -0.015 C 
HETATM   12  C11 UNL     1      -1.501  -0.986  -0.788  1.00  0.00     0.009 C 
HETATM   13  C12 UNL     1      -2.512  -0.751  -1.817  1.00  0.00     0.023 C 
HETATM   14  C13 UNL     1      -1.365  -2.542  -0.876  1.00  0.00     0.133 C 
HETATM   15  C14 UNL     1      -0.859  -2.903  -2.234  1.00  0.00     0.064 C 
HETATM   16  C15 UNL     1      -0.040  -1.964  -2.991  1.00  0.00     0.121 C 
HETATM   17  C16 UNL     1       0.101  -0.546  -2.530  1.00  0.00     0.043 C 
HETATM   18  C17 UNL     1      -0.096  -0.515  -1.055  1.00  0.00     0.071 C 
HETATM   19  C18 UNL     1       0.568   0.489  -0.237  1.00  0.00     0.228 C 
HETATM   20  O8  UNL     1       1.836   0.637  -0.868  1.00  0.00    -0.342 OA
HETATM   21  C19 UNL     1       2.801   0.319  -0.033  1.00  0.00     0.157 C 
HETATM   22  C20 UNL     1       3.911  -0.620  -0.387  1.00  0.00     0.072 C 
HETATM   23  C21 UNL     1       4.349  -1.009   1.045  1.00  0.00     0.059 C 
HETATM   24  C22 UNL     1       4.701  -2.461   1.107  1.00  0.00     0.046 C 
HETATM   25  C23 UNL     1       3.127  -0.691   1.938  1.00  0.00     0.072 C 
HETATM   26  C24 UNL     1       2.067  -0.676   0.886  1.00  0.00     0.157 C 
HETATM   27  O10 UNL     1       0.913  -0.048   1.043  1.00  0.00    -0.342 OA
ENDROOT
BRANCH   1  28
HETATM   28  O2  UNL     1      -0.742   2.126  -1.215  1.00  0.00    -0.278 OA
BRANCH  28  29
HETATM   29  C2  UNL     1      -1.375   3.275  -1.566  1.00  0.00     0.257 C 
HETATM   30  C1  UNL     1      -2.147   3.372  -2.853  1.00  0.00     0.126 C 
HETATM   31  O1  UNL     1      -1.318   4.265  -0.817  1.00  0.00    -0.266 OA
ENDBRANCH  28  29
ENDBRANCH   1  28
BRANCH  14  32
HETATM   32  O6  UNL     1      -0.587  -3.023   0.164  1.00  0.00    -0.394 OA
ATOM     33  H6  UNL     1      -0.504  -3.968   0.111  1.00  0.00     0.210 HD
ENDBRANCH  14  32
BRANCH  16  34
HETATM   34  O7  UNL     1      -0.491  -1.937  -4.338  1.00  0.00    -0.395 OA
ATOM     35  H7  UNL     1       0.043  -1.325  -4.831  1.00  0.00     0.210 HD
ENDBRANCH  16  34
BRANCH  23  36
HETATM   36  O9  UNL     1       5.406  -0.193   1.417  1.00  0.00    -0.390 OA
ATOM     37  H9  UNL     1       5.675  -0.432   2.296  1.00  0.00     0.210 HD
ENDBRANCH  23  36
TORSDOF 5
