REMARK  12 active torsions:
REMARK  status: ('A' for Active; 'I' for Inactive)
REMARK    1  A    between atoms: C6_9  and  N3_10 
REMARK       I    between atoms: N3_10  and  C7_12 
REMARK    2  A    between atoms: C7_12  and  C8_14 
REMARK    3  A    between atoms: C8_14  and  C9_15 
REMARK    4  A    between atoms: C9_15  and  C10_16 
REMARK    5  A    between atoms: C10_16  and  C11_17 
REMARK    6  A    between atoms: C12_18  and  C13_19 
REMARK    7  A    between atoms: C14_20  and  C15_21 
REMARK    8  A    between atoms: C15_21  and  C16_22 
REMARK    9  A    between atoms: C16_22  and  C17_23 
REMARK   10  A    between atoms: C18_24  and  C19_25 
REMARK   11  A    between atoms: C20_26  and  C21_27 
REMARK   12  A    between atoms: C22_28  and  C23_29 
ROOT
HETATM    1  N1  UNL     1     -10.555  -0.087  -0.072  1.00  0.00    -0.196 NA
HETATM    2  C1  UNL     1      -9.618  -0.444  -0.658  1.00  0.00     0.071 C 
HETATM    3  C2  UNL     1      -8.405  -0.875  -1.401  1.00  0.00     0.154 C 
HETATM    4  C3  UNL     1      -8.787  -0.988  -2.843  1.00  0.00     0.081 C 
HETATM    5  N2  UNL     1      -7.717  -1.073  -3.757  1.00  0.00    -0.381 N 
ATOM      6  H2  UNL     1      -7.826  -1.599  -4.624  1.00  0.00     0.164 HD
HETATM    7  C4  UNL     1      -6.499  -0.432  -3.471  1.00  0.00     0.062 C 
HETATM    8  C5  UNL     1      -6.684   0.656  -2.436  1.00  0.00     0.071 C 
HETATM    9  C6  UNL     1      -7.339   0.163  -1.192  1.00  0.00     0.111 C 
ENDROOT
BRANCH   9  10
HETATM   10  N3  UNL     1      -6.438  -0.390  -0.187  1.00  0.00    -0.354 N 
HETATM   11  C7  UNL     1      -5.759   0.298   0.799  1.00  0.00     0.217 C 
HETATM   12  O1  UNL     1      -5.768   1.583   0.927  1.00  0.00    -0.274 OA
ATOM     13  H3  UNL     1      -6.293  -1.399  -0.216  1.00  0.00     0.162 HD
BRANCH  11  14
HETATM   14  C8  UNL     1      -4.952  -0.368   1.852  1.00  0.00     0.103 C 
BRANCH  14  15
HETATM   15  C9  UNL     1      -3.709   0.548   2.175  1.00  0.00     0.013 C 
BRANCH  15  16
HETATM   16  C10 UNL     1      -2.907   0.492   0.914  1.00  0.00     0.027 C 
BRANCH  16  17
HETATM   17  C11 UNL     1      -1.567   1.058   0.891  1.00  0.00    -0.027 C 
HETATM   18  C12 UNL     1      -0.534   0.152   0.847  1.00  0.00    -0.003 C 
BRANCH  18  19
HETATM   19  C13 UNL     1      -0.956  -1.242   0.861  1.00  0.00     0.008 C 
HETATM   20  C14 UNL     1      -0.049  -2.232   0.798  1.00  0.00     0.055 C 
BRANCH  20  21
HETATM   21  C15 UNL     1       1.285  -1.927   0.705  1.00  0.00    -0.128 C 
BRANCH  21  22
HETATM   22  C16 UNL     1       2.491  -1.666   0.621  1.00  0.00     0.055 C 
BRANCH  22  23
HETATM   23  C17 UNL     1       3.602  -2.625   0.609  1.00  0.00     0.008 C 
HETATM   24  C18 UNL     1       4.791  -2.203   0.565  1.00  0.00     0.001 C 
BRANCH  24  25
HETATM   25  C19 UNL     1       6.102  -2.706   0.522  1.00  0.00     0.000 C 
HETATM   26  C20 UNL     1       7.161  -1.880   0.579  1.00  0.00    -0.000 C 
BRANCH  26  27
HETATM   27  C21 UNL     1       6.970  -0.477   0.696  1.00  0.00    -0.004 C 
HETATM   28  C22 UNL     1       7.876   0.474   0.829  1.00  0.00    -0.020 C 
BRANCH  28  29
HETATM   29  C23 UNL     1       7.346   1.909   0.927  1.00  0.00     0.033 C 
HETATM   30  C24 UNL     1       7.899   2.559  -0.314  1.00  0.00     0.020 C 
HETATM   31  C25 UNL     1       9.386   2.682  -0.182  1.00  0.00     0.112 C 
HETATM   32  C26 UNL     1       9.766   3.193   1.177  1.00  0.00     0.258 C 
HETATM   33  O2  UNL     1      10.940   3.540   1.375  1.00  0.00    -0.265 OA
HETATM   34  O3  UNL     1       8.851   3.284   2.189  1.00  0.00    -0.321 OA
HETATM   35  C27 UNL     1       7.683   2.541   2.222  1.00  0.00     0.187 C 
ENDBRANCH  28  29
ENDBRANCH  26  27
ENDBRANCH  24  25
ENDBRANCH  22  23
ENDBRANCH  21  22
ENDBRANCH  20  21
ENDBRANCH  18  19
ENDBRANCH  16  17
ENDBRANCH  15  16
ENDBRANCH  14  15
ENDBRANCH  11  14
ENDBRANCH   9  10
TORSDOF 12
