REMARK  13 active torsions:
REMARK  status: ('A' for Active; 'I' for Inactive)
REMARK    1  A    between atoms: C2_2  and  C3_3 
REMARK    2  A    between atoms: C3_3  and  C4_4 
REMARK    3  A    between atoms: C4_4  and  C5_5 
REMARK    4  A    between atoms: C9_12  and  C10_13 
REMARK    5  A    between atoms: C10_13  and  C11_14 
REMARK    6  A    between atoms: C11_14  and  C12_15 
REMARK    7  A    between atoms: C12_15  and  O4_16 
REMARK    8  A    between atoms: C12_15  and  C13_18 
REMARK    9  A    between atoms: C13_18  and  C14_19 
REMARK   10  A    between atoms: C13_18  and  C21_26 
REMARK   11  A    between atoms: C14_19  and  C15_20 
REMARK   12  A    between atoms: C21_26  and  N1_28 
REMARK   13  A    between atoms: N1_28  and  C22_30 
ROOT
HETATM    1  C12 UNL     1      -1.136  -0.207   1.676  1.00  0.00     0.056 C 
ENDROOT
BRANCH   1   2
HETATM    2  C11 UNL     1       0.261   0.021   1.324  1.00  0.00     0.068 C 
BRANCH   2   3
HETATM    3  C10 UNL     1       0.920  -0.853   0.312  1.00  0.00     0.039 C 
BRANCH   3   4
HETATM    4  C9  UNL     1       2.385  -0.424   0.014  1.00  0.00     0.133 C 
HETATM    5  O3  UNL     1       2.800  -1.295  -0.958  1.00  0.00    -0.383 OA
HETATM    6  C8  UNL     1       3.647  -2.207  -0.441  1.00  0.00     0.201 C 
HETATM    7  C7  UNL     1       4.010  -1.849   0.951  1.00  0.00     0.167 C 
HETATM    8  O2  UNL     1       5.339  -1.499   1.181  1.00  0.00    -0.309 OA
HETATM    9  C25 UNL     1       3.169  -0.589   1.234  1.00  0.00     0.085 C 
HETATM   10  C6  UNL     1       5.429  -0.223   1.721  1.00  0.00     0.290 C 
HETATM   11  C5  UNL     1       4.097   0.435   1.696  1.00  0.00     0.026 C 
HETATM   12  O1  UNL     1       6.490   0.276   2.159  1.00  0.00    -0.260 OA
BRANCH  11  13
HETATM   13  C4  UNL     1       4.072   1.815   1.240  1.00  0.00     0.013 C 
BRANCH  13  14
HETATM   14  C3  UNL     1       4.559   2.211  -0.060  1.00  0.00    -0.004 C 
BRANCH  14  15
HETATM   15  C2  UNL     1       5.103   1.507  -1.017  1.00  0.00    -0.031 C 
HETATM   16  C1  UNL     1       5.552   2.107  -2.320  1.00  0.00     0.036 C 
ENDBRANCH  14  15
ENDBRANCH  13  14
ENDBRANCH  11  13
ENDBRANCH   3   4
ENDBRANCH   2   3
ENDBRANCH   1   2
BRANCH   1  17
HETATM   17  O4  UNL     1      -1.606   0.686   2.635  1.00  0.00    -0.364 OA
ATOM     18  H4  UNL     1      -2.516   0.538   2.864  1.00  0.00     0.217 HD
ENDBRANCH   1  17
BRANCH   1  19
HETATM   19  C13 UNL     1      -2.172  -0.613   0.726  1.00  0.00     0.027 C 
BRANCH  19  20
HETATM   20  C14 UNL     1      -2.483   0.141  -0.492  1.00  0.00    -0.005 C 
BRANCH  20  21
HETATM   21  C15 UNL     1      -2.969   1.549  -0.454  1.00  0.00     0.009 C 
HETATM   22  C16 UNL     1      -3.266   1.873  -1.980  1.00  0.00     0.008 C 
HETATM   23  C17 UNL     1      -3.881   3.216  -2.100  1.00  0.00     0.001 C 
HETATM   24  C18 UNL     1      -2.848   4.253  -1.663  1.00  0.00     0.000 C 
HETATM   25  C19 UNL     1      -2.589   3.968  -0.201  1.00  0.00     0.001 C 
HETATM   26  C20 UNL     1      -1.948   2.583  -0.123  1.00  0.00     0.008 C 
ENDBRANCH  20  21
ENDBRANCH  19  20
BRANCH  19  27
HETATM   27  C21 UNL     1      -2.467  -2.063   0.671  1.00  0.00     0.109 C 
HETATM   28  S1  UNL     1      -1.575  -3.113   1.498  1.00  0.00    -0.060 SA
BRANCH  27  29
HETATM   29  N1  UNL     1      -3.553  -2.537  -0.067  1.00  0.00    -0.376 N 
ATOM     30  H1  UNL     1      -4.139  -1.860  -0.556  1.00  0.00     0.160 HD
BRANCH  29  31
HETATM   31  C22 UNL     1      -3.891  -3.948  -0.174  1.00  0.00     0.074 C 
HETATM   32  C23 UNL     1      -4.166  -4.471   1.210  1.00  0.00     0.031 C 
HETATM   33  C24 UNL     1      -2.821  -4.723  -0.899  1.00  0.00     0.031 C 
ENDBRANCH  29  31
ENDBRANCH  27  29
ENDBRANCH  19  27
ENDBRANCH   1  19
TORSDOF 13
