REMARK  14 active torsions:
REMARK  status: ('A' for Active; 'I' for Inactive)
REMARK    1  A    between atoms: C1_2  and  C2_4 
REMARK    2  A    between atoms: C2_4  and  C3_5 
REMARK    3  A    between atoms: C3_5  and  C4_6 
REMARK    4  A    between atoms: C4_6  and  N1_7 
REMARK    5  A    between atoms: C4_6  and  C17_29 
REMARK       I    between atoms: N1_7  and  C5_9 
REMARK    6  A    between atoms: C5_9  and  C6_11 
REMARK    7  A    between atoms: C6_11  and  C7_12 
REMARK    8  A    between atoms: C6_11  and  N2_14 
REMARK    9  A    between atoms: N2_14  and  C8_16 
REMARK   10  A    between atoms: C8_16  and  O4_17 
REMARK   11  A    between atoms: C8_16  and  C9_19 
REMARK   12  A    between atoms: C9_19  and  C10_20 
REMARK   13  A    between atoms: C10_20  and  S2_21 
REMARK   14  A    between atoms: S2_21  and  C11_23 
ROOT
HETATM    1  C6  UNL     1       1.892   0.991  -1.582  1.00  0.00     0.085 C 
ENDROOT
BRANCH   1   2
HETATM    2  C5  UNL     1       2.796  -0.055  -1.159  1.00  0.00     0.265 C 
HETATM    3  N1  UNL     1       3.631   0.016  -0.025  1.00  0.00    -0.341 N 
ATOM      4  H1  UNL     1       3.557   0.853   0.554  1.00  0.00     0.163 HD
HETATM    5  O3  UNL     1       2.890  -1.153  -1.823  1.00  0.00    -0.266 OA
BRANCH   3   6
HETATM    6  C4  UNL     1       4.581  -0.988   0.391  1.00  0.00     0.186 C 
BRANCH   6   7
HETATM    7  C3  UNL     1       5.448  -0.496   1.500  1.00  0.00     0.046 C 
BRANCH   7   8
HETATM    8  C2  UNL     1       6.238   0.737   1.194  1.00  0.00     0.116 C 
BRANCH   8   9
HETATM    9  C1  UNL     1       7.181   0.655   0.088  1.00  0.00     0.172 C 
HETATM   10  O1  UNL     1       7.411  -0.377  -0.581  1.00  0.00    -0.648 OA
HETATM   11  O2  UNL     1       7.892   1.797  -0.272  1.00  0.00    -0.648 OA
ENDBRANCH   8   9
ENDBRANCH   7   8
ENDBRANCH   6   7
BRANCH   6  12
HETATM   12  C17 UNL     1       3.865  -2.239   0.911  1.00  0.00     0.196 C 
HETATM   13  O6  UNL     1       2.645  -2.386   0.945  1.00  0.00    -0.646 OA
HETATM   14  O7  UNL     1       4.698  -3.261   1.371  1.00  0.00    -0.646 OA
ENDBRANCH   6  12
ENDBRANCH   3   6
ENDBRANCH   1   2
BRANCH   1  15
HETATM   15  C7  UNL     1       2.023   2.262  -0.790  1.00  0.00     0.148 C 
HETATM   16  S1  UNL     1       3.673   2.963  -1.017  1.00  0.00    -0.091 SA
ENDBRANCH   1  15
BRANCH   1  17
HETATM   17  N2  UNL     1       0.568   0.625  -1.896  1.00  0.00    -0.362 N 
ATOM     18  H2  UNL     1       0.229   0.673  -2.857  1.00  0.00     0.162 HD
BRANCH  17  19
HETATM   19  C8  UNL     1      -0.283   0.189  -0.851  1.00  0.00     0.218 C 
BRANCH  19  20
HETATM   20  O4  UNL     1       0.501  -0.020   0.274  1.00  0.00    -0.377 OA
ATOM     21  H4  UNL     1      -0.070  -0.312   0.975  1.00  0.00     0.212 HD
ENDBRANCH  19  20
BRANCH  19  22
HETATM   22  C9  UNL     1      -1.185  -0.978  -1.155  1.00  0.00     0.066 C 
BRANCH  22  23
HETATM   23  C10 UNL     1      -2.051  -1.361   0.043  1.00  0.00     0.113 C 
BRANCH  23  24
HETATM   24  S2  UNL     1      -3.080  -0.136   0.640  1.00  0.00     0.019 S 
HETATM   25  O5  UNL     1      -2.535   1.262   1.205  1.00  0.00    -0.258 OA
BRANCH  24  26
HETATM   26  C11 UNL     1      -4.783  -0.380   0.488  1.00  0.00     0.079 C 
HETATM   27  C12 UNL     1      -5.222  -0.547  -0.976  1.00  0.00     0.017 C 
HETATM   28  C13 UNL     1      -6.575  -1.213  -0.950  1.00  0.00     0.001 C 
HETATM   29  C14 UNL     1      -7.456  -0.433   0.024  1.00  0.00     0.000 C 
HETATM   30  C15 UNL     1      -6.865   0.917   0.306  1.00  0.00     0.001 C 
HETATM   31  C16 UNL     1      -5.543   0.852   1.000  1.00  0.00     0.017 C 
ENDBRANCH  24  26
ENDBRANCH  23  24
ENDBRANCH  22  23
ENDBRANCH  19  22
ENDBRANCH  17  19
ENDBRANCH   1  17
TORSDOF 14
