REMARK  16 active torsions:
REMARK  status: ('A' for Active; 'I' for Inactive)
REMARK    1  A    between atoms: N1_1  and  C1_5 
REMARK    2  A    between atoms: C1_5  and  C2_6 
REMARK    3  A    between atoms: C2_6  and  C3_7 
REMARK    4  A    between atoms: C3_7  and  C4_8 
REMARK    5  A    between atoms: C4_8  and  C5_9 
REMARK    6  A    between atoms: C5_9  and  N2_10 
REMARK    7  A    between atoms: N2_10  and  C6_12 
REMARK    8  A    between atoms: N3_19  and  C13_20 
REMARK    9  A    between atoms: C13_20  and  C14_21 
REMARK   10  A    between atoms: C14_21  and  C15_22 
REMARK   11  A    between atoms: C15_22  and  N4_23 
REMARK   12  A    between atoms: C17_29  and  C18_30 
REMARK   13  A    between atoms: C18_30  and  C19_31 
REMARK   14  A    between atoms: C19_31  and  C20_32 
REMARK   15  A    between atoms: C20_32  and  C21_33 
REMARK   16  A    between atoms: C21_33  and  N5_34 
ROOT
HETATM    1  C6  UNL     1       1.452  -0.208  -0.190  1.00  0.00     0.173 C 
HETATM    2  C7  UNL     1       1.607  -1.643  -0.482  1.00  0.00     0.035 C 
HETATM    3  C8  UNL     1       0.953  -2.094  -1.803  1.00  0.00     0.002 C 
HETATM    4  C9  UNL     1      -0.054  -3.172  -1.608  1.00  0.00     0.000 C 
HETATM    5  C10 UNL     1      -1.182  -3.235  -2.575  1.00  0.00     0.002 C 
HETATM    6  C11 UNL     1      -2.294  -2.311  -2.470  1.00  0.00     0.020 C 
HETATM    7  C12 UNL     1      -2.385  -1.286  -1.431  1.00  0.00     0.126 C 
HETATM    8  N3  UNL     1      -2.551  -1.652  -0.056  1.00  0.00    -0.347 N 
HETATM    9  C16 UNL     1      -1.898  -1.086   1.061  1.00  0.00     0.266 C 
HETATM   10  O1  UNL     1      -1.474  -1.960   1.910  1.00  0.00    -0.266 OA
HETATM   11  C17 UNL     1      -1.616   0.301   1.428  1.00  0.00     0.080 C 
HETATM   12  N6  UNL     1      -0.229   0.633   1.634  1.00  0.00    -0.324 N 
ATOM     13  H6  UNL     1      -0.078   1.482   2.179  1.00  0.00     0.169 HD
HETATM   14  C22 UNL     1       0.937   0.006   1.224  1.00  0.00     0.244 C 
HETATM   15  O2  UNL     1       1.746  -0.486   2.070  1.00  0.00    -0.271 OA
ENDROOT
BRANCH   1  16
HETATM   16  N2  UNL     1       2.414   0.749  -0.408  1.00  0.00    -0.389 N 
ATOM     17  H2  UNL     1       2.160   1.473  -1.080  1.00  0.00     0.159 HD
BRANCH  16  18
HETATM   18  C5  UNL     1       3.666   0.878   0.142  1.00  0.00     0.056 C 
BRANCH  18  19
HETATM   19  C4  UNL     1       4.775  -0.047  -0.265  1.00  0.00     0.044 C 
BRANCH  19  20
HETATM   20  C3  UNL     1       6.078   0.207   0.491  1.00  0.00     0.007 C 
BRANCH  20  21
HETATM   21  C2  UNL     1       6.553   1.605   0.262  1.00  0.00     0.027 C 
BRANCH  21  22
HETATM   22  C1  UNL     1       7.868   1.852   1.020  1.00  0.00     0.229 C 
BRANCH  22  23
HETATM   23  N1  UNL     1       8.312   3.203   0.809  1.00  0.00    -0.079 N 
ATOM     24  H13 UNL     1       8.395   3.428  -0.183  1.00  0.00     0.274 HD
ATOM     25  H12 UNL     1       7.594   3.884   1.057  1.00  0.00     0.274 HD
ATOM     26  H11 UNL     1       9.184   3.367   1.312  1.00  0.00     0.274 HD
ENDBRANCH  22  23
ENDBRANCH  21  22
ENDBRANCH  20  21
ENDBRANCH  19  20
ENDBRANCH  18  19
ENDBRANCH  16  18
ENDBRANCH   1  16
BRANCH  11  27
HETATM   27  C18 UNL     1      -2.412   1.328   0.685  1.00  0.00     0.063 C 
BRANCH  27  28
HETATM   28  C19 UNL     1      -2.072   2.756   1.120  1.00  0.00     0.008 C 
BRANCH  28  29
HETATM   29  C20 UNL     1      -2.985   3.637   0.261  1.00  0.00     0.027 C 
BRANCH  29  30
HETATM   30  C21 UNL     1      -2.795   5.108   0.545  1.00  0.00     0.229 C 
BRANCH  30  31
HETATM   31  N5  UNL     1      -3.738   5.794  -0.353  1.00  0.00    -0.079 N 
ATOM     32  H53 UNL     1      -3.628   5.545  -1.336  1.00  0.00     0.274 HD
ATOM     33  H52 UNL     1      -4.703   5.476  -0.260  1.00  0.00     0.274 HD
ATOM     34  H51 UNL     1      -3.610   6.788  -0.161  1.00  0.00     0.274 HD
ENDBRANCH  30  31
ENDBRANCH  29  30
ENDBRANCH  28  29
ENDBRANCH  27  28
ENDBRANCH  11  27
BRANCH   8  35
HETATM   35  C13 UNL     1      -3.514  -2.715   0.227  1.00  0.00     0.127 C 
BRANCH  35  36
HETATM   36  C14 UNL     1      -4.914  -2.187   0.409  1.00  0.00     0.047 C 
BRANCH  36  37
HETATM   37  C15 UNL     1      -5.886  -3.324   0.694  1.00  0.00     0.231 C 
BRANCH  37  38
HETATM   38  N4  UNL     1      -5.564  -4.039   1.882  1.00  0.00    -0.079 N 
ATOM     39  H43 UNL     1      -4.602  -4.378   1.855  1.00  0.00     0.274 HD
ATOM     40  H42 UNL     1      -5.495  -3.408   2.681  1.00  0.00     0.274 HD
ATOM     41  H41 UNL     1      -6.215  -4.801   2.073  1.00  0.00     0.274 HD
ENDBRANCH  37  38
ENDBRANCH  36  37
ENDBRANCH  35  36
ENDBRANCH   8  35
TORSDOF 16
