REMARK  17 active torsions:
REMARK  status: ('A' for Active; 'I' for Inactive)
REMARK    1  A    between atoms: C2_2  and  C3_3 
REMARK    2  A    between atoms: C4_6  and  N2_7 
REMARK    3  A    between atoms: C5_12  and  N4_13 
REMARK    4  A    between atoms: C6_16  and  C7_17 
REMARK    5  A    between atoms: C8_18  and  C9_19 
REMARK    6  A    between atoms: C9_19  and  N5_20 
REMARK    7  A    between atoms: N5_20  and  C10_22 
REMARK    8  A    between atoms: C10_22  and  C11_23 
REMARK    9  A    between atoms: C11_23  and  C12_24 
REMARK   10  A    between atoms: C12_24  and  N6_25 
REMARK   11  A    between atoms: N6_25  and  C13_28 
REMARK   12  A    between atoms: C13_28  and  C14_29 
REMARK   13  A    between atoms: C14_29  and  N7_30 
REMARK   14  A    between atoms: N7_30  and  C15_31 
REMARK   15  A    between atoms: N7_30  and  C17_33 
REMARK   16  A    between atoms: C17_33  and  C18_34 
REMARK   17  A    between atoms: C18_34  and  N8_35 
ROOT
HETATM    1  N5  UNL     1      -3.026  -0.906   1.327  1.00  0.00    -0.372 N 
ATOM      2  H5  UNL     1      -3.949  -1.046   1.739  1.00  0.00     0.164 HD
ENDROOT
BRANCH   1   3
HETATM    3  C9  UNL     1      -2.944  -0.084   0.208  1.00  0.00     0.153 C 
BRANCH   3   4
HETATM    4  C8  UNL     1      -4.293   0.357  -0.233  1.00  0.00    -0.056 C 
HETATM    5  C7  UNL     1      -5.409   0.685  -0.588  1.00  0.00    -0.055 C 
BRANCH   5   6
HETATM    6  C6  UNL     1      -6.738   1.034  -1.001  1.00  0.00     0.085 A 
HETATM    7  C3  UNL     1      -7.750   1.211  -0.061  1.00  0.00     0.048 A 
HETATM    8  N1  UNL     1      -8.979   1.524  -0.485  1.00  0.00    -0.194 N 
HETATM    9  C4  UNL     1      -9.301   1.682  -1.776  1.00  0.00     0.677 A 
ATOM     10  H1  UNL     1      -9.712   1.649   0.213  1.00  0.00     0.184 HD
HETATM   11  N3  UNL     1      -8.327   1.512  -2.681  1.00  0.00    -0.176 N 
HETATM   12  C5  UNL     1      -7.063   1.194  -2.323  1.00  0.00     0.135 A 
ATOM     13  H3  UNL     1      -8.546   1.626  -3.671  1.00  0.00     0.186 HD
BRANCH   7  14
HETATM   14  C2  UNL     1      -7.372   1.028   1.354  1.00  0.00     0.055 C 
HETATM   15  C1  UNL     1      -8.523   1.186   2.305  1.00  0.00     0.011 C 
ENDBRANCH   7  14
BRANCH   9  16
HETATM   16  N2  UNL     1     -10.519   1.990  -2.163  1.00  0.00    -0.234 N 
ATOM     17  H22 UNL     1     -11.260   2.119  -1.474  1.00  0.00     0.174 HD
ATOM     18  H21 UNL     1     -10.764   2.110  -3.146  1.00  0.00     0.174 HD
ENDBRANCH   9  16
BRANCH  12  19
HETATM   19  N4  UNL     1      -6.131   1.031  -3.209  1.00  0.00    -0.384 N 
ATOM     20  H42 UNL     1      -6.373   1.150  -4.193  1.00  0.00     0.157 HD
ATOM     21  H41 UNL     1      -5.177   0.791  -2.939  1.00  0.00     0.157 HD
ENDBRANCH  12  19
ENDBRANCH   5   6
ENDBRANCH   3   4
ENDBRANCH   1   3
BRANCH   1  22
HETATM   22  C10 UNL     1      -1.960  -1.549   1.927  1.00  0.00     0.062 C 
BRANCH  22  23
HETATM   23  C11 UNL     1      -1.306  -2.721   1.313  1.00  0.00     0.072 C 
BRANCH  23  24
HETATM   24  C12 UNL     1      -0.667  -2.552  -0.004  1.00  0.00     0.237 C 
BRANCH  24  25
HETATM   25  N6  UNL     1       0.397  -1.570  -0.021  1.00  0.00    -0.073 N 
ATOM     26  H62 UNL     1       0.094  -0.658   0.322  1.00  0.00     0.277 HD
ATOM     27  H61 UNL     1       1.111  -1.754   0.684  1.00  0.00     0.277 HD
BRANCH  25  28
HETATM   28  C13 UNL     1       0.941  -1.507  -1.361  1.00  0.00     0.251 C 
BRANCH  28  29
HETATM   29  C14 UNL     1       2.189  -0.631  -1.396  1.00  0.00     0.144 C 
BRANCH  29  30
HETATM   30  N7  UNL     1       3.213  -1.135  -0.558  1.00  0.00    -0.409 N 
BRANCH  30  31
HETATM   31  C15 UNL     1       3.832  -2.354  -0.938  1.00  0.00     0.112 C 
HETATM   32  C16 UNL     1       4.889  -2.697   0.120  1.00  0.00     0.026 C 
ENDBRANCH  30  31
BRANCH  30  33
HETATM   33  C17 UNL     1       4.018  -0.161   0.092  1.00  0.00     0.147 C 
BRANCH  33  34
HETATM   34  C18 UNL     1       4.874   0.566  -0.891  1.00  0.00     0.291 C 
BRANCH  34  35
HETATM   35  N8  UNL     1       5.725   1.575  -0.345  1.00  0.00     0.090 N 
HETATM   36  C19 UNL     1       6.478   2.205  -1.416  1.00  0.00     0.272 C 
HETATM   37  C20 UNL     1       7.890   2.555  -1.008  1.00  0.00     0.030 C 
HETATM   38  C21 UNL     1       8.656   1.356  -0.494  1.00  0.00     0.003 C 
HETATM   39  C22 UNL     1       7.746   0.398   0.250  1.00  0.00     0.030 C 
HETATM   40  C23 UNL     1       6.556   1.192   0.747  1.00  0.00     0.272 C 
ENDBRANCH  34  35
ENDBRANCH  33  34
ENDBRANCH  30  33
ENDBRANCH  29  30
ENDBRANCH  28  29
ENDBRANCH  25  28
ENDBRANCH  24  25
ENDBRANCH  23  24
ENDBRANCH  22  23
ENDBRANCH   1  22
TORSDOF 17
