REMARK  20 active torsions:
REMARK  status: ('A' for Active; 'I' for Inactive)
REMARK    1  A    between atoms: O1_1  and  C1_3 
REMARK    2  A    between atoms: C1_3  and  O2_4 
REMARK    3  A    between atoms: C1_3  and  C2_6 
REMARK    4  A    between atoms: C2_6  and  O3_7 
REMARK    5  A    between atoms: C2_6  and  C3_9 
REMARK    6  A    between atoms: C4_10  and  C5_11 
REMARK    7  A    between atoms: C6_13  and  C7_14 
REMARK    8  A    between atoms: C15_22  and  C16_23 
REMARK    9  A    between atoms: C16_23  and  O5_24 
REMARK   10  A    between atoms: O5_24  and  C17_25 
REMARK   11  A    between atoms: C17_25  and  C18_26 
REMARK   12  A    between atoms: C18_26  and  C19_27 
REMARK   13  A    between atoms: C19_27  and  C20_28 
REMARK   14  A    between atoms: C20_28  and  C21_29 
REMARK   15  A    between atoms: C21_29  and  C22_30 
REMARK   16  A    between atoms: C22_30  and  C23_31 
REMARK   17  A    between atoms: C23_31  and  O6_32 
REMARK   18  A    between atoms: C23_31  and  C24_34 
REMARK   19  A    between atoms: C24_34  and  O7_35 
REMARK   20  A    between atoms: C24_34  and  O8_37 
ROOT
HETATM    1  C5  UNL     1      -2.097  -0.229  -1.431  1.00  0.00     0.149 C 
HETATM    2  O4  UNL     1      -2.704  -0.368  -0.186  1.00  0.00    -0.376 OA
HETATM    3  C6  UNL     1      -3.249  -1.677  -0.237  1.00  0.00     0.126 C 
HETATM    4  C13 UNL     1      -2.112  -2.594   0.084  1.00  0.00     0.038 C 
HETATM    5  C14 UNL     1      -1.057  -2.446  -0.959  1.00  0.00     0.002 A 
HETATM    6  C15 UNL     1       0.100  -1.525  -0.741  1.00  0.00     0.021 A 
HETATM    7  C25 UNL     1      -0.964  -1.148  -1.655  1.00  0.00     0.029 A 
ENDROOT
BRANCH   6   8
HETATM    8  C16 UNL     1       0.325  -0.999   0.635  1.00  0.00     0.173 C 
BRANCH   8   9
HETATM    9  O5  UNL     1       1.408  -0.181   0.811  1.00  0.00    -0.391 OA
BRANCH   9  10
HETATM   10  C17 UNL     1       1.479   0.965   0.100  1.00  0.00     0.167 C 
BRANCH  10  11
HETATM   11  C18 UNL     1       2.712   1.771   0.384  1.00  0.00     0.026 C 
BRANCH  11  12
HETATM   12  C19 UNL     1       4.018   1.115   0.062  1.00  0.00     0.002 C 
BRANCH  12  13
HETATM   13  C20 UNL     1       4.297  -0.164   0.803  1.00  0.00     0.000 C 
BRANCH  13  14
HETATM   14  C21 UNL     1       5.674  -0.722   0.411  1.00  0.00     0.003 C 
BRANCH  14  15
HETATM   15  C22 UNL     1       6.788   0.217   0.723  1.00  0.00     0.036 C 
BRANCH  15  16
HETATM   16  C23 UNL     1       8.114  -0.434   0.306  1.00  0.00     0.173 C 
BRANCH  16  17
HETATM   17  O6  UNL     1       8.342  -1.616   0.968  1.00  0.00    -0.391 OA
ATOM     18  H6  UNL     1       9.163  -2.019   0.710  1.00  0.00     0.210 HD
ENDBRANCH  16  17
BRANCH  16  19
HETATM   19  C24 UNL     1       9.249   0.516   0.559  1.00  0.00     0.282 C 
BRANCH  19  20
HETATM   20  O7  UNL     1       9.418   0.816   1.895  1.00  0.00    -0.369 OA
ATOM     21  H7  UNL     1      10.136   1.417   2.055  1.00  0.00     0.212 HD
ENDBRANCH  19  20
BRANCH  19  22
HETATM   22  O8  UNL     1       9.113   1.689  -0.193  1.00  0.00    -0.369 OA
ATOM     23  H8  UNL     1       9.831   2.290  -0.033  1.00  0.00     0.212 HD
ENDBRANCH  19  22
ENDBRANCH  16  19
ENDBRANCH  15  16
ENDBRANCH  14  15
ENDBRANCH  13  14
ENDBRANCH  12  13
ENDBRANCH  11  12
ENDBRANCH  10  11
ENDBRANCH   9  10
ENDBRANCH   8   9
ENDBRANCH   6   8
BRANCH   1  24
HETATM   24  C4  UNL     1      -1.876   1.195  -1.711  1.00  0.00     0.004 C 
HETATM   25  C3  UNL     1      -2.417   2.117  -0.906  1.00  0.00     0.008 C 
BRANCH  25  26
HETATM   26  C2  UNL     1      -2.224   3.573  -1.145  1.00  0.00     0.195 C 
BRANCH  26  27
HETATM   27  C1  UNL     1      -3.497   4.170  -1.725  1.00  0.00     0.286 C 
BRANCH  27  28
HETATM   28  O1  UNL     1      -4.511   3.995  -0.774  1.00  0.00    -0.369 OA
ATOM     29  H1  UNL     1      -4.238   4.453   0.012  1.00  0.00     0.212 HD
ENDBRANCH  27  28
BRANCH  27  30
HETATM   30  O2  UNL     1      -3.895   3.502  -2.872  1.00  0.00    -0.369 OA
ATOM     31  H2  UNL     1      -3.207   3.621  -3.517  1.00  0.00     0.212 HD
ENDBRANCH  27  30
ENDBRANCH  26  27
BRANCH  26  32
HETATM   32  O3  UNL     1      -1.932   4.254   0.038  1.00  0.00    -0.387 OA
ATOM     33  H3  UNL     1      -1.137   3.881   0.400  1.00  0.00     0.210 HD
ENDBRANCH  26  32
ENDBRANCH  25  26
ENDBRANCH   1  24
BRANCH   3  34
HETATM   34  C7  UNL     1      -4.394  -1.765   0.729  1.00  0.00     0.015 C 
HETATM   35  C8  UNL     1      -5.053  -3.097   0.770  1.00  0.00     0.007 C 
HETATM   36  C9  UNL     1      -6.174  -3.045   1.788  1.00  0.00     0.000 C 
HETATM   37  C10 UNL     1      -7.207  -2.013   1.387  1.00  0.00     0.000 C 
HETATM   38  C11 UNL     1      -6.564  -0.633   1.277  1.00  0.00     0.000 C 
HETATM   39  C12 UNL     1      -5.443  -0.751   0.264  1.00  0.00     0.007 C 
ENDBRANCH   3  34
TORSDOF 20
