REMARK  15 active torsions:
REMARK  status: ('A' for Active; 'I' for Inactive)
REMARK    1  A    between atoms: N1_1  and  C1_5 
REMARK    2  A    between atoms: C1_5  and  C2_6 
REMARK    3  A    between atoms: C2_6  and  C3_7 
REMARK    4  A    between atoms: C3_7  and  N2_8 
REMARK    5  A    between atoms: N2_8  and  C4_10 
REMARK    6  A    between atoms: N4_17  and  C8_19 
REMARK    7  A    between atoms: C8_19  and  C9_20 
REMARK    8  A    between atoms: C12_23  and  N5_24 
REMARK    9  A    between atoms: N5_24  and  C13_26 
REMARK   10  A    between atoms: C13_26  and  C14_27 
REMARK   11  A    between atoms: C14_27  and  C15_28 
REMARK   12  A    between atoms: C15_28  and  C16_29 
REMARK   13  A    between atoms: C16_29  and  C17_30 
REMARK   14  A    between atoms: C17_30  and  N6_31 
REMARK   15  A    between atoms: N6_31  and  C18_33 
ROOT
HETATM    1  C4  UNL     1      -8.188   0.220  -0.558  1.00  0.00     0.682 A 
HETATM    2  N3  UNL     1      -7.086  -0.319  -0.007  1.00  0.00    -0.155 N 
ATOM      3  H3  UNL     1      -7.169  -0.690   0.940  1.00  0.00     0.187 HD
HETATM    4  C5  UNL     1      -5.888  -0.409  -0.600  1.00  0.00     0.277 A 
HETATM    5  O1  UNL     1      -4.893  -0.932  -0.020  1.00  0.00    -0.266 OA
HETATM    6  C6  UNL     1      -5.752   0.083  -1.877  1.00  0.00     0.121 A 
HETATM    7  C7  UNL     1      -4.558   0.044  -2.588  1.00  0.00     0.122 A 
HETATM    8  N4  UNL     1      -3.540  -0.466  -2.019  1.00  0.00    -0.369 N 
ATOM      9  H4  UNL     1      -3.643  -0.825  -1.070  1.00  0.00     0.161 HD
HETATM   10  N7  UNL     1      -4.468   0.534  -3.831  1.00  0.00    -0.338 N 
ATOM     11  H7  UNL     1      -3.585   0.496  -4.340  1.00  0.00     0.168 HD
HETATM   12  C24 UNL     1      -5.579   1.086  -4.408  1.00  0.00     0.183 A 
HETATM   13  N8  UNL     1      -6.733   1.126  -3.726  1.00  0.00    -0.337 N 
ATOM     14  H8  UNL     1      -7.548   1.541  -4.178  1.00  0.00     0.168 HD
HETATM   15  C25 UNL     1      -6.871   0.644  -2.468  1.00  0.00     0.141 A 
HETATM   16  N9  UNL     1      -8.042   0.703  -1.818  1.00  0.00    -0.175 N 
ATOM     17  H9  UNL     1      -8.846   1.123  -2.284  1.00  0.00     0.186 HD
ENDROOT
BRANCH   8  18
HETATM   18  C8  UNL     1      -2.251  -0.561  -2.650  1.00  0.00     0.186 C 
BRANCH  18  19
HETATM   19  C9  UNL     1      -1.194  -0.555  -1.574  1.00  0.00     0.073 A 
HETATM   20  C10 UNL     1      -1.283  -1.054  -0.303  1.00  0.00     0.039 A 
HETATM   21  C11 UNL     1      -0.081  -0.812   0.297  1.00  0.00     0.058 A 
HETATM   22  C12 UNL     1       0.729  -0.163  -0.635  1.00  0.00     0.143 A 
HETATM   23  O2  UNL     1       0.009  -0.043  -1.721  1.00  0.00    -0.297 OA
BRANCH  22  24
HETATM   24  N5  UNL     1       2.043   0.231  -0.315  1.00  0.00    -0.371 N 
ATOM     25  H5  UNL     1       2.346   0.073   0.646  1.00  0.00     0.161 HD
BRANCH  24  26
HETATM   26  C13 UNL     1       2.998   0.831  -1.200  1.00  0.00     0.121 C 
BRANCH  26  27
HETATM   27  C14 UNL     1       3.606  -0.039  -2.227  1.00  0.00     0.020 C 
BRANCH  27  28
HETATM   28  C15 UNL     1       4.313  -1.249  -1.826  1.00  0.00     0.003 C 
BRANCH  28  29
HETATM   29  C16 UNL     1       5.472  -1.194  -0.923  1.00  0.00     0.019 C 
BRANCH  29  30
HETATM   30  C17 UNL     1       5.275  -0.792   0.491  1.00  0.00     0.114 C 
BRANCH  30  31
HETATM   31  N6  UNL     1       6.456  -0.784   1.268  1.00  0.00    -0.417 N 
ATOM     32  H6  UNL     1       6.652  -1.547   1.916  1.00  0.00     0.153 HD
BRANCH  31  33
HETATM   33  C18 UNL     1       7.366   0.298   1.137  1.00  0.00     0.076 C 
HETATM   34  C19 UNL     1       7.907   0.527   2.561  1.00  0.00     0.024 C 
HETATM   35  C20 UNL     1       9.251  -0.196   2.669  1.00  0.00     0.002 C 
HETATM   36  C21 UNL     1      10.225   0.631   1.878  1.00  0.00     0.000 C 
HETATM   37  C22 UNL     1       9.764   0.731   0.474  1.00  0.00     0.002 C 
HETATM   38  C23 UNL     1       8.442   0.053   0.166  1.00  0.00     0.024 C 
ENDBRANCH  31  33
ENDBRANCH  30  31
ENDBRANCH  29  30
ENDBRANCH  28  29
ENDBRANCH  27  28
ENDBRANCH  26  27
ENDBRANCH  24  26
ENDBRANCH  22  24
ENDBRANCH  18  19
ENDBRANCH   8  18
BRANCH   1  39
HETATM   39  N2  UNL     1      -9.328   0.293   0.040  1.00  0.00    -0.226 N 
ATOM     40  H2  UNL     1     -10.088   0.726  -0.484  1.00  0.00     0.177 HD
BRANCH  39  41
HETATM   41  C3  UNL     1      -9.643  -0.163   1.348  1.00  0.00     0.139 C 
BRANCH  41  42
HETATM   42  C2  UNL     1      -9.155   0.762   2.438  1.00  0.00     0.047 C 
BRANCH  42  43
HETATM   43  C1  UNL     1      -9.503   0.291   3.814  1.00  0.00     0.231 C 
BRANCH  43  44
HETATM   44  N1  UNL     1     -10.955   0.169   4.000  1.00  0.00    -0.079 N 
ATOM     45  H13 UNL     1     -11.432   1.042   3.775  1.00  0.00     0.274 HD
ATOM     46  H12 UNL     1     -11.371  -0.430   3.287  1.00  0.00     0.274 HD
ATOM     47  H11 UNL     1     -11.192  -0.152   4.939  1.00  0.00     0.274 HD
ENDBRANCH  43  44
ENDBRANCH  42  43
ENDBRANCH  41  42
ENDBRANCH  39  41
ENDBRANCH   1  39
TORSDOF 15
