REMARK  13 active torsions:
REMARK  status: ('A' for Active; 'I' for Inactive)
REMARK    1  A    between atoms: C2_2  and  C3_3 
REMARK    2  A    between atoms: C3_3  and  C4_4 
REMARK    3  A    between atoms: C4_4  and  C5_5 
REMARK    4  A    between atoms: C5_5  and  C6_6 
REMARK    5  A    between atoms: C6_6  and  N1_7 
REMARK       I    between atoms: C7_9  and  N3_11 
REMARK    6  A    between atoms: N3_11  and  C8_13 
REMARK    7  A    between atoms: C8_13  and  C9_14 
REMARK    8  A    between atoms: C9_14  and  C10_15 
REMARK    9  A    between atoms: C10_15  and  C11_16 
REMARK   10  A    between atoms: C11_16  and  N4_17 
REMARK   11  A    between atoms: N4_17  and  C12_19 
REMARK   12  A    between atoms: C13_22  and  N6_23 
REMARK   13  A    between atoms: C14_28  and  C15_29 
ROOT
HETATM    1  C12 UNL     1      -3.098  -0.373  -1.006  1.00  0.00     0.695 A 
HETATM    2  N5  UNL     1      -3.623   0.693  -1.635  1.00  0.00    -0.022 N 
ATOM      3  H5  UNL     1      -3.083   1.191  -2.343  1.00  0.00     0.203 HD
HETATM    4  C13 UNL     1      -4.861   1.095  -1.323  1.00  0.00     0.691 A 
HETATM    5  N7  UNL     1      -5.549   0.426  -0.389  1.00  0.00    -0.179 N 
ATOM      6  H7  UNL     1      -6.493   0.729  -0.148  1.00  0.00     0.185 HD
HETATM    7  C14 UNL     1      -5.016  -0.641   0.238  1.00  0.00     0.121 A 
HETATM    8  N9  UNL     1      -3.795  -1.063  -0.050  1.00  0.00    -0.175 N 
HETATM    9  C19 UNL     1      -3.259  -2.201   0.635  1.00  0.00     0.177 C 
ENDROOT
BRANCH   1  10
HETATM   10  N4  UNL     1      -1.929  -0.809  -1.258  1.00  0.00    -0.225 N 
ATOM     11  H4  UNL     1      -1.643  -1.624  -0.715  1.00  0.00     0.177 HD
BRANCH  10  12
HETATM   12  C11 UNL     1      -0.967  -0.331  -2.180  1.00  0.00     0.138 C 
BRANCH  12  13
HETATM   13  C10 UNL     1       0.314   0.192  -1.505  1.00  0.00     0.022 C 
BRANCH  13  14
HETATM   14  C9  UNL     1       0.011   1.319  -0.585  1.00  0.00     0.021 C 
BRANCH  14  15
HETATM   15  C8  UNL     1       1.209   1.845   0.136  1.00  0.00     0.122 C 
BRANCH  15  16
HETATM   16  N3  UNL     1       2.273   2.374  -0.641  1.00  0.00    -0.365 N 
HETATM   17  C7  UNL     1       3.145   1.616  -1.451  1.00  0.00     0.183 C 
HETATM   18  N1  UNL     1       3.628   0.481  -1.012  1.00  0.00    -0.365 N 
HETATM   19  N2  UNL     1       3.505   2.088  -2.734  1.00  0.00    -0.064 NA
ATOM     20  H1  UNL     1       3.356   0.159  -0.083  1.00  0.00     0.162 HD
ATOM     21  H3  UNL     1       2.419   3.383  -0.611  1.00  0.00     0.162 HD
BRANCH  18  22
HETATM   22  C6  UNL     1       4.522  -0.325  -1.783  1.00  0.00     0.122 C 
BRANCH  22  23
HETATM   23  C5  UNL     1       5.190  -1.373  -0.987  1.00  0.00     0.020 C 
BRANCH  23  24
HETATM   24  C4  UNL     1       6.097  -0.974   0.121  1.00  0.00     0.002 C 
BRANCH  24  25
HETATM   25  C3  UNL     1       5.470  -0.187   1.197  1.00  0.00    -0.000 C 
BRANCH  25  26
HETATM   26  C2  UNL     1       6.445   0.132   2.330  1.00  0.00    -0.005 C 
HETATM   27  C1  UNL     1       7.620   0.926   1.836  1.00  0.00     0.005 C 
ENDBRANCH  25  26
ENDBRANCH  24  25
ENDBRANCH  23  24
ENDBRANCH  22  23
ENDBRANCH  18  22
ENDBRANCH  15  16
ENDBRANCH  14  15
ENDBRANCH  13  14
ENDBRANCH  12  13
ENDBRANCH  10  12
ENDBRANCH   1  10
BRANCH   4  28
HETATM   28  N6  UNL     1      -5.365   2.115  -1.923  1.00  0.00    -0.234 N 
ATOM     29  H62 UNL     1      -4.841   2.625  -2.634  1.00  0.00     0.174 HD
ATOM     30  H61 UNL     1      -6.308   2.421  -1.685  1.00  0.00     0.174 HD
ENDBRANCH   4  28
BRANCH   7  31
HETATM   31  C15 UNL     1      -5.865  -1.309   1.254  1.00  0.00     0.081 C 
HETATM   32  C16 UNL     1      -7.252  -1.599   0.799  1.00  0.00     0.135 C 
HETATM   33  N8  UNL     1      -8.049  -1.476   2.030  1.00  0.00    -0.360 N 
HETATM   34  C17 UNL     1      -7.258  -0.874   3.052  1.00  0.00     0.218 C 
ATOM     35  H8  UNL     1      -9.018  -1.775   2.136  1.00  0.00     0.162 HD
HETATM   36  O1  UNL     1      -7.415  -0.834   4.289  1.00  0.00    -0.274 OA
HETATM   37  C18 UNL     1      -6.117  -0.248   2.337  1.00  0.00     0.116 C 
ENDBRANCH   7  31
TORSDOF 13
