REMARK  13 active torsions:
REMARK  status: ('A' for Active; 'I' for Inactive)
REMARK    1  A    between atoms: N1_5  and  C5_6 
REMARK    2  A    between atoms: C5_6  and  C6_7 
REMARK    3  A    between atoms: C6_7  and  C7_8 
REMARK    4  A    between atoms: N2_9  and  C8_11 
REMARK    5  A    between atoms: C10_13  and  N3_14 
REMARK    6  A    between atoms: N3_14  and  C11_15 
REMARK    7  A    between atoms: N3_14  and  C14_18 
REMARK    8  A    between atoms: C11_15  and  C12_16 
REMARK    9  A    between atoms: C14_18  and  C15_19 
REMARK   10  A    between atoms: C15_19  and  C16_20 
REMARK   11  A    between atoms: C16_20  and  O1_21 
REMARK   12  A    between atoms: C17_25  and  N5_26 
REMARK   13  A    between atoms: C20_33  and  N7_34 
ROOT
HETATM    1  C1  UNL     1       2.892  -2.978   0.369  1.00  0.00     0.012 C 
HETATM    2  C2  UNL     1       3.529  -2.068   0.849  1.00  0.00    -0.109 C 
HETATM    3  C3  UNL     1       4.303  -0.935   1.418  1.00  0.00     0.112 C 
HETATM    4  C4  UNL     1       3.455   0.316   1.079  1.00  0.00     0.141 C 
HETATM    5  N1  UNL     1       3.980   0.798  -0.134  1.00  0.00    -0.392 N 
HETATM    6  C18 UNL     1       5.229   1.475   0.120  1.00  0.00     0.124 C 
HETATM    7  C19 UNL     1       6.226   0.432   0.561  1.00  0.00     0.054 C 
HETATM    8  C20 UNL     1       5.613  -0.936   0.696  1.00  0.00     0.202 C 
ENDROOT
BRANCH   8   9
HETATM    9  N7  UNL     1       6.540  -1.762   1.444  1.00  0.00    -0.074 N 
ATOM     10  H73 UNL     1       6.628  -1.472   2.418  1.00  0.00     0.274 HD
ATOM     11  H72 UNL     1       6.182  -2.702   1.612  1.00  0.00     0.274 HD
ATOM     12  H71 UNL     1       7.433  -1.763   0.952  1.00  0.00     0.274 HD
ENDBRANCH   8   9
BRANCH   5  13
HETATM   13  C5  UNL     1       3.190   1.326  -1.140  1.00  0.00     0.063 C 
BRANCH  13  14
HETATM   14  C6  UNL     1       2.511   2.614  -1.031  1.00  0.00     0.088 C 
BRANCH  14  15
HETATM   15  C7  UNL     1       1.496   2.735   0.065  1.00  0.00     0.067 C 
HETATM   16  N2  UNL     1       0.411   1.928   0.100  1.00  0.00    -0.355 N 
ATOM     17  H2  UNL     1       0.199   1.868   1.096  1.00  0.00     0.166 HD
BRANCH  16  18
HETATM   18  C8  UNL     1      -0.457   1.229  -0.413  1.00  0.00     0.124 A 
HETATM   19  C9  UNL     1      -1.421   0.591   0.411  1.00  0.00     0.098 A 
HETATM   20  C10 UNL     1      -2.402  -0.199  -0.105  1.00  0.00     0.122 A 
HETATM   21  N4  UNL     1      -2.431  -0.360  -1.436  1.00  0.00    -0.177 N 
HETATM   22  C17 UNL     1      -1.514   0.246  -2.232  1.00  0.00     0.679 A 
ATOM     23  H4  UNL     1      -3.152  -0.946  -1.856  1.00  0.00     0.185 HD
HETATM   24  N6  UNL     1      -0.541   1.028  -1.738  1.00  0.00    -0.177 N 
ATOM     25  H6  UNL     1       0.132   1.468  -2.366  1.00  0.00     0.185 HD
BRANCH  20  26
HETATM   26  N3  UNL     1      -3.404  -0.847   0.723  1.00  0.00    -0.367 N 
BRANCH  26  27
HETATM   27  C11 UNL     1      -3.068  -2.106   1.297  1.00  0.00     0.124 C 
BRANCH  27  28
HETATM   28  C12 UNL     1      -3.809  -3.266   0.734  1.00  0.00     0.015 C 
HETATM   29  C13 UNL     1      -5.287  -3.281   0.921  1.00  0.00     0.006 C 
ENDBRANCH  27  28
ENDBRANCH  26  27
BRANCH  26  30
HETATM   30  C14 UNL     1      -4.677  -0.197   0.919  1.00  0.00     0.126 C 
BRANCH  30  31
HETATM   31  C15 UNL     1      -4.611   1.204   0.279  1.00  0.00     0.046 C 
BRANCH  31  32
HETATM   32  C16 UNL     1      -5.941   1.917   0.464  1.00  0.00     0.165 C 
BRANCH  32  33
HETATM   33  O1  UNL     1      -6.896   1.127  -0.168  1.00  0.00    -0.401 OA
ATOM     34  H1  UNL     1      -7.727   1.573  -0.052  1.00  0.00     0.209 HD
ENDBRANCH  32  33
ENDBRANCH  31  32
ENDBRANCH  30  31
ENDBRANCH  26  30
ENDBRANCH  20  26
BRANCH  22  35
HETATM   35  N5  UNL     1      -1.585   0.058  -3.522  1.00  0.00    -0.234 N 
ATOM     36  H52 UNL     1      -2.324  -0.536  -3.897  1.00  0.00     0.174 HD
ATOM     37  H51 UNL     1      -0.896   0.513  -4.120  1.00  0.00     0.174 HD
ENDBRANCH  22  35
ENDBRANCH  16  18
ENDBRANCH  14  15
ENDBRANCH  13  14
ENDBRANCH   5  13
TORSDOF 13
