REMARK  6 active torsions:
REMARK  status: ('A' for Active; 'I' for Inactive)
REMARK    1  A    between atoms: C6_6  and  C7_7 
REMARK    2  A    between atoms: C7_7  and  C8_8 
REMARK    3  A    between atoms: C10_10  and  C11_11 
REMARK    4  A    between atoms: N3_24  and  C19_25 
REMARK    5  A    between atoms: C19_25  and  C20_26 
REMARK    6  A    between atoms: C20_26  and  O1_27 
ROOT
HETATM    1  C7  UNL     1       0.265   0.442  -0.232  1.00  0.00     0.012 C 
HETATM    2  C17 UNL     1      -0.165   1.317   0.923  1.00  0.00     0.046 C 
HETATM    3  C18 UNL     1       0.599   2.661   0.860  1.00  0.00     0.273 C 
HETATM    4  N3  UNL     1      -0.130   3.457  -0.093  1.00  0.00     0.090 N 
HETATM    5  C21 UNL     1      -0.379   2.653  -1.272  1.00  0.00     0.273 C 
HETATM    6  C22 UNL     1       0.509   1.442  -1.374  1.00  0.00     0.046 C 
ENDROOT
BRANCH   1   7
HETATM    7  C6  UNL     1       1.613  -0.127   0.135  1.00  0.00     0.026 C 
HETATM    8  C5  UNL     1       2.428  -0.650  -0.986  1.00  0.00     0.010 C 
HETATM    9  C4  UNL     1       3.098  -1.979  -0.717  1.00  0.00     0.038 C 
HETATM   10  C2  UNL     1       3.578  -2.149   0.678  1.00  0.00     0.118 C 
HETATM   11  C1  UNL     1       3.650  -3.645   0.976  1.00  0.00     0.046 C 
HETATM   12  C3  UNL     1       4.983  -1.583   0.784  1.00  0.00     0.046 C 
HETATM   13  N4  UNL     1       2.717  -1.563   1.675  1.00  0.00    -0.067 N 
HETATM   14  C23 UNL     1       1.407  -1.280   1.145  1.00  0.00     0.239 C 
ATOM     15  H42 UNL     1       2.663  -2.146   2.510  1.00  0.00     0.278 HD
ATOM     16  H41 UNL     1       3.139  -0.732   2.089  1.00  0.00     0.278 HD
ENDBRANCH   1   7
BRANCH   1  17
HETATM   17  C8  UNL     1      -0.756  -0.549  -0.607  1.00  0.00     0.037 A 
HETATM   18  C9  UNL     1      -2.049  -0.555  -0.047  1.00  0.00     0.059 A 
HETATM   19  C10 UNL     1      -2.752  -1.612  -0.591  1.00  0.00     0.060 A 
HETATM   20  N1  UNL     1      -1.927  -2.225  -1.446  1.00  0.00    -0.300 N 
HETATM   21  N2  UNL     1      -0.751  -1.571  -1.434  1.00  0.00    -0.304 N 
ATOM     22  H1  UNL     1      -2.150  -3.046  -2.009  1.00  0.00     0.187 HD
ATOM     23  H2  UNL     1       0.053  -1.838  -2.002  1.00  0.00     0.186 HD
BRANCH  19  24
HETATM   24  C11 UNL     1      -4.146  -1.986  -0.270  1.00  0.00    -0.005 A 
HETATM   25  C12 UNL     1      -4.842  -1.229   0.625  1.00  0.00     0.014 A 
HETATM   26  C13 UNL     1      -6.144  -1.543   0.959  1.00  0.00     0.004 A 
HETATM   27  C14 UNL     1      -6.732  -2.626   0.381  1.00  0.00     0.042 A 
HETATM   28  C15 UNL     1      -6.014  -3.375  -0.519  1.00  0.00     0.117 A 
HETATM   29  F1  UNL     1      -6.598  -4.448  -1.096  1.00  0.00    -0.206 F 
HETATM   30  C16 UNL     1      -4.703  -3.083  -0.873  1.00  0.00     0.056 A 
ENDBRANCH  19  24
ENDBRANCH   1  17
BRANCH   4  31
HETATM   31  C19 UNL     1       0.467   4.723  -0.394  1.00  0.00     0.298 C 
BRANCH  31  32
HETATM   32  C20 UNL     1       0.426   5.660   0.786  1.00  0.00     0.194 C 
BRANCH  32  33
HETATM   33  O1  UNL     1      -0.824   5.949   1.256  1.00  0.00    -0.399 OA
ATOM     34  H1  UNL     1      -0.850   6.540   2.000  1.00  0.00     0.209 HD
ENDBRANCH  32  33
ENDBRANCH  31  32
ENDBRANCH   4  31
TORSDOF 6
