REMARK  6 active torsions:
REMARK  status: ('A' for Active; 'I' for Inactive)
REMARK    1  A    between atoms: C5_7  and  C6_8 
REMARK    2  A    between atoms: C6_8  and  C7_9 
REMARK    3  A    between atoms: C7_9  and  C8_10 
REMARK    4  A    between atoms: C8_10  and  C9_11 
REMARK    5  A    between atoms: C9_11  and  S1_12 
REMARK    6  A    between atoms: S1_12  and  C10_13 
ROOT
HETATM    1  C1  UNL     1      -1.637   0.385   1.902  1.00  0.00     0.025 A 
HETATM    2  C2  UNL     1      -2.833   0.517   1.232  1.00  0.00     0.013 A 
HETATM    3  C3  UNL     1      -2.993  -0.225   0.069  1.00  0.00    -0.004 A 
HETATM    4  C4  UNL     1      -1.998  -1.040  -0.368  1.00  0.00     0.108 A 
HETATM    5  N1  UNL     1      -0.847  -1.130   0.330  1.00  0.00    -0.346 N 
ATOM      6  H1  UNL     1      -0.117  -1.750  -0.022  1.00  0.00     0.167 HD
HETATM    7  C5  UNL     1      -0.609  -0.450   1.460  1.00  0.00     0.011 A 
HETATM    8  N3  UNL     1      -2.400  -1.681  -1.558  1.00  0.00    -0.375 N 
ATOM      9  H3  UNL     1      -1.822  -2.307  -2.119  1.00  0.00     0.161 HD
HETATM   10  C14 UNL     1      -3.749  -1.311  -1.851  1.00  0.00     0.136 A 
HETATM   11  C15 UNL     1      -4.175  -0.266  -0.843  1.00  0.00     0.010 A 
HETATM   12  C16 UNL     1      -5.394  -0.707  -0.143  1.00  0.00     0.042 C 
HETATM   13  C17 UNL     1      -6.625   0.079  -0.315  1.00  0.00     0.168 C 
HETATM   14  O1  UNL     1      -6.548   1.174  -1.147  1.00  0.00    -0.391 OA
HETATM   15  C18 UNL     1      -5.395   1.912  -0.949  1.00  0.00     0.168 C 
HETATM   16  C19 UNL     1      -4.257   1.081  -1.502  1.00  0.00     0.042 C 
ENDROOT
BRANCH   7  17
HETATM   17  C6  UNL     1       0.664  -0.543   2.235  1.00  0.00     0.057 C 
BRANCH  17  18
HETATM   18  C7  UNL     1       1.621   0.513   1.720  1.00  0.00     0.007 C 
BRANCH  18  19
HETATM   19  C8  UNL     1       1.971   0.346   0.272  1.00  0.00     0.010 C 
BRANCH  19  20
HETATM   20  C9  UNL     1       2.654  -0.953   0.003  1.00  0.00     0.074 C 
BRANCH  20  21
HETATM   21  S1  UNL     1       4.199  -0.968   0.996  1.00  0.00    -0.163 SA
BRANCH  21  22
HETATM   22  C10 UNL     1       5.253   0.346   0.271  1.00  0.00     0.074 C 
HETATM   23  C11 UNL     1       6.566   0.463   0.970  1.00  0.00     0.044 C 
HETATM   24  C12 UNL     1       7.550   0.076  -0.117  1.00  0.00     0.233 C 
HETATM   25  N2  UNL     1       6.893   0.359  -1.373  1.00  0.00    -0.074 N 
HETATM   26  C13 UNL     1       5.561  -0.117  -1.157  1.00  0.00     0.247 C 
ATOM     27  H22 UNL     1       6.953   1.332  -1.674  1.00  0.00     0.277 HD
ATOM     28  H21 UNL     1       7.357  -0.033  -2.193  1.00  0.00     0.277 HD
ENDBRANCH  21  22
ENDBRANCH  20  21
ENDBRANCH  19  20
ENDBRANCH  18  19
ENDBRANCH  17  18
ENDBRANCH   7  17
TORSDOF 6
