REMARK  0 active torsions:
REMARK  status: ('A' for Active; 'I' for Inactive)
ROOT
HETATM    1  C1  UNL     1      -3.893   0.888   0.097  1.00  0.00     0.015 C 
HETATM    2  C2  UNL     1      -2.518   0.183  -0.105  1.00  0.00    -0.047 C 
HETATM    3  C3  UNL     1      -2.744  -1.140   0.539  1.00  0.00     0.015 C 
HETATM    4  C4  UNL     1      -2.354   0.149  -1.590  1.00  0.00     0.009 C 
HETATM    5  C5  UNL     1      -1.709  -1.063  -2.143  1.00  0.00     0.002 C 
HETATM    6  C6  UNL     1      -0.242  -1.212  -1.849  1.00  0.00     0.015 C 
HETATM    7  C7  UNL     1       0.491   0.015  -1.556  1.00  0.00     0.053 C 
HETATM    8  S1  UNL     1       2.262  -0.292  -2.054  1.00  0.00    -0.154 SA
HETATM    9  C8  UNL     1       2.959  -0.412  -0.342  1.00  0.00     0.005 C 
HETATM   10  C9  UNL     1       3.754   0.793   0.000  1.00  0.00     0.027 C 
HETATM   11  C10 UNL     1       3.857  -1.635  -0.251  1.00  0.00     0.027 C 
HETATM   12  C11 UNL     1       1.700  -0.606   0.382  1.00  0.00     0.009 C 
HETATM   13  C12 UNL     1       1.599  -0.330   1.813  1.00  0.00     0.007 C 
HETATM   14  C13 UNL     1       0.064  -0.214   1.926  1.00  0.00     0.010 C 
HETATM   15  C14 UNL     1      -0.182   0.805   0.794  1.00  0.00    -0.038 C 
HETATM   16  C15 UNL     1       0.269   2.111   1.522  1.00  0.00     0.015 C 
HETATM   17  C16 UNL     1      -1.582   1.092   0.554  1.00  0.00     0.018 C 
HETATM   18  C17 UNL     1       0.769   0.472  -0.207  1.00  0.00     0.013 C 
ENDROOT
TORSDOF 0
