REMARK  6 active torsions:
REMARK  status: ('A' for Active; 'I' for Inactive)
REMARK    1  A    between atoms: O1_2  and  C2_3 
REMARK    2  A    between atoms: C2_3  and  C3_5 
REMARK    3  A    between atoms: C3_5  and  C5_7 
REMARK    4  A    between atoms: C7_10  and  O4_11 
REMARK    5  A    between atoms: C10_15  and  O5_16 
REMARK    6  A    between atoms: O5_16  and  C11_17 
ROOT
HETATM    1  C5  UNL     1       1.561   0.112  -0.732  1.00  0.00     0.141 C 
HETATM    2  C6  UNL     1       0.596   1.154  -0.324  1.00  0.00     0.168 C 
HETATM    3  O3  UNL     1       0.633   2.236  -0.865  1.00  0.00    -0.294 OA
HETATM    4  C7  UNL     1      -0.431   0.949   0.724  1.00  0.00     0.200 C 
HETATM    5  C8  UNL     1      -0.929  -0.446   0.835  1.00  0.00     0.028 C 
HETATM    6  C9  UNL     1      -0.990  -0.882   2.287  1.00  0.00     0.022 C 
HETATM    7  C10 UNL     1      -2.316  -0.624   0.200  1.00  0.00     0.152 C 
HETATM    8  C13 UNL     1      -1.668  -1.420  -0.919  1.00  0.00    -0.009 C 
HETATM    9  C14 UNL     1      -1.613  -0.672  -2.206  1.00  0.00     0.018 C 
HETATM   10  C15 UNL     1      -2.259  -2.798  -1.108  1.00  0.00     0.018 C 
HETATM   11  C16 UNL     1      -0.420  -1.461  -0.091  1.00  0.00     0.080 C 
HETATM   12  C17 UNL     1       0.792  -1.165  -0.848  1.00  0.00     0.145 C 
HETATM   13  O7  UNL     1       1.212  -1.997  -1.624  1.00  0.00    -0.297 OA
ENDROOT
BRANCH   1  14
HETATM   14  C3  UNL     1       2.743  -0.044   0.173  1.00  0.00     0.100 C 
HETATM   15  C4  UNL     1       3.667  -1.161  -0.319  1.00  0.00     0.022 C 
BRANCH  14  16
HETATM   16  C2  UNL     1       3.583   1.162   0.301  1.00  0.00     0.263 C 
HETATM   17  O2  UNL     1       3.415   2.185  -0.390  1.00  0.00    -0.265 OA
BRANCH  16  18
HETATM   18  O1  UNL     1       4.641   1.228   1.223  1.00  0.00    -0.326 OA
HETATM   19  C1  UNL     1       5.436   2.389   1.331  1.00  0.00     0.213 C 
ENDBRANCH  16  18
ENDBRANCH  14  16
ENDBRANCH   1  14
BRANCH   4  20
HETATM   20  O4  UNL     1       0.118   1.397   1.927  1.00  0.00    -0.387 OA
ATOM     21  H4  UNL     1      -0.541   1.266   2.599  1.00  0.00     0.210 HD
ENDBRANCH   4  20
BRANCH   7  22
HETATM   22  O5  UNL     1      -2.918   0.573  -0.198  1.00  0.00    -0.315 OA
BRANCH  22  23
HETATM   23  C11 UNL     1      -4.236   0.916   0.104  1.00  0.00     0.255 C 
HETATM   24  C12 UNL     1      -4.823   2.218  -0.352  1.00  0.00     0.126 C 
HETATM   25  O6  UNL     1      -4.906   0.090   0.773  1.00  0.00    -0.266 OA
ENDBRANCH  22  23
ENDBRANCH   7  22
TORSDOF 6
