REMARK  7 active torsions:
REMARK  status: ('A' for Active; 'I' for Inactive)
REMARK    1  A    between atoms: C6_8  and  O1_9 
REMARK    2  A    between atoms: O1_9  and  C7_10 
REMARK    3  A    between atoms: C7_10  and  C8_11 
REMARK    4  A    between atoms: C8_11  and  O2_12 
REMARK    5  A    between atoms: C8_11  and  C9_14 
REMARK    6  A    between atoms: C9_14  and  N2_15 
REMARK    7  A    between atoms: N3_19  and  C13_20 
ROOT
HETATM    1  C7  UNL     1      -1.846  -1.143   2.627  1.00  0.00     0.210 C 
ENDROOT
BRANCH   1   2
HETATM    2  O1  UNL     1      -2.881  -1.000   1.881  1.00  0.00    -0.333 OA
BRANCH   2   3
HETATM    3  C6  UNL     1      -3.930  -0.856   1.122  1.00  0.00     0.152 A 
HETATM    4  C4  UNL     1      -5.036  -0.136   1.583  1.00  0.00     0.017 A 
HETATM    5  C3  UNL     1      -6.188   0.076   0.872  1.00  0.00     0.057 A 
HETATM    6  C5  UNL     1      -4.961   0.453   2.951  1.00  0.00     0.055 C 
HETATM    7  N1  UNL     1      -7.347   0.718   1.109  1.00  0.00    -0.358 N 
HETATM    8  C23 UNL     1      -6.229  -0.479  -0.398  1.00  0.00     0.043 A 
HETATM    9  C2  UNL     1      -8.125   0.591   0.033  1.00  0.00     0.012 A 
ATOM     10  H1  UNL     1      -7.589   1.217   1.965  1.00  0.00     0.166 HD
HETATM   11  C1  UNL     1      -9.492   1.158  -0.111  1.00  0.00     0.068 C 
HETATM   12  C24 UNL     1      -7.452  -0.143  -0.903  1.00  0.00    -0.024 A 
HETATM   13  C25 UNL     1      -7.919  -0.548  -2.267  1.00  0.00     0.051 C 
HETATM   14  C22 UNL     1      -5.147  -1.190  -0.866  1.00  0.00     0.114 A 
HETATM   15  N4  UNL     1      -4.039  -1.380  -0.152  1.00  0.00    -0.322 N 
HETATM   16  N5  UNL     1      -5.260  -1.678  -2.063  1.00  0.00    -0.385 N 
ATOM     17  H4  UNL     1      -3.266  -1.915  -0.548  1.00  0.00     0.169 HD
ATOM     18  H52 UNL     1      -4.458  -2.205  -2.410  1.00  0.00     0.157 HD
ATOM     19  H51 UNL     1      -6.109  -1.532  -2.610  1.00  0.00     0.157 HD
ENDBRANCH   2   3
ENDBRANCH   1   2
BRANCH   1  20
HETATM   20  C8  UNL     1      -0.491  -0.572   2.115  1.00  0.00     0.160 C 
BRANCH  20  21
HETATM   21  O2  UNL     1       0.483  -0.826   3.057  1.00  0.00    -0.392 OA
ATOM     22  H2  UNL     1       1.310  -0.478   2.745  1.00  0.00     0.210 HD
ENDBRANCH  20  21
BRANCH  20  23
HETATM   23  C9  UNL     1      -0.250  -1.184   0.782  1.00  0.00     0.160 C 
BRANCH  23  24
HETATM   24  N2  UNL     1       0.955  -0.795   0.140  1.00  0.00    -0.370 N 
HETATM   25  C10 UNL     1       1.083   0.537  -0.290  1.00  0.00     0.065 C 
HETATM   26  C11 UNL     1       1.509   0.541  -1.738  1.00  0.00     0.064 C 
HETATM   27  C12 UNL     1       2.774  -0.282  -1.817  1.00  0.00     0.122 C 
HETATM   28  N3  UNL     1       3.589   0.042  -0.705  1.00  0.00    -0.403 N 
HETATM   29  C20 UNL     1       3.375  -0.695   0.488  1.00  0.00     0.162 C 
HETATM   30  C21 UNL     1       2.116  -1.484   0.534  1.00  0.00     0.082 C 
BRANCH  28  31
HETATM   31  C13 UNL     1       4.953   0.334  -1.000  1.00  0.00     0.079 C 
HETATM   32  C14 UNL     1       5.692  -0.833  -1.606  1.00  0.00     0.028 C 
HETATM   33  C15 UNL     1       7.017  -0.343  -2.115  1.00  0.00     0.045 C 
HETATM   34  C16 UNL     1       7.844   0.316  -1.037  1.00  0.00     0.100 C 
HETATM   35  C17 UNL     1       8.450  -0.710  -0.118  1.00  0.00     0.051 C 
HETATM   36  F1  UNL     1       8.878   0.993  -1.654  1.00  0.00    -0.243 F 
HETATM   37  C18 UNL     1       7.053   1.316  -0.238  1.00  0.00     0.045 C 
HETATM   38  C19 UNL     1       5.731   0.765   0.228  1.00  0.00     0.028 C 
ENDBRANCH  28  31
ENDBRANCH  23  24
ENDBRANCH  20  23
ENDBRANCH   1  20
TORSDOF 7
