REMARK  9 active torsions:
REMARK  status: ('A' for Active; 'I' for Inactive)
REMARK    1  A    between atoms: C2_2  and  O1_5 
REMARK    2  A    between atoms: O1_5  and  C5_6 
REMARK    3  A    between atoms: C5_6  and  C6_7 
REMARK    4  A    between atoms: C6_7  and  C7_8 
REMARK    5  A    between atoms: C7_8  and  C8_9 
REMARK    6  A    between atoms: C8_9  and  O2_12 
REMARK    7  A    between atoms: N1_17  and  C12_18 
REMARK    8  A    between atoms: C12_18  and  C13_19 
REMARK    9  A    between atoms: C17_26  and  N3_27 
ROOT
HETATM    1  C7  UNL     1      -1.126  -1.092  -0.228  1.00  0.00     0.134 C 
HETATM    2  O3  UNL     1      -0.293  -1.124  -1.360  1.00  0.00    -0.284 OA
HETATM    3  C11 UNL     1       1.033  -1.389  -1.456  1.00  0.00     0.368 C 
HETATM    4  O4  UNL     1       1.631  -1.504  -2.583  1.00  0.00    -0.238 OA
HETATM    5  N1  UNL     1       1.784  -1.544  -0.235  1.00  0.00    -0.289 N 
HETATM    6  C20 UNL     1       1.038  -1.405   0.959  1.00  0.00     0.049 A 
HETATM    7  C21 UNL     1       1.735  -1.507   2.144  1.00  0.00     0.033 A 
HETATM    8  C22 UNL     1       1.130  -1.355   3.370  1.00  0.00     0.044 A 
HETATM    9  C23 UNL     1      -0.211  -1.093   3.472  1.00  0.00     0.117 A 
HETATM   10  F2  UNL     1      -0.848  -0.936   4.635  1.00  0.00    -0.206 F 
HETATM   11  C24 UNL     1      -0.920  -0.992   2.259  1.00  0.00     0.055 A 
HETATM   12  C25 UNL     1      -0.310  -1.145   1.040  1.00  0.00     0.010 A 
ENDROOT
BRANCH   5  13
HETATM   13  C12 UNL     1       3.175  -1.847  -0.311  1.00  0.00     0.173 C 
BRANCH  13  14
HETATM   14  C13 UNL     1       4.086  -0.735  -0.619  1.00  0.00    -0.035 A 
HETATM   15  C14 UNL     1       4.658  -0.560  -1.888  1.00  0.00     0.053 A 
HETATM   16  C15 UNL     1       5.511   0.482  -2.182  1.00  0.00     0.146 A 
HETATM   17  F1  UNL     1       6.062   0.648  -3.407  1.00  0.00    -0.204 F 
HETATM   18  C16 UNL     1       5.831   1.404  -1.207  1.00  0.00     0.115 A 
HETATM   19  N2  UNL     1       6.628   2.507  -1.219  1.00  0.00    -0.187 N 
HETATM   20  C18 UNL     1       5.294   1.262   0.030  1.00  0.00     0.080 A 
HETATM   21  C17 UNL     1       6.593   3.056   0.001  1.00  0.00     0.677 A 
ATOM     22  H2  UNL     1       7.159   2.854  -2.018  1.00  0.00     0.184 HD
HETATM   23  N4  UNL     1       5.776   2.291   0.761  1.00  0.00    -0.190 N 
ATOM     24  H4  UNL     1       5.556   2.465   1.742  1.00  0.00     0.184 HD
HETATM   25  C19 UNL     1       4.432   0.200   0.308  1.00  0.00     0.041 A 
BRANCH  21  26
HETATM   26  N3  UNL     1       7.236   4.117   0.344  1.00  0.00    -0.234 N 
ATOM     27  H32 UNL     1       7.852   4.694  -0.229  1.00  0.00     0.174 HD
ATOM     28  H31 UNL     1       7.209   4.535   1.274  1.00  0.00     0.174 HD
ENDBRANCH  21  26
ENDBRANCH  13  14
ENDBRANCH   5  13
BRANCH   1  29
HETATM   29  C6  UNL     1      -1.935   0.163  -0.176  1.00  0.00     0.073 C 
BRANCH  29  30
HETATM   30  C5  UNL     1      -2.881   0.420  -1.279  1.00  0.00     0.172 C 
BRANCH  30  31
HETATM   31  O1  UNL     1      -3.555   1.576  -1.301  1.00  0.00    -0.381 OA
BRANCH  31  32
HETATM   32  C2  UNL     1      -4.401   2.016  -0.377  1.00  0.00     0.050 C 
HETATM   33  C1  UNL     1      -4.981   3.352  -0.945  1.00  0.00     0.045 C 
HETATM   34  C3  UNL     1      -5.629   1.156  -0.154  1.00  0.00     0.045 C 
HETATM   35  C4  UNL     1      -3.883   2.397   0.974  1.00  0.00     0.045 C 
ENDBRANCH  31  32
ENDBRANCH  30  31
ENDBRANCH  29  30
ENDBRANCH   1  29
BRANCH   1  36
HETATM   36  C8  UNL     1      -1.898  -2.395  -0.237  1.00  0.00     0.087 C 
HETATM   37  C9  UNL     1      -2.459  -2.731  -1.614  1.00  0.00     0.049 C 
HETATM   38  C10 UNL     1      -2.981  -2.542   0.746  1.00  0.00     0.049 C 
BRANCH  36  39
HETATM   39  O2  UNL     1      -0.947  -3.443  -0.017  1.00  0.00    -0.387 OA
ATOM     40  H2  UNL     1      -1.431  -4.260  -0.023  1.00  0.00     0.210 HD
ENDBRANCH  36  39
ENDBRANCH   1  36
TORSDOF 9
