REMARK  10 active torsions:
REMARK  status: ('A' for Active; 'I' for Inactive)
REMARK    1  A    between atoms: C2_2  and  C4_4 
REMARK    2  A    between atoms: C10_10  and  C11_11 
REMARK    3  A    between atoms: C15_15  and  N1_16 
REMARK    4  A    between atoms: C21_25  and  N2_26 
REMARK       I    between atoms: N2_26  and  C22_28 
REMARK    5  A    between atoms: C22_28  and  C23_30 
REMARK    6  A    between atoms: C23_30  and  O3_31 
REMARK    7  A    between atoms: C23_30  and  C24_33 
REMARK    8  A    between atoms: C24_33  and  N3_35 
REMARK    9  A    between atoms: C24_33  and  C26_39 
REMARK   10  A    between atoms: C26_39  and  O4_40 
ROOT
HETATM    1  C4  UNL     1       0.745   2.255   0.443  1.00  0.00     0.038 C 
HETATM    2  C5  UNL     1      -0.317   2.551   1.516  1.00  0.00     0.013 C 
HETATM    3  C6  UNL     1      -1.585   1.778   1.203  1.00  0.00     0.050 C 
HETATM    4  C7  UNL     1      -1.198   0.314   1.150  1.00  0.00     0.124 A 
HETATM    5  C8  UNL     1      -0.757  -0.162   2.448  1.00  0.00     0.018 A 
HETATM    6  C9  UNL     1      -1.573  -1.092   2.828  1.00  0.00     0.009 A 
HETATM    7  C10 UNL     1      -2.638  -1.313   1.792  1.00  0.00    -0.025 A 
HETATM    8  C15 UNL     1      -2.415  -0.486   0.802  1.00  0.00     0.053 A 
HETATM    9  O1  UNL     1      -0.280   0.181   0.137  1.00  0.00    -0.345 OA
HETATM   10  C21 UNL     1       0.955   0.784   0.422  1.00  0.00     0.229 C 
ENDROOT
BRANCH   8  11
HETATM   11  N1  UNL     1      -3.132  -0.345  -0.430  1.00  0.00    -0.381 N 
HETATM   12  C16 UNL     1      -2.701  -1.196  -1.558  1.00  0.00     0.129 C 
HETATM   13  C17 UNL     1      -2.558  -0.411  -2.821  1.00  0.00     0.099 C 
HETATM   14  C18 UNL     1      -3.790   0.416  -3.113  1.00  0.00     0.246 C 
HETATM   15  F1  UNL     1      -4.871  -0.395  -3.287  1.00  0.00    -0.206 F 
HETATM   16  F2  UNL     1      -3.542   1.149  -4.251  1.00  0.00    -0.206 F 
HETATM   17  C19 UNL     1      -4.003   1.355  -1.973  1.00  0.00     0.099 C 
HETATM   18  C20 UNL     1      -4.198   0.558  -0.697  1.00  0.00     0.129 C 
ENDBRANCH   8  11
BRANCH   7  19
HETATM   19  C11 UNL     1      -3.666  -2.343   2.004  1.00  0.00    -0.022 C 
HETATM   20  C12 UNL     1      -3.113  -3.762   1.946  1.00  0.00     0.019 C 
HETATM   21  C13 UNL     1      -4.958  -2.184   1.288  1.00  0.00     0.019 C 
HETATM   22  C14 UNL     1      -4.078  -2.224   3.520  1.00  0.00     0.019 C 
ENDBRANCH   7  19
BRANCH  10  23
HETATM   23  N2  UNL     1       1.840   0.323  -0.632  1.00  0.00    -0.332 N 
HETATM   24  C22 UNL     1       2.946  -0.536  -0.369  1.00  0.00     0.251 C 
HETATM   25  O2  UNL     1       3.138  -0.885   0.844  1.00  0.00    -0.271 OA
ATOM     26  H2  UNL     1       1.665   0.623  -1.591  1.00  0.00     0.165 HD
BRANCH  24  27
HETATM   27  C23 UNL     1       3.840  -1.014  -1.432  1.00  0.00     0.247 C 
BRANCH  27  28
HETATM   28  O3  UNL     1       3.439  -0.447  -2.641  1.00  0.00    -0.384 OA
ATOM     29  H3  UNL     1       4.017  -0.756  -3.328  1.00  0.00     0.210 HD
ENDBRANCH  27  28
BRANCH  27  30
HETATM   30  C24 UNL     1       5.299  -0.885  -1.147  1.00  0.00     0.175 C 
HETATM   31  C25 UNL     1       5.854   0.495  -1.213  1.00  0.00     0.052 C 
BRANCH  30  32
HETATM   32  N3  UNL     1       5.548  -1.514   0.147  1.00  0.00    -0.066 N 
ATOM     33  H33 UNL     1       4.962  -1.138   0.892  1.00  0.00     0.275 HD
ATOM     34  H32 UNL     1       5.217  -2.478   0.192  1.00  0.00     0.275 HD
ATOM     35  H31 UNL     1       6.545  -1.426   0.342  1.00  0.00     0.275 HD
ENDBRANCH  30  32
BRANCH  30  36
HETATM   36  C26 UNL     1       6.056  -1.771  -2.153  1.00  0.00     0.205 C 
BRANCH  36  37
HETATM   37  O4  UNL     1       5.553  -3.071  -2.098  1.00  0.00    -0.398 OA
ATOM     38  H4  UNL     1       6.020  -3.618  -2.719  1.00  0.00     0.209 HD
ENDBRANCH  36  37
ENDBRANCH  30  36
ENDBRANCH  27  30
ENDBRANCH  24  27
ENDBRANCH  10  23
BRANCH   1  39
HETATM   39  C2  UNL     1       1.921   3.089   0.815  1.00  0.00    -0.014 C 
HETATM   40  C1  UNL     1       1.433   4.546   0.793  1.00  0.00     0.010 C 
HETATM   41  C3  UNL     1       3.105   2.997  -0.078  1.00  0.00     0.010 C 
ENDBRANCH   1  39
TORSDOF 10
