REMARK  10 active torsions:
REMARK  status: ('A' for Active; 'I' for Inactive)
REMARK    1  A    between atoms: C3_3  and  O1_4 
REMARK    2  A    between atoms: C4_6  and  O2_7 
REMARK    3  A    between atoms: C7_11  and  C8_12 
REMARK    4  A    between atoms: C11_17  and  O3_18 
REMARK    5  A    between atoms: C12_20  and  O4_21 
REMARK    6  A    between atoms: O4_21  and  C13_22 
REMARK    7  A    between atoms: C18_28  and  O5_29 
REMARK    8  A    between atoms: O5_29  and  C19_30 
REMARK    9  A    between atoms: C22_33  and  C23_34 
REMARK   10  A    between atoms: C26_37  and  O6_38 
ROOT
HETATM    1  C13 UNL     1      -1.760   1.675  -2.106  1.00  0.00     0.110 A 
HETATM    2  C14 UNL     1      -1.847   3.076  -2.207  1.00  0.00     0.043 A 
HETATM    3  C15 UNL     1      -1.473   3.750  -3.345  1.00  0.00     0.045 A 
HETATM    4  C16 UNL     1      -1.002   3.023  -4.408  1.00  0.00     0.119 A 
HETATM    5  F1  UNL     1      -0.626   3.699  -5.524  1.00  0.00    -0.206 F 
HETATM    6  C17 UNL     1      -0.913   1.650  -4.319  1.00  0.00     0.082 A 
HETATM    7  C18 UNL     1      -1.281   0.971  -3.194  1.00  0.00     0.112 A 
ENDROOT
BRANCH   1   8
HETATM    8  O4  UNL     1      -2.134   0.974  -0.985  1.00  0.00    -0.306 OA
BRANCH   8   9
HETATM    9  C12 UNL     1      -2.718   1.543   0.148  1.00  0.00     0.100 A 
HETATM   10  C2  UNL     1      -4.121   1.691   0.040  1.00  0.00     0.025 A 
HETATM   11  C1  UNL     1      -4.729   1.311  -1.090  1.00  0.00     0.029 C 
HETATM   12  C3  UNL     1      -4.764   2.232   1.112  1.00  0.00     0.112 A 
HETATM   13  C4  UNL     1      -4.058   2.627   2.271  1.00  0.00     0.110 A 
HETATM   14  C5  UNL     1      -2.711   2.479   2.359  1.00  0.00     0.004 A 
HETATM   15  C6  UNL     1      -1.987   2.814   3.404  1.00  0.00     0.027 C 
HETATM   16  C7  UNL     1      -2.021   1.917   1.259  1.00  0.00     0.025 A 
BRANCH  12  17
HETATM   17  O1  UNL     1      -6.125   2.414   1.105  1.00  0.00    -0.357 OA
ATOM     18  H1  UNL     1      -6.573   2.791   1.853  1.00  0.00     0.217 HD
ENDBRANCH  12  17
BRANCH  13  19
HETATM   19  O2  UNL     1      -4.786   3.165   3.316  1.00  0.00    -0.357 OA
ATOM     20  H2  UNL     1      -4.311   3.430   4.095  1.00  0.00     0.217 HD
ENDBRANCH  13  19
BRANCH  16  21
HETATM   21  C8  UNL     1      -0.586   1.793   1.435  1.00  0.00     0.028 A 
HETATM   22  C9  UNL     1       0.124   0.726   2.003  1.00  0.00     0.102 A 
HETATM   23  N1  UNL     1       1.450   1.020   2.015  1.00  0.00    -0.372 N 
HETATM   24  C10 UNL     1       1.631   2.235   1.477  1.00  0.00     0.125 A 
ATOM     25  H1  UNL     1       2.188   0.415   2.375  1.00  0.00     0.164 HD
HETATM   26  C11 UNL     1       0.374   2.724   1.114  1.00  0.00     0.093 A 
BRANCH  26  27
HETATM   27  O3  UNL     1       0.206   3.963   0.531  1.00  0.00    -0.358 OA
ATOM     28  H3  UNL     1       0.869   4.606   0.309  1.00  0.00     0.217 HD
ENDBRANCH  26  27
ENDBRANCH  16  21
ENDBRANCH   8   9
ENDBRANCH   1   8
BRANCH   7  29
HETATM   29  O5  UNL     1      -1.181  -0.399  -3.148  1.00  0.00    -0.308 OA
BRANCH  29  30
HETATM   30  C19 UNL     1      -0.291  -1.086  -2.343  1.00  0.00     0.076 A 
HETATM   31  C20 UNL     1       0.828  -0.439  -1.804  1.00  0.00     0.038 A 
HETATM   32  C21 UNL     1       1.699  -1.144  -1.011  1.00  0.00     0.015 A 
HETATM   33  C22 UNL     1       1.533  -2.490  -0.704  1.00  0.00    -0.026 A 
HETATM   34  C30 UNL     1       0.438  -3.128  -1.227  1.00  0.00     0.015 A 
HETATM   35  C31 UNL     1      -0.450  -2.408  -2.037  1.00  0.00     0.038 A 
BRANCH  33  36
HETATM   36  C23 UNL     1       2.558  -3.161   0.125  1.00  0.00    -0.026 A 
HETATM   37  C24 UNL     1       2.293  -4.170   1.007  1.00  0.00     0.015 A 
HETATM   38  C25 UNL     1       3.318  -4.731   1.734  1.00  0.00     0.037 A 
HETATM   39  C26 UNL     1       4.642  -4.289   1.591  1.00  0.00     0.068 A 
HETATM   40  C28 UNL     1       4.916  -3.268   0.697  1.00  0.00     0.037 A 
HETATM   41  C29 UNL     1       3.881  -2.724  -0.014  1.00  0.00     0.015 A 
BRANCH  39  42
HETATM   42  O6  UNL     1       5.681  -4.836   2.314  1.00  0.00    -0.356 OA
HETATM   43  C27 UNL     1       5.628  -5.852   3.273  1.00  0.00     0.210 C 
ENDBRANCH  39  42
ENDBRANCH  33  36
ENDBRANCH  29  30
ENDBRANCH   7  29
TORSDOF 10
