REMARK  8 active torsions:
REMARK  status: ('A' for Active; 'I' for Inactive)
REMARK    1  A    between atoms: O1_2  and  C2_3 
REMARK    2  A    between atoms: C2_3  and  N1_4 
REMARK    3  A    between atoms: N1_4  and  C4_6 
REMARK    4  A    between atoms: C4_6  and  O2_7 
REMARK    5  A    between atoms: C4_6  and  C5_9 
REMARK    6  A    between atoms: C10_14  and  C11_15 
REMARK    7  A    between atoms: C12_18  and  N3_19 
REMARK    8  A    between atoms: C22_33  and  C23_34 
ROOT
HETATM    1  C11 UNL     1       0.372   0.202  -1.272  1.00  0.00     0.090 A 
HETATM    2  N2  UNL     1      -0.470  -0.772  -0.915  1.00  0.00    -0.188 N 
ATOM      3  H2  UNL     1      -0.155  -1.739  -0.998  1.00  0.00     0.184 HD
HETATM    4  C12 UNL     1      -1.723  -0.541  -0.447  1.00  0.00     0.691 A 
HETATM    5  N5  UNL     1      -2.071   0.748  -0.363  1.00  0.00    -0.186 N 
ATOM      6  H5  UNL     1      -3.006   0.961  -0.016  1.00  0.00     0.184 HD
HETATM    7  C21 UNL     1      -1.285   1.783  -0.700  1.00  0.00     0.108 A 
HETATM    8  C22 UNL     1      -1.392   3.149  -0.692  1.00  0.00     0.088 A 
HETATM    9  N6  UNL     1      -0.230   3.657  -1.142  1.00  0.00    -0.297 N 
ATOM     10  H6  UNL     1      -0.030   4.652  -1.240  1.00  0.00     0.187 HD
HETATM   11  N7  UNL     1       0.612   2.690  -1.438  1.00  0.00    -0.296 N 
ATOM     12  H7  UNL     1       1.559   2.806  -1.799  1.00  0.00     0.187 HD
HETATM   13  C29 UNL     1      -0.001   1.518  -1.178  1.00  0.00     0.105 A 
ENDROOT
BRANCH   1  14
HETATM   14  C10 UNL     1       1.693  -0.127  -1.782  1.00  0.00     0.004 A 
HETATM   15  C5  UNL     1       2.675  -0.717  -1.040  1.00  0.00     0.003 A 
HETATM   16  C6  UNL     1       3.823  -1.084  -1.696  1.00  0.00     0.012 A 
HETATM   17  C7  UNL     1       4.022  -0.873  -3.074  1.00  0.00     0.001 A 
HETATM   18  C8  UNL     1       3.035  -0.278  -3.808  1.00  0.00     0.001 A 
HETATM   19  C9  UNL     1       1.890   0.089  -3.172  1.00  0.00     0.014 A 
BRANCH  15  20
HETATM   20  C4  UNL     1       2.566  -0.892   0.416  1.00  0.00     0.256 C 
BRANCH  20  21
HETATM   21  N1  UNL     1       3.691  -0.560   1.210  1.00  0.00    -0.346 N 
HETATM   22  C3  UNL     1       4.033   0.852   1.160  1.00  0.00     0.154 C 
BRANCH  21  23
HETATM   23  C2  UNL     1       4.807  -1.368   1.349  1.00  0.00     0.225 C 
BRANCH  23  24
HETATM   24  O1  UNL     1       4.583  -2.746   1.371  1.00  0.00    -0.351 OA
HETATM   25  C1  UNL     1       5.773  -3.448   1.509  1.00  0.00     0.210 C 
ENDBRANCH  23  24
ENDBRANCH  21  23
ENDBRANCH  20  21
BRANCH  20  26
HETATM   26  O2  UNL     1       1.555  -0.004   0.917  1.00  0.00    -0.372 OA
ATOM     27  H2  UNL     1       0.800  -0.227   0.384  1.00  0.00     0.212 HD
ENDBRANCH  20  26
ENDBRANCH  15  20
ENDBRANCH   1  14
BRANCH   4  28
HETATM   28  N3  UNL     1      -2.624  -1.577  -0.076  1.00  0.00    -0.134 N 
HETATM   29  C13 UNL     1      -3.674  -1.918  -0.858  1.00  0.00     0.102 A 
HETATM   30  C14 UNL     1      -4.031  -1.282  -2.180  1.00  0.00     0.090 C 
HETATM   31  N4  UNL     1      -4.337  -2.915  -0.263  1.00  0.00    -0.344 N 
HETATM   32  C15 UNL     1      -3.750  -3.249   0.904  1.00  0.00     0.061 A 
ATOM     33  H4  UNL     1      -5.173  -3.362  -0.640  1.00  0.00     0.167 HD
HETATM   34  C16 UNL     1      -4.009  -4.173   1.881  1.00  0.00     0.032 A 
HETATM   35  C20 UNL     1      -2.661  -2.377   0.993  1.00  0.00     0.085 A 
HETATM   36  C17 UNL     1      -3.201  -4.270   2.980  1.00  0.00     0.002 A 
HETATM   37  C18 UNL     1      -2.117  -3.400   3.062  1.00  0.00     0.002 A 
HETATM   38  C19 UNL     1      -1.847  -2.465   2.087  1.00  0.00     0.033 A 
ENDBRANCH   4  28
BRANCH   8  39
HETATM   39  C23 UNL     1      -2.522   3.948  -0.253  1.00  0.00    -0.005 A 
HETATM   40  C24 UNL     1      -3.731   3.435   0.084  1.00  0.00     0.017 A 
HETATM   41  C25 UNL     1      -4.780   4.224   0.527  1.00  0.00     0.043 A 
HETATM   42  C26 UNL     1      -4.644   5.587   0.649  1.00  0.00     0.116 A 
HETATM   43  F1  UNL     1      -5.684   6.334   1.078  1.00  0.00    -0.206 F 
HETATM   44  C27 UNL     1      -3.415   6.114   0.308  1.00  0.00     0.043 A 
HETATM   45  C28 UNL     1      -2.396   5.338  -0.124  1.00  0.00     0.017 A 
ENDBRANCH   8  39
TORSDOF 8
