REMARK  11 active torsions:
REMARK  status: ('A' for Active; 'I' for Inactive)
REMARK    1  A    between atoms: C2_2  and  C4_4 
REMARK    2  A    between atoms: C10_10  and  C11_11 
REMARK    3  A    between atoms: C11_11  and  C12_12 
REMARK    4  A    between atoms: C13_13  and  C14_14 
REMARK    5  A    between atoms: C14_14  and  C15_15 
REMARK    6  A    between atoms: C15_15  and  O1_16 
REMARK    7  A    between atoms: C18_21  and  O2_22 
REMARK    8  A    between atoms: O2_22  and  C19_23 
REMARK    9  A    between atoms: C19_23  and  C20_25 
REMARK   10  A    between atoms: C20_25  and  O3_28 
REMARK   11  A    between atoms: C23_30  and  O4_31 
ROOT
HETATM    1  C15 UNL     1      -1.313  -1.474   0.260  1.00  0.00     0.072 C 
HETATM    2  C16 UNL     1      -1.920  -0.439   1.180  1.00  0.00     0.061 C 
HETATM    3  C17 UNL     1      -3.446  -0.549   1.001  1.00  0.00     0.117 C 
HETATM    4 CL1  UNL     1      -4.302   0.259   2.282  1.00  0.00    -0.122 Cl
HETATM    5  C18 UNL     1      -3.734  -0.133  -0.390  1.00  0.00     0.177 C 
HETATM    6  C23 UNL     1      -3.172  -1.261  -1.281  1.00  0.00     0.160 C 
HETATM    7  C24 UNL     1      -1.651  -1.231  -1.173  1.00  0.00     0.012 C 
HETATM    8  C25 UNL     1      -1.120   0.021  -1.770  1.00  0.00     0.020 C 
HETATM    9  C26 UNL     1      -1.122  -2.408  -1.977  1.00  0.00     0.020 C 
ENDROOT
BRANCH   1  10
HETATM   10  C14 UNL     1       0.141  -1.712   0.544  1.00  0.00     0.065 C 
BRANCH  10  11
HETATM   11  C13 UNL     1       1.038  -0.596   0.279  1.00  0.00    -0.028 C 
HETATM   12  C12 UNL     1       2.024  -0.718  -0.593  1.00  0.00    -0.030 C 
BRANCH  12  13
HETATM   13  C11 UNL     1       2.946   0.408  -0.875  1.00  0.00     0.036 C 
BRANCH  13  14
HETATM   14  C10 UNL     1       4.372   0.095  -0.570  1.00  0.00     0.020 C 
HETATM   15  C4  UNL     1       4.616  -0.264   0.882  1.00  0.00     0.021 C 
HETATM   16  C5  UNL     1       4.326   0.868   1.805  1.00  0.00     0.014 C 
HETATM   17  C6  UNL     1       4.836   2.195   1.362  1.00  0.00     0.034 C 
HETATM   18  C7  UNL     1       5.419   2.249   0.019  1.00  0.00    -0.087 C 
HETATM   19  C8  UNL     1       6.279   3.444  -0.332  1.00  0.00     0.043 C 
HETATM   20  C9  UNL     1       5.204   1.290  -0.858  1.00  0.00    -0.019 C 
BRANCH  15  21
HETATM   21  C2  UNL     1       5.952  -0.859   1.011  1.00  0.00    -0.088 C 
HETATM   22  C1  UNL     1       6.920  -0.361   1.758  1.00  0.00     0.014 C 
HETATM   23  C3  UNL     1       6.282  -2.123   0.261  1.00  0.00     0.043 C 
ENDBRANCH  15  21
ENDBRANCH  13  14
ENDBRANCH  12  13
ENDBRANCH  10  11
ENDBRANCH   1  10
BRANCH   1  24
HETATM   24  O1  UNL     1      -1.948  -2.697   0.603  1.00  0.00    -0.389 OA
ATOM     25  H1  UNL     1      -2.869  -2.546   0.423  1.00  0.00     0.210 HD
ENDBRANCH   1  24
BRANCH   6  26
HETATM   26  O4  UNL     1      -3.715  -2.488  -0.961  1.00  0.00    -0.392 OA
ATOM     27  H4  UNL     1      -3.369  -3.182  -1.509  1.00  0.00     0.210 HD
ENDBRANCH   6  26
BRANCH   5  28
HETATM   28  O2  UNL     1      -5.014   0.205  -0.743  1.00  0.00    -0.332 OA
BRANCH  28  29
HETATM   29  C19 UNL     1      -5.859   1.179  -0.312  1.00  0.00     0.147 C 
HETATM   30  S1  UNL     1      -5.203   2.632   0.138  1.00  0.00    -0.054 SA
BRANCH  29  31
HETATM   31  C20 UNL     1      -7.314   1.072  -0.207  1.00  0.00     0.109 C 
HETATM   32  C21 UNL     1      -7.826  -0.032   0.668  1.00  0.00     0.053 C 
HETATM   33  C22 UNL     1      -7.893   2.360   0.326  1.00  0.00     0.053 C 
BRANCH  31  34
HETATM   34  O3  UNL     1      -7.801   0.950  -1.525  1.00  0.00    -0.383 OA
ATOM     35  H3  UNL     1      -8.746   0.881  -1.457  1.00  0.00     0.211 HD
ENDBRANCH  31  34
ENDBRANCH  29  31
ENDBRANCH  28  29
ENDBRANCH   5  28
TORSDOF 11
