REMARK  8 active torsions:
REMARK  status: ('A' for Active; 'I' for Inactive)
REMARK    1  A    between atoms: O1_2  and  C2_3 
REMARK    2  A    between atoms: C2_3  and  C3_4 
REMARK    3  A    between atoms: C4_5  and  C5_6 
REMARK    4  A    between atoms: C5_6  and  C6_7 
REMARK    5  A    between atoms: N3_23  and  C19_24 
REMARK    6  A    between atoms: C19_24  and  C20_25 
REMARK    7  A    between atoms: C20_25  and  C21_26 
REMARK    8  A    between atoms: C21_26  and  O2_30 
ROOT
HETATM    1  C6  UNL     1      -0.117  -0.146   0.276  1.00  0.00     0.154 C 
HETATM    2  C7  UNL     1      -0.159   0.040   1.707  1.00  0.00    -0.143 C 
HETATM    3  C8  UNL     1      -0.424  -0.129   3.085  1.00  0.00     0.088 C 
HETATM    4  C9  UNL     1      -1.022  -1.550   3.303  1.00  0.00     0.056 C 
HETATM    5  C10 UNL     1      -1.972  -1.999   2.276  1.00  0.00     0.066 C 
HETATM    6  N1  UNL     1      -1.633  -2.167   0.901  1.00  0.00    -0.352 N 
HETATM    7  C11 UNL     1      -2.423  -3.171   0.200  1.00  0.00     0.156 C 
HETATM    8  C12 UNL     1      -0.659  -1.554   0.029  1.00  0.00     0.121 C 
HETATM    9  N2  UNL     1      -0.261  -2.260  -0.907  1.00  0.00    -0.366 N 
ATOM     10  H2  UNL     1      -0.671  -3.188  -1.011  1.00  0.00     0.161 HD
HETATM   11  C13 UNL     1       0.769  -1.846  -1.884  1.00  0.00     0.049 C 
HETATM   12  C14 UNL     1      -0.039  -1.655  -3.176  1.00  0.00     0.041 C 
HETATM   13  C15 UNL     1       1.583  -3.115  -2.214  1.00  0.00     0.041 C 
HETATM   14  C16 UNL     1       1.563  -0.676  -1.449  1.00  0.00     0.051 C 
HETATM   15  C17 UNL     1       3.025  -1.164  -1.419  1.00  0.00     0.041 C 
HETATM   16  C18 UNL     1       1.591   0.306  -2.644  1.00  0.00     0.041 C 
HETATM   17  N3  UNL     1       1.235  -0.029  -0.251  1.00  0.00    -0.356 N 
ENDROOT
BRANCH  17  18
HETATM   18  C19 UNL     1       1.953   0.984   0.355  1.00  0.00     0.069 C 
BRANCH  18  19
HETATM   19  C20 UNL     1       3.350   1.342   0.063  1.00  0.00     0.128 C 
BRANCH  19  20
HETATM   20  C21 UNL     1       3.799   2.507   0.947  1.00  0.00     0.115 C 
HETATM   21  N4  UNL     1       4.770   2.371   1.748  1.00  0.00    -0.383 N 
ATOM     22  H42 UNL     1       5.259   1.478   1.805  1.00  0.00     0.157 HD
ATOM     23  H41 UNL     1       5.069   3.148   2.337  1.00  0.00     0.157 HD
BRANCH  20  24
HETATM   24  O2  UNL     1       3.141   3.708   0.870  1.00  0.00    -0.344 OA
HETATM   25  C22 UNL     1       3.458   4.796   1.743  1.00  0.00     0.211 C 
ENDBRANCH  20  24
ENDBRANCH  19  20
ENDBRANCH  18  19
ENDBRANCH  17  18
BRANCH   1  26
HETATM   26  C5  UNL     1      -0.942   0.851  -0.504  1.00  0.00     0.146 C 
BRANCH  26  27
HETATM   27  C4  UNL     1      -2.368   0.805  -0.156  1.00  0.00    -0.101 C 
HETATM   28  C3  UNL     1      -3.550   0.784   0.113  1.00  0.00    -0.080 C 
BRANCH  28  29
HETATM   29  C2  UNL     1      -4.971   0.770   0.458  1.00  0.00     0.260 C 
BRANCH  29  30
HETATM   30  O1  UNL     1      -5.781   1.009  -0.655  1.00  0.00    -0.384 OA
HETATM   31  C1  UNL     1      -5.484   2.261  -1.204  1.00  0.00     0.202 C 
ENDBRANCH  29  30
ENDBRANCH  28  29
ENDBRANCH  26  27
ENDBRANCH   1  26
TORSDOF 8
