REMARK  8 active torsions:
REMARK  status: ('A' for Active; 'I' for Inactive)
REMARK    1  A    between atoms: C2_3  and  C3_4 
REMARK       I    between atoms: C3_4  and  N2_6 
REMARK    2  A    between atoms: N2_6  and  C4_8 
REMARK    3  A    between atoms: C7_11  and  S1_12 
REMARK    4  A    between atoms: S1_12  and  N3_15 
REMARK    5  A    between atoms: N3_15  and  C8_16 
REMARK    6  A    between atoms: C15_25  and  N5_26 
REMARK    7  A    between atoms: N5_26  and  S2_28 
REMARK    8  A    between atoms: S2_28  and  C16_31 
ROOT
HETATM    1  N1  UNL     1      -1.756   8.438  -1.656  1.00  0.00    -0.197 NA
HETATM    2  C1  UNL     1      -1.154   7.502  -1.317  1.00  0.00     0.068 C 
HETATM    3  C2  UNL     1      -0.413   6.336  -0.921  1.00  0.00     0.226 C 
ENDROOT
BRANCH   3   4
HETATM    4  C3  UNL     1      -1.388   5.180  -0.726  1.00  0.00     0.235 C 
HETATM    5  O1  UNL     1      -2.578   5.421  -0.906  1.00  0.00    -0.272 OA
HETATM    6  N2  UNL     1      -0.802   3.954  -0.358  1.00  0.00    -0.326 N 
ATOM      7  H2  UNL     1       0.213   3.944  -0.257  1.00  0.00     0.169 HD
BRANCH   6   8
HETATM    8  C4  UNL     1      -1.474   2.740  -0.115  1.00  0.00     0.045 A 
HETATM    9  C5  UNL     1      -2.850   2.646  -0.076  1.00  0.00     0.032 A 
HETATM   10  C6  UNL     1      -3.438   1.424   0.184  1.00  0.00     0.029 A 
HETATM   11  C7  UNL     1      -2.739   0.282   0.411  1.00  0.00     0.104 A 
HETATM   12  C13 UNL     1      -1.363   0.364   0.376  1.00  0.00     0.003 A 
HETATM   13  C14 UNL     1      -0.645  -0.790   0.603  1.00  0.00     0.044 A 
HETATM   14  C24 UNL     1      -0.712   1.582   0.115  1.00  0.00     0.003 A 
HETATM   15  C15 UNL     1       0.760  -0.777   0.577  1.00  0.00     0.043 A 
HETATM   16  C22 UNL     1       1.358   0.418   0.321  1.00  0.00     0.031 A 
HETATM   17  C23 UNL     1       0.659   1.610   0.087  1.00  0.00     0.017 A 
BRANCH  11  18
HETATM   18  S1  UNL     1      -3.513  -1.274   0.710  1.00  0.00     0.326 S 
HETATM   19  O2  UNL     1      -3.248  -1.679   2.167  1.00  0.00    -0.186 OA
HETATM   20  O3  UNL     1      -5.018  -0.940   0.748  1.00  0.00    -0.186 OA
BRANCH  18  21
HETATM   21  N3  UNL     1      -3.246  -2.421  -0.384  1.00  0.00    -0.319 NA
BRANCH  21  22
HETATM   22  C8  UNL     1      -3.084  -3.254  -1.198  1.00  0.00     0.124 A 
HETATM   23  C9  UNL     1      -4.067  -3.582  -2.137  1.00  0.00     0.062 A 
HETATM   24  C10 UNL     1      -3.902  -4.538  -3.091  1.00  0.00     0.091 A 
HETATM   25  N4  UNL     1      -2.721  -5.207  -3.129  1.00  0.00    -0.375 N 
HETATM   26  C11 UNL     1      -1.719  -4.966  -2.272  1.00  0.00     0.091 A 
ATOM     27  H4  UNL     1      -2.591  -5.925  -3.842  1.00  0.00     0.164 HD
HETATM   28  C12 UNL     1      -1.897  -4.002  -1.318  1.00  0.00     0.062 A 
ENDBRANCH  21  22
ENDBRANCH  18  21
ENDBRANCH  11  18
BRANCH  15  29
HETATM   29  N5  UNL     1       1.466  -1.980   0.821  1.00  0.00    -0.281 N 
ATOM     30  H5  UNL     1       1.241  -2.805   0.264  1.00  0.00     0.179 HD
BRANCH  29  31
HETATM   31  S2  UNL     1       2.677  -2.097   2.011  1.00  0.00     0.263 S 
HETATM   32  O4  UNL     1       3.181  -3.537   2.105  1.00  0.00    -0.200 OA
HETATM   33  O5  UNL     1       2.042  -1.795   3.373  1.00  0.00    -0.200 OA
BRANCH  31  34
HETATM   34  C16 UNL     1       4.051  -1.087   1.826  1.00  0.00     0.079 A 
HETATM   35  C17 UNL     1       5.023  -1.401   0.885  1.00  0.00     0.025 A 
HETATM   36  C18 UNL     1       6.159  -0.594   0.773  1.00  0.00     0.002 A 
HETATM   37  C19 UNL     1       6.353   0.509   1.567  1.00  0.00     0.000 A 
HETATM   38  C20 UNL     1       5.399   0.831   2.503  1.00  0.00     0.002 A 
HETATM   39  C21 UNL     1       4.258   0.026   2.619  1.00  0.00     0.025 A 
ENDBRANCH  31  34
ENDBRANCH  29  31
ENDBRANCH  15  29
ENDBRANCH   6   8
ENDBRANCH   3   4
TORSDOF 8
