REMARK  3 active torsions:
REMARK  status: ('A' for Active; 'I' for Inactive)
REMARK    1  A    between atoms: C4_6  and  C5_7 
REMARK    2  A    between atoms: C5_7  and  N2_8 
REMARK       I    between atoms: N2_8  and  C6_10 
REMARK    3  A    between atoms: C6_10  and  C7_12 
ROOT
HETATM    1  N1  UNL     1       5.507   2.850  -0.133  1.00  0.00    -0.197 NA
HETATM    2  C1  UNL     1       5.179   1.836   0.326  1.00  0.00     0.064 C 
HETATM    3  C2  UNL     1       4.794   0.565   0.901  1.00  0.00     0.103 C 
HETATM    4  C3  UNL     1       5.690  -0.551   0.402  1.00  0.00     0.093 C 
HETATM    5  S1  UNL     1       5.084  -0.680  -1.304  1.00  0.00    -0.161 SA
HETATM    6  C4  UNL     1       3.422   0.131  -1.045  1.00  0.00     0.066 C 
HETATM    7  C15 UNL     1       3.390   0.154   0.432  1.00  0.00     0.036 C 
ENDROOT
BRANCH   6   8
HETATM    8  C5  UNL     1       2.456  -0.829  -1.656  1.00  0.00     0.137 C 
BRANCH   8   9
HETATM    9  N2  UNL     1       1.078  -0.522  -1.685  1.00  0.00    -0.360 N 
HETATM   10  C6  UNL     1       0.185  -0.366  -0.636  1.00  0.00     0.224 C 
HETATM   11  O1  UNL     1       0.400  -0.477   0.579  1.00  0.00    -0.273 OA
ATOM     12  H2  UNL     1       0.681  -0.396  -2.616  1.00  0.00     0.162 HD
BRANCH  10  13
HETATM   13  C7  UNL     1      -1.236  -0.019  -0.996  1.00  0.00     0.112 C 
HETATM   14  C8  UNL     1      -1.836  -1.120  -1.866  1.00  0.00     0.046 C 
HETATM   15  C9  UNL     1      -3.282  -1.201  -1.389  1.00  0.00     0.273 C 
HETATM   16  N3  UNL     1      -3.464  -0.046  -0.530  1.00  0.00     0.093 N 
HETATM   17  C10 UNL     1      -4.550  -0.214   0.406  1.00  0.00     0.273 C 
HETATM   18  C14 UNL     1      -2.165  -0.035   0.166  1.00  0.00     0.236 C 
HETATM   19  C11 UNL     1      -4.500   0.986   1.349  1.00  0.00     0.030 C 
HETATM   20  C12 UNL     1      -3.187   1.007   2.095  1.00  0.00     0.004 C 
HETATM   21  C13 UNL     1      -2.084   1.188   1.043  1.00  0.00     0.037 C 
ENDBRANCH  10  13
ENDBRANCH   8   9
ENDBRANCH   6   8
TORSDOF 3
