REMARK  6 active torsions:
REMARK  status: ('A' for Active; 'I' for Inactive)
REMARK    1  A    between atoms: C2_2  and  N1_3 
REMARK    2  A    between atoms: C2_2  and  C3_8 
REMARK    3  A    between atoms: C3_8  and  N2_9 
REMARK       I    between atoms: N2_9  and  C4_10 
REMARK    4  A    between atoms: N2_9  and  C15_24 
REMARK       I    between atoms: C4_10  and  N3_12 
REMARK    5  A    between atoms: N3_12  and  C5_14 
REMARK    6  A    between atoms: C5_14  and  C6_15 
ROOT
HETATM    1  N2  UNL     1      -2.174   0.590  -0.184  1.00  0.00    -0.324 N 
HETATM    2  C4  UNL     1      -0.912   1.197  -0.561  1.00  0.00     0.318 C 
HETATM    3  O1  UNL     1      -1.021   2.230  -1.310  1.00  0.00    -0.247 OA
HETATM    4  N3  UNL     1       0.365   0.784  -0.195  1.00  0.00    -0.343 N 
ATOM      5  H3  UNL     1       0.501  -0.024   0.413  1.00  0.00     0.164 HD
ENDROOT
BRANCH   1   6
HETATM    6  C3  UNL     1      -2.107  -0.660   0.499  1.00  0.00     0.183 C 
BRANCH   6   7
HETATM    7  C2  UNL     1      -2.078  -1.926  -0.260  1.00  0.00     0.211 C 
HETATM    8  C1  UNL     1      -3.242  -2.257  -1.140  1.00  0.00     0.066 C 
HETATM    9 CL1  UNL     1      -0.564  -2.174  -1.209  1.00  0.00    -0.087 Cl
BRANCH   7  10
HETATM   10  N1  UNL     1      -2.019  -3.012   0.762  1.00  0.00    -0.056 N 
ATOM     11  H13 UNL     1      -2.893  -3.140   1.272  1.00  0.00     0.276 HD
ATOM     12  H12 UNL     1      -1.974  -3.948   0.360  1.00  0.00     0.276 HD
ATOM     13  H11 UNL     1      -1.226  -2.786   1.362  1.00  0.00     0.276 HD
ENDBRANCH   7  10
ENDBRANCH   6   7
ENDBRANCH   1   6
BRANCH   1  14
HETATM   14  C15 UNL     1      -3.309   1.376  -0.470  1.00  0.00     0.116 C 
HETATM   15  C16 UNL     1      -3.915   1.957   0.872  1.00  0.00     0.054 C 
HETATM   16  C17 UNL     1      -5.013   2.779   0.237  1.00  0.00     0.234 C 
HETATM   17  N4  UNL     1      -5.537   1.943  -0.808  1.00  0.00    -0.073 N 
HETATM   18  C18 UNL     1      -4.578   0.817  -0.972  1.00  0.00     0.257 C 
ATOM     19  H42 UNL     1      -6.494   1.636  -0.637  1.00  0.00     0.277 HD
ATOM     20  H41 UNL     1      -5.719   2.448  -1.676  1.00  0.00     0.277 HD
ENDBRANCH   1  14
BRANCH   4  21
HETATM   21  C5  UNL     1       1.503   1.538  -0.705  1.00  0.00     0.129 C 
BRANCH  21  22
HETATM   22  C6  UNL     1       2.813   0.986  -0.232  1.00  0.00     0.009 C 
HETATM   23  C7  UNL     1       2.921   1.006   1.293  1.00  0.00     0.011 C 
HETATM   24  C8  UNL     1       4.118   0.086   1.579  1.00  0.00    -0.013 C 
HETATM   25  C9  UNL     1       5.177   0.217   0.519  1.00  0.00     0.010 C 
HETATM   26  C13 UNL     1       3.515  -1.318   1.443  1.00  0.00     0.010 C 
HETATM   27  C10 UNL     1       4.746  -0.371  -0.793  1.00  0.00    -0.009 C 
HETATM   28  C11 UNL     1       4.535  -1.887  -0.671  1.00  0.00     0.010 C 
HETATM   29  C14 UNL     1       3.212  -0.297  -0.838  1.00  0.00    -0.001 C 
HETATM   30  C12 UNL     1       3.197  -1.508  -0.005  1.00  0.00    -0.009 C 
ENDBRANCH  21  22
ENDBRANCH   4  21
TORSDOF 6
