REMARK  7 active torsions:
REMARK  status: ('A' for Active; 'I' for Inactive)
REMARK    1  A    between atoms: C2_2  and  C3_3 
REMARK    2  A    between atoms: C10_12  and  N1_13 
REMARK    3  A    between atoms: N1_13  and  C11_15 
REMARK    4  A    between atoms: C11_15  and  O3_19 
REMARK    5  A    between atoms: C18_27  and  C19_28 
REMARK    6  A    between atoms: C19_28  and  O5_30 
REMARK    7  A    between atoms: O5_30  and  C20_31 
ROOT
HETATM    1  C3  UNL     1      -3.144   1.316   1.275  1.00  0.00     0.088 C 
HETATM    2  C4  UNL     1      -4.486   0.653   1.450  1.00  0.00     0.051 C 
HETATM    3  O1  UNL     1      -2.336   0.964   2.366  1.00  0.00    -0.306 OA
HETATM    4  C5  UNL     1      -1.305   0.052   2.522  1.00  0.00     0.265 C 
HETATM    5  O2  UNL     1      -1.049  -0.247   3.699  1.00  0.00    -0.265 OA
HETATM    6  C6  UNL     1      -0.537  -0.550   1.396  1.00  0.00     0.100 C 
HETATM    7  C7  UNL     1      -1.527  -1.168   0.515  1.00  0.00     0.006 C 
HETATM    8  C8  UNL     1      -1.194  -2.337  -0.316  1.00  0.00     0.008 C 
HETATM    9  C9  UNL     1      -2.483  -2.508  -1.137  1.00  0.00     0.026 C 
HETATM   10  C10 UNL     1      -3.310  -1.233  -0.897  1.00  0.00     0.089 C 
HETATM   11  C12 UNL     1      -2.219  -0.283  -0.475  1.00  0.00     0.021 C 
HETATM   12  C13 UNL     1      -2.570   1.065  -0.065  1.00  0.00     0.031 C 
HETATM   13  C14 UNL     1      -1.348   1.943  -0.326  1.00  0.00     0.009 C 
HETATM   14  C15 UNL     1      -0.296   1.877   0.705  1.00  0.00     0.013 C 
HETATM   15  C16 UNL     1       0.348   0.506   0.899  1.00  0.00     0.002 C 
HETATM   16  C17 UNL     1       1.237   0.165  -0.260  1.00  0.00     0.058 C 
HETATM   17  C18 UNL     1       2.281  -0.720   0.365  1.00  0.00     0.322 C 
HETATM   18  N3  UNL     1       2.543  -0.094   1.591  1.00  0.00     0.099 N 
HETATM   19  C24 UNL     1       3.734   0.667   1.710  1.00  0.00     0.311 C 
HETATM   20  C25 UNL     1       1.414   0.737   1.962  1.00  0.00     0.283 C 
ENDROOT
BRANCH  17  21
HETATM   21  C19 UNL     1       3.414  -1.008  -0.502  1.00  0.00     0.297 C 
HETATM   22  O4  UNL     1       3.155  -1.576  -1.617  1.00  0.00    -0.262 OA
BRANCH  21  23
HETATM   23  O5  UNL     1       4.731  -0.747  -0.275  1.00  0.00    -0.282 OA
BRANCH  23  24
HETATM   24  C20 UNL     1       5.789  -1.022  -1.098  1.00  0.00     0.049 C 
HETATM   25  C21 UNL     1       6.553  -2.297  -1.067  1.00  0.00     0.076 C 
HETATM   26  C22 UNL     1       6.157  -0.099  -1.973  1.00  0.00     0.001 C 
HETATM   27  C23 UNL     1       5.467   1.211  -2.092  1.00  0.00     0.038 C 
ENDBRANCH  23  24
ENDBRANCH  21  23
ENDBRANCH  17  21
BRANCH   1  28
HETATM   28  C2  UNL     1      -3.386   2.794   1.404  1.00  0.00     0.001 C 
HETATM   29  C1  UNL     1      -3.515   3.311   2.621  1.00  0.00     0.010 C 
ENDBRANCH   1  28
BRANCH  10  30
HETATM   30  N1  UNL     1      -3.958  -0.815  -2.117  1.00  0.00    -0.352 N 
ATOM     31  H1  UNL     1      -3.756   0.106  -2.506  1.00  0.00     0.163 HD
BRANCH  30  32
HETATM   32  C11 UNL     1      -4.872  -1.671  -2.779  1.00  0.00     0.210 C 
HETATM   33  N2  UNL     1      -4.922  -1.705  -4.055  1.00  0.00    -0.366 N 
ATOM     34  H22 UNL     1      -4.291  -1.104  -4.585  1.00  0.00     0.159 HD
ATOM     35  H21 UNL     1      -5.580  -2.321  -4.532  1.00  0.00     0.159 HD
BRANCH  32  36
HETATM   36  O3  UNL     1      -5.730  -2.489  -2.058  1.00  0.00    -0.333 OA
ATOM     37  H3  UNL     1      -6.343  -3.063  -2.502  1.00  0.00     0.220 HD
ENDBRANCH  32  36
ENDBRANCH  30  32
ENDBRANCH  10  30
TORSDOF 7
