REMARK  8 active torsions:
REMARK  status: ('A' for Active; 'I' for Inactive)
REMARK    1  A    between atoms: C4_4  and  C5_5 
REMARK    2  A    between atoms: C12_13  and  C13_14 
REMARK    3  A    between atoms: C13_14  and  O2_15 
REMARK    4  A    between atoms: C17_21  and  O4_22 
REMARK    5  A    between atoms: C18_24  and  O5_25 
REMARK    6  A    between atoms: O5_25  and  C19_26 
REMARK    7  A    between atoms: C19_26  and  C20_28 
REMARK    8  A    between atoms: C20_28  and  C21_29 
ROOT
HETATM    1  C1  UNL     1      -5.574   3.296   0.645  1.00  0.00     0.017 C 
HETATM    2  C2  UNL     1      -4.879   3.169  -0.338  1.00  0.00    -0.090 C 
HETATM    3  C3  UNL     1      -4.061   3.034  -1.518  1.00  0.00     0.060 C 
HETATM    4  C4  UNL     1      -3.147   2.089  -1.653  1.00  0.00    -0.009 C 
ENDROOT
BRANCH   4   5
HETATM    5  C5  UNL     1      -2.942   1.101  -0.528  1.00  0.00     0.044 C 
HETATM    6  C6  UNL     1      -3.222  -0.210  -1.192  1.00  0.00    -0.020 C 
HETATM    7  C7  UNL     1      -2.324  -1.239  -1.267  1.00  0.00    -0.013 C 
HETATM    8  C8  UNL     1      -1.110  -0.881  -0.632  1.00  0.00     0.042 C 
HETATM    9  C9  UNL     1       0.177  -1.488  -0.665  1.00  0.00    -0.025 C 
HETATM   10  C12 UNL     1      -1.483  -0.812   0.834  1.00  0.00     0.100 C 
HETATM   11  C17 UNL     1      -0.831   0.521  -1.205  1.00  0.00     0.147 C 
HETATM   12  C10 UNL     1       1.002  -0.796   0.160  1.00  0.00     0.080 C 
HETATM   13  C25 UNL     1       0.735  -2.624  -1.362  1.00  0.00    -0.021 C 
HETATM   14  O1  UNL     1       0.469   0.329   0.852  1.00  0.00    -0.346 OA
HETATM   15  C18 UNL     1       2.430  -1.207   0.336  1.00  0.00     0.188 C 
HETATM   16  C11 UNL     1      -0.959   0.529   1.046  1.00  0.00     0.151 C 
HETATM   17  C15 UNL     1      -1.518   1.301  -0.138  1.00  0.00     0.021 C 
HETATM   18  C16 UNL     1      -1.102   2.719  -0.027  1.00  0.00     0.022 C 
HETATM   19  C23 UNL     1       3.021  -1.635  -0.961  1.00  0.00     0.040 C 
HETATM   20  C24 UNL     1       2.105  -2.324  -1.906  1.00  0.00     0.016 C 
HETATM   21  C26 UNL     1       0.844  -3.874  -0.507  1.00  0.00     0.019 C 
HETATM   22  C27 UNL     1      -0.109  -3.040  -2.573  1.00  0.00     0.019 C 
BRANCH  15  23
HETATM   23  O5  UNL     1       3.149  -0.053   0.773  1.00  0.00    -0.309 OA
BRANCH  23  24
HETATM   24  C19 UNL     1       3.814  -0.008   1.989  1.00  0.00     0.259 C 
HETATM   25  O6  UNL     1       3.783  -1.017   2.736  1.00  0.00    -0.265 OA
BRANCH  24  26
HETATM   26  C20 UNL     1       4.550   1.235   2.387  1.00  0.00     0.111 C 
BRANCH  26  27
HETATM   27  C21 UNL     1       4.437   2.292   1.330  1.00  0.00     0.005 C 
HETATM   28  C22 UNL     1       5.203   3.510   1.802  1.00  0.00     0.005 C 
ENDBRANCH  26  27
ENDBRANCH  24  26
ENDBRANCH  23  24
ENDBRANCH  15  23
BRANCH  10  29
HETATM   29  C13 UNL     1      -2.788  -1.267   1.276  1.00  0.00     0.191 A 
HETATM   30  C14 UNL     1      -3.635  -0.674   2.347  1.00  0.00     0.240 A 
HETATM   31  O3  UNL     1      -2.695  -1.509   2.788  1.00  0.00    -0.347 OA
BRANCH  29  32
HETATM   32  O2  UNL     1      -3.045  -2.629   0.912  1.00  0.00    -0.363 OA
ATOM     33  H2  UNL     1      -3.899  -2.927   1.201  1.00  0.00     0.213 HD
ENDBRANCH  29  32
ENDBRANCH  10  29
BRANCH  11  34
HETATM   34  O4  UNL     1       0.433   0.868  -1.497  1.00  0.00    -0.393 OA
ATOM     35  H4  UNL     1       0.605   1.733  -1.850  1.00  0.00     0.210 HD
ENDBRANCH  11  34
ENDBRANCH   4   5
TORSDOF 8
