REMARK  7 active torsions:
REMARK  status: ('A' for Active; 'I' for Inactive)
REMARK    1  A    between atoms: C1_4  and  C2_6 
REMARK    2  A    between atoms: N3_8  and  C4_9 
REMARK    3  A    between atoms: C4_9  and  C5_10 
REMARK    4  A    between atoms: C5_10  and  C6_11 
REMARK    5  A    between atoms: C6_11  and  C7_12 
REMARK    6  A    between atoms: C7_12  and  N4_13 
REMARK    7  A    between atoms: N5_22  and  N6_23 
ROOT
HETATM    1  C2  UNL     1      -4.389  -0.323   0.069  1.00  0.00     0.113 A 
HETATM    2  C3  UNL     1      -3.199  -0.155   0.789  1.00  0.00     0.127 A 
HETATM    3  N3  UNL     1      -2.200  -0.553  -0.010  1.00  0.00    -0.349 N 
HETATM    4  C15 UNL     1      -2.735  -0.946  -1.156  1.00  0.00     0.209 A 
HETATM    5  N5  UNL     1      -4.094  -0.819  -1.147  1.00  0.00    -0.254 N 
ENDROOT
BRANCH   3   6
HETATM    6  C4  UNL     1      -0.770  -0.551   0.336  1.00  0.00     0.129 C 
BRANCH   6   7
HETATM    7  C5  UNL     1      -0.132   0.756  -0.042  1.00  0.00     0.022 C 
BRANCH   7   8
HETATM    8  C6  UNL     1       1.320   0.784   0.301  1.00  0.00     0.022 C 
BRANCH   8   9
HETATM    9  C7  UNL     1       2.107  -0.298  -0.404  1.00  0.00     0.128 C 
BRANCH   9  10
HETATM   10  N4  UNL     1       3.508  -0.190  -0.011  1.00  0.00    -0.356 N 
HETATM   11  C8  UNL     1       4.024  -0.832   1.045  1.00  0.00     0.091 A 
HETATM   12  C9  UNL     1       5.343  -0.747   1.436  1.00  0.00     0.018 A 
HETATM   13  C10 UNL     1       6.217   0.050   0.705  1.00  0.00     0.015 A 
HETATM   14  C11 UNL     1       5.681   0.706  -0.377  1.00  0.00    -0.009 A 
HETATM   15  C12 UNL     1       4.355   0.590  -0.730  1.00  0.00     0.044 A 
HETATM   16  C14 UNL     1       5.832   1.599  -1.513  1.00  0.00     0.016 A 
HETATM   17  C13 UNL     1       4.540   1.485  -1.856  1.00  0.00     0.031 A 
ENDBRANCH   9  10
ENDBRANCH   8   9
ENDBRANCH   7   8
ENDBRANCH   6   7
ENDBRANCH   3   6
BRANCH   1  18
HETATM   18  C1  UNL     1      -5.697   0.009   0.621  1.00  0.00     0.140 C 
HETATM   19  N1  UNL     1      -6.796  -0.124   0.017  1.00  0.00    -0.386 N 
ATOM     20  H12 UNL     1      -7.711   0.108   0.403  1.00  0.00     0.157 HD
ATOM     21  H11 UNL     1      -6.763  -0.493  -0.933  1.00  0.00     0.157 HD
HETATM   22  N2  UNL     1      -5.744   0.534   1.973  1.00  0.00    -0.081 NA
ENDBRANCH   1  18
BRANCH   5  23
HETATM   23  N6  UNL     1      -4.940  -1.148  -2.203  1.00  0.00    -0.337 N 
ATOM     24  H62 UNL     1      -5.956  -1.053  -2.196  1.00  0.00     0.177 HD
ATOM     25  H61 UNL     1      -4.716  -1.524  -3.124  1.00  0.00     0.177 HD
ENDBRANCH   5  23
TORSDOF 7
