REMARK  5 active torsions:
REMARK  status: ('A' for Active; 'I' for Inactive)
REMARK    1  A    between atoms: N2_5  and  C3_6 
REMARK    2  A    between atoms: C3_6  and  C4_7 
REMARK    3  A    between atoms: C4_7  and  N3_8 
REMARK    4  A    between atoms: C6_10  and  C7_11 
REMARK    5  A    between atoms: C7_11  and  N4_12 
ROOT
HETATM    1  N3  UNL     1       0.169  -0.222  -0.851  1.00  0.00    -0.233 NA
HETATM    2  C5  UNL     1      -0.555  -0.949   0.158  1.00  0.00     0.117 C 
HETATM    3  C6  UNL     1      -1.201   0.084   1.015  1.00  0.00     0.036 C 
HETATM    4  C10 UNL     1      -0.908   1.397   0.329  1.00  0.00     0.136 C 
HETATM    5  N7  UNL     1      -0.512   1.001  -1.010  1.00  0.00    -0.165 NA
ENDROOT
BRANCH   1   6
HETATM    6  C4  UNL     1       1.511   0.095  -0.532  1.00  0.00     0.131 C 
BRANCH   6   7
HETATM    7  C3  UNL     1       2.477  -1.037  -0.443  1.00  0.00     0.166 C 
BRANCH   7   8
HETATM    8  N2  UNL     1       3.775  -0.424  -0.104  1.00  0.00    -0.286 N 
HETATM    9  C2  UNL     1       4.717   0.027  -0.937  1.00  0.00     0.201 A 
HETATM   10  N1  UNL     1       5.754   0.516  -0.220  1.00  0.00    -0.346 N 
HETATM   11  C1  UNL     1       5.454   0.367   1.063  1.00  0.00     0.198 A 
ATOM     12  H1  UNL     1       6.609   0.924  -0.597  1.00  0.00     0.167 HD
HETATM   13  N8  UNL     1       4.256  -0.202   1.112  1.00  0.00    -0.293 N 
ATOM     14  H8  UNL     1       3.767  -0.439   1.975  1.00  0.00     0.188 HD
ENDBRANCH   7   8
ENDBRANCH   6   7
ENDBRANCH   1   6
BRANCH   3  15
HETATM   15  C7  UNL     1      -2.645  -0.123   1.322  1.00  0.00     0.157 C 
BRANCH  15  16
HETATM   16  N4  UNL     1      -3.529  -0.168   0.204  1.00  0.00    -0.286 N 
HETATM   17  C8  UNL     1      -4.157   0.878  -0.353  1.00  0.00     0.201 A 
HETATM   18  N5  UNL     1      -4.891   0.367  -1.371  1.00  0.00    -0.346 N 
HETATM   19  C9  UNL     1      -4.727  -0.947  -1.446  1.00  0.00     0.198 A 
ATOM     20  H5  UNL     1      -5.486   0.916  -1.992  1.00  0.00     0.167 HD
HETATM   21  N6  UNL     1      -3.876  -1.257  -0.457  1.00  0.00    -0.293 N 
ATOM     22  H6  UNL     1      -3.545  -2.198  -0.246  1.00  0.00     0.188 HD
ENDBRANCH  15  16
ENDBRANCH   3  15
TORSDOF 5
