REMARK  1 active torsions:
REMARK  status: ('A' for Active; 'I' for Inactive)
REMARK    1  A    between atoms: O1_2  and  C2_3 
ROOT
HETATM    1  C2  UNL     1       0.307  -0.278  -0.123  1.00  0.00     0.240 C 
HETATM    2  N1  UNL     1       1.467  -1.040  -0.456  1.00  0.00    -0.056 NA
HETATM    3  N2  UNL     1       0.410   0.923   0.329  1.00  0.00    -0.262 N 
ATOM      4  H2  UNL     1      -0.441   1.437   0.556  1.00  0.00     0.181 HD
HETATM    5  C3  UNL     1       1.654   1.552   0.521  1.00  0.00     0.184 C 
HETATM    6  N3  UNL     1       2.678   2.088   0.678  1.00  0.00    -0.172 NA
ENDROOT
BRANCH   1   7
HETATM    7  O1  UNL     1      -0.947  -0.807  -0.276  1.00  0.00    -0.329 OA
HETATM    8  C1  UNL     1      -2.136  -0.074   0.046  1.00  0.00     0.213 C 
ENDBRANCH   1   7
TORSDOF 1
