REMARK  5 active torsions:
REMARK  status: ('A' for Active; 'I' for Inactive)
REMARK    1  A    between atoms: N1_1  and  C1_5 
REMARK    2  A    between atoms: C1_5  and  C2_6 
REMARK    3  A    between atoms: C3_7  and  C4_8 
REMARK    4  A    between atoms: C5_9  and  C6_10 
REMARK    5  A    between atoms: C6_10  and  O1_11 
ROOT
HETATM    1  C2  UNL     1       1.622  -0.316   0.266  1.00  0.00    -0.065 C 
HETATM    2  C3  UNL     1       0.418  -0.355   0.174  1.00  0.00    -0.013 C 
ENDROOT
BRANCH   1   3
HETATM    3  C1  UNL     1       3.096  -0.254   0.383  1.00  0.00     0.324 C 
BRANCH   3   4
HETATM    4  N1  UNL     1       3.649   0.745  -0.504  1.00  0.00    -0.069 N 
ATOM      5  H13 UNL     1       3.355   0.594  -1.469  1.00  0.00     0.275 HD
ATOM      6  H12 UNL     1       3.222   1.659  -0.352  1.00  0.00     0.275 HD
ATOM      7  H11 UNL     1       4.665   0.788  -0.423  1.00  0.00     0.275 HD
ENDBRANCH   3   4
ENDBRANCH   1   3
BRANCH   2   8
HETATM    8  C4  UNL     1      -0.998  -0.391   0.079  1.00  0.00    -0.013 C 
HETATM    9  C5  UNL     1      -2.205  -0.413   0.016  1.00  0.00    -0.067 C 
BRANCH   9  10
HETATM   10  C6  UNL     1      -3.683  -0.423  -0.046  1.00  0.00     0.258 C 
BRANCH  10  11
HETATM   11  O1  UNL     1      -4.113   0.789  -0.629  1.00  0.00    -0.389 OA
ATOM     12  H1  UNL     1      -5.062   0.783  -0.669  1.00  0.00     0.210 HD
ENDBRANCH  10  11
ENDBRANCH   9  10
ENDBRANCH   2   8
TORSDOF 5
