REMARK  7 active torsions:
REMARK  status: ('A' for Active; 'I' for Inactive)
REMARK    1  A    between atoms: C2_2  and  N1_3 
REMARK    2  A    between atoms: C6_7  and  C7_8 
REMARK    3  A    between atoms: C8_9  and  C9_10 
REMARK    4  A    between atoms: C9_10  and  O2_12 
REMARK    5  A    between atoms: O2_12  and  C10_13 
REMARK    6  A    between atoms: C10_13  and  C11_14 
REMARK    7  A    between atoms: C21_28  and  O7_29 
ROOT
HETATM    1  C11 UNL     1      -1.961   1.088   0.129  1.00  0.00     0.222 C 
HETATM    2  O3  UNL     1      -1.968   0.088  -0.839  1.00  0.00    -0.227 OA
HETATM    3  O4  UNL     1      -3.162  -0.199  -1.305  1.00  0.00    -0.197 OA
HETATM    4  C12 UNL     1      -3.564  -1.338  -0.583  1.00  0.00     0.229 C 
HETATM    5  C13 UNL     1      -4.997  -1.679  -0.797  1.00  0.00     0.074 C 
HETATM    6  C14 UNL     1      -5.250  -2.589  -1.956  1.00  0.00     0.006 C 
HETATM    7  C15 UNL     1      -4.630  -3.932  -1.648  1.00  0.00     0.000 C 
HETATM    8  C16 UNL     1      -3.423  -3.830  -0.777  1.00  0.00     0.006 C 
HETATM    9  C17 UNL     1      -2.705  -2.506  -0.907  1.00  0.00     0.074 C 
HETATM   10  O5  UNL     1      -3.436  -0.921   0.765  1.00  0.00    -0.197 OA
HETATM   11  O6  UNL     1      -4.113   0.198   0.819  1.00  0.00    -0.224 OA
HETATM   12  C18 UNL     1      -3.345   1.345   0.638  1.00  0.00     0.127 C 
HETATM   13  C19 UNL     1      -4.020   2.295  -0.356  1.00  0.00     0.047 C 
HETATM   14  C20 UNL     1      -4.920   3.295   0.313  1.00  0.00     0.035 C 
HETATM   15  C21 UNL     1      -4.115   4.262   1.111  1.00  0.00     0.118 C 
HETATM   16  C22 UNL     1      -2.993   3.510   1.810  1.00  0.00     0.035 C 
HETATM   17  C23 UNL     1      -3.396   2.067   1.965  1.00  0.00     0.047 C 
ENDROOT
BRANCH   1  18
HETATM   18  C10 UNL     1      -0.995   0.800   1.237  1.00  0.00     0.217 C 
BRANCH  18  19
HETATM   19  O2  UNL     1       0.333   0.648   0.863  1.00  0.00    -0.315 OA
BRANCH  19  20
HETATM   20  C9  UNL     1       1.160   1.560   0.256  1.00  0.00     0.282 C 
HETATM   21  O1  UNL     1       0.667   2.689  -0.001  1.00  0.00    -0.260 OA
BRANCH  20  22
HETATM   22  C8  UNL     1       2.548   1.292  -0.097  1.00  0.00     0.083 C 
HETATM   23  C7  UNL     1       3.128   0.130   0.144  1.00  0.00     0.019 C 
BRANCH  23  24
HETATM   24  C6  UNL     1       4.510  -0.094  -0.224  1.00  0.00    -0.012 A 
HETATM   25  C5  UNL     1       5.372   0.794  -0.834  1.00  0.00     0.038 A 
HETATM   26  C3  UNL     1       6.616   0.183  -1.013  1.00  0.00     0.008 A 
HETATM   27  N1  UNL     1       6.502  -1.061  -0.514  1.00  0.00    -0.354 N 
HETATM   28  C4  UNL     1       7.759   0.862  -1.638  1.00  0.00     0.068 C 
HETATM   29  C24 UNL     1       5.258  -1.244  -0.041  1.00  0.00     0.018 A 
HETATM   30  C25 UNL     1       4.765  -2.516   0.592  1.00  0.00     0.069 C 
BRANCH  27  31
HETATM   31  C2  UNL     1       7.582  -2.024  -0.509  1.00  0.00     0.124 C 
HETATM   32  C1  UNL     1       8.419  -1.947   0.739  1.00  0.00     0.027 C 
ENDBRANCH  27  31
ENDBRANCH  23  24
ENDBRANCH  20  22
ENDBRANCH  19  20
ENDBRANCH  18  19
ENDBRANCH   1  18
BRANCH  15  33
HETATM   33  O7  UNL     1      -4.886   4.986   2.021  1.00  0.00    -0.396 OA
ATOM     34  H7  UNL     1      -4.373   5.603   2.530  1.00  0.00     0.210 HD
ENDBRANCH  15  33
TORSDOF 7
