REMARK  6 active torsions:
REMARK  status: ('A' for Active; 'I' for Inactive)
REMARK    1  A    between atoms: O1_2  and  C2_3 
REMARK    2  A    between atoms: C4_5  and  C5_6 
REMARK    3  A    between atoms: C5_6  and  C6_8 
REMARK    4  A    between atoms: N1_12  and  O3_13 
REMARK    5  A    between atoms: C23_30  and  O6_31 
REMARK    6  A    between atoms: C25_33  and  O7_34 
ROOT
HETATM    1  C6  UNL     1       1.409   1.308  -0.802  1.00  0.00     0.116 A 
HETATM    2  C7  UNL     1       1.066  -0.001  -0.583  1.00  0.00     0.075 A 
HETATM    3  C8  UNL     1      -0.317  -0.037  -0.419  1.00  0.00     0.100 A 
HETATM    4  C9  UNL     1      -0.771   1.247  -0.544  1.00  0.00     0.075 A 
HETATM    5  N1  UNL     1       0.266   2.065  -0.775  1.00  0.00    -0.222 N 
HETATM    6  C10 UNL     1      -2.226   1.505  -0.412  1.00  0.00     0.072 C 
HETATM    7  C11 UNL     1      -3.076   0.298  -0.686  1.00  0.00     0.054 C 
HETATM    8  C12 UNL     1      -4.491   0.645  -0.525  1.00  0.00     0.019 C 
HETATM    9  C13 UNL     1      -5.215   0.354   0.732  1.00  0.00    -0.041 C 
HETATM   10  C14 UNL     1      -6.697   0.646   0.380  1.00  0.00     0.015 C 
HETATM   11  C15 UNL     1      -4.911   1.185   1.917  1.00  0.00     0.009 C 
HETATM   12  C16 UNL     1      -3.972   0.621   2.935  1.00  0.00     0.003 C 
HETATM   13  C17 UNL     1      -4.127  -0.854   3.196  1.00  0.00     0.032 C 
HETATM   14  C18 UNL     1      -3.983  -1.494   1.792  1.00  0.00     0.126 C 
HETATM   15  C19 UNL     1      -5.249  -1.116   1.094  1.00  0.00     0.041 C 
HETATM   16  O4  UNL     1      -2.846  -0.928   1.310  1.00  0.00    -0.349 OA
HETATM   17  C20 UNL     1      -2.601  -0.951  -0.029  1.00  0.00     0.171 C 
HETATM   18  C21 UNL     1      -3.144  -2.178  -0.734  1.00  0.00     0.080 C 
HETATM   19  O5  UNL     1      -1.202  -1.035  -0.180  1.00  0.00    -0.312 OA
ENDROOT
BRANCH   1  20
HETATM   20  C5  UNL     1       2.748   1.789  -1.065  1.00  0.00     0.211 C 
HETATM   21  O2  UNL     1       2.959   2.981  -1.459  1.00  0.00    -0.285 OA
BRANCH  20  22
HETATM   22  C4  UNL     1       3.915   0.949  -0.898  1.00  0.00     0.022 A 
HETATM   23  C3  UNL     1       4.952   1.151  -1.795  1.00  0.00     0.055 A 
HETATM   24  C2  UNL     1       6.097   0.414  -1.672  1.00  0.00     0.105 A 
HETATM   25  C25 UNL     1       6.266  -0.526  -0.689  1.00  0.00     0.135 A 
HETATM   26  C23 UNL     1       5.232  -0.716   0.194  1.00  0.00     0.105 A 
HETATM   27  C22 UNL     1       4.068   0.011   0.095  1.00  0.00     0.055 A 
BRANCH  24  28
HETATM   28  O1  UNL     1       7.147   0.621  -2.584  1.00  0.00    -0.353 OA
HETATM   29  C1  UNL     1       7.066   1.565  -3.627  1.00  0.00     0.210 C 
ENDBRANCH  24  28
BRANCH  25  30
HETATM   30  O7  UNL     1       7.427  -1.276  -0.561  1.00  0.00    -0.351 OA
HETATM   31  C26 UNL     1       7.610  -2.525  -1.208  1.00  0.00     0.210 C 
ENDBRANCH  25  30
BRANCH  26  32
HETATM   32  O6  UNL     1       5.358  -1.666   1.217  1.00  0.00    -0.353 OA
HETATM   33  C24 UNL     1       4.339  -1.906   2.150  1.00  0.00     0.210 C 
ENDBRANCH  26  32
ENDBRANCH  20  22
ENDBRANCH   1  20
BRANCH   5  34
HETATM   34  O3  UNL     1       0.295   3.419  -0.965  1.00  0.00    -0.282 OA
ATOM     35  H3  UNL     1      -0.497   3.943  -0.946  1.00  0.00     0.245 HD
ENDBRANCH   5  34
TORSDOF 6
