REMARK  2 active torsions:
REMARK  status: ('A' for Active; 'I' for Inactive)
REMARK       I    between atoms: C2_2  and  N1_4 
REMARK    1  A    between atoms: N1_4  and  C3_6 
REMARK    2  A    between atoms: C15_29  and  C16_30 
ROOT
HETATM    1  C3  UNL     1      -1.566  -2.563  -0.208  1.00  0.00     0.176 C 
HETATM    2  C4  UNL     1      -0.733  -2.455  -1.448  1.00  0.00     0.036 C 
HETATM    3  C5  UNL     1       0.595  -3.102  -1.374  1.00  0.00     0.030 C 
HETATM    4  C6  UNL     1       1.720  -2.103  -1.602  1.00  0.00     0.232 C 
HETATM    5  N2  UNL     1       2.500  -2.009  -0.390  1.00  0.00    -0.075 N 
ATOM      6  H21 UNL     1       2.193  -2.700   0.295  1.00  0.00     0.277 HD
ATOM      7  H22 UNL     1       2.276  -1.156   0.122  1.00  0.00     0.277 HD
HETATM    8  C7  UNL     1       3.923  -2.111  -0.624  1.00  0.00     0.233 C 
HETATM    9  C8  UNL     1       4.588  -0.939   0.068  1.00  0.00     0.055 C 
HETATM   10  C9  UNL     1       5.398  -0.203  -0.994  1.00  0.00     0.234 C 
HETATM   11  N3  UNL     1       5.624   1.138  -0.491  1.00  0.00    -0.073 N 
ATOM     12  H31 UNL     1       6.516   1.526  -0.798  1.00  0.00     0.277 HD
ATOM     13  H32 UNL     1       5.803   1.154   0.513  1.00  0.00     0.277 HD
HETATM   14  C10 UNL     1       4.495   1.968  -0.869  1.00  0.00     0.259 C 
HETATM   15  C11 UNL     1       4.278   3.047   0.160  1.00  0.00     0.259 C 
HETATM   16  N4  UNL     1       2.903   3.024   0.644  1.00  0.00    -0.073 N 
ATOM     17  H41 UNL     1       2.854   3.197   1.648  1.00  0.00     0.277 HD
ATOM     18  H42 UNL     1       2.514   2.081   0.631  1.00  0.00     0.277 HD
HETATM   19  C12 UNL     1       2.074   3.958  -0.105  1.00  0.00     0.233 C 
HETATM   20  C13 UNL     1       0.822   4.194   0.687  1.00  0.00     0.045 C 
HETATM   21  C14 UNL     1      -0.356   3.495   0.066  1.00  0.00     0.132 C 
HETATM   22  N5  UNL     1      -0.293   2.066   0.350  1.00  0.00    -0.146 NA
HETATM   23  N6  UNL     1      -1.122   1.434  -0.585  1.00  0.00    -0.122 NA
HETATM   24  C15 UNL     1      -2.022   0.488   0.005  1.00  0.00     0.201 C 
HETATM   25  N7  UNL     1      -1.419  -0.317   1.040  1.00  0.00    -0.339 N 
ATOM     26  H7  UNL     1      -1.219   0.127   1.936  1.00  0.00     0.164 HD
HETATM   27  C21 UNL     1      -1.088  -1.687   0.887  1.00  0.00     0.241 C 
HETATM   28  O3  UNL     1      -0.330  -2.199   1.745  1.00  0.00    -0.271 OA
ENDROOT
BRANCH  24  29
HETATM   29  C16 UNL     1      -3.169   1.265   0.631  1.00  0.00     0.049 C 
HETATM   30  C17 UNL     1      -4.101   0.217   1.247  1.00  0.00     0.012 C 
HETATM   31  C18 UNL     1      -5.487   0.835   1.276  1.00  0.00     0.027 C 
HETATM   32  C19 UNL     1      -5.305   2.337   1.376  1.00  0.00     0.167 C 
HETATM   33  O2  UNL     1      -4.843   2.852   0.180  1.00  0.00    -0.391 OA
HETATM   34  C20 UNL     1      -3.917   2.035  -0.437  1.00  0.00     0.175 C 
ENDBRANCH  24  29
BRANCH   1  35
HETATM   35  N1  UNL     1      -1.701  -3.888   0.296  1.00  0.00    -0.348 N 
HETATM   36  C2  UNL     1      -2.879  -4.629   0.412  1.00  0.00     0.214 C 
HETATM   37  C1  UNL     1      -2.944  -6.009   0.949  1.00  0.00     0.117 C 
HETATM   38  O1  UNL     1      -3.961  -4.107   0.043  1.00  0.00    -0.274 OA
ATOM     39  H1  UNL     1      -0.844  -4.346   0.606  1.00  0.00     0.163 HD
ENDBRANCH   1  35
TORSDOF 2
