REMARK  11 active torsions:
REMARK  status: ('A' for Active; 'I' for Inactive)
REMARK    1  A    between atoms: O1_1  and  C1_3 
REMARK    2  A    between atoms: C1_3  and  N4_19 
REMARK    3  A    between atoms: N1_4  and  C2_6 
REMARK    4  A    between atoms: C5_9  and  O2_10 
REMARK    5  A    between atoms: O2_10  and  C6_11 
REMARK    6  A    between atoms: C6_11  and  C7_12 
REMARK       I    between atoms: N4_19  and  C8_21 
REMARK    7  A    between atoms: C8_21  and  O4_23 
REMARK    8  A    between atoms: O4_23  and  C9_24 
REMARK    9  A    between atoms: C9_24  and  C10_25 
REMARK   10  A    between atoms: C13_29  and  S2_30 
REMARK   11  A    between atoms: S2_30  and  C14_31 
ROOT
HETATM    1  C1  UNL     1      -0.167  -0.279   0.279  1.00  0.00     0.227 C 
HETATM    2  N1  UNL     1       0.869  -1.103   0.604  1.00  0.00    -0.307 N 
ATOM      3  H1  UNL     1       0.562  -2.042   0.859  1.00  0.00     0.171 HD
ENDROOT
BRANCH   1   4
HETATM    4  O1  UNL     1      -1.065  -0.898  -0.477  1.00  0.00    -0.332 OA
ATOM      5  H1  UNL     1      -1.787  -0.324  -0.704  1.00  0.00     0.221 HD
ENDBRANCH   1   4
BRANCH   1   6
HETATM    6  N4  UNL     1      -0.427   1.033   0.600  1.00  0.00    -0.268 N 
HETATM    7  C8  UNL     1      -1.667   1.652   0.105  1.00  0.00     0.368 C 
HETATM    8  O3  UNL     1      -1.965   2.782   0.418  1.00  0.00    -0.238 OA
ATOM      9  H4  UNL     1       0.228   1.567   1.171  1.00  0.00     0.174 HD
BRANCH   7  10
HETATM   10  O4  UNL     1      -2.424   0.853  -0.704  1.00  0.00    -0.299 OA
BRANCH  10  11
HETATM   11  C9  UNL     1      -3.680   1.086  -1.274  1.00  0.00     0.228 C 
BRANCH  11  12
HETATM   12  C10 UNL     1      -4.759   1.332  -0.270  1.00  0.00     0.024 A 
HETATM   13  S1  UNL     1      -5.459   2.830   0.218  1.00  0.00    -0.103 SA
HETATM   14  C11 UNL     1      -6.790   2.249   1.112  1.00  0.00     0.051 A 
HETATM   15  C12 UNL     1      -6.649   0.876   1.008  1.00  0.00     0.027 A 
HETATM   16  C13 UNL     1      -5.603   0.401   0.298  1.00  0.00     0.021 A 
BRANCH  16  17
HETATM   17  S2  UNL     1      -5.241  -1.363   0.168  1.00  0.00    -0.060 SA
BRANCH  17  18
HETATM   18  C14 UNL     1      -6.124  -2.219  -1.122  1.00  0.00     0.420 C 
HETATM   19  F3  UNL     1      -5.702  -1.762  -2.372  1.00  0.00    -0.202 F 
HETATM   20  F4  UNL     1      -7.485  -2.115  -0.959  1.00  0.00    -0.202 F 
ENDBRANCH  17  18
ENDBRANCH  16  17
ENDBRANCH  11  12
ENDBRANCH  10  11
ENDBRANCH   7  10
ENDBRANCH   1   6
BRANCH   2  21
HETATM   21  C2  UNL     1       2.126  -0.967   0.661  1.00  0.00     0.122 A 
HETATM   22  C3  UNL     1       2.899  -2.041   1.042  1.00  0.00     0.054 A 
HETATM   23  C4  UNL     1       4.275  -1.933   1.006  1.00  0.00     0.061 A 
HETATM   24  C5  UNL     1       4.877  -0.762   0.587  1.00  0.00     0.157 A 
HETATM   25  N2  UNL     1       4.077   0.275   0.221  1.00  0.00    -0.278 N 
HETATM   26  N3  UNL     1       2.726   0.147   0.269  1.00  0.00    -0.283 N 
ATOM     27  H2  UNL     1       4.493   1.152  -0.091  1.00  0.00     0.189 HD
ATOM     28  H3  UNL     1       2.149   0.941  -0.008  1.00  0.00     0.188 HD
BRANCH  24  29
HETATM   29  O2  UNL     1       6.249  -0.677   0.536  1.00  0.00    -0.329 OA
BRANCH  29  30
HETATM   30  C6  UNL     1       7.031   0.389   0.165  1.00  0.00     0.248 C 
BRANCH  30  31
HETATM   31  C7  UNL     1       8.505  -0.046   0.237  1.00  0.00     0.377 C 
HETATM   32  F1  UNL     1       8.636  -1.127  -0.646  1.00  0.00    -0.212 F 
HETATM   33  F2  UNL     1       8.801  -0.495   1.487  1.00  0.00    -0.212 F 
ENDBRANCH  30  31
ENDBRANCH  29  30
ENDBRANCH  24  29
ENDBRANCH   2  21
TORSDOF 11
