REMARK  5 active torsions:
REMARK  status: ('A' for Active; 'I' for Inactive)
REMARK    1  A    between atoms: C2_2  and  O2_4 
REMARK    2  A    between atoms: O2_4  and  C3_5 
REMARK    3  A    between atoms: C11_13  and  O3_14 
REMARK    4  A    between atoms: C12_16  and  O4_17 
REMARK    5  A    between atoms: O4_17  and  C13_18 
ROOT
HETATM    1  C3  UNL     1      -0.367   0.611  -1.261  1.00  0.00     0.143 C 
HETATM    2  C4  UNL     1      -1.125  -0.089  -2.356  1.00  0.00     0.034 C 
HETATM    3  C5  UNL     1      -1.897  -1.277  -1.988  1.00  0.00     0.007 C 
HETATM    4  C6  UNL     1      -1.770  -1.833  -0.630  1.00  0.00    -0.014 C 
HETATM    5  C7  UNL     1      -1.333  -3.307  -0.705  1.00  0.00     0.010 C 
HETATM    6  C8  UNL     1      -0.876  -1.098   0.323  1.00  0.00     0.003 C 
HETATM    7  C9  UNL     1      -0.368  -1.939   1.438  1.00  0.00     0.008 C 
HETATM    8  C10 UNL     1       0.136  -1.034   2.552  1.00  0.00     0.035 C 
HETATM    9  C11 UNL     1       0.429   0.346   2.062  1.00  0.00     0.148 C 
HETATM   10  C12 UNL     1       1.146   0.189   0.715  1.00  0.00     0.171 C 
HETATM   11  C15 UNL     1       0.283  -0.393  -0.348  1.00  0.00     0.016 C 
HETATM   12  C16 UNL     1       1.132  -1.359  -1.150  1.00  0.00     0.021 C 
ENDROOT
BRANCH   1  13
HETATM   13  O2  UNL     1      -1.337   1.327  -0.511  1.00  0.00    -0.315 OA
BRANCH  13  14
HETATM   14  C2  UNL     1      -1.376   2.708  -0.422  1.00  0.00     0.255 C 
HETATM   15  C1  UNL     1      -2.431   3.330   0.391  1.00  0.00     0.126 C 
HETATM   16  O1  UNL     1      -0.539   3.397  -1.014  1.00  0.00    -0.266 OA
ENDBRANCH  13  14
ENDBRANCH   1  13
BRANCH  10  17
HETATM   17  O4  UNL     1       1.801   1.363   0.326  1.00  0.00    -0.313 OA
BRANCH  17  18
HETATM   18  C13 UNL     1       3.166   1.481   0.282  1.00  0.00     0.255 C 
HETATM   19  C14 UNL     1       3.841   2.759  -0.142  1.00  0.00     0.126 C 
HETATM   20  O5  UNL     1       3.858   0.480   0.611  1.00  0.00    -0.266 OA
ENDBRANCH  17  18
ENDBRANCH  10  17
BRANCH   9  21
HETATM   21  O3  UNL     1       1.382   0.936   2.925  1.00  0.00    -0.393 OA
ATOM     22  H3  UNL     1       1.568   1.814   2.613  1.00  0.00     0.210 HD
ENDBRANCH   9  21
TORSDOF 5
