REMARK  3 active torsions:
REMARK  status: ('A' for Active; 'I' for Inactive)
REMARK    1  A    between atoms: C2_2  and  N1_3 
REMARK    2  A    between atoms: C2_2  and  C3_7 
REMARK    3  A    between atoms: C7_12  and  C8_13 
ROOT
HETATM    1  C3  UNL     1      -0.180   0.012   0.558  1.00  0.00     0.047 C 
HETATM    2  C4  UNL     1      -0.245   1.544   0.605  1.00  0.00     0.035 C 
HETATM    3  C5  UNL     1      -0.916   1.863  -0.717  1.00  0.00     0.106 C 
HETATM    4 CL1  UNL     1      -2.116   3.153  -0.414  1.00  0.00    -0.121 Cl
HETATM    5  C6  UNL     1      -1.651   0.622  -1.046  1.00  0.00    -0.003 C 
HETATM    6  C7  UNL     1      -1.250  -0.421  -0.339  1.00  0.00    -0.066 C 
ENDROOT
BRANCH   1   7
HETATM    7  C2  UNL     1       1.205  -0.337   0.083  1.00  0.00     0.187 C 
HETATM    8  C1  UNL     1       2.225   0.221   1.051  1.00  0.00     0.040 C 
BRANCH   7   9
HETATM    9  N1  UNL     1       1.431  -1.727  -0.112  1.00  0.00    -0.075 N 
ATOM     10  H13 UNL     1       2.387  -1.921  -0.410  1.00  0.00     0.274 HD
ATOM     11  H12 UNL     1       1.443  -2.240   0.769  1.00  0.00     0.274 HD
ATOM     12  H11 UNL     1       0.743  -2.103  -0.765  1.00  0.00     0.274 HD
ENDBRANCH   7   9
ENDBRANCH   1   7
BRANCH   6  13
HETATM   13  C8  UNL     1      -1.761  -1.835  -0.395  1.00  0.00     0.119 C 
HETATM   14 BR1  UNL     1      -3.182  -1.982  -1.714  1.00  0.00    -0.092 Br
ENDBRANCH   6  13
TORSDOF 3
