REMARK  3 active torsions:
REMARK  status: ('A' for Active; 'I' for Inactive)
REMARK    1  A    between atoms: C2_2  and  N1_4 
REMARK       I    between atoms: N1_4  and  C4_6 
REMARK       I    between atoms: C4_6  and  N2_8 
REMARK    2  A    between atoms: C5_9  and  C6_10 
REMARK    3  A    between atoms: C7_13  and  C8_14 
ROOT
HETATM    1  N1  UNL     1       1.684   0.209   0.250  1.00  0.00    -0.339 N 
ATOM      2  H1  UNL     1       1.502  -0.251  -0.642  1.00  0.00     0.164 HD
HETATM    3  C4  UNL     1       0.594   0.487   1.113  1.00  0.00     0.319 C 
HETATM    4  O1  UNL     1       0.885   1.063   2.215  1.00  0.00    -0.247 OA
HETATM    5  N2  UNL     1      -0.742   0.149   0.780  1.00  0.00    -0.311 N 
HETATM    6  C5  UNL     1      -2.159   0.176   1.220  1.00  0.00     0.202 A 
HETATM    7  C7  UNL     1      -1.719  -0.406  -0.099  1.00  0.00     0.125 A 
ENDROOT
BRANCH   6   8
HETATM    8  C6  UNL     1      -2.547  -0.796   2.272  1.00  0.00     0.256 C 
HETATM    9  N3  UNL     1      -1.966  -2.087   2.209  1.00  0.00    -0.060 NA
HETATM   10  O2  UNL     1      -3.363  -0.440   3.161  1.00  0.00    -0.274 OA
ENDBRANCH   6   8
BRANCH   7  11
HETATM   11  C8  UNL     1      -2.199   0.329  -1.304  1.00  0.00     0.003 C 
HETATM   12  C9  UNL     1      -3.236  -0.470  -2.075  1.00  0.00     0.011 C 
HETATM   13  C10 UNL     1      -1.059   0.760  -2.207  1.00  0.00     0.011 C 
ENDBRANCH   7  11
BRANCH   1  14
HETATM   14  C2  UNL     1       3.028   0.552   0.590  1.00  0.00     0.078 C 
HETATM   15  C1  UNL     1       3.666   1.498  -0.411  1.00  0.00     0.032 C 
HETATM   16  C3  UNL     1       3.945  -0.673   0.659  1.00  0.00     0.032 C 
ENDBRANCH   1  14
TORSDOF 3
