REMARK  8 active torsions:
REMARK  status: ('A' for Active; 'I' for Inactive)
REMARK    1  A    between atoms: N2_4  and  N3_6 
REMARK    2  A    between atoms: N5_13  and  C4_14 
REMARK    3  A    between atoms: C4_14  and  C5_15 
REMARK    4  A    between atoms: C5_15  and  N6_16 
REMARK    5  A    between atoms: N6_16  and  C6_19 
REMARK    6  A    between atoms: C6_19  and  C7_20 
REMARK    7  A    between atoms: C7_20  and  C8_21 
REMARK    8  A    between atoms: C8_21  and  N7_22 
ROOT
HETATM    1  N3  UNL     1      -4.014   0.968   0.657  1.00  0.00    -0.273 N 
ATOM      2  H3  UNL     1      -3.550   1.739   1.137  1.00  0.00     0.190 HD
HETATM    3  C1  UNL     1      -3.286   0.045   0.136  1.00  0.00     0.118 A 
HETATM    4  C2  UNL     1      -3.779  -1.140  -0.594  1.00  0.00     0.198 A 
HETATM    5  N4  UNL     1      -2.598  -1.843  -0.961  1.00  0.00    -0.379 N 
ATOM      6  H4  UNL     1      -2.582  -2.719  -1.483  1.00  0.00     0.160 HD
HETATM    7  C3  UNL     1      -1.554  -1.221  -0.544  1.00  0.00     0.180 A 
HETATM    8  N5  UNL     1      -1.862  -0.031   0.151  1.00  0.00    -0.329 N 
ENDROOT
BRANCH   8   9
HETATM    9  C4  UNL     1      -1.055   0.957   0.790  1.00  0.00     0.158 C 
BRANCH   9  10
HETATM   10  C5  UNL     1       0.416   0.799   0.669  1.00  0.00     0.252 C 
BRANCH  10  11
HETATM   11  N6  UNL     1       0.942   0.848  -0.647  1.00  0.00    -0.074 N 
ATOM     12  H62 UNL     1       0.464   0.178  -1.249  1.00  0.00     0.277 HD
ATOM     13  H61 UNL     1       0.672   1.717  -1.108  1.00  0.00     0.277 HD
BRANCH  11  14
HETATM   14  C6  UNL     1       2.360   0.662  -0.715  1.00  0.00     0.234 C 
BRANCH  14  15
HETATM   15  C7  UNL     1       2.773  -0.732  -0.351  1.00  0.00     0.055 C 
BRANCH  15  16
HETATM   16  C8  UNL     1       4.254  -0.947  -0.418  1.00  0.00     0.231 C 
BRANCH  16  17
HETATM   17  N7  UNL     1       5.001  -0.092   0.461  1.00  0.00    -0.079 N 
ATOM     18  H73 UNL     1       4.771   0.887   0.292  1.00  0.00     0.274 HD
ATOM     19  H72 UNL     1       4.667  -0.182   1.421  1.00  0.00     0.274 HD
ATOM     20  H71 UNL     1       6.009  -0.238   0.415  1.00  0.00     0.274 HD
ENDBRANCH  16  17
ENDBRANCH  15  16
ENDBRANCH  14  15
ENDBRANCH  11  14
ENDBRANCH  10  11
ENDBRANCH   9  10
ENDBRANCH   8   9
BRANCH   1  21
HETATM   21  N2  UNL     1      -5.399   0.965   0.597  1.00  0.00    -0.248 N 
HETATM   22  N1  UNL     1      -5.987   1.850  -0.079  1.00  0.00    -0.331 N 
ATOM     23  H12 UNL     1      -5.436   2.554  -0.571  1.00  0.00     0.178 HD
ATOM     24  H11 UNL     1      -7.006   1.848  -0.123  1.00  0.00     0.178 HD
ATOM     25  H2  UNL     1      -5.935   0.254   1.095  1.00  0.00     0.207 HD
ENDBRANCH   1  21
TORSDOF 8
