REMARK  6 active torsions:
REMARK  status: ('A' for Active; 'I' for Inactive)
REMARK    1  A    between atoms: C2_2  and  C3_4 
REMARK    2  A    between atoms: C4_5  and  N1_6 
REMARK    3  A    between atoms: N1_6  and  C5_8 
REMARK    4  A    between atoms: C8_12  and  C9_13 
REMARK    5  A    between atoms: C16_24  and  C17_25 
REMARK    6  A    between atoms: C23_36  and  O2_37 
ROOT
HETATM    1  C5  UNL     1      -0.935  -0.479  -0.087  1.00  0.00     0.045 A 
HETATM    2  C6  UNL     1      -0.231  -1.590  -0.482  1.00  0.00     0.073 A 
HETATM    3  C7  UNL     1       1.133  -1.541  -0.601  1.00  0.00     0.128 A 
HETATM    4  F1  UNL     1       1.829  -2.650  -0.999  1.00  0.00    -0.205 F 
HETATM    5  C8  UNL     1       1.807  -0.339  -0.311  1.00  0.00     0.024 A 
HETATM    6  C15 UNL     1       1.104   0.768   0.085  1.00  0.00     0.135 A 
HETATM    7  F2  UNL     1       1.771   1.947   0.380  1.00  0.00    -0.205 F 
HETATM    8  C16 UNL     1      -0.267   0.725   0.204  1.00  0.00     0.012 A 
ENDROOT
BRANCH   1   9
HETATM    9  N1  UNL     1      -2.344  -0.597   0.121  1.00  0.00    -0.354 N 
ATOM     10  H1  UNL     1      -2.780   0.054   0.774  1.00  0.00     0.166 HD
BRANCH   9  11
HETATM   11  C4  UNL     1      -3.174  -1.539  -0.504  1.00  0.00     0.066 A 
HETATM   12  C3  UNL     1      -4.423  -1.976  -0.109  1.00  0.00     0.088 A 
HETATM   13  C23 UNL     1      -4.918  -2.827  -1.116  1.00  0.00     0.156 A 
HETATM   14  N4  UNL     1      -4.008  -2.905  -2.083  1.00  0.00    -0.344 N 
HETATM   15  C22 UNL     1      -2.955  -2.149  -1.751  1.00  0.00     0.121 A 
ATOM     16  H4  UNL     1      -4.098  -3.452  -2.939  1.00  0.00     0.167 HD
BRANCH  12  17
HETATM   17  C2  UNL     1      -5.197  -1.710   1.085  1.00  0.00     0.162 C 
HETATM   18  C1  UNL     1      -4.732  -0.852   2.168  1.00  0.00     0.097 C 
HETATM   19  O1  UNL     1      -6.348  -2.238   1.231  1.00  0.00    -0.293 OA
ENDBRANCH  12  17
BRANCH  13  20
HETATM   20  O2  UNL     1      -6.150  -3.491  -1.129  1.00  0.00    -0.345 OA
ATOM     21  H2  UNL     1      -6.484  -4.065  -1.808  1.00  0.00     0.219 HD
ENDBRANCH  13  20
ENDBRANCH   9  11
ENDBRANCH   1   9
BRANCH   8  22
HETATM   22  C17 UNL     1      -1.089   1.876   0.589  1.00  0.00     0.027 C 
HETATM   23  C18 UNL     1      -0.363   3.085   1.090  1.00  0.00     0.037 C 
HETATM   24  C19 UNL     1      -1.506   4.051   1.525  1.00  0.00     0.233 C 
HETATM   25  N3  UNL     1      -2.093   4.621   0.329  1.00  0.00    -0.075 N 
HETATM   26  C20 UNL     1      -1.897   3.779  -0.827  1.00  0.00     0.233 C 
ATOM     27  H32 UNL     1      -3.081   4.834   0.468  1.00  0.00     0.277 HD
ATOM     28  H31 UNL     1      -1.746   5.565   0.161  1.00  0.00     0.277 HD
HETATM   29  C21 UNL     1      -2.059   2.310  -0.500  1.00  0.00     0.037 C 
ENDBRANCH   8  22
BRANCH   5  30
HETATM   30  C9  UNL     1       3.253  -0.375  -0.450  1.00  0.00     0.028 C 
HETATM   31  C10 UNL     1       3.964   0.943  -0.379  1.00  0.00     0.037 C 
HETATM   32  C11 UNL     1       5.457   0.740  -0.742  1.00  0.00     0.233 C 
HETATM   33  N2  UNL     1       5.706  -0.677  -0.979  1.00  0.00    -0.071 N 
HETATM   34  C12 UNL     1       5.354  -1.466   0.164  1.00  0.00     0.182 C 
ATOM     35  H22 UNL     1       5.232  -1.005  -1.820  1.00  0.00     0.277 HD
ATOM     36  H21 UNL     1       6.670  -0.845  -1.267  1.00  0.00     0.277 HD
HETATM   37  C13 UNL     1       5.548  -2.939  -0.145  1.00  0.00     0.040 C 
HETATM   38  C14 UNL     1       3.932  -1.225   0.620  1.00  0.00     0.042 C 
ENDBRANCH   5  30
TORSDOF 6
