REMARK  3 active torsions:
REMARK  status: ('A' for Active; 'I' for Inactive)
REMARK    1  A    between atoms: C4_5  and  C5_6 
REMARK    2  A    between atoms: C5_6  and  N1_7 
REMARK    3  A    between atoms: N1_7  and  C6_10 
ROOT
HETATM    1  N1  UNL     1      -0.377  -0.930   0.422  1.00  0.00    -0.070 N 
ATOM      2  H11 UNL     1      -0.576  -1.909   0.217  1.00  0.00     0.277 HD
ATOM      3  H12 UNL     1      -0.686  -0.891   1.393  1.00  0.00     0.277 HD
ENDROOT
BRANCH   1   4
HETATM    4  C5  UNL     1      -1.179  -0.075  -0.394  1.00  0.00     0.239 C 
BRANCH   4   5
HETATM    5  C4  UNL     1      -2.627  -0.477  -0.198  1.00  0.00     0.029 C 
HETATM    6  C3  UNL     1      -2.973  -0.311   1.245  1.00  0.00     0.017 C 
HETATM    7  C2  UNL     1      -4.480  -0.215   1.447  1.00  0.00     0.103 C 
HETATM    8  C1  UNL     1      -4.945   0.995   0.729  1.00  0.00     0.217 C 
HETATM    9  O1  UNL     1      -5.903   1.684   1.151  1.00  0.00    -0.274 OA
HETATM   10  N2  UNL     1      -4.259   1.349  -0.464  1.00  0.00    -0.361 N 
HETATM   11  C14 UNL     1      -3.510   0.307  -1.135  1.00  0.00     0.128 C 
ATOM     12  H2  UNL     1      -4.293   2.299  -0.833  1.00  0.00     0.162 HD
ENDBRANCH   4   5
ENDBRANCH   1   4
BRANCH   1  13
HETATM   13  C6  UNL     1       1.057  -0.668   0.330  1.00  0.00     0.185 C 
HETATM   14  C7  UNL     1       1.517  -0.914  -1.060  1.00  0.00     0.033 C 
HETATM   15  C8  UNL     1       2.885  -1.439  -1.231  1.00  0.00     0.002 C 
HETATM   16  C9  UNL     1       3.822  -1.286  -0.083  1.00  0.00     0.000 C 
HETATM   17  C10 UNL     1       4.152   0.093   0.329  1.00  0.00     0.000 C 
HETATM   18  C11 UNL     1       3.490   1.192  -0.406  1.00  0.00     0.000 C 
HETATM   19  C12 UNL     1       2.144   1.592   0.061  1.00  0.00     0.002 C 
HETATM   20  C13 UNL     1       1.430   0.625   0.935  1.00  0.00     0.033 C 
ENDBRANCH   1  13
TORSDOF 3
