REMARK  2 active torsions:
REMARK  status: ('A' for Active; 'I' for Inactive)
REMARK    1  A    between atoms: N1_2  and  C3_4 
REMARK    2  A    between atoms: C3_4  and  C4_5 
ROOT
HETATM    1  C4  UNL     1       0.308   0.123  -0.315  1.00  0.00     0.033 C 
HETATM    2  C5  UNL     1       0.010  -1.229  -0.955  1.00  0.00     0.008 C 
HETATM    3  C6  UNL     1      -0.846  -2.207  -0.322  1.00  0.00     0.001 C 
HETATM    4  C7  UNL     1      -2.338  -2.280  -0.694  1.00  0.00     0.011 C 
HETATM    5  C8  UNL     1      -3.074  -0.956  -0.304  1.00  0.00     0.081 C 
HETATM    6  C9  UNL     1      -2.088   0.038  -0.159  1.00  0.00    -0.173 C 
HETATM    7  C10 UNL     1      -0.985   0.907   0.022  1.00  0.00     0.017 A 
HETATM    8  C11 UNL     1      -0.960   1.737   1.251  1.00  0.00     0.022 A 
HETATM    9  C12 UNL     1      -1.073   3.032   0.490  1.00  0.00     0.003 A 
HETATM   10  C13 UNL     1      -1.108   2.218  -0.771  1.00  0.00     0.022 A 
ENDROOT
BRANCH   1  11
HETATM   11  C3  UNL     1       1.303   0.036   0.768  1.00  0.00     0.277 C 
BRANCH  11  12
HETATM   12  N1  UNL     1       2.542  -0.493   0.151  1.00  0.00     0.080 N 
HETATM   13  C1  UNL     1       3.449  -0.925   1.235  1.00  0.00     0.309 C 
HETATM   14  C2  UNL     1       3.230   0.610  -0.556  1.00  0.00     0.309 C 
ENDBRANCH  11  12
ENDBRANCH   1  11
TORSDOF 2
