REMARK  3 active torsions:
REMARK  status: ('A' for Active; 'I' for Inactive)
REMARK    1  A    between atoms: C9_10  and  C10_11 
REMARK    2  A    between atoms: C10_11  and  O1_12 
REMARK    3  A    between atoms: C12_15  and  C13_16 
ROOT
HETATM    1  C1  UNL     1      -3.806  -1.344   1.139  1.00  0.00     0.010 C 
HETATM    2  C2  UNL     1      -2.811  -1.148   0.023  1.00  0.00    -0.016 C 
HETATM    3  C3  UNL     1      -2.228   0.208  -0.061  1.00  0.00     0.009 C 
HETATM    4  C4  UNL     1      -0.976   0.527   0.709  1.00  0.00    -0.008 C 
HETATM    5  C5  UNL     1      -0.525  -0.857   1.187  1.00  0.00     0.041 C 
HETATM    6  C6  UNL     1      -0.476  -1.607  -0.088  1.00  0.00     0.223 C 
HETATM    7  C7  UNL     1      -1.834  -2.329  -0.085  1.00  0.00     0.040 C 
HETATM    8  N1  UNL     1       0.671  -2.339  -0.364  1.00  0.00     0.094 N 
HETATM    9  C8  UNL     1       1.452  -1.574  -1.375  1.00  0.00     0.286 C 
HETATM   10  C9  UNL     1       2.058  -0.788  -0.273  1.00  0.00     0.034 C 
HETATM   11  C11 UNL     1       1.519   0.467   0.160  1.00  0.00     0.020 C 
HETATM   12  C12 UNL     1       0.173   0.989  -0.179  1.00  0.00    -0.006 C 
HETATM   13  C16 UNL     1       1.826  -2.057   0.475  1.00  0.00     0.286 C 
ENDROOT
BRANCH  10  14
HETATM   14  C10 UNL     1       3.584  -0.699  -0.546  1.00  0.00     0.177 C 
BRANCH  14  15
HETATM   15  O1  UNL     1       4.112   0.044   0.509  1.00  0.00    -0.400 OA
ATOM     16  H1  UNL     1       5.046   0.098   0.342  1.00  0.00     0.209 HD
ENDBRANCH  14  15
ENDBRANCH  10  14
BRANCH  12  17
HETATM   17  C13 UNL     1       0.212   2.520   0.025  1.00  0.00    -0.018 C 
HETATM   18  C14 UNL     1      -1.067   3.181  -0.364  1.00  0.00     0.010 C 
HETATM   19  C15 UNL     1       1.296   3.165  -0.815  1.00  0.00     0.010 C 
ENDBRANCH  12  17
TORSDOF 3
