REMARK  4 active torsions:
REMARK  status: ('A' for Active; 'I' for Inactive)
REMARK    1  A    between atoms: C2_2  and  C3_3 
REMARK    2  A    between atoms: C3_3  and  N1_4 
REMARK    3  A    between atoms: C7_8  and  C8_9 
REMARK    4  A    between atoms: C7_8  and  N3_16 
ROOT
HETATM    1  N1  UNL     1       1.884   0.223  -0.293  1.00  0.00    -0.391 N 
HETATM    2  C4  UNL     1       2.040   1.054   0.805  1.00  0.00     0.122 C 
HETATM    3  C5  UNL     1       1.092   0.514   1.882  1.00  0.00     0.022 C 
HETATM    4  C6  UNL     1      -0.292   0.667   1.375  1.00  0.00     0.036 C 
HETATM    5  C7  UNL     1      -0.568   0.145   0.005  1.00  0.00     0.072 C 
HETATM    6  C16 UNL     1       0.605   0.255  -0.944  1.00  0.00     0.154 C 
ENDROOT
BRANCH   5   7
HETATM    7  C8  UNL     1      -1.641   1.076  -0.579  1.00  0.00     0.215 C 
HETATM    8  C9  UNL     1      -2.903   1.113   0.194  1.00  0.00     0.037 C 
HETATM    9  C10 UNL     1      -3.275   2.584   0.329  1.00  0.00     0.029 C 
HETATM   10  C11 UNL     1      -2.205   3.334  -0.397  1.00  0.00     0.233 C 
HETATM   11  N2  UNL     1      -1.167   2.419  -0.743  1.00  0.00    -0.069 N 
ATOM     12  H22 UNL     1      -0.309   2.592  -0.219  1.00  0.00     0.277 HD
ATOM     13  H21 UNL     1      -0.801   2.587  -1.680  1.00  0.00     0.277 HD
ENDBRANCH   5   7
BRANCH   5  14
HETATM   14  N3  UNL     1      -1.003  -1.180   0.006  1.00  0.00    -0.400 N 
HETATM   15  C12 UNL     1      -1.206  -1.859  -1.191  1.00  0.00     0.118 C 
HETATM   16  C13 UNL     1      -2.135  -3.010  -0.784  1.00  0.00     0.021 C 
HETATM   17  C14 UNL     1      -1.632  -3.295   0.620  1.00  0.00     0.021 C 
HETATM   18  C15 UNL     1      -1.415  -1.859   1.128  1.00  0.00     0.118 C 
ENDBRANCH   5  14
BRANCH   1  19
HETATM   19  C3  UNL     1       2.703  -0.861  -0.595  1.00  0.00     0.058 C 
BRANCH  19  20
HETATM   20  C2  UNL     1       4.099  -0.613  -1.075  1.00  0.00     0.040 C 
HETATM   21  C1  UNL     1       5.013   0.104  -0.134  1.00  0.00     0.010 C 
ENDBRANCH  19  20
ENDBRANCH   1  19
TORSDOF 4
