REMARK  4 active torsions:
REMARK  status: ('A' for Active; 'I' for Inactive)
REMARK    1  A    between atoms: C2_2  and  O2_4 
REMARK    2  A    between atoms: O2_4  and  C3_5 
REMARK    3  A    between atoms: C3_5  and  C4_6 
REMARK    4  A    between atoms: C7_9  and  O3_10 
ROOT
HETATM    1  C4  UNL     1       0.312  -0.447   0.055  1.00  0.00     0.022 C 
HETATM    2  C5  UNL     1       0.813  -1.040   1.397  1.00  0.00     0.017 C 
HETATM    3  C6  UNL     1       0.763  -2.535   1.183  1.00  0.00     0.033 C 
HETATM    4  C7  UNL     1      -0.669  -2.607   0.654  1.00  0.00     0.127 C 
HETATM    5  C8  UNL     1      -0.698  -1.468  -0.357  1.00  0.00    -0.006 C 
HETATM    6  C9  UNL     1      -0.246  -2.212  -1.636  1.00  0.00     0.019 C 
HETATM    7  C10 UNL     1      -2.100  -1.100  -0.531  1.00  0.00     0.014 C 
HETATM    8  C11 UNL     1      -2.535   0.194  -1.032  1.00  0.00     0.031 C 
HETATM    9  C12 UNL     1      -1.508   1.097  -1.631  1.00  0.00     0.273 C 
HETATM   10  N1  UNL     1      -0.660   1.687  -0.679  1.00  0.00     0.093 N 
HETATM   11  C13 UNL     1      -1.182   2.877  -0.051  1.00  0.00     0.273 C 
HETATM   12  C14 UNL     1      -1.515   2.496   1.373  1.00  0.00     0.032 C 
HETATM   13  C15 UNL     1      -1.017   1.080   1.575  1.00  0.00     0.038 C 
HETATM   14  C16 UNL     1      -0.125   0.896   0.373  1.00  0.00     0.234 C 
ENDROOT
BRANCH   1  15
HETATM   15  C3  UNL     1       1.519  -0.438  -0.841  1.00  0.00     0.191 C 
BRANCH  15  16
HETATM   16  O2  UNL     1       2.651   0.197  -0.602  1.00  0.00    -0.321 OA
BRANCH  16  17
HETATM   17  C2  UNL     1       3.285   1.361  -0.537  1.00  0.00     0.254 C 
HETATM   18  C1  UNL     1       4.727   1.532  -0.146  1.00  0.00     0.126 C 
HETATM   19  O1  UNL     1       2.689   2.421  -0.810  1.00  0.00    -0.266 OA
ENDBRANCH  16  17
ENDBRANCH  15  16
ENDBRANCH   1  15
BRANCH   4  20
HETATM   20  O3  UNL     1      -1.584  -2.442   1.681  1.00  0.00    -0.395 OA
ATOM     21  H3  UNL     1      -2.474  -2.487   1.352  1.00  0.00     0.210 HD
ENDBRANCH   4  20
TORSDOF 4
