REMARK  2 active torsions:
REMARK  status: ('A' for Active; 'I' for Inactive)
REMARK       I    between atoms: C1_2  and  N1_3 
REMARK    1  A    between atoms: C1_2  and  C12_15 
REMARK    2  A    between atoms: N1_3  and  C2_5 
ROOT
HETATM    1  C2  UNL     1      -0.686   0.186   0.130  1.00  0.00     0.034 C 
HETATM    2  C3  UNL     1      -1.342  -1.128   0.487  1.00  0.00     0.035 C 
HETATM    3  C4  UNL     1      -2.855  -1.023   0.505  1.00  0.00    -0.012 C 
HETATM    4  C5  UNL     1      -3.241   0.089   1.419  1.00  0.00     0.009 C 
HETATM    5  C6  UNL     1      -2.722   1.398   0.892  1.00  0.00    -0.012 C 
HETATM    6  C7  UNL     1      -3.119   1.692  -0.517  1.00  0.00     0.009 C 
HETATM    7  C8  UNL     1      -2.568   0.558  -1.385  1.00  0.00    -0.012 C 
HETATM    8  C9  UNL     1      -3.262  -0.697  -0.928  1.00  0.00     0.009 C 
HETATM    9  C10 UNL     1      -1.067   0.479  -1.304  1.00  0.00     0.035 C 
HETATM   10  C11 UNL     1      -1.215   1.342   0.950  1.00  0.00     0.035 C 
ENDROOT
BRANCH   1  11
HETATM   11  N1  UNL     1       0.734   0.031   0.312  1.00  0.00    -0.350 N 
HETATM   12  C1  UNL     1       1.587  -0.845  -0.343  1.00  0.00     0.247 C 
HETATM   13  O1  UNL     1       1.166  -1.632  -1.214  1.00  0.00    -0.271 OA
ATOM     14  H1  UNL     1       1.165   0.640   1.008  1.00  0.00     0.163 HD
BRANCH  12  15
HETATM   15  C12 UNL     1       3.028  -0.867  -0.021  1.00  0.00     0.213 C 
HETATM   16  C13 UNL     1       3.717   0.429  -0.350  1.00  0.00     0.043 C 
HETATM   17  C14 UNL     1       5.163   0.010  -0.443  1.00  0.00     0.029 C 
HETATM   18  C15 UNL     1       5.053  -1.500  -0.429  1.00  0.00     0.168 C 
HETATM   19  O2  UNL     1       3.734  -1.794  -0.761  1.00  0.00    -0.376 OA
ENDBRANCH  12  15
ENDBRANCH   1  11
TORSDOF 2
