REMARK  3 active torsions:
REMARK  status: ('A' for Active; 'I' for Inactive)
REMARK    1  A    between atoms: C2_2  and  N1_3 
REMARK    2  A    between atoms: C5_6  and  C6_7 
REMARK       I    between atoms: C6_7  and  N2_9 
REMARK    3  A    between atoms: N2_9  and  C7_11 
ROOT
HETATM    1  C6  UNL     1      -0.049  -1.147   1.011  1.00  0.00     0.224 C 
HETATM    2  O1  UNL     1       0.182  -2.361   0.824  1.00  0.00    -0.273 OA
HETATM    3  N2  UNL     1       0.954  -0.174   0.755  1.00  0.00    -0.356 N 
ATOM      4  H2  UNL     1       0.763   0.816   0.909  1.00  0.00     0.162 HD
ENDROOT
BRANCH   1   5
HETATM    5  C5  UNL     1      -1.356  -0.649   1.502  1.00  0.00     0.115 C 
HETATM    6  C4  UNL     1      -2.343  -1.774   1.742  1.00  0.00     0.063 C 
HETATM    7  C3  UNL     1      -3.474  -1.402   0.852  1.00  0.00     0.285 C 
HETATM    8  N1  UNL     1      -3.420   0.066   0.823  1.00  0.00     0.108 N 
HETATM    9  S1  UNL     1      -2.914  -1.692  -0.876  1.00  0.00    -0.131 SA
HETATM   10  C13 UNL     1      -2.023   0.291   0.512  1.00  0.00     0.246 C 
HETATM   11  C14 UNL     1      -1.826  -0.206  -0.928  1.00  0.00     0.112 C 
BRANCH   8  12
HETATM   12  C2  UNL     1      -4.306   0.602  -0.192  1.00  0.00     0.270 C 
HETATM   13  C1  UNL     1      -4.186   2.099  -0.151  1.00  0.00     0.037 C 
ENDBRANCH   8  12
ENDBRANCH   1   5
BRANCH   3  14
HETATM   14  C7  UNL     1       2.245  -0.602   0.275  1.00  0.00     0.084 C 
HETATM   15  C8  UNL     1       3.376  -0.080   1.128  1.00  0.00     0.025 C 
HETATM   16  C9  UNL     1       4.089   1.092   0.487  1.00  0.00     0.002 C 
HETATM   17  C10 UNL     1       4.707   0.711  -0.840  1.00  0.00     0.000 C 
HETATM   18  C11 UNL     1       3.837  -0.324  -1.554  1.00  0.00     0.002 C 
HETATM   19  C12 UNL     1       2.408  -0.031  -1.124  1.00  0.00     0.025 C 
ENDBRANCH   3  14
TORSDOF 3
