REMARK  3 active torsions:
REMARK  status: ('A' for Active; 'I' for Inactive)
REMARK    1  A    between atoms: C2_2  and  C3_3 
REMARK    2  A    between atoms: C3_3  and  C5_5 
REMARK       I    between atoms: N2_16  and  C15_17 
REMARK    3  A    between atoms: C15_17  and  O2_19 
ROOT
HETATM    1  C5  UNL     1       1.594  -0.632  -0.188  1.00  0.00    -0.078 C 
HETATM    2  C6  UNL     1       1.392   0.569  -1.001  1.00  0.00     0.036 C 
HETATM    3  C7  UNL     1       0.146   0.545  -1.933  1.00  0.00     0.031 C 
HETATM    4  C8  UNL     1      -0.826  -0.143  -1.163  1.00  0.00     0.116 C 
HETATM    5  C9  UNL     1      -2.252  -0.347  -1.366  1.00  0.00     0.261 C 
HETATM    6  N1  UNL     1      -2.670  -1.113  -0.196  1.00  0.00    -0.071 N 
HETATM    7  C10 UNL     1      -3.910  -0.488   0.275  1.00  0.00     0.272 C 
HETATM    8  C11 UNL     1      -3.131  -2.408  -0.746  1.00  0.00     0.272 C 
HETATM    9  C12 UNL     1      -1.790  -1.394   0.844  1.00  0.00     0.266 C 
HETATM   10  C13 UNL     1      -0.646  -0.424   1.154  1.00  0.00     0.139 C 
HETATM   11  C14 UNL     1       0.691  -1.021   0.907  1.00  0.00     0.003 C 
HETATM   12  N2  UNL     1      -0.853   0.543   0.118  1.00  0.00    -0.312 N 
HETATM   13  C15 UNL     1      -1.062   1.880   0.347  1.00  0.00     0.363 C 
HETATM   14  O1  UNL     1      -1.048   2.304   1.535  1.00  0.00    -0.238 OA
ENDROOT
BRANCH   1  15
HETATM   15  C3  UNL     1       3.049  -0.787   0.202  1.00  0.00     0.010 C 
HETATM   16  C4  UNL     1       3.253  -2.157   0.915  1.00  0.00     0.015 C 
BRANCH  15  17
HETATM   17  C2  UNL     1       3.734   0.205   1.019  1.00  0.00     0.004 C 
HETATM   18  C1  UNL     1       3.743   1.641   0.592  1.00  0.00     0.006 C 
ENDBRANCH  15  17
ENDBRANCH   1  15
BRANCH  13  19
HETATM   19  O2  UNL     1      -1.295   2.833  -0.632  1.00  0.00    -0.309 OA
HETATM   20  C16 UNL     1      -1.506   4.199  -0.351  1.00  0.00     0.215 C 
ENDBRANCH  13  19
TORSDOF 3
