REMARK  4 active torsions:
REMARK  status: ('A' for Active; 'I' for Inactive)
REMARK    1  A    between atoms: O1_2  and  C2_3 
REMARK    2  A    between atoms: C3_4  and  C5_6 
REMARK    3  A    between atoms: C12_17  and  N2_18 
REMARK    4  A    between atoms: C18_24  and  O4_25 
ROOT
HETATM    1  C2  UNL     1      -2.282  -0.637  -0.031  1.00  0.00     0.174 C 
HETATM    2  C3  UNL     1      -3.299   0.271   0.574  1.00  0.00     0.073 C 
HETATM    3  C4  UNL     1      -4.403  -0.464   1.311  1.00  0.00     0.029 C 
HETATM    4  C6  UNL     1      -2.755   1.282   1.545  1.00  0.00     0.023 C 
HETATM    5  C7  UNL     1      -1.505   1.951   1.098  1.00  0.00     0.009 C 
HETATM    6  C8  UNL     1      -0.573   1.038   0.333  1.00  0.00     0.025 C 
HETATM    7  C9  UNL     1       0.824   1.428   0.634  1.00  0.00     0.039 C 
HETATM    8  C10 UNL     1       1.804   1.162  -0.488  1.00  0.00     0.038 A 
HETATM    9  C11 UNL     1       1.485   1.854  -1.772  1.00  0.00     0.039 C 
HETATM   10  N1  UNL     1       3.151   1.397  -0.009  1.00  0.00    -0.370 N 
ATOM     11  H1  UNL     1       3.618   2.256   0.282  1.00  0.00     0.161 HD
HETATM   12  C12 UNL     1       3.573   0.183  -0.066  1.00  0.00     0.081 A 
HETATM   13  C15 UNL     1       2.271  -0.242  -0.561  1.00  0.00     0.081 A 
HETATM   14  C16 UNL     1       1.483  -1.185   0.329  1.00  0.00     0.018 C 
HETATM   15  C17 UNL     1       0.083  -1.243  -0.218  1.00  0.00     0.042 C 
HETATM   16  C18 UNL     1      -0.895  -0.421   0.581  1.00  0.00     0.089 C 
ENDROOT
BRANCH   2  17
HETATM   17  C5  UNL     1      -3.995   1.038  -0.510  1.00  0.00     0.184 C 
HETATM   18  O2  UNL     1      -3.727   0.924  -1.721  1.00  0.00    -0.647 OA
HETATM   19  O3  UNL     1      -4.989   1.913  -0.087  1.00  0.00    -0.647 OA
ENDBRANCH   2  17
BRANCH   1  20
HETATM   20  O1  UNL     1      -2.648  -1.947  -0.102  1.00  0.00    -0.386 OA
HETATM   21  C1  UNL     1      -2.767  -2.516  -1.336  1.00  0.00     0.202 C 
ENDBRANCH   1  20
BRANCH  16  22
HETATM   22  O4  UNL     1      -0.852  -0.650   1.924  1.00  0.00    -0.387 OA
ATOM     23  H4  UNL     1       0.008  -0.516   2.304  1.00  0.00     0.210 HD
ENDBRANCH  16  22
BRANCH  12  24
HETATM   24  N2  UNL     1       4.813  -0.421   0.244  1.00  0.00    -0.379 N 
HETATM   25  C13 UNL     1       4.944  -1.853   0.135  1.00  0.00     0.150 C 
HETATM   26  C14 UNL     1       5.976   0.331   0.670  1.00  0.00     0.150 C 
ENDBRANCH  12  24
TORSDOF 4
