REMARK  8 active torsions:
REMARK  status: ('A' for Active; 'I' for Inactive)
REMARK       I    between atoms: N1_3  and  C3_4 
REMARK    1  A    between atoms: C3_4  and  C4_6 
REMARK    2  A    between atoms: C4_6  and  N2_7 
REMARK    3  A    between atoms: C4_6  and  C10_17 
REMARK       I    between atoms: N2_7  and  C5_9 
REMARK       I    between atoms: C5_9  and  N3_11 
REMARK    4  A    between atoms: N3_11  and  C6_13 
REMARK    5  A    between atoms: N4_20  and  C13_21 
REMARK    6  A    between atoms: C13_21  and  O3_22 
REMARK    7  A    between atoms: C13_21  and  C14_24 
REMARK    8  A    between atoms: C14_24  and  N5_27 
ROOT
HETATM    1  C4  UNL     1       0.419   1.003   0.383  1.00  0.00     0.182 C 
ENDROOT
BRANCH   1   2
HETATM    2  C3  UNL     1      -0.812   0.469   0.997  1.00  0.00     0.243 C 
HETATM    3  N1  UNL     1      -1.655  -0.409   0.311  1.00  0.00    -0.343 N 
HETATM    4  C2  UNL     1      -2.865  -1.025   0.838  1.00  0.00     0.123 C 
HETATM    5  C19 UNL     1      -1.548  -0.873  -1.044  1.00  0.00     0.130 C 
HETATM    6  C1  UNL     1      -2.437  -2.262   1.594  1.00  0.00     0.036 C 
HETATM    7  C21 UNL     1      -3.748  -1.336  -0.329  1.00  0.00     0.123 C 
HETATM    8  C20 UNL     1      -3.007  -0.773  -1.519  1.00  0.00     0.066 C 
HETATM    9  O4  UNL     1      -3.828  -2.723  -0.535  1.00  0.00    -0.285 OA
HETATM   10  C28 UNL     1      -5.067  -0.660  -0.237  1.00  0.00     0.004 A 
HETATM   11  C22 UNL     1      -4.846  -3.491  -1.094  1.00  0.00     0.363 C 
HETATM   12  O5  UNL     1      -4.562  -4.481  -1.794  1.00  0.00    -0.238 OA
HETATM   13  N6  UNL     1      -6.240  -3.266  -0.952  1.00  0.00    -0.328 N 
HETATM   14  C23 UNL     1      -7.151  -3.863  -1.912  1.00  0.00     0.155 C 
HETATM   15  C24 UNL     1      -6.847  -2.458   0.114  1.00  0.00     0.168 C 
HETATM   16  C25 UNL     1      -6.349  -1.090  -0.057  1.00  0.00    -0.014 A 
HETATM   17  C26 UNL     1      -7.189  -0.000  -0.051  1.00  0.00     0.097 A 
HETATM   18  N7  UNL     1      -6.423   1.090  -0.228  1.00  0.00    -0.374 N 
HETATM   19  C27 UNL     1      -5.132   0.720  -0.343  1.00  0.00     0.098 A 
ATOM     20  H7  UNL     1      -6.766   2.050  -0.269  1.00  0.00     0.164 HD
HETATM   21  O1  UNL     1      -1.101   0.821   2.168  1.00  0.00    -0.271 OA
ENDBRANCH   1   2
BRANCH   1  22
HETATM   22  N2  UNL     1       1.025   2.018   1.244  1.00  0.00    -0.329 N 
HETATM   23  C5  UNL     1       1.220   3.335   0.772  1.00  0.00     0.317 C 
HETATM   24  O2  UNL     1       0.864   3.639  -0.419  1.00  0.00    -0.247 OA
HETATM   25  N3  UNL     1       1.797   4.352   1.555  1.00  0.00    -0.335 N 
ATOM     26  H3  UNL     1       2.090   4.138   2.508  1.00  0.00     0.165 HD
ATOM     27  H2  UNL     1       1.309   1.773   2.193  1.00  0.00     0.165 HD
BRANCH  25  28
HETATM   28  C6  UNL     1       1.986   5.693   1.046  1.00  0.00     0.023 C 
HETATM   29  C7  UNL     1       0.620   6.269   0.662  1.00  0.00     0.037 C 
HETATM   30  C8  UNL     1       2.792   5.660  -0.258  1.00  0.00     0.037 C 
HETATM   31  C9  UNL     1       2.659   6.569   2.061  1.00  0.00     0.037 C 
ENDBRANCH  25  28
ENDBRANCH   1  22
BRANCH   1  32
HETATM   32  C10 UNL     1       1.451  -0.096   0.129  1.00  0.00     0.021 C 
HETATM   33  C11 UNL     1       2.640   0.604  -0.492  1.00  0.00     0.027 C 
HETATM   34  C12 UNL     1       3.578  -0.518  -0.982  1.00  0.00     0.125 C 
HETATM   35  N4  UNL     1       3.930  -1.292   0.181  1.00  0.00    -0.363 N 
HETATM   36  C17 UNL     1       3.341  -0.888   1.459  1.00  0.00     0.125 C 
HETATM   37  C18 UNL     1       1.848  -0.777   1.411  1.00  0.00     0.027 C 
BRANCH  35  38
HETATM   38  C13 UNL     1       4.799  -2.392   0.089  1.00  0.00     0.149 C 
BRANCH  38  39
HETATM   39  O3  UNL     1       5.038  -3.000   1.214  1.00  0.00    -0.348 OA
ATOM     40  H3  UNL     1       5.626  -3.744   1.152  1.00  0.00     0.219 HD
ENDBRANCH  38  39
BRANCH  38  41
HETATM   41  C14 UNL     1       5.453  -2.917  -1.115  1.00  0.00     0.180 C 
HETATM   42  C15 UNL     1       6.971  -2.894  -0.990  1.00  0.00     0.055 C 
HETATM   43  C16 UNL     1       4.977  -4.363  -1.272  1.00  0.00     0.055 C 
BRANCH  41  44
HETATM   44  N5  UNL     1       5.119  -2.214  -2.308  1.00  0.00    -0.064 N 
ATOM     45  H53 UNL     1       4.107  -2.183  -2.434  1.00  0.00     0.275 HD
ATOM     46  H52 UNL     1       5.310  -1.218  -2.202  1.00  0.00     0.275 HD
ATOM     47  H51 UNL     1       5.574  -2.579  -3.145  1.00  0.00     0.275 HD
ENDBRANCH  41  44
ENDBRANCH  38  41
ENDBRANCH  35  38
ENDBRANCH   1  32
TORSDOF 8
