REMARK  10 active torsions:
REMARK  status: ('A' for Active; 'I' for Inactive)
REMARK    1  A    between atoms: C2_2  and  O1_5 
REMARK    2  A    between atoms: O1_5  and  C5_6 
REMARK       I    between atoms: C5_6  and  N1_8 
REMARK    3  A    between atoms: C9_12  and  C10_13 
REMARK    4  A    between atoms: C10_13  and  O3_14 
REMARK    5  A    between atoms: C10_13  and  N2_16 
REMARK    6  A    between atoms: C14_20  and  C15_21 
REMARK       I    between atoms: C15_21  and  N3_23 
REMARK    7  A    between atoms: N3_23  and  C16_25 
REMARK    8  A    between atoms: C21_33  and  N5_34 
REMARK    9  A    between atoms: C23_39  and  C24_40 
REMARK   10  A    between atoms: C24_40  and  N7_44 
ROOT
HETATM    1  C16 UNL     1      -1.350  -2.512  -0.447  1.00  0.00     0.121 C 
HETATM    2  C17 UNL     1      -1.319  -4.013  -0.721  1.00  0.00     0.032 C 
HETATM    3  C18 UNL     1      -2.286  -4.284  -1.824  1.00  0.00     0.022 C 
HETATM    4  C19 UNL     1      -3.275  -5.357  -1.641  1.00  0.00     0.122 C 
HETATM    5  N4  UNL     1      -4.130  -5.383  -0.520  1.00  0.00    -0.359 N 
ATOM      6  H4  UNL     1      -4.944  -5.986  -0.639  1.00  0.00     0.162 HD
HETATM    7  C20 UNL     1      -4.082  -4.742   0.728  1.00  0.00     0.252 C 
HETATM    8  O5  UNL     1      -4.048  -5.448   1.811  1.00  0.00    -0.271 OA
HETATM    9  C21 UNL     1      -4.066  -3.260   0.993  1.00  0.00     0.298 C 
HETATM   10  C22 UNL     1      -2.804  -2.860   1.636  1.00  0.00     0.028 C 
HETATM   11  C23 UNL     1      -1.759  -2.135   0.914  1.00  0.00     0.007 C 
ENDROOT
BRANCH   1  12
HETATM   12  N3  UNL     1       0.009  -2.033  -0.667  1.00  0.00    -0.351 N 
HETATM   13  C15 UNL     1       0.576  -1.629  -1.866  1.00  0.00     0.241 C 
HETATM   14  O4  UNL     1      -0.167  -1.694  -2.910  1.00  0.00    -0.271 OA
ATOM     15  H3  UNL     1       0.612  -1.990   0.155  1.00  0.00     0.163 HD
BRANCH  13  16
HETATM   16  C14 UNL     1       1.945  -1.130  -2.101  1.00  0.00     0.178 C 
HETATM   17  N2  UNL     1       2.506  -0.442  -0.917  1.00  0.00    -0.350 N 
HETATM   18  C11 UNL     1       2.002   0.897  -1.003  1.00  0.00     0.126 C 
HETATM   19  C12 UNL     1       1.621   1.162  -2.454  1.00  0.00     0.022 C 
HETATM   20  C13 UNL     1       2.042  -0.095  -3.190  1.00  0.00     0.037 C 
BRANCH  17  21
HETATM   21  C10 UNL     1       3.337  -1.052   0.025  1.00  0.00     0.138 C 
BRANCH  21  22
HETATM   22  C9  UNL     1       4.006  -0.568   1.215  1.00  0.00     0.164 C 
HETATM   23  N1  UNL     1       4.236   0.817   1.407  1.00  0.00    -0.316 N 
HETATM   24  C5  UNL     1       5.198   1.683   0.831  1.00  0.00     0.364 C 
HETATM   25  C6  UNL     1       3.270   1.309   2.418  1.00  0.00     0.129 C 
HETATM   26  O2  UNL     1       5.218   2.888   1.152  1.00  0.00    -0.238 OA
HETATM   27  C7  UNL     1       3.438   0.149   3.422  1.00  0.00     0.022 C 
HETATM   28  C8  UNL     1       3.320  -1.032   2.494  1.00  0.00     0.035 C 
BRANCH  24  29
HETATM   29  O1  UNL     1       6.118   1.249  -0.078  1.00  0.00    -0.294 OA
BRANCH  29  30
HETATM   30  C2  UNL     1       7.082   2.075  -0.688  1.00  0.00     0.061 C 
HETATM   31  C1  UNL     1       7.921   1.212  -1.599  1.00  0.00     0.046 C 
HETATM   32  C3  UNL     1       6.472   3.170  -1.527  1.00  0.00     0.046 C 
HETATM   33  C4  UNL     1       7.999   2.733   0.313  1.00  0.00     0.046 C 
ENDBRANCH  29  30
ENDBRANCH  24  29
ENDBRANCH  21  22
BRANCH  21  34
HETATM   34  O3  UNL     1       3.546  -2.332  -0.230  1.00  0.00    -0.348 OA
ATOM     35  H3  UNL     1       3.107  -2.649  -1.011  1.00  0.00     0.219 HD
ENDBRANCH  21  34
ENDBRANCH  17  21
ENDBRANCH  13  16
ENDBRANCH   1  12
BRANCH  11  36
HETATM   36  C24 UNL     1      -1.904  -0.641   1.028  1.00  0.00     0.106 C 
HETATM   37  N6  UNL     1      -1.227   0.020   1.910  1.00  0.00    -0.385 N 
ATOM     38  H62 UNL     1      -0.597  -0.501   2.520  1.00  0.00     0.157 HD
ATOM     39  H61 UNL     1      -1.325   1.032   1.987  1.00  0.00     0.157 HD
BRANCH  36  40
HETATM   40  N7  UNL     1      -2.758   0.065   0.202  1.00  0.00    -0.349 N 
HETATM   41  C25 UNL     1      -3.433   1.107   0.343  1.00  0.00    -0.004 C 
HETATM   42  C26 UNL     1      -4.249   1.535  -0.856  1.00  0.00     0.032 C 
HETATM   43  C33 UNL     1      -3.558   2.002   1.511  1.00  0.00     0.032 C 
HETATM   44  C27 UNL     1      -3.769   2.897  -1.272  1.00  0.00     0.015 C 
HETATM   45  C31 UNL     1      -5.690   1.664  -0.390  1.00  0.00     0.015 C 
HETATM   46  C28 UNL     1      -3.795   3.847  -0.104  1.00  0.00    -0.013 C 
HETATM   47  C29 UNL     1      -5.241   4.049   0.284  1.00  0.00     0.009 C 
HETATM   48  C34 UNL     1      -3.017   3.368   1.078  1.00  0.00     0.015 C 
HETATM   49  C30 UNL     1      -5.795   2.714   0.701  1.00  0.00    -0.013 C 
HETATM   50  C32 UNL     1      -5.026   2.227   1.893  1.00  0.00     0.015 C 
ATOM     51  H7  UNL     1      -2.859  -0.355  -0.722  1.00  0.00     0.167 HD
ENDBRANCH  36  40
ENDBRANCH  11  36
BRANCH   9  52
HETATM   52  N5  UNL     1      -4.566  -2.470  -0.076  1.00  0.00    -0.063 N 
ATOM     53  H53 UNL     1      -4.067  -2.683  -0.940  1.00  0.00     0.275 HD
ATOM     54  H52 UNL     1      -5.504  -2.775  -0.336  1.00  0.00     0.275 HD
ATOM     55  H51 UNL     1      -4.555  -1.466   0.104  1.00  0.00     0.275 HD
ENDBRANCH   9  52
TORSDOF 10
