REMARK  4 active torsions:
REMARK  status: ('A' for Active; 'I' for Inactive)
REMARK       I    between atoms: N1_4  and  C4_6 
REMARK    1  A    between atoms: C4_6  and  C5_8 
REMARK    2  A    between atoms: C14_23  and  C15_24 
REMARK       I    between atoms: C15_24  and  N4_26 
REMARK    3  A    between atoms: C19_30  and  C20_31 
REMARK       I    between atoms: C20_31  and  N5_33 
REMARK    4  A    between atoms: N5_33  and  C21_35 
ROOT
HETATM    1  C5  UNL     1       6.719  -0.145  -0.354  1.00  0.00     0.087 C 
HETATM    2  C6  UNL     1       6.039  -0.570   0.932  1.00  0.00     0.015 C 
HETATM    3  C7  UNL     1       5.684  -2.022   0.920  1.00  0.00     0.001 C 
HETATM    4  C8  UNL     1       4.225  -2.316   0.732  1.00  0.00     0.002 C 
HETATM    5  C9  UNL     1       3.345  -1.663   1.749  1.00  0.00     0.027 C 
HETATM    6  C10 UNL     1       1.913  -2.169   1.623  1.00  0.00     0.233 C 
HETATM    7  N2  UNL     1       1.595  -2.501   0.247  1.00  0.00    -0.063 N 
ATOM      8  H21 UNL     1       2.107  -3.316  -0.090  1.00  0.00     0.278 HD
ATOM      9  H22 UNL     1       1.966  -1.822  -0.418  1.00  0.00     0.278 HD
HETATM   10  C11 UNL     1       0.149  -2.661   0.142  1.00  0.00     0.273 C 
HETATM   11  C12 UNL     1      -0.108  -4.114   0.579  1.00  0.00     0.050 C 
HETATM   12  C13 UNL     1      -0.305  -2.503  -1.257  1.00  0.00     0.248 C 
HETATM   13  O2  UNL     1      -0.147  -3.566  -1.974  1.00  0.00    -0.271 OA
HETATM   14  N3  UNL     1      -0.859  -1.399  -1.890  1.00  0.00    -0.346 N 
ATOM     15  H3  UNL     1      -0.326  -1.051  -2.687  1.00  0.00     0.163 HD
HETATM   16  C14 UNL     1      -2.066  -0.665  -1.603  1.00  0.00     0.177 C 
HETATM   17  C27 UNL     1      -1.845   0.326  -0.475  1.00  0.00     0.044 C 
HETATM   18  C28 UNL     1      -0.547   1.077  -0.660  1.00  0.00     0.105 C 
HETATM   19  C29 UNL     1       0.188   1.291   0.598  1.00  0.00     0.217 C 
HETATM   20  O5  UNL     1      -0.397   1.118   1.689  1.00  0.00    -0.274 OA
HETATM   21  N6  UNL     1       1.550   1.692   0.609  1.00  0.00    -0.360 N 
ATOM     22  H6  UNL     1       1.990   1.957   1.490  1.00  0.00     0.162 HD
HETATM   23  C30 UNL     1       2.331   1.729  -0.632  1.00  0.00     0.132 C 
HETATM   24  C31 UNL     1       3.692   2.321  -0.402  1.00  0.00     0.093 C 
HETATM   25  S1  UNL     1       4.898   1.522  -1.524  1.00  0.00    -0.167 SA
HETATM   26  C32 UNL     1       6.467   1.328  -0.638  1.00  0.00     0.088 C 
ENDROOT
BRANCH  16  27
HETATM   27  C15 UNL     1      -3.271  -1.485  -1.457  1.00  0.00     0.243 C 
HETATM   28  O3  UNL     1      -3.106  -2.650  -0.995  1.00  0.00    -0.271 OA
HETATM   29  N4  UNL     1      -4.596  -1.092  -1.792  1.00  0.00    -0.337 N 
HETATM   30  C16 UNL     1      -5.765  -1.933  -1.662  1.00  0.00     0.127 C 
HETATM   31  C19 UNL     1      -5.002   0.179  -2.353  1.00  0.00     0.179 C 
HETATM   32  C17 UNL     1      -6.845  -1.262  -2.457  1.00  0.00     0.022 C 
HETATM   33  C18 UNL     1      -6.140  -0.248  -3.298  1.00  0.00     0.037 C 
BRANCH  31  34
HETATM   34  C20 UNL     1      -5.496   1.178  -1.405  1.00  0.00     0.241 C 
HETATM   35  O4  UNL     1      -5.237   2.397  -1.738  1.00  0.00    -0.271 OA
HETATM   36  N5  UNL     1      -6.190   1.005  -0.226  1.00  0.00    -0.355 N 
ATOM     37  H5  UNL     1      -6.430   0.056   0.062  1.00  0.00     0.162 HD
BRANCH  36  38
HETATM   38  C21 UNL     1      -6.602   2.127   0.639  1.00  0.00     0.084 C 
HETATM   39  C22 UNL     1      -8.045   2.492   0.360  1.00  0.00     0.025 C 
HETATM   40  C23 UNL     1      -9.027   1.603   1.041  1.00  0.00     0.002 C 
HETATM   41  C24 UNL     1      -8.692   1.348   2.492  1.00  0.00     0.000 C 
HETATM   42  C25 UNL     1      -7.278   0.934   2.733  1.00  0.00     0.002 C 
HETATM   43  C26 UNL     1      -6.315   1.897   2.072  1.00  0.00     0.025 C 
ENDBRANCH  36  38
ENDBRANCH  31  34
ENDBRANCH  16  27
BRANCH   1  44
HETATM   44  C4  UNL     1       8.206  -0.311  -0.289  1.00  0.00     0.226 C 
HETATM   45  N1  UNL     1       8.913   0.500   0.655  1.00  0.00    -0.335 N 
HETATM   46  C2  UNL     1       9.931   1.224   0.237  1.00  0.00    -0.018 C 
ATOM     47  H1  UNL     1       8.633   0.517   1.636  1.00  0.00     0.168 HD
HETATM   48  C1  UNL     1      10.382   1.238  -1.164  1.00  0.00     0.062 C 
HETATM   49  C3  UNL     1      10.648   2.064   1.228  1.00  0.00     0.062 C 
HETATM   50  O1  UNL     1       8.828  -1.122  -1.021  1.00  0.00    -0.273 OA
ENDBRANCH   1  44
TORSDOF 4
