REMARK  3 active torsions:
REMARK  status: ('A' for Active; 'I' for Inactive)
REMARK    1  A    between atoms: N1_1  and  C1_5 
REMARK    2  A    between atoms: C4_10  and  C5_11 
REMARK       I    between atoms: C5_11  and  N2_13 
REMARK    3  A    between atoms: C11_21  and  O2_22 
ROOT
HETATM    1  C1  UNL     1       1.280   3.606  -1.034  1.00  0.00     0.262 C 
HETATM    2  C2  UNL     1       0.554   3.269  -2.300  1.00  0.00     0.127 C 
HETATM    3  S1  UNL     1      -1.231   3.476  -2.094  1.00  0.00    -0.095 SA
HETATM    4  S2  UNL     1      -2.140   1.560  -1.859  1.00  0.00    -0.095 SA
HETATM    5  C3  UNL     1      -1.304   0.617  -0.547  1.00  0.00     0.120 C 
HETATM    6  C4  UNL     1      -2.285  -0.136   0.234  1.00  0.00     0.185 C 
HETATM    7  N3  UNL     1      -2.025  -1.527   0.467  1.00  0.00    -0.358 N 
ATOM      8  H3  UNL     1      -2.860  -2.028   0.771  1.00  0.00     0.162 HD
HETATM    9  C11 UNL     1      -0.919  -2.359   0.381  1.00  0.00     0.141 C 
HETATM   10  C12 UNL     1      -0.170  -2.942  -0.742  1.00  0.00     0.097 C 
HETATM   11  C13 UNL     1       0.013  -4.472  -0.507  1.00  0.00     0.040 C 
HETATM   12  C14 UNL     1      -1.142  -5.123  -1.193  1.00  0.00     0.003 C 
HETATM   13  C15 UNL     1      -1.675  -4.151  -2.209  1.00  0.00     0.003 C 
HETATM   14  C16 UNL     1      -0.881  -2.900  -2.075  1.00  0.00     0.040 C 
HETATM   15  N4  UNL     1       1.161  -2.477  -0.951  1.00  0.00    -0.343 N 
ATOM     16  H4  UNL     1       1.633  -2.960  -1.716  1.00  0.00     0.163 HD
HETATM   17  C17 UNL     1       1.956  -1.520  -0.351  1.00  0.00     0.244 C 
HETATM   18  O3  UNL     1       2.433  -0.637  -1.172  1.00  0.00    -0.272 OA
HETATM   19  C18 UNL     1       2.349  -1.336   1.044  1.00  0.00     0.339 C 
HETATM   20  N5  UNL     1       3.590  -0.531   1.158  1.00  0.00    -0.059 N 
HETATM   21  C19 UNL     1       4.588  -1.115   0.355  1.00  0.00     0.238 C 
HETATM   22  C20 UNL     1       5.670  -1.711   1.262  1.00  0.00     0.029 C 
HETATM   23  C21 UNL     1       5.517  -0.835   2.496  1.00  0.00     0.029 C 
HETATM   24  C22 UNL     1       4.008  -0.732   2.560  1.00  0.00     0.238 C 
HETATM   25  C23 UNL     1       3.317   0.855   1.024  1.00  0.00     0.238 C 
HETATM   26  C24 UNL     1       4.253   1.682   0.226  1.00  0.00     0.035 C 
HETATM   27  C25 UNL     1       3.587   3.063   0.066  1.00  0.00     0.082 C 
HETATM   28  C26 UNL     1       2.680   3.075  -1.110  1.00  0.00     0.158 C 
HETATM   29  O4  UNL     1       3.102   2.634  -2.163  1.00  0.00    -0.296 OA
ENDROOT
BRANCH   6  30
HETATM   30  C5  UNL     1      -3.621  -0.011  -0.415  1.00  0.00     0.243 C 
HETATM   31  O1  UNL     1      -4.028  -0.970  -1.161  1.00  0.00    -0.271 OA
HETATM   32  N2  UNL     1      -4.411   1.133  -0.206  1.00  0.00    -0.350 N 
HETATM   33  C6  UNL     1      -4.104   2.268   0.620  1.00  0.00     0.126 C 
HETATM   34  C10 UNL     1      -5.712   1.210  -0.895  1.00  0.00     0.126 C 
HETATM   35  C7  UNL     1      -5.127   2.248   1.762  1.00  0.00     0.020 C 
HETATM   36  C8  UNL     1      -6.187   1.206   1.538  1.00  0.00     0.003 C 
HETATM   37  C9  UNL     1      -6.770   1.389   0.163  1.00  0.00     0.020 C 
ENDBRANCH   6  30
BRANCH   9  38
HETATM   38  O2  UNL     1      -0.396  -2.736   1.519  1.00  0.00    -0.348 OA
ATOM     39  H2  UNL     1       0.362  -3.306   1.460  1.00  0.00     0.219 HD
ENDBRANCH   9  38
BRANCH   1  40
HETATM   40  N1  UNL     1       1.311   5.065  -0.852  1.00  0.00    -0.068 N 
ATOM     41  H13 UNL     1       1.707   5.544  -1.661  1.00  0.00     0.275 HD
ATOM     42  H12 UNL     1       0.378   5.475  -0.880  1.00  0.00     0.275 HD
ATOM     43  H11 UNL     1       1.805   5.294   0.010  1.00  0.00     0.275 HD
ENDBRANCH   1  40
TORSDOF 3
