REMARK  2 active torsions:
REMARK  status: ('A' for Active; 'I' for Inactive)
REMARK    1  A    between atoms: O1_1  and  C1_3 
REMARK    2  A    between atoms: N1_7  and  O2_8 
ROOT
HETATM    1  C1  UNL     1      -0.148   0.941  -0.098  1.00  0.00     0.135 C 
HETATM    2  C2  UNL     1       0.972   0.223   0.591  1.00  0.00     0.044 C 
HETATM    3  C3  UNL     1       1.737  -0.713  -0.282  1.00  0.00     0.096 C 
HETATM    4  S1  UNL     1       0.555  -1.659  -1.319  1.00  0.00    -0.055 SA
HETATM    5  N1  UNL     1      -1.024  -1.317  -0.573  1.00  0.00    -0.136 NA
HETATM    6  C4  UNL     1      -1.226   0.088  -0.637  1.00  0.00     0.166 C 
ENDROOT
BRANCH   1   7
HETATM    7  O1  UNL     1      -0.694   1.839   0.840  1.00  0.00    -0.394 OA
ATOM      8  H1  UNL     1      -1.404   2.294   0.403  1.00  0.00     0.210 HD
ENDBRANCH   1   7
BRANCH   5   9
HETATM    9  O2  UNL     1      -1.133  -1.869   0.625  1.00  0.00    -0.302 OA
ATOM     10  H2  UNL     1      -1.976  -1.686   1.023  1.00  0.00     0.238 HD
ENDBRANCH   5   9
TORSDOF 2
