REMARK  2 active torsions:
REMARK  status: ('A' for Active; 'I' for Inactive)
REMARK    1  A    between atoms: C2_2  and  O1_3 
REMARK    2  A    between atoms: C5_8  and  O2_9 
ROOT
HETATM    1  C1  UNL     1       2.116  -0.319  -0.224  1.00  0.00     0.061 C 
HETATM    2  C2  UNL     1       0.714  -0.386   0.296  1.00  0.00     0.128 C 
HETATM    3  S1  UNL     1      -0.165  -1.869  -0.273  1.00  0.00    -0.129 SA
HETATM    4  C3  UNL     1      -1.817  -1.056  -0.238  1.00  0.00     0.079 C 
HETATM    5  C4  UNL     1      -1.435   0.313  -0.648  1.00  0.00     0.046 C 
HETATM    6  C5  UNL     1      -0.161   0.730  -0.086  1.00  0.00     0.163 C 
ENDROOT
BRANCH   2   7
HETATM    7  O1  UNL     1       0.735  -0.469   1.706  1.00  0.00    -0.377 OA
ATOM      8  H1  UNL     1      -0.155  -0.512   2.036  1.00  0.00     0.211 HD
ENDBRANCH   2   7
BRANCH   6   9
HETATM    9  O2  UNL     1      -0.379   1.588   0.998  1.00  0.00    -0.392 OA
ATOM     10  H2  UNL     1      -0.945   2.310   0.751  1.00  0.00     0.210 HD
ENDBRANCH   6   9
TORSDOF 2
