REMARK  0 active torsions:
REMARK  status: ('A' for Active; 'I' for Inactive)
ROOT
HETATM    1  C1  UNL     1       1.829   0.407   0.127  1.00  0.00     0.055 C 
HETATM    2  C2  UNL     1       0.357   0.390  -0.019  1.00  0.00     0.020 A 
HETATM    3  C3  UNL     1      -0.422  -0.754   0.058  1.00  0.00     0.139 A 
HETATM    4  N1  UNL     1       0.046  -2.079   0.286  1.00  0.00    -0.081 NA
HETATM    5  N2  UNL     1      -1.684  -0.323  -0.127  1.00  0.00    -0.286 N 
ATOM      6  H2  UNL     1      -2.509  -0.923  -0.127  1.00  0.00     0.188 HD
HETATM    7  N3  UNL     1      -1.704   0.987  -0.308  1.00  0.00    -0.288 N 
ATOM      8  H3  UNL     1      -2.544   1.543  -0.469  1.00  0.00     0.188 HD
HETATM    9  C4  UNL     1      -0.441   1.484  -0.248  1.00  0.00     0.124 A 
HETATM   10  S1  UNL     1       0.013   3.064  -0.418  1.00  0.00    -0.058 SA
ENDROOT
TORSDOF 0
