REMARK  7 active torsions:
REMARK  status: ('A' for Active; 'I' for Inactive)
REMARK    1  A    between atoms: C7_7  and  C8_8 
REMARK    2  A    between atoms: C8_8  and  O1_9 
REMARK    3  A    between atoms: C8_8  and  C9_11 
REMARK    4  A    between atoms: C9_11  and  C10_12 
REMARK    5  A    between atoms: C14_19  and  O5_20 
REMARK    6  A    between atoms: O5_20  and  C15_21 
REMARK    7  A    between atoms: C15_21  and  C16_23 
ROOT
HETATM    1  C1  UNL     1      -2.017  -2.068   2.251  1.00  0.00     0.016 C 
HETATM    2  C2  UNL     1      -1.237  -2.065   0.986  1.00  0.00    -0.032 C 
HETATM    3  C3  UNL     1      -1.276  -3.504   0.439  1.00  0.00     0.010 C 
HETATM    4  C4  UNL     1      -2.744  -3.121   0.113  1.00  0.00     0.006 C 
HETATM    5  C5  UNL     1      -2.086  -1.821  -0.271  1.00  0.00    -0.005 C 
HETATM    6  C6  UNL     1      -2.750  -0.543  -0.271  1.00  0.00     0.015 C 
HETATM    7  C7  UNL     1      -1.913   0.575   0.277  1.00  0.00     0.047 C 
HETATM    8  C11 UNL     1      -0.510   0.666  -0.117  1.00  0.00     0.158 C 
HETATM    9  O4  UNL     1       0.248   0.995   1.048  1.00  0.00    -0.382 OA
HETATM   10  C12 UNL     1       0.251  -0.211   1.805  1.00  0.00     0.176 C 
HETATM   11  C13 UNL     1       0.015  -1.339   0.864  1.00  0.00     0.050 C 
HETATM   12  C14 UNL     1       0.250  -0.580  -0.423  1.00  0.00     0.168 C 
ENDROOT
BRANCH  12  13
HETATM   13  O5  UNL     1       1.642  -0.202  -0.349  1.00  0.00    -0.313 OA
BRANCH  13  14
HETATM   14  C15 UNL     1       2.512  -0.504  -1.373  1.00  0.00     0.263 C 
HETATM   15  O6  UNL     1       2.103  -1.112  -2.376  1.00  0.00    -0.265 OA
BRANCH  14  16
HETATM   16  C16 UNL     1       3.920  -0.108  -1.276  1.00  0.00     0.085 C 
HETATM   17  C17 UNL     1       3.966   1.422  -1.161  1.00  0.00     0.014 C 
HETATM   18  C18 UNL     1       5.236   1.710  -0.426  1.00  0.00     0.001 C 
HETATM   19  C19 UNL     1       5.732   0.408   0.132  1.00  0.00     0.001 C 
HETATM   20  C20 UNL     1       4.529  -0.497   0.063  1.00  0.00     0.014 C 
ENDBRANCH  14  16
ENDBRANCH  13  14
ENDBRANCH  12  13
BRANCH   7  21
HETATM   21  C8  UNL     1      -2.559   1.943   0.032  1.00  0.00     0.134 C 
BRANCH  21  22
HETATM   22  O1  UNL     1      -3.808   2.012   0.642  1.00  0.00    -0.395 OA
ATOM     23  H1  UNL     1      -4.208   2.860   0.490  1.00  0.00     0.210 HD
ENDBRANCH  21  22
BRANCH  21  24
HETATM   24  C9  UNL     1      -2.676   2.306  -1.405  1.00  0.00     0.145 C 
BRANCH  24  25
HETATM   25  C10 UNL     1      -3.324   3.666  -1.443  1.00  0.00     0.175 C 
HETATM   26  O2  UNL     1      -2.582   4.655  -1.204  1.00  0.00    -0.648 OA
HETATM   27  O3  UNL     1      -4.646   3.866  -1.717  1.00  0.00    -0.648 OA
ENDBRANCH  24  25
ENDBRANCH  21  24
ENDBRANCH   7  21
TORSDOF 7
