REMARK  13 active torsions:
REMARK  status: ('A' for Active; 'I' for Inactive)
REMARK    1  A    between atoms: N1_1  and  C1_5 
REMARK    2  A    between atoms: C3_7  and  C4_8 
REMARK    3  A    between atoms: C4_8  and  N2_9 
REMARK    4  A    between atoms: C4_8  and  C5_12 
REMARK    5  A    between atoms: N3_18  and  C8_19 
REMARK    6  A    between atoms: C8_19  and  C9_20 
REMARK    7  A    between atoms: C9_20  and  O3_21 
REMARK    8  A    between atoms: O3_21  and  C10_22 
REMARK    9  A    between atoms: C10_22  and  S1_24 
REMARK   10  A    between atoms: S1_24  and  C11_25 
REMARK   11  A    between atoms: C11_25  and  C12_26 
REMARK   12  A    between atoms: C12_26  and  C13_27 
REMARK   13  A    between atoms: C13_27  and  C19_33 
ROOT
HETATM    1  C1  UNL     1       3.920  -0.756  -0.932  1.00  0.00     0.283 C 
HETATM    2  C2  UNL     1       5.331  -0.290  -0.869  1.00  0.00     0.062 C 
HETATM    3  C3  UNL     1       5.779   0.261   0.442  1.00  0.00     0.032 C 
HETATM    4  C6  UNL     1       4.702   0.527   1.429  1.00  0.00     0.051 C 
HETATM    5  C7  UNL     1       3.321   0.686   0.921  1.00  0.00     0.060 C 
HETATM    6  N3  UNL     1       2.958   0.011  -0.243  1.00  0.00    -0.364 N 
ENDROOT
BRANCH   6   7
HETATM    7  C8  UNL     1       1.693  -0.628  -0.247  1.00  0.00     0.151 C 
BRANCH   7   8
HETATM    8  C9  UNL     1       0.559   0.068   0.402  1.00  0.00     0.199 C 
BRANCH   8   9
HETATM    9  O3  UNL     1      -0.602  -0.730   0.291  1.00  0.00    -0.311 OA
BRANCH   9  10
HETATM   10  C10 UNL     1      -0.768  -1.976   0.841  1.00  0.00     0.322 C 
HETATM   11  O4  UNL     1       0.137  -2.517   1.518  1.00  0.00    -0.252 OA
BRANCH  10  12
HETATM   12  S1  UNL     1      -2.279  -2.891   0.623  1.00  0.00    -0.061 SA
BRANCH  12  13
HETATM   13  C11 UNL     1      -3.480  -1.984  -0.345  1.00  0.00     0.089 C 
BRANCH  13  14
HETATM   14  C12 UNL     1      -3.978  -0.743   0.373  1.00  0.00     0.054 C 
BRANCH  14  15
HETATM   15  C13 UNL     1      -5.012  -0.010  -0.463  1.00  0.00     0.029 C 
HETATM   16  C14 UNL     1      -6.228   0.182   0.036  1.00  0.00    -0.069 C 
HETATM   17  C15 UNL     1      -7.349   0.861  -0.629  1.00  0.00     0.034 C 
HETATM   18  C18 UNL     1      -6.662  -0.251   1.411  1.00  0.00     0.034 C 
HETATM   19  C16 UNL     1      -8.558   0.508   0.249  1.00  0.00     0.005 C 
HETATM   20  C17 UNL     1      -7.955   0.515   1.624  1.00  0.00     0.005 C 
BRANCH  15  21
HETATM   21  C19 UNL     1      -4.643   0.465  -1.801  1.00  0.00     0.414 C 
HETATM   22  F4  UNL     1      -4.656  -0.589  -2.719  1.00  0.00    -0.166 F 
HETATM   23  F5  UNL     1      -3.338   0.999  -1.768  1.00  0.00    -0.166 F 
HETATM   24  F6  UNL     1      -5.477   1.439  -2.263  1.00  0.00    -0.166 F 
ENDBRANCH  15  21
ENDBRANCH  14  15
ENDBRANCH  13  14
ENDBRANCH  12  13
ENDBRANCH  10  12
ENDBRANCH   9  10
ENDBRANCH   8   9
ENDBRANCH   7   8
ENDBRANCH   6   7
BRANCH   1  25
HETATM   25  N1  UNL     1       3.818  -2.115  -0.415  1.00  0.00    -0.058 N 
ATOM     26  H13 UNL     1       4.453  -2.754  -0.893  1.00  0.00     0.276 HD
ATOM     27  H12 UNL     1       4.205  -2.196   0.525  1.00  0.00     0.276 HD
ATOM     28  H11 UNL     1       2.850  -2.435  -0.458  1.00  0.00     0.276 HD
ENDBRANCH   1  25
BRANCH   3  29
HETATM   29  C4  UNL     1       6.740   1.412   0.361  1.00  0.00     0.267 C 
BRANCH  29  30
HETATM   30  N2  UNL     1       6.290   2.568  -0.304  1.00  0.00    -0.141 N 
HETATM   31  O1  UNL     1       5.183   2.779  -0.833  1.00  0.00    -0.536 OA
HETATM   32  O2  UNL     1       7.174   3.629  -0.392  1.00  0.00    -0.536 OA
ENDBRANCH  29  30
BRANCH  29  33
HETATM   33  C5  UNL     1       8.075   0.979  -0.235  1.00  0.00     0.413 C 
HETATM   34  F1  UNL     1       8.632  -0.020   0.568  1.00  0.00    -0.169 F 
HETATM   35  F2  UNL     1       7.995   0.613  -1.545  1.00  0.00    -0.169 F 
HETATM   36  F3  UNL     1       8.937   2.063  -0.095  1.00  0.00    -0.169 F 
ENDBRANCH  29  33
ENDBRANCH   3  29
TORSDOF 13
