REMARK  10 active torsions:
REMARK  status: ('A' for Active; 'I' for Inactive)
REMARK    1  A    between atoms: N1_2  and  C2_3 
REMARK    2  A    between atoms: N1_2  and  C9_16 
REMARK    3  A    between atoms: C2_3  and  C3_4 
REMARK    4  A    between atoms: C3_4  and  N2_5 
REMARK    5  A    between atoms: N2_5  and  C4_6 
REMARK    6  A    between atoms: N2_5  and  C7_11 
REMARK    7  A    between atoms: C4_6  and  C5_7 
REMARK    8  A    between atoms: C5_7  and  S1_8 
REMARK    9  A    between atoms: C7_11  and  C8_12 
REMARK   10  A    between atoms: C16_26  and  O2_27 
ROOT
HETATM    1  S1  UNL     1      -3.988  -2.555  -1.878  1.00  0.00    -0.049 SA
HETATM    2  C6  UNL     1      -4.495  -3.965  -0.906  1.00  0.00     0.133 C 
HETATM    3  N3  UNL     1      -4.811  -4.876  -0.263  1.00  0.00    -0.184 NA
ENDROOT
BRANCH   1   4
HETATM    4  C5  UNL     1      -3.791  -1.193  -0.711  1.00  0.00     0.110 C 
BRANCH   4   5
HETATM    5  C4  UNL     1      -3.357   0.065  -1.425  1.00  0.00     0.138 C 
BRANCH   5   6
HETATM    6  N2  UNL     1      -3.198   1.102  -0.448  1.00  0.00    -0.364 N 
BRANCH   6   7
HETATM    7  C3  UNL     1      -2.119   0.947   0.436  1.00  0.00     0.083 C 
BRANCH   7   8
HETATM    8  C2  UNL     1      -0.773   1.111  -0.244  1.00  0.00     0.167 C 
BRANCH   8   9
HETATM    9  N1  UNL     1       0.313   0.925   0.659  1.00  0.00    -0.376 N 
HETATM   10  C1  UNL     1       0.401   1.870   1.789  1.00  0.00     0.150 C 
BRANCH   9  11
HETATM   11  C9  UNL     1       1.394   0.012   0.537  1.00  0.00     0.107 A 
HETATM   12  C10 UNL     1       1.372  -1.287   0.668  1.00  0.00     0.115 A 
HETATM   13 CL1  UNL     1      -0.130  -2.098   1.043  1.00  0.00    -0.077 Cl
HETATM   14  C11 UNL     1       2.544  -2.169   0.522  1.00  0.00     0.208 A 
HETATM   15  O1  UNL     1       2.450  -3.416   0.662  1.00  0.00    -0.286 OA
HETATM   16  C12 UNL     1       3.833  -1.578   0.209  1.00  0.00     0.055 A 
HETATM   17  C13 UNL     1       3.918  -0.215   0.060  1.00  0.00     0.034 A 
HETATM   18  C17 UNL     1       4.932  -2.401   0.064  1.00  0.00     0.084 A 
HETATM   19  C14 UNL     1       5.143   0.314  -0.241  1.00  0.00     0.043 A 
HETATM   20  C18 UNL     1       2.738   0.595   0.215  1.00  0.00     0.211 A 
HETATM   21  C15 UNL     1       6.268  -0.493  -0.393  1.00  0.00     0.069 A 
HETATM   22 CL2  UNL     1       7.841   0.175  -0.777  1.00  0.00    -0.081 Cl
HETATM   23  C16 UNL     1       6.152  -1.846  -0.239  1.00  0.00     0.110 A 
HETATM   24  O3  UNL     1       2.781   1.856   0.086  1.00  0.00    -0.285 OA
HETATM   25 CL3  UNL     1       4.793  -4.122   0.259  1.00  0.00    -0.080 Cl
BRANCH  23  26
HETATM   26  O2  UNL     1       7.259  -2.663  -0.386  1.00  0.00    -0.357 OA
ATOM     27  H2  UNL     1       7.178  -3.603  -0.279  1.00  0.00     0.217 HD
ENDBRANCH  23  26
ENDBRANCH   9  11
ENDBRANCH   8   9
ENDBRANCH   7   8
ENDBRANCH   6   7
BRANCH   6  28
HETATM   28  C7  UNL     1      -3.929   2.268  -0.581  1.00  0.00     0.179 C 
BRANCH  28  29
HETATM   29  C8  UNL     1      -4.836   2.572   0.568  1.00  0.00     0.422 C 
HETATM   30  F1  UNL     1      -4.147   2.716   1.739  1.00  0.00    -0.166 F 
HETATM   31  F2  UNL     1      -5.742   1.524   0.751  1.00  0.00    -0.166 F 
HETATM   32  F3  UNL     1      -5.553   3.756   0.336  1.00  0.00    -0.166 F 
ENDBRANCH  28  29
ENDBRANCH   6  28
ENDBRANCH   5   6
ENDBRANCH   4   5
ENDBRANCH   1   4
TORSDOF 10
