REMARK  7 active torsions:
REMARK  status: ('A' for Active; 'I' for Inactive)
REMARK    1  A    between atoms: O1_1  and  C1_3 
REMARK    2  A    between atoms: C1_3  and  C2_4 
REMARK    3  A    between atoms: C3_6  and  O3_7 
REMARK    4  A    between atoms: O3_7  and  C4_8 
REMARK    5  A    between atoms: C7_11  and  O4_12 
REMARK    6  A    between atoms: C11_17  and  O5_18 
REMARK    7  A    between atoms: C12_20  and  O6_21 
ROOT
HETATM    1  C2  UNL     1       2.876   0.358   0.721  1.00  0.00     0.179 C 
HETATM    2  O2  UNL     1       1.647   0.867   0.588  1.00  0.00    -0.351 OA
HETATM    3  C3  UNL     1       0.842   0.445  -0.421  1.00  0.00     0.263 C 
HETATM    4  C10 UNL     1       1.577  -0.371  -1.483  1.00  0.00     0.095 C 
HETATM    5  C11 UNL     1       2.307  -1.523  -0.856  1.00  0.00     0.154 C 
HETATM    6  C12 UNL     1       3.135  -1.034   0.294  1.00  0.00     0.178 C 
ENDROOT
BRANCH   3   7
HETATM    7  O3  UNL     1      -0.218  -0.240   0.122  1.00  0.00    -0.352 OA
BRANCH   7   8
HETATM    8  C4  UNL     1      -1.453   0.285  -0.104  1.00  0.00     0.147 C 
HETATM    9  C5  UNL     1      -2.077   0.772   1.151  1.00  0.00     0.003 C 
HETATM   10  C6  UNL     1      -3.366   1.055   1.126  1.00  0.00     0.003 C 
HETATM   11  C7  UNL     1      -4.224   0.920  -0.062  1.00  0.00     0.141 C 
HETATM   12  C8  UNL     1      -3.662   0.131  -1.183  1.00  0.00     0.038 C 
HETATM   13  C9  UNL     1      -2.375  -0.580  -0.911  1.00  0.00     0.039 C 
BRANCH  11  14
HETATM   14  O4  UNL     1      -5.430   0.340   0.406  1.00  0.00    -0.392 OA
ATOM     15  H4  UNL     1      -5.984   0.253  -0.361  1.00  0.00     0.210 HD
ENDBRANCH  11  14
ENDBRANCH   7   8
ENDBRANCH   3   7
BRANCH   1  16
HETATM   16  C1  UNL     1       3.256   0.440   2.198  1.00  0.00     0.198 C 
BRANCH  16  17
HETATM   17  O1  UNL     1       3.234   1.772   2.607  1.00  0.00    -0.398 OA
ATOM     18  H1  UNL     1       3.470   1.823   3.526  1.00  0.00     0.209 HD
ENDBRANCH  16  17
ENDBRANCH   1  16
BRANCH   5  19
HETATM   19  O5  UNL     1       1.346  -2.460  -0.465  1.00  0.00    -0.393 OA
ATOM     20  H5  UNL     1       1.808  -3.189  -0.068  1.00  0.00     0.210 HD
ENDBRANCH   5  19
BRANCH   6  21
HETATM   21  O6  UNL     1       2.991  -1.970   1.329  1.00  0.00    -0.390 OA
ATOM     22  H6  UNL     1       3.157  -2.864   1.055  1.00  0.00     0.210 HD
ENDBRANCH   6  21
TORSDOF 7
