REMARK  6 active torsions:
REMARK  status: ('A' for Active; 'I' for Inactive)
REMARK    1  A    between atoms: C2_2  and  C3_3 
REMARK    2  A    between atoms: C3_3  and  O1_5 
REMARK    3  A    between atoms: C3_3  and  C5_7 
REMARK    4  A    between atoms: C5_7  and  C6_8 
REMARK    5  A    between atoms: C6_8  and  C8_10 
REMARK    6  A    between atoms: C15_17  and  N1_18 
ROOT
HETATM    1  C8  UNL     1      -0.514   0.753  -0.138  1.00  0.00     0.020 C 
HETATM    2  C9  UNL     1      -0.525   0.131  -1.512  1.00  0.00     0.007 C 
HETATM    3  C10 UNL     1      -1.831   0.437  -2.233  1.00  0.00     0.001 C 
HETATM    4  C11 UNL     1      -2.954   0.492  -1.260  1.00  0.00     0.011 C 
HETATM    5  C12 UNL     1      -2.694  -0.406  -0.099  1.00  0.00    -0.019 C 
HETATM    6  C13 UNL     1      -3.974  -0.343   0.763  1.00  0.00     0.017 C 
HETATM    7  C14 UNL     1      -2.538  -1.853  -0.489  1.00  0.00     0.017 C 
HETATM    8  C15 UNL     1      -1.516   0.074   0.769  1.00  0.00     0.195 C 
ENDROOT
BRANCH   1   9
HETATM    9  C6  UNL     1       0.784   1.059   0.445  1.00  0.00    -0.010 C 
HETATM   10  C7  UNL     1       0.576   2.009   1.670  1.00  0.00     0.010 C 
BRANCH   9  11
HETATM   11  C5  UNL     1       1.840   0.147   0.791  1.00  0.00     0.042 C 
BRANCH  11  12
HETATM   12  C3  UNL     1       2.404  -0.915  -0.052  1.00  0.00     0.054 C 
HETATM   13  C4  UNL     1       3.643  -1.431   0.783  1.00  0.00     0.045 C 
BRANCH  12  14
HETATM   14  C2  UNL     1       3.032  -0.521  -1.347  1.00  0.00     0.033 C 
HETATM   15  C1  UNL     1       4.071   0.566  -1.167  1.00  0.00     0.008 C 
ENDBRANCH  12  14
BRANCH  12  16
HETATM   16  O1  UNL     1       1.669  -2.093  -0.158  1.00  0.00    -0.390 OA
ATOM     17  H1  UNL     1       1.269  -2.344   0.666  1.00  0.00     0.210 HD
ENDBRANCH  12  16
ENDBRANCH  11  12
ENDBRANCH   9  11
ENDBRANCH   1   9
BRANCH   8  18
HETATM   18  N1  UNL     1      -2.093   1.090   1.615  1.00  0.00    -0.074 N 
ATOM     19  H13 UNL     1      -1.392   1.626   2.127  1.00  0.00     0.274 HD
ATOM     20  H12 UNL     1      -2.495   1.865   1.088  1.00  0.00     0.274 HD
ATOM     21  H11 UNL     1      -2.769   0.632   2.227  1.00  0.00     0.274 HD
ENDBRANCH   8  18
TORSDOF 6
