REMARK  3 active torsions:
REMARK  status: ('A' for Active; 'I' for Inactive)
REMARK    1  A    between atoms: C4_5  and  N1_6 
REMARK    2  A    between atoms: N1_6  and  C5_8 
REMARK    3  A    between atoms: C11_14  and  N2_15 
ROOT
HETATM    1  F1  UNL     1      -2.546  -4.319  -1.412  1.00  0.00    -0.206 F 
HETATM    2  C1  UNL     1      -1.735  -3.333  -0.913  1.00  0.00     0.118 A 
HETATM    3  C2  UNL     1      -0.743  -3.610  -0.002  1.00  0.00     0.044 A 
HETATM    4  C3  UNL     1       0.068  -2.584   0.489  1.00  0.00     0.034 A 
HETATM    5  C4  UNL     1      -0.131  -1.278   0.052  1.00  0.00     0.055 A 
HETATM    6  C11 UNL     1      -1.129  -1.007  -0.864  1.00  0.00     0.063 A 
HETATM    7  C16 UNL     1      -1.928  -2.036  -1.343  1.00  0.00     0.074 A 
ENDROOT
BRANCH   5   8
HETATM    8  N1  UNL     1       0.648  -0.203   0.528  1.00  0.00    -0.383 N 
ATOM      9  H1  UNL     1       0.400   0.735   0.214  1.00  0.00     0.160 HD
BRANCH   8  10
HETATM   10  C5  UNL     1       1.787  -0.335   1.440  1.00  0.00     0.081 C 
HETATM   11  C6  UNL     1       2.196   1.022   1.858  1.00  0.00     0.025 C 
HETATM   12  C7  UNL     1       3.648   1.330   1.883  1.00  0.00     0.002 C 
HETATM   13  C8  UNL     1       4.177   0.979   0.483  1.00  0.00     0.000 C 
HETATM   14  C9  UNL     1       4.114  -0.510   0.416  1.00  0.00     0.002 C 
HETATM   15  C10 UNL     1       2.819  -1.139   0.728  1.00  0.00     0.025 C 
ENDBRANCH   8  10
ENDBRANCH   5   8
BRANCH   6  16
HETATM   16  N2  UNL     1      -1.323   0.306  -1.299  1.00  0.00    -0.344 N 
HETATM   17  C12 UNL     1      -2.436   0.936  -1.320  1.00  0.00     0.077 C 
HETATM   18  C13 UNL     1      -2.610   2.332  -1.789  1.00  0.00     0.078 C 
HETATM   19  N3  UNL     1      -3.709   0.480  -0.923  1.00  0.00    -0.380 N 
HETATM   20  C14 UNL     1      -3.789   2.789  -0.954  1.00  0.00     0.027 C 
HETATM   21  C15 UNL     1      -4.698   1.561  -1.049  1.00  0.00     0.121 C 
ATOM     22  H3  UNL     1      -3.915  -0.464  -0.595  1.00  0.00     0.160 HD
ATOM     23  H2  UNL     1      -0.500   0.809  -1.631  1.00  0.00     0.167 HD
ENDBRANCH   6  16
TORSDOF 3
