REMARK  4 active torsions:
REMARK  status: ('A' for Active; 'I' for Inactive)
REMARK    1  A    between atoms: O1_2  and  C2_3 
REMARK    2  A    between atoms: C5_6  and  C6_7 
REMARK    3  A    between atoms: C7_10  and  N2_11 
REMARK    4  A    between atoms: N2_11  and  C8_13 
ROOT
HETATM    1  C6  UNL     1       0.121   0.077  -1.024  1.00  0.00     0.164 C 
HETATM    2  N1  UNL     1      -0.854   1.092  -0.720  1.00  0.00    -0.214 N 
ATOM      3  H1  UNL     1      -0.920   1.917  -1.316  1.00  0.00     0.178 HD
HETATM    4  C7  UNL     1      -1.631   0.978   0.274  1.00  0.00     0.675 C 
HETATM    5  N3  UNL     1      -1.716  -0.232   1.064  1.00  0.00    -0.196 N 
ATOM      6  H3  UNL     1      -2.345  -0.270   1.866  1.00  0.00     0.184 HD
HETATM    7  C11 UNL     1      -1.008  -1.254   0.764  1.00  0.00     0.031 C 
HETATM    8  C12 UNL     1      -1.215  -2.371   1.686  1.00  0.00     0.058 C 
HETATM    9  C13 UNL     1      -0.836  -3.726   1.181  1.00  0.00     0.006 C 
HETATM   10  C14 UNL     1      -1.124  -3.974  -0.265  1.00  0.00     0.001 C 
HETATM   11  C15 UNL     1      -0.003  -3.585  -1.186  1.00  0.00     0.004 C 
HETATM   12  C16 UNL     1       0.729  -2.340  -0.654  1.00  0.00     0.038 C 
HETATM   13  C17 UNL     1      -0.238  -1.205  -0.481  1.00  0.00    -0.029 C 
ENDROOT
BRANCH   1  14
HETATM   14  C5  UNL     1       1.403   0.729  -0.668  1.00  0.00    -0.031 A 
HETATM   15  C4  UNL     1       2.373   0.273   0.169  1.00  0.00     0.012 A 
HETATM   16  C3  UNL     1       3.555   1.005   0.397  1.00  0.00     0.037 A 
HETATM   17  C2  UNL     1       3.775   2.214  -0.221  1.00  0.00     0.068 A 
HETATM   18  C19 UNL     1       2.787   2.667  -1.066  1.00  0.00     0.037 A 
HETATM   19  C18 UNL     1       1.629   1.952  -1.290  1.00  0.00     0.012 A 
BRANCH  17  20
HETATM   20  O1  UNL     1       4.946   2.934   0.008  1.00  0.00    -0.356 OA
HETATM   21  C1  UNL     1       5.971   2.522   0.849  1.00  0.00     0.210 C 
ENDBRANCH  17  20
ENDBRANCH   1  14
BRANCH   4  22
HETATM   22  N2  UNL     1      -2.564   2.043   0.519  1.00  0.00    -0.222 N 
ATOM     23  H2  UNL     1      -2.249   2.942   0.885  1.00  0.00     0.178 HD
BRANCH  22  24
HETATM   24  C8  UNL     1      -3.958   1.807   0.234  1.00  0.00     0.099 A 
HETATM   25  C9  UNL     1      -4.957   2.878   0.471  1.00  0.00     0.028 A 
HETATM   26  C10 UNL     1      -4.553   2.537  -0.908  1.00  0.00     0.028 A 
ENDBRANCH  22  24
ENDBRANCH   4  22
TORSDOF 4
