REMARK  4 active torsions:
REMARK  status: ('A' for Active; 'I' for Inactive)
REMARK       I    between atoms: C1_2  and  N1_3 
REMARK    1  A    between atoms: C1_2  and  O2_11 
REMARK    2  A    between atoms: N1_3  and  C2_5 
REMARK    3  A    between atoms: O2_11  and  C8_12 
REMARK    4  A    between atoms: C12_17  and  C13_18 
ROOT
HETATM    1  C8  UNL     1      -1.895  -0.661  -1.318  1.00  0.00     0.166 C 
HETATM    2  C9  UNL     1      -2.121  -1.321  -2.678  1.00  0.00     0.200 C 
HETATM    3  O3  UNL     1      -2.651  -2.616  -2.474  1.00  0.00    -0.389 OA
HETATM    4  C10 UNL     1      -4.019  -2.443  -2.263  1.00  0.00     0.168 C 
HETATM    5  C11 UNL     1      -4.208  -1.402  -1.185  1.00  0.00     0.038 C 
HETATM    6  C12 UNL     1      -2.950  -1.195  -0.376  1.00  0.00     0.059 C 
ENDROOT
BRANCH   1   7
HETATM    7  O2  UNL     1      -0.596  -0.852  -0.842  1.00  0.00    -0.296 OA
BRANCH   7   8
HETATM    8  C1  UNL     1       0.312   0.159  -0.580  1.00  0.00     0.361 C 
HETATM    9  O1  UNL     1      -0.091   1.343  -0.796  1.00  0.00    -0.238 OA
HETATM   10  N1  UNL     1       1.621  -0.102  -0.097  1.00  0.00    -0.332 N 
ATOM     11  H1  UNL     1       1.891  -1.073   0.058  1.00  0.00     0.165 HD
BRANCH  10  12
HETATM   12  C2  UNL     1       2.589   0.924   0.186  1.00  0.00     0.086 C 
HETATM   13  C3  UNL     1       2.972   0.884   1.651  1.00  0.00     0.025 C 
HETATM   14  C4  UNL     1       4.292   0.156   1.752  1.00  0.00     0.002 C 
HETATM   15  C5  UNL     1       5.353   1.087   1.196  1.00  0.00     0.000 C 
HETATM   16  C6  UNL     1       5.021   1.371  -0.233  1.00  0.00     0.002 C 
HETATM   17  C7  UNL     1       3.774   0.677  -0.716  1.00  0.00     0.025 C 
ENDBRANCH  10  12
ENDBRANCH   7   8
ENDBRANCH   1   7
BRANCH   6  18
HETATM   18  C13 UNL     1      -3.276  -0.136   0.650  1.00  0.00    -0.011 A 
HETATM   19  C14 UNL     1      -3.177  -0.230   2.012  1.00  0.00     0.015 A 
HETATM   20  C15 UNL     1      -3.524   0.844   2.732  1.00  0.00     0.008 A 
HETATM   21  C16 UNL     1      -3.950   1.950   2.047  1.00  0.00     0.050 A 
HETATM   22  S1  UNL     1      -3.852   1.455   0.422  1.00  0.00    -0.106 SA
ENDBRANCH   6  18
TORSDOF 4
