REMARK  3 active torsions:
REMARK  status: ('A' for Active; 'I' for Inactive)
REMARK    1  A    between atoms: C2_2  and  C3_3 
REMARK    2  A    between atoms: C3_3  and  N1_4 
REMARK    3  A    between atoms: N2_14  and  O2_16 
ROOT
HETATM    1  N1  UNL     1      -0.854   0.639   0.028  1.00  0.00     0.096 N 
HETATM    2  C4  UNL     1      -0.344  -0.624  -0.373  1.00  0.00     0.276 C 
HETATM    3  C5  UNL     1       0.630  -1.189   0.667  1.00  0.00     0.067 C 
HETATM    4  C6  UNL     1       2.036  -1.002   0.152  1.00  0.00     0.056 C 
HETATM    5  C7  UNL     1       3.012  -1.007   1.277  1.00  0.00     0.045 C 
HETATM    6  C8  UNL     1       2.311  -2.129  -0.832  1.00  0.00     0.045 C 
HETATM    7  O1  UNL     1       2.030   0.214  -0.557  1.00  0.00    -0.374 OA
HETATM    8  C9  UNL     1       1.525   1.225   0.248  1.00  0.00     0.146 C 
HETATM    9  C10 UNL     1       2.443   2.425   0.068  1.00  0.00     0.041 C 
HETATM   10  C11 UNL     1       0.164   1.641  -0.238  1.00  0.00     0.304 C 
ENDROOT
BRANCH   1  11
HETATM   11  C3  UNL     1      -2.088   1.039  -0.541  1.00  0.00     0.326 C 
BRANCH  11  12
HETATM   12  C2  UNL     1      -3.315   0.369  -0.100  1.00  0.00     0.034 C 
HETATM   13  C1  UNL     1      -3.550  -1.062  -0.257  1.00  0.00     0.067 C 
HETATM   14  N2  UNL     1      -4.225   1.111   0.431  1.00  0.00    -0.276 N 
ATOM     15  H2  UNL     1      -4.092   2.115   0.553  1.00  0.00     0.193 HD
BRANCH  14  16
HETATM   16  O2  UNL     1      -5.392   0.481   0.828  1.00  0.00    -0.290 OA
ATOM     17  H2  UNL     1      -6.063   1.028   1.219  1.00  0.00     0.244 HD
ENDBRANCH  14  16
ENDBRANCH  11  12
ENDBRANCH   1  11
TORSDOF 3
