REMARK  4 active torsions:
REMARK  status: ('A' for Active; 'I' for Inactive)
REMARK    1  A    between atoms: O1_2  and  C2_3 
REMARK    2  A    between atoms: C6_8  and  C7_9 
REMARK    3  A    between atoms: C7_9  and  N1_10 
REMARK    4  A    between atoms: N1_10  and  C8_13 
ROOT
HETATM    1  C8  UNL     1       0.974  -1.644  -0.239  1.00  0.00     0.200 C 
HETATM    2  C9  UNL     1       1.162  -3.105  -0.061  1.00  0.00     0.034 C 
HETATM    3  C10 UNL     1       0.084  -3.839  -0.869  1.00  0.00     0.002 C 
HETATM    4  C11 UNL     1      -1.208  -3.018  -0.922  1.00  0.00     0.007 C 
HETATM    5  C12 UNL     1      -1.269  -2.257   0.404  1.00  0.00     0.012 C 
HETATM    6  C13 UNL     1      -2.687  -1.993   0.776  1.00  0.00     0.057 C 
HETATM    7  C14 UNL     1      -2.778  -1.501   2.212  1.00  0.00     0.018 C 
HETATM    8  C15 UNL     1      -3.482  -1.205  -0.156  1.00  0.00     0.145 C 
HETATM    9  O2  UNL     1      -4.609  -1.624  -0.355  1.00  0.00    -0.297 OA
HETATM   10  C16 UNL     1      -3.234   0.043  -0.954  1.00  0.00     0.169 C 
HETATM   11  C17 UNL     1      -4.471   0.720  -1.352  1.00  0.00     0.271 C 
HETATM   12  O3  UNL     1      -5.004   0.333  -2.435  1.00  0.00    -0.264 OA
HETATM   13  O4  UNL     1      -5.182   1.754  -0.714  1.00  0.00    -0.316 OA
HETATM   14  C18 UNL     1      -4.840   2.276   0.561  1.00  0.00     0.128 C 
HETATM   15  C19 UNL     1      -5.943   3.114   1.119  1.00  0.00     0.040 C 
HETATM   16  C20 UNL     1      -3.583   3.092   0.412  1.00  0.00     0.033 C 
HETATM   17  C21 UNL     1      -2.530   2.399  -0.430  1.00  0.00     0.019 C 
HETATM   18  C22 UNL     1      -2.396   0.940  -0.031  1.00  0.00     0.068 C 
HETATM   19  S1  UNL     1      -0.706   0.414  -0.198  1.00  0.00    -0.156 SA
HETATM   20  C23 UNL     1      -0.301  -1.154   0.482  1.00  0.00     0.083 C 
ENDROOT
BRANCH   1  21
HETATM   21  N1  UNL     1       2.083  -0.803   0.037  1.00  0.00    -0.066 N 
ATOM     22  H12 UNL     1       2.372  -0.869   1.013  1.00  0.00     0.278 HD
ATOM     23  H11 UNL     1       1.822   0.183   0.020  1.00  0.00     0.278 HD
BRANCH  21  24
HETATM   24  C7  UNL     1       3.162  -1.078  -0.852  1.00  0.00     0.273 C 
BRANCH  24  25
HETATM   25  C6  UNL     1       4.344  -0.174  -0.596  1.00  0.00    -0.008 A 
HETATM   26  C5  UNL     1       5.432  -0.390  -1.424  1.00  0.00     0.042 A 
HETATM   27  C4  UNL     1       6.549   0.398  -1.257  1.00  0.00     0.027 A 
HETATM   28 CL1  UNL     1       5.436  -1.618  -2.665  1.00  0.00    -0.084 Cl
HETATM   29  C3  UNL     1       6.564   1.372  -0.283  1.00  0.00     0.038 A 
HETATM   30  C2  UNL     1       5.464   1.573   0.537  1.00  0.00     0.068 A 
HETATM   31  C24 UNL     1       4.328   0.788   0.384  1.00  0.00     0.047 A 
BRANCH  30  32
HETATM   32  O1  UNL     1       5.484   2.556   1.516  1.00  0.00    -0.356 OA
HETATM   33  C1  UNL     1       6.647   3.341   1.653  1.00  0.00     0.210 C 
ENDBRANCH  30  32
ENDBRANCH  24  25
ENDBRANCH  21  24
ENDBRANCH   1  21
TORSDOF 4
