REMARK  8 active torsions:
REMARK  status: ('A' for Active; 'I' for Inactive)
REMARK    1  A    between atoms: C2_2  and  C3_3 
REMARK    2  A    between atoms: C3_3  and  C4_4 
REMARK    3  A    between atoms: C4_4  and  O1_5 
REMARK    4  A    between atoms: O1_5  and  C5_6 
REMARK    5  A    between atoms: C5_6  and  C6_8 
REMARK    6  A    between atoms: C6_8  and  C8_10 
REMARK    7  A    between atoms: N1_13  and  C11_14 
REMARK    8  A    between atoms: C18_24  and  N2_25 
REMARK       I    between atoms: N2_25  and  C19_27 
ROOT
HETATM    1  C4  UNL     1      -0.391  -0.218  -0.503  1.00  0.00     0.135 C 
HETATM    2  C10 UNL     1      -1.321  -1.254  -0.017  1.00  0.00     0.121 C 
HETATM    3  N1  UNL     1      -0.914  -2.595  -0.018  1.00  0.00    -0.274 N 
HETATM    4  S1  UNL     1       0.645  -3.022   0.215  1.00  0.00     0.265 S 
HETATM    5  O3  UNL     1       1.132  -3.956  -0.879  1.00  0.00    -0.200 OA
HETATM    6  O4  UNL     1       1.001  -3.658   1.523  1.00  0.00    -0.200 OA
HETATM    7  C15 UNL     1       1.662  -1.578   0.100  1.00  0.00     0.089 A 
HETATM    8  C16 UNL     1       3.000  -1.640   0.327  1.00  0.00     0.028 A 
HETATM    9  C17 UNL     1       3.745  -0.469   0.215  1.00  0.00     0.031 A 
HETATM   10  C18 UNL     1       3.199   0.750  -0.116  1.00  0.00     0.035 A 
HETATM   11  C21 UNL     1       1.819   0.718  -0.331  1.00  0.00     0.041 A 
HETATM   12  C22 UNL     1       1.054  -0.424  -0.227  1.00  0.00     0.008 A 
ENDROOT
BRANCH   1  13
HETATM   13  C3  UNL     1      -0.495   0.049  -1.985  1.00  0.00     0.076 C 
BRANCH  13  14
HETATM   14  C2  UNL     1      -0.174  -1.149  -2.800  1.00  0.00    -0.033 C 
HETATM   15  C1  UNL     1      -1.049  -1.687  -3.640  1.00  0.00     0.007 C 
ENDBRANCH  13  14
ENDBRANCH   1  13
BRANCH   1  16
HETATM   16  O1  UNL     1      -0.710   0.985   0.170  1.00  0.00    -0.299 OA
BRANCH  16  17
HETATM   17  C5  UNL     1      -1.892   1.664   0.129  1.00  0.00     0.264 C 
HETATM   18  O2  UNL     1      -2.832   1.215  -0.558  1.00  0.00    -0.265 OA
BRANCH  17  19
HETATM   19  C6  UNL     1      -2.102   2.935   0.882  1.00  0.00     0.081 C 
HETATM   20  C7  UNL     1      -1.936   2.757   2.357  1.00  0.00     0.020 C 
BRANCH  19  21
HETATM   21  C8  UNL     1      -1.106   3.955   0.337  1.00  0.00     0.010 C 
HETATM   22  C9  UNL     1      -1.243   5.277   1.039  1.00  0.00     0.006 C 
ENDBRANCH  19  21
ENDBRANCH  17  19
ENDBRANCH  16  17
ENDBRANCH   1  16
BRANCH   3  23
HETATM   23  C11 UNL     1      -1.955  -3.467   0.424  1.00  0.00     0.036 C 
HETATM   24  C12 UNL     1      -3.109  -3.355  -0.551  1.00  0.00     0.039 C 
HETATM   25  C13 UNL     1      -1.562  -4.913   0.485  1.00  0.00     0.039 C 
HETATM   26  C14 UNL     1      -2.495  -3.086   1.795  1.00  0.00     0.039 C 
ENDBRANCH   3  23
BRANCH  10  27
HETATM   27  N2  UNL     1       3.924   1.946  -0.237  1.00  0.00    -0.327 N 
HETATM   28  C19 UNL     1       5.278   2.126  -0.069  1.00  0.00     0.218 C 
HETATM   29  C20 UNL     1       5.869   3.514  -0.247  1.00  0.00     0.117 C 
HETATM   30  O5  UNL     1       6.123   1.259   0.225  1.00  0.00    -0.274 OA
ATOM     31  H2  UNL     1       3.385   2.778  -0.477  1.00  0.00     0.169 HD
ENDBRANCH  10  27
TORSDOF 8
