REMARK  11 active torsions:
REMARK  status: ('A' for Active; 'I' for Inactive)
REMARK    1  A    between atoms: S1_2  and  C2_3 
REMARK       I    between atoms: C2_3  and  N1_5 
REMARK    2  A    between atoms: N1_5  and  C3_7 
REMARK    3  A    between atoms: C3_7  and  C4_8 
REMARK    4  A    between atoms: C4_8  and  C5_9 
REMARK    5  A    between atoms: C5_9  and  C6_10 
REMARK    6  A    between atoms: C6_10  and  C7_11 
REMARK    7  A    between atoms: C7_11  and  C8_12 
REMARK    8  A    between atoms: C8_12  and  C9_13 
REMARK    9  A    between atoms: C9_13  and  C10_14 
REMARK   10  A    between atoms: C10_14  and  N2_15 
REMARK   11  A    between atoms: N2_15  and  C11_18 
ROOT
HETATM    1  C7  UNL     1      -0.170  -0.967   0.444  1.00  0.00     0.000 C 
ENDROOT
BRANCH   1   2
HETATM    2  C6  UNL     1       1.124  -1.037  -0.266  1.00  0.00     0.000 C 
BRANCH   2   3
HETATM    3  C5  UNL     1       2.066  -0.043   0.406  1.00  0.00     0.002 C 
BRANCH   3   4
HETATM    4  C4  UNL     1       3.454  -0.236  -0.178  1.00  0.00     0.020 C 
BRANCH   4   5
HETATM    5  C3  UNL     1       4.376   0.696   0.534  1.00  0.00     0.123 C 
BRANCH   5   6
HETATM    6  N1  UNL     1       5.756   0.527   0.176  1.00  0.00    -0.352 N 
HETATM    7  C2  UNL     1       6.396  -0.710   0.454  1.00  0.00     0.279 C 
HETATM    8  O1  UNL     1       5.756  -1.658   1.014  1.00  0.00    -0.260 OA
ATOM      9  H1  UNL     1       6.270   1.285  -0.272  1.00  0.00     0.163 HD
BRANCH   7  10
HETATM   10  S1  UNL     1       8.089  -1.041   0.069  1.00  0.00    -0.074 SA
HETATM   11  C1  UNL     1       8.867   0.456  -0.581  1.00  0.00     0.100 C 
ENDBRANCH   7  10
ENDBRANCH   5   6
ENDBRANCH   4   5
ENDBRANCH   3   4
ENDBRANCH   2   3
ENDBRANCH   1   2
BRANCH   1  12
HETATM   12  C8  UNL     1      -0.923   0.285   0.404  1.00  0.00     0.002 C 
BRANCH  12  13
HETATM   13  C9  UNL     1      -1.447   0.676  -0.977  1.00  0.00     0.027 C 
BRANCH  13  14
HETATM   14  C10 UNL     1      -2.270  -0.573  -1.385  1.00  0.00     0.232 C 
BRANCH  14  15
HETATM   15  N2  UNL     1      -3.277  -0.807  -0.407  1.00  0.00    -0.071 N 
ATOM     16  H22 UNL     1      -3.587  -1.778  -0.442  1.00  0.00     0.277 HD
ATOM     17  H21 UNL     1      -2.873  -0.785   0.530  1.00  0.00     0.277 HD
BRANCH  15  18
HETATM   18  C11 UNL     1      -4.386   0.065  -0.484  1.00  0.00     0.185 C 
HETATM   19  C12 UNL     1      -5.657  -0.807  -0.645  1.00  0.00     0.033 C 
HETATM   20  C13 UNL     1      -6.739   0.185  -0.314  1.00  0.00     0.002 C 
HETATM   21  C14 UNL     1      -6.187   0.866   0.919  1.00  0.00     0.002 C 
HETATM   22  C15 UNL     1      -4.701   0.921   0.678  1.00  0.00     0.033 C 
ENDBRANCH  15  18
ENDBRANCH  14  15
ENDBRANCH  13  14
ENDBRANCH  12  13
ENDBRANCH   1  12
TORSDOF 11
