REMARK  5 active torsions:
REMARK  status: ('A' for Active; 'I' for Inactive)
REMARK    1  A    between atoms: C2_2  and  C3_3 
REMARK    2  A    between atoms: C3_3  and  C4_4 
REMARK    3  A    between atoms: C6_13  and  C7_14 
REMARK    4  A    between atoms: C14_21  and  N4_22 
REMARK    5  A    between atoms: C15_24  and  C16_25 
ROOT
HETATM    1  C4  UNL     1      -0.918   1.650  -2.098  1.00  0.00     0.053 A 
HETATM    2  N1  UNL     1      -0.167   2.617  -2.725  1.00  0.00    -0.301 N 
ATOM      3  H1  UNL     1      -0.677   3.394  -3.145  1.00  0.00     0.186 HD
HETATM    4  N2  UNL     1       1.108   2.639  -2.834  1.00  0.00    -0.277 N 
ATOM      5  H2  UNL     1       1.573   3.406  -3.320  1.00  0.00     0.189 HD
HETATM    6  C5  UNL     1       1.823   1.639  -2.299  1.00  0.00     0.199 A 
HETATM    7  O1  UNL     1       3.113   1.379  -2.254  1.00  0.00    -0.217 OA
HETATM    8  N3  UNL     1       3.329   0.277  -1.630  1.00  0.00    -0.262 N 
ATOM      9  H3  UNL     1       4.249  -0.132  -1.469  1.00  0.00     0.194 HD
HETATM   10  C6  UNL     1       2.139  -0.271  -1.211  1.00  0.00     0.053 A 
HETATM   11  C13 UNL     1       1.183   0.609  -1.641  1.00  0.00     0.072 A 
HETATM   12  C14 UNL     1      -0.251   0.605  -1.530  1.00  0.00     0.073 A 
ENDROOT
BRANCH  12  13
HETATM   13  N4  UNL     1      -0.697  -0.390  -0.969  1.00  0.00    -0.363 N 
HETATM   14  C15 UNL     1      -1.779  -1.083  -0.566  1.00  0.00     0.100 C 
ATOM     15  H4  UNL     1       0.113  -0.937  -0.677  1.00  0.00     0.165 HD
BRANCH  14  16
HETATM   16  C16 UNL     1      -2.303  -0.961   0.828  1.00  0.00    -0.021 A 
HETATM   17  C17 UNL     1      -3.447  -1.712   1.142  1.00  0.00     0.016 A 
HETATM   18  C18 UNL     1      -3.982  -1.640   2.409  1.00  0.00     0.043 A 
HETATM   19  C19 UNL     1      -3.399  -0.839   3.355  1.00  0.00     0.116 A 
HETATM   20  F1  UNL     1      -3.953  -0.790   4.595  1.00  0.00    -0.206 F 
HETATM   21  C20 UNL     1      -2.271  -0.101   3.038  1.00  0.00     0.043 A 
HETATM   22  C21 UNL     1      -1.742  -0.177   1.774  1.00  0.00     0.016 A 
ENDBRANCH  14  16
ENDBRANCH  12  13
BRANCH   1  23
HETATM   23  C3  UNL     1      -2.366   1.809  -2.071  1.00  0.00     0.061 C 
BRANCH  23  24
HETATM   24  C2  UNL     1      -2.989   2.451  -0.895  1.00  0.00     0.002 C 
HETATM   25  C1  UNL     1      -2.486   3.869  -0.657  1.00  0.00     0.005 C 
ENDBRANCH  23  24
ENDBRANCH   1  23
BRANCH  10  26
HETATM   26  C7  UNL     1       1.998  -1.515  -0.468  1.00  0.00     0.038 C 
HETATM   27  C8  UNL     1       3.234  -2.392  -0.554  1.00  0.00     0.011 C 
HETATM   28  C9  UNL     1       4.471  -1.843   0.044  1.00  0.00     0.001 C 
HETATM   29  C10 UNL     1       4.238  -1.086   1.331  1.00  0.00     0.000 C 
HETATM   30  C11 UNL     1       2.905  -1.524   1.897  1.00  0.00     0.001 C 
HETATM   31  C12 UNL     1       1.769  -1.214   0.988  1.00  0.00     0.011 C 
ENDBRANCH  10  26
TORSDOF 5
