REMARK  9 active torsions:
REMARK  status: ('A' for Active; 'I' for Inactive)
REMARK    1  A    between atoms: C4_4  and  O1_5 
REMARK    2  A    between atoms: C5_7  and  C6_8 
REMARK    3  A    between atoms: C6_8  and  O2_9 
REMARK    4  A    between atoms: O2_9  and  S1_10 
REMARK    5  A    between atoms: C7_15  and  O7_16 
REMARK    6  A    between atoms: O7_16  and  C8_17 
REMARK    7  A    between atoms: C9_18  and  N1_19 
REMARK    8  A    between atoms: C11_24  and  N2_25 
REMARK    9  A    between atoms: C13_30  and  N3_31 
ROOT
HETATM    1  C8  UNL     1      -1.802   0.172   0.409  1.00  0.00     0.185 C 
HETATM    2  C9  UNL     1      -2.268   1.557   0.094  1.00  0.00     0.216 C 
HETATM    3  C10 UNL     1      -3.778   1.719   0.287  1.00  0.00     0.068 C 
HETATM    4  C11 UNL     1      -4.564   0.777  -0.565  1.00  0.00     0.187 C 
HETATM    5  C12 UNL     1      -3.810  -0.500  -0.835  1.00  0.00     0.068 C 
HETATM    6  C13 UNL     1      -2.946  -0.816   0.364  1.00  0.00     0.216 C 
ENDROOT
BRANCH   1   7
HETATM    7  O7  UNL     1      -0.822  -0.298  -0.459  1.00  0.00    -0.351 OA
BRANCH   7   8
HETATM    8  C7  UNL     1       0.376  -0.562   0.175  1.00  0.00     0.264 C 
HETATM    9  C2  UNL     1       0.789  -2.019   0.066  1.00  0.00     0.039 C 
HETATM   10  C1  UNL     1       1.398  -2.248  -1.299  1.00  0.00     0.015 C 
HETATM   11  C3  UNL     1       1.878  -2.184   1.133  1.00  0.00     0.043 C 
HETATM   12  C4  UNL     1       2.959  -1.176   0.878  1.00  0.00     0.149 C 
HETATM   13  C5  UNL     1       2.468   0.172   0.489  1.00  0.00     0.178 C 
HETATM   14  O6  UNL     1       1.392   0.188  -0.355  1.00  0.00    -0.351 OA
BRANCH  12  15
HETATM   15  O1  UNL     1       3.920  -1.649  -0.023  1.00  0.00    -0.393 OA
ATOM     16  H1  UNL     1       4.605  -1.011  -0.185  1.00  0.00     0.210 HD
ENDBRANCH  12  15
BRANCH  13  17
HETATM   17  C6  UNL     1       3.654   0.953  -0.072  1.00  0.00     0.227 C 
BRANCH  17  18
HETATM   18  O2  UNL     1       4.712   0.885   0.857  1.00  0.00    -0.254 OA
BRANCH  18  19
HETATM   19  S1  UNL     1       6.046   1.721   0.306  1.00  0.00     0.251 S 
HETATM   20  O3  UNL     1       6.027   1.818  -1.211  1.00  0.00    -0.572 OA
HETATM   21  O4  UNL     1       7.332   0.990   0.657  1.00  0.00    -0.572 OA
HETATM   22  O5  UNL     1       6.120   3.260   0.957  1.00  0.00    -0.572 OA
ENDBRANCH  18  19
ENDBRANCH  17  18
ENDBRANCH  13  17
ENDBRANCH   7   8
ENDBRANCH   1   7
BRANCH   2  23
HETATM   23  N1  UNL     1      -1.946   1.990  -1.244  1.00  0.00    -0.072 N 
ATOM     24  H13 UNL     1      -0.945   1.899  -1.420  1.00  0.00     0.274 HD
ATOM     25  H12 UNL     1      -2.302   1.326  -1.932  1.00  0.00     0.274 HD
ATOM     26  H11 UNL     1      -2.264   2.935  -1.459  1.00  0.00     0.274 HD
ENDBRANCH   2  23
BRANCH   6  27
HETATM   27  N3  UNL     1      -3.689  -0.857   1.586  1.00  0.00    -0.072 N 
ATOM     28  H33 UNL     1      -3.077  -1.042   2.380  1.00  0.00     0.274 HD
ATOM     29  H32 UNL     1      -4.019   0.073   1.845  1.00  0.00     0.274 HD
ATOM     30  H31 UNL     1      -4.461  -1.523   1.556  1.00  0.00     0.274 HD
ENDBRANCH   6  27
BRANCH   4  31
HETATM   31  N2  UNL     1      -5.834   0.444   0.059  1.00  0.00    -0.075 N 
ATOM     32  H23 UNL     1      -5.705   0.079   1.003  1.00  0.00     0.274 HD
ATOM     33  H22 UNL     1      -6.371   1.280   0.288  1.00  0.00     0.274 HD
ATOM     34  H21 UNL     1      -6.371  -0.199  -0.523  1.00  0.00     0.274 HD
ENDBRANCH   4  31
TORSDOF 9
