REMARK  9 active torsions:
REMARK  status: ('A' for Active; 'I' for Inactive)
REMARK    1  A    between atoms: C3_4  and  O2_5 
REMARK    2  A    between atoms: C4_7  and  N1_8 
REMARK       I    between atoms: N1_8  and  C5_10 
REMARK    3  A    between atoms: C5_10  and  O4_12 
REMARK    4  A    between atoms: O4_12  and  C6_13 
REMARK    5  A    between atoms: C17_24  and  N2_25 
REMARK       I    between atoms: N2_25  and  C18_27 
REMARK    6  A    between atoms: C18_27  and  O6_29 
REMARK    7  A    between atoms: O6_29  and  C19_30 
REMARK    8  A    between atoms: C23_34  and  O7_35 
REMARK    9  A    between atoms: C24_37  and  O8_38 
ROOT
HETATM    1  C1  UNL     1       0.371  -2.734  -1.518  1.00  0.00     0.042 C 
HETATM    2  C2  UNL     1       0.661  -1.250  -1.668  1.00  0.00     0.152 C 
HETATM    3  O1  UNL     1       1.817  -0.989  -0.993  1.00  0.00    -0.352 OA
HETATM    4  C3  UNL     1       1.789  -0.070   0.012  1.00  0.00     0.280 C 
HETATM    5  C4  UNL     1       3.035  -0.162   0.909  1.00  0.00     0.141 C 
HETATM    6  C10 UNL     1       2.651   0.508   2.225  1.00  0.00     0.030 C 
HETATM    7  C11 UNL     1       1.708  -0.365   3.020  1.00  0.00     0.002 C 
HETATM    8  C12 UNL     1       0.472   0.389   3.443  1.00  0.00     0.000 C 
HETATM    9  C13 UNL     1      -0.728  -0.530   3.574  1.00  0.00     0.000 C 
HETATM   10  C14 UNL     1      -1.864   0.082   2.801  1.00  0.00     0.000 C 
HETATM   11  C15 UNL     1      -2.840  -0.932   2.293  1.00  0.00     0.002 C 
HETATM   12  C16 UNL     1      -2.432  -1.587   0.995  1.00  0.00     0.028 C 
HETATM   13  C17 UNL     1      -2.643  -0.662  -0.192  1.00  0.00     0.118 C 
HETATM   14  C23 UNL     1      -1.803  -1.093  -1.393  1.00  0.00     0.172 C 
HETATM   15  C24 UNL     1      -0.495  -0.357  -1.446  1.00  0.00     0.177 C 
ENDROOT
BRANCH   5  16
HETATM   16  N1  UNL     1       4.057   0.657   0.328  1.00  0.00    -0.328 N 
HETATM   17  C5  UNL     1       5.378   0.243   0.085  1.00  0.00     0.361 C 
HETATM   18  O3  UNL     1       5.700  -0.953   0.403  1.00  0.00    -0.238 OA
ATOM     19  H1  UNL     1       3.807   1.612   0.072  1.00  0.00     0.165 HD
BRANCH  17  20
HETATM   20  O4  UNL     1       6.348   1.028  -0.468  1.00  0.00    -0.294 OA
BRANCH  20  21
HETATM   21  C6  UNL     1       7.681   0.614  -0.712  1.00  0.00     0.061 C 
HETATM   22  C7  UNL     1       8.417   1.780  -1.326  1.00  0.00     0.046 C 
HETATM   23  C8  UNL     1       8.383   0.236   0.581  1.00  0.00     0.046 C 
HETATM   24  C9  UNL     1       7.745  -0.562  -1.646  1.00  0.00     0.046 C 
ENDBRANCH  20  21
ENDBRANCH  17  20
ENDBRANCH   5  16
BRANCH   4  25
HETATM   25  O2  UNL     1       1.780   1.192  -0.572  1.00  0.00    -0.369 OA
ATOM     26  H2  UNL     1       1.760   1.833   0.129  1.00  0.00     0.212 HD
ENDBRANCH   4  25
BRANCH  15  27
HETATM   27  O8  UNL     1      -0.534   0.605  -2.492  1.00  0.00    -0.390 OA
ATOM     28  H8  UNL     1      -1.277   1.179  -2.349  1.00  0.00     0.210 HD
ENDBRANCH  15  27
BRANCH  14  29
HETATM   29  O7  UNL     1      -2.504  -0.789  -2.584  1.00  0.00    -0.391 OA
ATOM     30  H7  UNL     1      -1.982  -1.057  -3.331  1.00  0.00     0.210 HD
ENDBRANCH  14  29
BRANCH  13  31
HETATM   31  N2  UNL     1      -4.032  -0.818  -0.582  1.00  0.00    -0.330 N 
HETATM   32  C18 UNL     1      -4.969   0.240  -0.535  1.00  0.00     0.361 C 
HETATM   33  O5  UNL     1      -4.594   1.365  -0.141  1.00  0.00    -0.238 OA
ATOM     34  H2  UNL     1      -4.347  -1.733  -0.905  1.00  0.00     0.165 HD
BRANCH  32  35
HETATM   35  O6  UNL     1      -6.258   0.032  -0.916  1.00  0.00    -0.294 OA
BRANCH  35  36
HETATM   36  C19 UNL     1      -7.273   1.016  -0.907  1.00  0.00     0.061 C 
HETATM   37  C20 UNL     1      -8.547   0.362  -1.407  1.00  0.00     0.046 C 
HETATM   38  C21 UNL     1      -7.525   1.389   0.538  1.00  0.00     0.046 C 
HETATM   39  C22 UNL     1      -6.948   2.238  -1.689  1.00  0.00     0.046 C 
ENDBRANCH  35  36
ENDBRANCH  32  35
ENDBRANCH  13  31
TORSDOF 9
