REMARK  8 active torsions:
REMARK  status: ('A' for Active; 'I' for Inactive)
REMARK    1  A    between atoms: C2_2  and  O2_4 
REMARK    2  A    between atoms: O2_4  and  C3_5 
REMARK    3  A    between atoms: C4_6  and  O3_7 
REMARK    4  A    between atoms: C15_19  and  O4_20 
REMARK    5  A    between atoms: O4_20  and  C16_21 
REMARK    6  A    between atoms: C19_25  and  O6_26 
REMARK    7  A    between atoms: C20_28  and  O7_29 
REMARK    8  A    between atoms: C21_31  and  O8_32 
ROOT
HETATM    1  C3  UNL     1      -2.089   1.821   0.835  1.00  0.00     0.168 C 
HETATM    2  C4  UNL     1      -0.972   1.619   1.784  1.00  0.00     0.149 C 
HETATM    3  C5  UNL     1      -0.604   0.216   1.877  1.00  0.00     0.046 C 
HETATM    4  C6  UNL     1      -0.593  -0.614   0.579  1.00  0.00    -0.007 C 
HETATM    5  C7  UNL     1      -0.105  -1.982   1.025  1.00  0.00     0.013 C 
HETATM    6  C8  UNL     1      -0.901  -3.175   0.713  1.00  0.00     0.006 C 
HETATM    7  C9  UNL     1      -1.484  -3.401  -0.598  1.00  0.00    -0.010 C 
HETATM    8  C10 UNL     1      -0.824  -4.587  -1.282  1.00  0.00     0.011 C 
HETATM    9  C11 UNL     1      -1.476  -2.291  -1.592  1.00  0.00    -0.040 C 
HETATM   10  C12 UNL     1      -2.195  -2.909  -2.817  1.00  0.00     0.015 C 
HETATM   11  C13 UNL     1      -0.193  -1.806  -2.091  1.00  0.00     0.012 C 
HETATM   12  C14 UNL     1       0.212  -0.413  -1.817  1.00  0.00     0.034 C 
HETATM   13  C15 UNL     1       0.431  -0.071  -0.352  1.00  0.00     0.133 C 
HETATM   14  C22 UNL     1      -2.347  -1.137  -1.207  1.00  0.00     0.015 C 
HETATM   15  C23 UNL     1      -2.014  -0.621   0.150  1.00  0.00     0.008 C 
HETATM   16  C24 UNL     1      -2.853   0.578   0.485  1.00  0.00    -0.014 C 
HETATM   17  C25 UNL     1      -3.853   0.352   1.599  1.00  0.00     0.018 C 
HETATM   18  C26 UNL     1      -3.731   0.949  -0.701  1.00  0.00     0.018 C 
ENDROOT
BRANCH  13  19
HETATM   19  O4  UNL     1       1.716  -0.256  -0.129  1.00  0.00    -0.352 OA
BRANCH  19  20
HETATM   20  C16 UNL     1       2.738   0.499   0.068  1.00  0.00     0.291 C 
HETATM   21  O5  UNL     1       3.499   0.360  -1.114  1.00  0.00    -0.351 OA
HETATM   22  C17 UNL     1       4.718   0.828  -1.219  1.00  0.00     0.152 C 
HETATM   23  C18 UNL     1       5.554  -0.165  -2.050  1.00  0.00     0.042 C 
HETATM   24  C19 UNL     1       5.484   1.283  -0.034  1.00  0.00     0.178 C 
HETATM   25  C20 UNL     1       4.761   1.328   1.250  1.00  0.00     0.183 C 
HETATM   26  C21 UNL     1       3.685   0.234   1.219  1.00  0.00     0.204 C 
BRANCH  24  27
HETATM   27  O6  UNL     1       6.108   2.535  -0.204  1.00  0.00    -0.390 OA
ATOM     28  H6  UNL     1       6.599   2.827   0.555  1.00  0.00     0.210 HD
ENDBRANCH  24  27
BRANCH  25  29
HETATM   29  O7  UNL     1       4.111   2.534   1.501  1.00  0.00    -0.390 OA
ATOM     30  H7  UNL     1       3.645   2.563   2.328  1.00  0.00     0.210 HD
ENDBRANCH  25  29
BRANCH  26  31
HETATM   31  O8  UNL     1       3.112   0.344   2.472  1.00  0.00    -0.388 OA
ATOM     32  H8  UNL     1       3.706   0.178   3.194  1.00  0.00     0.210 HD
ENDBRANCH  26  31
ENDBRANCH  19  20
ENDBRANCH  13  19
BRANCH   2  33
HETATM   33  O3  UNL     1       0.027   2.537   1.530  1.00  0.00    -0.393 OA
ATOM     34  H3  UNL     1       0.744   2.407   2.139  1.00  0.00     0.210 HD
ENDBRANCH   2  33
BRANCH   1  35
HETATM   35  O2  UNL     1      -2.967   2.796   1.412  1.00  0.00    -0.313 OA
BRANCH  35  36
HETATM   36  C2  UNL     1      -3.225   4.028   0.884  1.00  0.00     0.255 C 
HETATM   37  C1  UNL     1      -4.161   5.009   1.545  1.00  0.00     0.126 C 
HETATM   38  O1  UNL     1      -2.659   4.348  -0.193  1.00  0.00    -0.266 OA
ENDBRANCH  35  36
ENDBRANCH   1  35
TORSDOF 8
