REMARK  8 active torsions:
REMARK  status: ('A' for Active; 'I' for Inactive)
REMARK    1  A    between atoms: C4_4  and  C5_5 
REMARK    2  A    between atoms: C5_5  and  C6_6 
REMARK    3  A    between atoms: C11_11  and  C12_12 
REMARK    4  A    between atoms: C13_13  and  C14_14 
REMARK    5  A    between atoms: C15_15  and  C16_16 
REMARK    6  A    between atoms: C17_17  and  C18_18 
REMARK    7  A    between atoms: C19_19  and  C20_20 
REMARK    8  A    between atoms: C21_21  and  C22_22 
ROOT
HETATM    1  C6  UNL     1      -4.197   0.531  -1.097  1.00  0.00    -0.016 C 
HETATM    2  C7  UNL     1      -5.642   0.297  -1.459  1.00  0.00     0.020 C 
HETATM    3  C8  UNL     1      -3.375  -0.548  -1.811  1.00  0.00    -0.016 C 
HETATM    4  C9  UNL     1      -2.049  -0.676  -2.003  1.00  0.00     0.004 C 
HETATM    5  C10 UNL     1      -1.097   0.357  -1.475  1.00  0.00    -0.058 C 
HETATM    6  C11 UNL     1       0.058  -0.163  -1.188  1.00  0.00     0.007 C 
HETATM    7  C23 UNL     1      -1.214   1.772  -1.246  1.00  0.00     0.039 C 
HETATM    8  C24 UNL     1      -2.454   2.486  -1.884  1.00  0.00     0.014 C 
HETATM    9  C25 UNL     1      -3.506   1.673  -1.518  1.00  0.00    -0.036 C 
HETATM   10  C26 UNL     1      -4.058   1.596  -2.862  1.00  0.00     0.016 C 
HETATM   11  C27 UNL     1      -3.767   2.412  -0.296  1.00  0.00     0.016 C 
ENDROOT
BRANCH   6  12
HETATM   12  C12 UNL     1       1.139   0.670  -0.655  1.00  0.00     0.001 C 
HETATM   13  C13 UNL     1       2.299   0.047  -0.392  1.00  0.00     0.000 C 
BRANCH  13  14
HETATM   14  C14 UNL     1       3.394   0.817   0.132  1.00  0.00     0.000 C 
HETATM   15  C15 UNL     1       4.553   0.292   0.414  1.00  0.00     0.000 C 
BRANCH  15  16
HETATM   16  C16 UNL     1       4.890  -1.111   0.244  1.00  0.00     0.000 C 
HETATM   17  C17 UNL     1       6.036  -1.657   0.515  1.00  0.00     0.000 C 
BRANCH  17  18
HETATM   18  C18 UNL     1       7.176  -0.901   1.045  1.00  0.00     0.000 C 
HETATM   19  C19 UNL     1       8.305  -1.553   1.290  1.00  0.00     0.000 C 
BRANCH  19  20
HETATM   20  C20 UNL     1       9.454  -0.847   1.812  1.00  0.00     0.007 C 
HETATM   21  C21 UNL     1      10.571  -1.517   2.050  1.00  0.00     0.084 C 
BRANCH  21  22
HETATM   22  C22 UNL     1      11.721  -0.805   2.573  1.00  0.00     0.198 C 
HETATM   23  O1  UNL     1      12.777  -1.443   2.797  1.00  0.00    -0.645 OA
HETATM   24  O2  UNL     1      11.654   0.540   2.820  1.00  0.00    -0.645 OA
ENDBRANCH  21  22
ENDBRANCH  19  20
ENDBRANCH  17  18
ENDBRANCH  15  16
ENDBRANCH  13  14
ENDBRANCH   6  12
BRANCH   1  25
HETATM   25  C5  UNL     1      -4.244   0.102   0.377  1.00  0.00     0.041 C 
BRANCH  25  26
HETATM   26  C4  UNL     1      -4.657  -1.283   0.600  1.00  0.00    -0.024 C 
HETATM   27  C2  UNL     1      -5.699  -1.534   1.375  1.00  0.00    -0.091 C 
HETATM   28  C1  UNL     1      -6.164  -2.949   1.634  1.00  0.00     0.042 C 
HETATM   29  C3  UNL     1      -6.482  -0.460   2.050  1.00  0.00     0.042 C 
ENDBRANCH  25  26
ENDBRANCH   1  25
TORSDOF 8
