REMARK  6 active torsions:
REMARK  status: ('A' for Active; 'I' for Inactive)
REMARK    1  A    between atoms: C2_2  and  C3_3 
REMARK    2  A    between atoms: C14_14  and  C15_15 
REMARK    3  A    between atoms: C15_15  and  C16_16 
REMARK    4  A    between atoms: C16_16  and  C17_17 
REMARK    5  A    between atoms: C17_17  and  C18_18 
REMARK    6  A    between atoms: C24_27  and  C25_28 
ROOT
HETATM    1  C3  UNL     1       4.222   0.394  -0.385  1.00  0.00    -0.026 C 
HETATM    2  C4  UNL     1       4.812   0.178  -1.779  1.00  0.00     0.019 C 
HETATM    3  C5  UNL     1       3.266   1.509  -0.417  1.00  0.00     0.017 C 
HETATM    4  C6  UNL     1       1.844   1.254  -0.778  1.00  0.00     0.037 C 
HETATM    5  C7  UNL     1       1.502  -0.209  -0.589  1.00  0.00    -0.058 C 
HETATM    6  C8  UNL     1       2.278  -0.647   0.580  1.00  0.00     0.044 C 
HETATM    7  C9  UNL     1       3.712  -0.909   0.189  1.00  0.00     0.026 C 
HETATM    8  C10 UNL     1       1.647  -1.725   1.328  1.00  0.00    -0.081 C 
HETATM    9  C11 UNL     1       2.261  -2.845   1.579  1.00  0.00     0.015 C 
HETATM   10  C12 UNL     1       0.258  -1.641   1.877  1.00  0.00     0.035 C 
HETATM   11  C13 UNL     1      -0.402  -0.296   1.504  1.00  0.00     0.016 C 
HETATM   12  C14 UNL     1      -0.980  -0.502   0.139  1.00  0.00     0.054 C 
HETATM   13  C24 UNL     1       0.118  -0.604  -0.825  1.00  0.00     0.028 C 
ENDROOT
BRANCH  12  14
HETATM   14  C15 UNL     1      -2.146   0.405  -0.202  1.00  0.00     0.037 C 
HETATM   15  C20 UNL     1      -2.775   0.116  -1.542  1.00  0.00     0.032 C 
HETATM   16  C21 UNL     1      -3.741   1.183  -1.975  1.00  0.00     0.007 C 
HETATM   17  C22 UNL     1      -3.105   2.538  -2.178  1.00  0.00     0.044 C 
HETATM   18  C23 UNL     1      -1.805   2.488  -1.433  1.00  0.00     0.056 C 
HETATM   19  N1  UNL     1      -1.790   1.781  -0.237  1.00  0.00    -0.392 N 
ATOM     20  H1  UNL     1      -1.521   2.254   0.625  1.00  0.00     0.159 HD
BRANCH  14  21
HETATM   21  C16 UNL     1      -3.277   0.254   0.811  1.00  0.00     0.034 C 
BRANCH  21  22
HETATM   22  C17 UNL     1      -3.876  -1.070   0.963  1.00  0.00     0.036 C 
BRANCH  22  23
HETATM   23  C18 UNL     1      -4.994  -1.190   1.972  1.00  0.00     0.145 A 
HETATM   24  C19 UNL     1      -4.743  -0.868   3.408  1.00  0.00     0.200 A 
HETATM   25  O1  UNL     1      -5.479  -0.034   2.576  1.00  0.00    -0.381 OA
ENDBRANCH  22  23
ENDBRANCH  21  22
ENDBRANCH  14  21
ENDBRANCH  12  14
BRANCH  13  26
HETATM   26  C25 UNL     1       0.117  -1.934  -1.499  1.00  0.00     0.205 C 
HETATM   27  O2  UNL     1       1.189  -2.460  -1.850  1.00  0.00    -0.644 OA
HETATM   28  O3  UNL     1      -1.059  -2.607  -1.749  1.00  0.00    -0.644 OA
ENDBRANCH  13  26
BRANCH   1  29
HETATM   29  C2  UNL     1       5.381   0.797   0.468  1.00  0.00    -0.028 C 
HETATM   30  C1  UNL     1       5.727   2.054   0.585  1.00  0.00     0.007 C 
ENDBRANCH   1  29
TORSDOF 6
