REMARK  7 active torsions:
REMARK  status: ('A' for Active; 'I' for Inactive)
REMARK    1  A    between atoms: N1_14  and  C14_15 
REMARK    2  A    between atoms: C20_21  and  C22_23 
REMARK    3  A    between atoms: C22_23  and  C23_24 
REMARK    4  A    between atoms: C23_24  and  C24_25 
REMARK    5  A    between atoms: C24_25  and  O1_26 
REMARK    6  A    between atoms: O1_26  and  C25_27 
REMARK    7  A    between atoms: C25_27  and  O2_28 
ROOT
HETATM    1  C1  UNL     1       0.605   1.613  -1.552  1.00  0.00     0.015 C 
HETATM    2  C2  UNL     1       0.204   0.434  -1.150  1.00  0.00    -0.080 C 
HETATM    3  C3  UNL     1      -1.190  -0.059  -1.553  1.00  0.00     0.040 C 
HETATM    4  C4  UNL     1      -1.481  -1.227  -0.665  1.00  0.00     0.007 C 
HETATM    5  C5  UNL     1      -0.538  -0.996   0.478  1.00  0.00     0.007 C 
HETATM    6  C6  UNL     1      -0.934   0.162   1.319  1.00  0.00     0.033 C 
HETATM    7  C7  UNL     1      -2.388   0.405   1.424  1.00  0.00    -0.022 C 
HETATM    8  C8  UNL     1      -3.302  -0.254   0.757  1.00  0.00    -0.064 C 
HETATM    9  C9  UNL     1      -2.894  -1.317  -0.170  1.00  0.00    -0.016 C 
HETATM   10  C10 UNL     1      -3.031  -2.703   0.457  1.00  0.00     0.020 C 
HETATM   11  C11 UNL     1      -3.865  -1.304  -1.335  1.00  0.00     0.016 C 
HETATM   12  C12 UNL     1      -5.222  -1.661  -0.742  1.00  0.00     0.038 C 
HETATM   13  C13 UNL     1      -5.694  -0.488   0.040  1.00  0.00     0.235 C 
HETATM   14  N1  UNL     1      -6.137   0.523  -0.895  1.00  0.00     0.093 N 
HETATM   15  C16 UNL     1      -5.518   1.758  -0.553  1.00  0.00     0.274 C 
HETATM   16  C17 UNL     1      -4.964   1.594   0.826  1.00  0.00     0.046 C 
HETATM   17  C18 UNL     1      -4.732   0.122   0.985  1.00  0.00     0.013 C 
HETATM   18  C19 UNL     1      -5.069  -0.234   2.436  1.00  0.00     0.022 C 
HETATM   19  C20 UNL     1       0.777  -0.648  -0.353  1.00  0.00    -0.017 C 
HETATM   20  C21 UNL     1       0.994  -1.856  -1.215  1.00  0.00     0.020 C 
ENDROOT
BRANCH  19  21
HETATM   21  C22 UNL     1       1.770  -0.359   0.674  1.00  0.00     0.016 C 
BRANCH  21  22
HETATM   22  C23 UNL     1       3.052   0.316   0.398  1.00  0.00     0.027 C 
BRANCH  22  23
HETATM   23  C24 UNL     1       3.969  -0.337  -0.596  1.00  0.00     0.171 C 
BRANCH  23  24
HETATM   24  O1  UNL     1       5.130   0.229  -0.891  1.00  0.00    -0.355 OA
BRANCH  24  25
HETATM   25  C25 UNL     1       6.172   0.500  -0.149  1.00  0.00     0.163 C 
HETATM   26  C27 UNL     1       6.864  -0.629   0.584  1.00  0.00     0.068 C 
HETATM   27  C28 UNL     1       8.189  -0.162   1.040  1.00  0.00     0.005 C 
HETATM   28  C29 UNL     1       8.473   1.280   1.113  1.00  0.00     0.000 C 
HETATM   29  C30 UNL     1       7.321   2.215   1.221  1.00  0.00     0.005 C 
HETATM   30  C31 UNL     1       5.987   1.556   0.935  1.00  0.00     0.068 C 
BRANCH  25  31
HETATM   31  O2  UNL     1       7.146   1.099  -1.039  1.00  0.00    -0.360 OA
HETATM   32  C26 UNL     1       7.468   0.214  -2.062  1.00  0.00     0.205 C 
ENDBRANCH  25  31
ENDBRANCH  24  25
ENDBRANCH  23  24
ENDBRANCH  22  23
ENDBRANCH  21  22
ENDBRANCH  19  21
BRANCH  14  33
HETATM   33  C14 UNL     1      -7.564   0.580  -1.022  1.00  0.00     0.268 C 
HETATM   34  C15 UNL     1      -8.276   1.073   0.200  1.00  0.00     0.037 C 
ENDBRANCH  14  33
TORSDOF 7
