REMARK  12 active torsions:
REMARK  status: ('A' for Active; 'I' for Inactive)
REMARK    1  A    between atoms: C4_4  and  C5_5 
REMARK    2  A    between atoms: C5_5  and  O2_7 
REMARK    3  A    between atoms: O2_7  and  C6_8 
REMARK    4  A    between atoms: C6_8  and  C21_28 
REMARK    5  A    between atoms: C7_9  and  C8_10 
REMARK    6  A    between atoms: C9_11  and  C10_12 
REMARK    7  A    between atoms: C11_13  and  O3_14 
REMARK    8  A    between atoms: C14_18  and  O4_19 
REMARK    9  A    between atoms: C18_24  and  C19_25 
REMARK   10  A    between atoms: C21_28  and  C22_29 
REMARK   11  A    between atoms: C22_29  and  C23_31 
REMARK   12  A    between atoms: C23_31  and  C24_32 
ROOT
HETATM    1  C8  UNL     1       0.098  -1.985  -0.819  1.00  0.00    -0.001 C 
HETATM    2  C9  UNL     1       1.410  -1.852  -0.914  1.00  0.00    -0.019 C 
ENDROOT
BRANCH   1   3
HETATM    3  C7  UNL     1      -0.784  -1.088  -0.132  1.00  0.00     0.033 C 
HETATM    4  C6  UNL     1      -2.088  -1.191  -0.021  1.00  0.00     0.059 C 
BRANCH   4   5
HETATM    5  O2  UNL     1      -2.809  -0.203   0.703  1.00  0.00    -0.280 OA
BRANCH   5   6
HETATM    6  C5  UNL     1      -3.223   0.924  -0.035  1.00  0.00     0.288 C 
HETATM    7  O1  UNL     1      -2.907   0.925  -1.251  1.00  0.00    -0.260 OA
BRANCH   6   8
HETATM    8  C4  UNL     1      -3.962   1.976   0.625  1.00  0.00     0.084 C 
HETATM    9  C2  UNL     1      -4.366   3.038  -0.020  1.00  0.00    -0.082 C 
HETATM   10  C1  UNL     1      -5.130   4.105   0.703  1.00  0.00     0.043 C 
HETATM   11  C3  UNL     1      -4.093   3.223  -1.454  1.00  0.00     0.043 C 
ENDBRANCH   6   8
ENDBRANCH   5   6
ENDBRANCH   4   5
BRANCH   4  12
HETATM   12  C21 UNL     1      -2.852  -2.289  -0.622  1.00  0.00     0.102 C 
BRANCH  12  13
HETATM   13  C22 UNL     1      -3.460  -3.251   0.350  1.00  0.00     0.186 C 
HETATM   14  F1  UNL     1      -4.127  -4.213  -0.420  1.00  0.00    -0.248 F 
BRANCH  13  15
HETATM   15  C23 UNL     1      -4.410  -2.636   1.296  1.00  0.00     0.150 C 
BRANCH  15  16
HETATM   16  C24 UNL     1      -5.573  -2.032   0.666  1.00  0.00     0.175 C 
HETATM   17  O5  UNL     1      -5.833  -2.094  -0.548  1.00  0.00    -0.648 OA
HETATM   18  O6  UNL     1      -6.497  -1.315   1.458  1.00  0.00    -0.648 OA
ENDBRANCH  15  16
ENDBRANCH  13  15
ENDBRANCH  12  13
ENDBRANCH   4  12
ENDBRANCH   1   3
BRANCH   2  19
HETATM   19  C10 UNL     1       2.232  -0.784  -0.350  1.00  0.00     0.047 C 
HETATM   20  C11 UNL     1       2.821   0.014  -1.531  1.00  0.00     0.131 C 
HETATM   21  C12 UNL     1       3.558   1.221  -1.047  1.00  0.00     0.028 C 
HETATM   22  C13 UNL     1       4.833   1.580  -1.745  1.00  0.00     0.040 C 
HETATM   23  C15 UNL     1       4.416   0.767   0.134  1.00  0.00    -0.007 C 
HETATM   24  C14 UNL     1       5.484   1.660  -0.354  1.00  0.00     0.127 C 
HETATM   25  C16 UNL     1       3.751   1.031   1.420  1.00  0.00     0.013 C 
HETATM   26  C20 UNL     1       4.643  -0.705   0.058  1.00  0.00     0.024 C 
HETATM   27  C17 UNL     1       3.256  -0.349   1.881  1.00  0.00     0.012 C 
HETATM   28  C18 UNL     1       3.295  -1.206   0.605  1.00  0.00    -0.018 C 
BRANCH  20  29
HETATM   29  O3  UNL     1       1.683   0.488  -2.227  1.00  0.00    -0.394 OA
ATOM     30  H3  UNL     1       2.046   0.980  -2.954  1.00  0.00     0.210 HD
ENDBRANCH  20  29
BRANCH  24  31
HETATM   31  O4  UNL     1       5.485   2.950   0.126  1.00  0.00    -0.395 OA
ATOM     32  H4  UNL     1       5.887   2.999   0.985  1.00  0.00     0.210 HD
ENDBRANCH  24  31
BRANCH  28  33
HETATM   33  C19 UNL     1       3.367  -2.655   0.922  1.00  0.00     0.124 C 
HETATM   34 CL1  UNL     1       1.886  -3.283   1.658  1.00  0.00    -0.130 Cl
ENDBRANCH  28  33
ENDBRANCH   2  19
TORSDOF 12
