REMARK  10 active torsions:
REMARK  status: ('A' for Active; 'I' for Inactive)
REMARK    1  A    between atoms: N1_2  and  C2_3 
REMARK    2  A    between atoms: N1_2  and  C20_34 
REMARK    3  A    between atoms: C2_3  and  C3_4 
REMARK    4  A    between atoms: C3_4  and  C4_5 
REMARK    5  A    between atoms: C4_5  and  C5_6 
REMARK    6  A    between atoms: C5_6  and  C6_7 
REMARK    7  A    between atoms: C6_7  and  N2_8 
REMARK    8  A    between atoms: C6_7  and  C7_12 
REMARK       I    between atoms: C7_12  and  N3_14 
REMARK    9  A    between atoms: C12_19  and  C13_20 
REMARK       I    between atoms: C13_20  and  N4_22 
REMARK   10  A    between atoms: C18_29  and  C19_30 
ROOT
HETATM    1  C7  UNL     1       0.697  -0.916  -1.355  1.00  0.00     0.266 C 
HETATM    2  O1  UNL     1       0.148  -1.332  -2.406  1.00  0.00    -0.270 OA
HETATM    3  N3  UNL     1       1.842  -1.568  -0.902  1.00  0.00    -0.263 N 
HETATM    4  C8  UNL     1       2.348  -2.719  -1.640  1.00  0.00     0.148 C 
HETATM    5  C9  UNL     1       2.761  -3.754  -0.625  1.00  0.00     0.022 C 
HETATM    6  C10 UNL     1       3.817  -3.299   0.318  1.00  0.00     0.004 C 
HETATM    7  C11 UNL     1       4.617  -2.112  -0.100  1.00  0.00     0.033 C 
HETATM    8  C12 UNL     1       3.857  -0.802  -0.093  1.00  0.00     0.191 C 
HETATM    9  N5  UNL     1       2.448  -1.047   0.233  1.00  0.00    -0.122 NA
ENDROOT
BRANCH   1  10
HETATM   10  C6  UNL     1       0.147   0.239  -0.616  1.00  0.00     0.276 C 
BRANCH  10  11
HETATM   11  C5  UNL     1      -0.518  -0.120   0.681  1.00  0.00     0.043 C 
BRANCH  11  12
HETATM   12  C4  UNL     1      -1.721  -0.957   0.631  1.00  0.00     0.004 C 
BRANCH  12  13
HETATM   13  C3  UNL     1      -2.937  -0.390  -0.073  1.00  0.00     0.030 C 
BRANCH  13  14
HETATM   14  C2  UNL     1      -3.437   0.842   0.586  1.00  0.00     0.272 C 
BRANCH  14  15
HETATM   15  N1  UNL     1      -4.585   1.505  -0.045  1.00  0.00     0.088 N 
HETATM   16  C1  UNL     1      -4.733   2.687   0.893  1.00  0.00     0.310 C 
BRANCH  15  17
HETATM   17  C20 UNL     1      -5.815   0.743   0.109  1.00  0.00     0.222 C 
HETATM   18  C21 UNL     1      -7.025   1.686  -0.143  1.00  0.00     0.036 C 
HETATM   19  C22 UNL     1      -8.225   0.885   0.366  1.00  0.00     0.002 C 
HETATM   20  C23 UNL     1      -8.801   0.041  -0.730  1.00  0.00     0.000 C 
HETATM   21  C24 UNL     1      -8.265  -1.353  -0.773  1.00  0.00     0.000 C 
HETATM   22  C25 UNL     1      -6.797  -1.479  -0.463  1.00  0.00     0.002 C 
HETATM   23  C26 UNL     1      -5.995  -0.301  -0.980  1.00  0.00     0.036 C 
ENDBRANCH  15  17
ENDBRANCH  14  15
ENDBRANCH  13  14
ENDBRANCH  12  13
ENDBRANCH  11  12
ENDBRANCH  10  11
BRANCH  10  24
HETATM   24  N2  UNL     1      -0.746   0.988  -1.495  1.00  0.00    -0.066 N 
ATOM     25  H23 UNL     1      -1.619   0.485  -1.652  1.00  0.00     0.275 HD
ATOM     26  H22 UNL     1      -1.119   1.814  -1.028  1.00  0.00     0.275 HD
ATOM     27  H21 UNL     1      -0.294   1.232  -2.376  1.00  0.00     0.275 HD
ENDBRANCH  10  24
ENDBRANCH   1  10
BRANCH   8  28
HETATM   28  C13 UNL     1       4.430   0.176   0.859  1.00  0.00     0.241 C 
HETATM   29  O2  UNL     1       3.690   0.511   1.855  1.00  0.00    -0.271 OA
HETATM   30  N4  UNL     1       5.707   0.752   0.745  1.00  0.00    -0.336 N 
HETATM   31  C14 UNL     1       6.132   1.672   1.815  1.00  0.00     0.133 C 
HETATM   32  C18 UNL     1       6.571   0.500  -0.370  1.00  0.00     0.193 C 
HETATM   33  C15 UNL     1       6.944   2.819   1.281  1.00  0.00     0.099 C 
HETATM   34  C16 UNL     1       8.070   2.363   0.389  1.00  0.00     0.247 C 
HETATM   35  F1  UNL     1       8.082   3.078  -0.789  1.00  0.00    -0.206 F 
HETATM   36  F2  UNL     1       9.318   2.557   0.975  1.00  0.00    -0.206 F 
HETATM   37  C17 UNL     1       7.977   0.879   0.082  1.00  0.00     0.115 C 
BRANCH  32  38
HETATM   38  C19 UNL     1       6.198   1.354  -1.551  1.00  0.00     0.197 C 
HETATM   39  O3  UNL     1       5.245   2.141  -1.435  1.00  0.00    -0.646 OA
HETATM   40  O4  UNL     1       6.883   1.286  -2.750  1.00  0.00    -0.646 OA
ENDBRANCH  32  38
ENDBRANCH   8  28
TORSDOF 10
