REMARK  14 active torsions:
REMARK  status: ('A' for Active; 'I' for Inactive)
REMARK    1  A    between atoms: C2_2  and  C3_3 
REMARK    2  A    between atoms: C3_3  and  O1_4 
REMARK    3  A    between atoms: C3_3  and  C4_6 
REMARK    4  A    between atoms: C4_6  and  N1_7 
REMARK    5  A    between atoms: C4_6  and  C5_11 
REMARK       I    between atoms: C5_11  and  N2_13 
REMARK    6  A    between atoms: N2_13  and  C6_15 
REMARK    7  A    between atoms: C6_15  and  C7_16 
REMARK    8  A    between atoms: C6_15  and  C14_27 
REMARK       I    between atoms: C7_16  and  N3_18 
REMARK    9  A    between atoms: C8_20  and  C9_21 
REMARK   10  A    between atoms: N5_30  and  C17_31 
REMARK   11  A    between atoms: C17_31  and  O4_32 
REMARK   12  A    between atoms: C17_31  and  C18_34 
REMARK   13  A    between atoms: C18_34  and  C19_37 
REMARK   14  A    between atoms: C21_39  and  C22_40 
ROOT
HETATM    1  C6  UNL     1       1.235   1.140   0.306  1.00  0.00     0.181 C 
ENDROOT
BRANCH   1   2
HETATM    2  N2  UNL     1       1.626   2.315   1.074  1.00  0.00    -0.346 N 
HETATM    3  C5  UNL     1       1.810   3.603   0.513  1.00  0.00     0.251 C 
HETATM    4  O2  UNL     1       1.620   3.737  -0.718  1.00  0.00    -0.271 OA
ATOM      5  H2  UNL     1       1.776   2.203   2.077  1.00  0.00     0.163 HD
BRANCH   3   6
HETATM    6  C4  UNL     1       2.207   4.758   1.323  1.00  0.00     0.303 C 
BRANCH   6   7
HETATM    7  C3  UNL     1       3.529   5.313   0.872  1.00  0.00     0.157 C 
BRANCH   7   8
HETATM    8  C2  UNL     1       3.513   5.979  -0.464  1.00  0.00     0.030 C 
HETATM    9  C1  UNL     1       4.848   6.710  -0.609  1.00  0.00     0.007 C 
ENDBRANCH   7   8
BRANCH   7  10
HETATM   10  O1  UNL     1       4.575   4.400   0.988  1.00  0.00    -0.393 OA
ATOM     11  H1  UNL     1       4.585   3.976   1.838  1.00  0.00     0.210 HD
ENDBRANCH   7  10
ENDBRANCH   6   7
BRANCH   6  12
HETATM   12  N1  UNL     1       2.384   4.391   2.729  1.00  0.00    -0.064 N 
ATOM     13  H13 UNL     1       3.168   3.758   2.889  1.00  0.00     0.275 HD
ATOM     14  H12 UNL     1       2.724   5.157   3.310  1.00  0.00     0.275 HD
ATOM     15  H11 UNL     1       1.487   4.014   3.035  1.00  0.00     0.275 HD
ENDBRANCH   6  12
ENDBRANCH   3   6
ENDBRANCH   1   2
BRANCH   1  16
HETATM   16  C7  UNL     1       2.350   0.189   0.407  1.00  0.00     0.244 C 
HETATM   17  O3  UNL     1       3.345   0.490   1.116  1.00  0.00    -0.271 OA
HETATM   18  N3  UNL     1       2.413  -1.070  -0.237  1.00  0.00    -0.335 N 
HETATM   19  C8  UNL     1       3.069  -2.075   0.290  1.00  0.00     0.103 C 
ATOM     20  H3  UNL     1       1.938  -1.198  -1.130  1.00  0.00     0.168 HD
BRANCH  19  21
HETATM   21  C9  UNL     1       3.133  -3.352  -0.365  1.00  0.00    -0.004 A 
HETATM   22  C10 UNL     1       3.806  -4.453   0.147  1.00  0.00     0.031 A 
HETATM   23  C11 UNL     1       3.613  -5.453  -0.795  1.00  0.00     0.091 A 
HETATM   24  N4  UNL     1       2.861  -4.942  -1.802  1.00  0.00    -0.370 N 
HETATM   25  C12 UNL     1       2.444  -5.682  -2.982  1.00  0.00     0.154 C 
HETATM   26  C13 UNL     1       2.554  -3.671  -1.571  1.00  0.00     0.102 A 
ENDBRANCH  19  21
ENDBRANCH   1  16
BRANCH   1  27
HETATM   27  C14 UNL     1      -0.065   0.577   0.834  1.00  0.00     0.021 C 
HETATM   28  C15 UNL     1      -1.177   1.630   0.743  1.00  0.00     0.027 C 
HETATM   29  C16 UNL     1      -2.033   1.387  -0.435  1.00  0.00     0.126 C 
HETATM   30  N5  UNL     1      -2.739   0.018  -0.355  1.00  0.00    -0.355 N 
HETATM   31  C21 UNL     1      -2.052  -0.795   0.533  1.00  0.00     0.094 C 
HETATM   32  C26 UNL     1      -0.536  -0.652   0.102  1.00  0.00     0.033 C 
BRANCH  30  33
HETATM   33  C17 UNL     1      -3.834   0.039  -1.195  1.00  0.00     0.188 C 
BRANCH  33  34
HETATM   34  O4  UNL     1      -3.923   1.201  -1.863  1.00  0.00    -0.345 OA
ATOM     35  H4  UNL     1      -4.677   1.215  -2.441  1.00  0.00     0.219 HD
ENDBRANCH  33  34
BRANCH  33  36
HETATM   36  C18 UNL     1      -4.934  -0.823  -1.572  1.00  0.00     0.306 C 
HETATM   37  F1  UNL     1      -4.686  -2.117  -1.908  1.00  0.00    -0.197 F 
HETATM   38  F2  UNL     1      -5.519  -0.324  -2.805  1.00  0.00    -0.197 F 
BRANCH  36  39
HETATM   39  C19 UNL     1      -6.147  -0.762  -0.647  1.00  0.00     0.084 C 
HETATM   40  C20 UNL     1      -7.201  -1.708  -1.155  1.00  0.00     0.012 C 
ENDBRANCH  36  39
ENDBRANCH  33  36
ENDBRANCH  30  33
BRANCH  31  41
HETATM   41  C22 UNL     1      -2.260  -2.215   0.829  1.00  0.00    -0.031 C 
HETATM   42  C23 UNL     1      -1.196  -2.531   1.941  1.00  0.00     0.016 C 
HETATM   43  C24 UNL     1      -1.888  -3.186  -0.263  1.00  0.00     0.016 C 
HETATM   44  C25 UNL     1      -3.545  -2.523   1.513  1.00  0.00     0.016 C 
ENDBRANCH  31  41
ENDBRANCH   1  27
TORSDOF 14
