REMARK  11 active torsions:
REMARK  status: ('A' for Active; 'I' for Inactive)
REMARK       I    between atoms: C2_2  and  N1_4 
REMARK    1  A    between atoms: N1_4  and  C3_6 
REMARK    2  A    between atoms: C6_9  and  S1_10 
REMARK    3  A    between atoms: S1_10  and  N2_13 
REMARK    4  A    between atoms: N2_13  and  C7_15 
REMARK    5  A    between atoms: C7_15  and  C8_16 
REMARK    6  A    between atoms: C7_15  and  C19_34 
REMARK       I    between atoms: C8_16  and  N3_18 
REMARK    7  A    between atoms: N3_18  and  C9_20 
REMARK    8  A    between atoms: C9_20  and  C10_21 
REMARK    9  A    between atoms: C9_20  and  C15_30 
REMARK       I    between atoms: C10_21  and  N4_23 
REMARK   10  A    between atoms: N4_23  and  C11_24 
REMARK   11  A    between atoms: N4_23  and  C14_27 
ROOT
HETATM    1  C7  UNL     1       0.611  -0.491  -0.151  1.00  0.00     0.192 C 
ENDROOT
BRANCH   1   2
HETATM    2  N2  UNL     1       1.484   0.517  -0.752  1.00  0.00    -0.301 N 
ATOM      3  H2  UNL     1       1.548   1.469  -0.392  1.00  0.00     0.173 HD
BRANCH   2   4
HETATM    4  S1  UNL     1       2.379  -0.007  -2.084  1.00  0.00     0.259 S 
HETATM    5  O2  UNL     1       2.197   0.956  -3.238  1.00  0.00    -0.201 OA
HETATM    6  O3  UNL     1       2.023  -1.397  -2.535  1.00  0.00    -0.201 OA
BRANCH   4   7
HETATM    7  C6  UNL     1       4.083  -0.033  -1.707  1.00  0.00     0.079 A 
HETATM    8  C5  UNL     1       4.730  -1.212  -1.374  1.00  0.00     0.027 A 
HETATM    9  C4  UNL     1       6.061  -1.262  -1.069  1.00  0.00     0.031 A 
HETATM   10  C3  UNL     1       6.849  -0.108  -1.079  1.00  0.00     0.034 A 
HETATM   11  C24 UNL     1       6.220   1.045  -1.404  1.00  0.00     0.031 A 
HETATM   12  C23 UNL     1       4.855   1.097  -1.716  1.00  0.00     0.027 A 
BRANCH  10  13
HETATM   13  N1  UNL     1       8.208  -0.203  -0.742  1.00  0.00    -0.328 N 
HETATM   14  C2  UNL     1       9.152   0.818  -0.923  1.00  0.00     0.218 C 
HETATM   15  C1  UNL     1      10.602   0.568  -0.501  1.00  0.00     0.117 C 
HETATM   16  O1  UNL     1       8.950   1.945  -1.402  1.00  0.00    -0.274 OA
ATOM     17  H1  UNL     1       8.533  -1.080  -0.335  1.00  0.00     0.169 HD
ENDBRANCH  10  13
ENDBRANCH   4   7
ENDBRANCH   2   4
ENDBRANCH   1   2
BRANCH   1  18
HETATM   18  C8  UNL     1      -0.775  -0.015  -0.345  1.00  0.00     0.242 C 
HETATM   19  O4  UNL     1      -0.977   1.133  -0.774  1.00  0.00    -0.271 OA
HETATM   20  N3  UNL     1      -1.880  -0.824  -0.061  1.00  0.00    -0.345 N 
ATOM     21  H3  UNL     1      -1.725  -1.771   0.285  1.00  0.00     0.163 HD
BRANCH  20  22
HETATM   22  C9  UNL     1      -3.268  -0.345  -0.248  1.00  0.00     0.184 C 
BRANCH  22  23
HETATM   23  C10 UNL     1      -3.959  -0.323   1.064  1.00  0.00     0.247 C 
HETATM   24  O5  UNL     1      -3.780  -1.328   1.868  1.00  0.00    -0.271 OA
HETATM   25  N4  UNL     1      -4.800   0.685   1.555  1.00  0.00    -0.290 N 
BRANCH  25  26
HETATM   26  C11 UNL     1      -5.110   1.894   0.854  1.00  0.00     0.084 C 
HETATM   27  C12 UNL     1      -4.528   3.110   1.611  1.00  0.00     0.032 C 
HETATM   28  C13 UNL     1      -6.601   2.091   0.670  1.00  0.00     0.032 C 
ENDBRANCH  25  26
BRANCH  25  29
HETATM   29  C14 UNL     1      -5.403   0.475   2.885  1.00  0.00     0.463 C 
HETATM   30  F1  UNL     1      -5.041   1.452   3.760  1.00  0.00    -0.191 F 
HETATM   31  F2  UNL     1      -6.783   0.408   2.794  1.00  0.00    -0.191 F 
ENDBRANCH  25  29
ENDBRANCH  22  23
BRANCH  22  32
HETATM   32  C15 UNL     1      -3.949  -1.238  -1.260  1.00  0.00    -0.022 C 
HETATM   33  C16 UNL     1      -3.168  -1.151  -2.558  1.00  0.00     0.017 C 
HETATM   34  C17 UNL     1      -5.324  -0.727  -1.548  1.00  0.00     0.017 C 
HETATM   35  C18 UNL     1      -4.077  -2.667  -0.792  1.00  0.00     0.017 C 
ENDBRANCH  22  32
ENDBRANCH  20  22
ENDBRANCH   1  18
BRANCH   1  36
HETATM   36  C19 UNL     1       0.881  -0.567   1.338  1.00  0.00    -0.022 C 
HETATM   37  C20 UNL     1       0.054  -1.577   2.079  1.00  0.00     0.017 C 
HETATM   38  C21 UNL     1       0.618   0.774   2.003  1.00  0.00     0.017 C 
HETATM   39  C22 UNL     1       2.338  -0.898   1.579  1.00  0.00     0.017 C 
ENDBRANCH   1  36
TORSDOF 11
