REMARK  10 active torsions:
REMARK  status: ('A' for Active; 'I' for Inactive)
REMARK       I    between atoms: C1_2  and  N1_3 
REMARK    1  A    between atoms: C1_2  and  C10_20 
REMARK    2  A    between atoms: N1_3  and  C2_5 
REMARK    3  A    between atoms: C5_8  and  N2_9 
REMARK    4  A    between atoms: N2_9  and  S1_11 
REMARK    5  A    between atoms: S1_11  and  C6_14 
REMARK    6  A    between atoms: C6_14  and  C7_15 
REMARK    7  A    between atoms: C10_20  and  C11_22 
REMARK    8  A    between atoms: C19_31  and  C20_32 
REMARK    9  A    between atoms: C20_32  and  O6_33 
REMARK   10  A    between atoms: C20_32  and  C21_35 
ROOT
HETATM    1  C10 UNL     1      -0.467   0.769   0.038  1.00  0.00     0.222 C 
HETATM    2  O4  UNL     1      -0.321   1.894   0.579  1.00  0.00    -0.287 OA
ENDROOT
BRANCH   1   3
HETATM    3  C1  UNL     1       0.669  -0.093  -0.243  1.00  0.00     0.288 C 
HETATM    4  O1  UNL     1       0.579  -1.230  -0.768  1.00  0.00    -0.264 OA
HETATM    5  N1  UNL     1       1.963   0.356   0.087  1.00  0.00    -0.350 N 
ATOM      6  H1  UNL     1       2.065   1.276   0.515  1.00  0.00     0.163 HD
BRANCH   5   7
HETATM    7  C2  UNL     1       3.164  -0.435  -0.156  1.00  0.00     0.085 C 
HETATM    8  C3  UNL     1       4.111   0.335  -1.031  1.00  0.00     0.027 C 
HETATM    9  C4  UNL     1       5.520  -0.134  -0.864  1.00  0.00     0.028 C 
HETATM   10  C5  UNL     1       6.093   0.147   0.487  1.00  0.00     0.093 C 
HETATM   11  C8  UNL     1       4.914   0.336   1.452  1.00  0.00     0.028 C 
HETATM   12  C9  UNL     1       3.832  -0.670   1.176  1.00  0.00     0.027 C 
BRANCH  10  13
HETATM   13  N2  UNL     1       6.925  -0.926   0.925  1.00  0.00    -0.315 N 
ATOM     14  H2  UNL     1       6.597  -1.892   0.923  1.00  0.00     0.172 HD
BRANCH  13  15
HETATM   15  S1  UNL     1       8.480  -0.522   1.448  1.00  0.00     0.232 S 
HETATM   16  O2  UNL     1       8.411   0.353   2.700  1.00  0.00    -0.206 OA
HETATM   17  O3  UNL     1       9.121  -1.815   1.957  1.00  0.00    -0.206 OA
BRANCH  15  18
HETATM   18  C6  UNL     1       9.541   0.213   0.269  1.00  0.00     0.234 C 
BRANCH  18  19
HETATM   19  C7  UNL     1       9.878  -0.617  -0.920  1.00  0.00     0.368 C 
HETATM   20  F1  UNL     1      10.511  -1.808  -0.572  1.00  0.00    -0.213 F 
HETATM   21  F2  UNL     1       8.894  -0.776  -1.847  1.00  0.00    -0.213 F 
ENDBRANCH  18  19
ENDBRANCH  15  18
ENDBRANCH  13  15
ENDBRANCH  10  13
ENDBRANCH   5   7
ENDBRANCH   1   3
BRANCH   1  22
HETATM   22  C11 UNL     1      -1.822   0.288  -0.331  1.00  0.00     0.090 C 
HETATM   23  C12 UNL     1      -1.993   0.070  -1.820  1.00  0.00     0.188 C 
HETATM   24  O5  UNL     1      -3.060  -0.878  -2.007  1.00  0.00    -0.350 OA
HETATM   25  C13 UNL     1      -3.903  -1.428  -1.051  1.00  0.00     0.075 A 
HETATM   26  C14 UNL     1      -4.216  -2.769  -1.252  1.00  0.00     0.037 A 
HETATM   27  C18 UNL     1      -4.420  -0.754   0.034  1.00  0.00    -0.018 A 
HETATM   28  C15 UNL     1      -5.044  -3.430  -0.367  1.00  0.00     0.003 A 
HETATM   29  C16 UNL     1      -5.572  -2.777   0.724  1.00  0.00     0.001 A 
HETATM   30  C17 UNL     1      -5.256  -1.455   0.912  1.00  0.00     0.010 A 
HETATM   31  C19 UNL     1      -4.223   0.646   0.404  1.00  0.00     0.055 C 
HETATM   32  C27 UNL     1      -2.847   1.191   0.263  1.00  0.00     0.027 C 
BRANCH  31  33
HETATM   33  C20 UNL     1      -5.152   1.611  -0.336  1.00  0.00     0.159 C 
BRANCH  33  34
HETATM   34  O6  UNL     1      -4.988   1.559  -1.706  1.00  0.00    -0.390 OA
ATOM     35  H6  UNL     1      -5.565   2.158  -2.165  1.00  0.00     0.210 HD
ENDBRANCH  33  34
BRANCH  33  36
HETATM   36  C21 UNL     1      -6.569   1.469   0.064  1.00  0.00    -0.029 A 
HETATM   37  C22 UNL     1      -7.380   0.549  -0.561  1.00  0.00     0.010 A 
HETATM   38  C23 UNL     1      -8.692   0.410  -0.200  1.00  0.00     0.001 A 
HETATM   39  C24 UNL     1      -9.239   1.176   0.790  1.00  0.00     0.000 A 
HETATM   40  C25 UNL     1      -8.463   2.103   1.437  1.00  0.00     0.001 A 
HETATM   41  C26 UNL     1      -7.137   2.235   1.063  1.00  0.00     0.010 A 
ENDBRANCH  33  36
ENDBRANCH  31  33
ENDBRANCH   1  22
TORSDOF 10
