REMARK  6 active torsions:
REMARK  status: ('A' for Active; 'I' for Inactive)
REMARK    1  A    between atoms: C1_2  and  C2_4 
REMARK       I    between atoms: N3_11  and  C7_13 
REMARK    2  A    between atoms: C7_13  and  C8_15 
REMARK       I    between atoms: N4_18  and  C11_20 
REMARK    3  A    between atoms: C11_20  and  O4_22 
REMARK    4  A    between atoms: O4_22  and  C12_23 
REMARK    5  A    between atoms: C19_30  and  O5_31 
REMARK    6  A    between atoms: O5_31  and  S1_32 
ROOT
HETATM    1  C8  UNL     1      -1.175  -0.356   1.658  1.00  0.00     0.114 C 
HETATM    2  C9  UNL     1       0.200   0.197   1.675  1.00  0.00     0.069 C 
HETATM    3  C10 UNL     1       1.119  -0.728   2.354  1.00  0.00    -0.007 C 
HETATM    4  N4  UNL     1       2.225  -1.104   1.842  1.00  0.00    -0.310 N 
ATOM      5  H4  UNL     1       2.826  -1.749   2.355  1.00  0.00     0.170 HD
HETATM    6  C11 UNL     1       2.620  -0.639   0.583  1.00  0.00     0.365 C 
HETATM    7  O3  UNL     1       2.212  -1.294  -0.428  1.00  0.00    -0.238 OA
HETATM    8  C17 UNL     1       0.719  -1.217   3.685  1.00  0.00     0.055 C 
HETATM    9  C18 UNL     1      -0.662  -1.806   3.656  1.00  0.00     0.040 C 
HETATM   10  C19 UNL     1      -1.658  -1.009   2.888  1.00  0.00     0.158 C 
ENDROOT
BRANCH   1  11
HETATM   11  C7  UNL     1      -1.330  -1.178   0.422  1.00  0.00     0.230 C 
HETATM   12  N3  UNL     1      -1.264  -0.576  -0.868  1.00  0.00    -0.312 N 
HETATM   13  C6  UNL     1      -2.335  -0.466  -1.578  1.00  0.00     0.123 A 
ATOM     14  H3  UNL     1      -0.373  -0.234  -1.228  1.00  0.00     0.170 HD
HETATM   15  C2  UNL     1      -2.300   0.111  -2.827  1.00  0.00     0.073 A 
HETATM   16  N2  UNL     1      -3.521  -0.914  -1.119  1.00  0.00    -0.351 N 
HETATM   17  C3  UNL     1      -3.465   0.221  -3.580  1.00  0.00     0.022 A 
HETATM   18  C4  UNL     1      -4.657  -0.248  -3.079  1.00  0.00     0.018 A 
HETATM   19  C5  UNL     1      -4.653  -0.819  -1.826  1.00  0.00     0.090 A 
ATOM     20  H2  UNL     1      -3.557  -1.343  -0.194  1.00  0.00     0.166 HD
HETATM   21  O2  UNL     1      -1.521  -2.416   0.574  1.00  0.00    -0.273 OA
BRANCH  15  22
HETATM   22  C1  UNL     1      -1.054   0.624  -3.401  1.00  0.00     0.268 C 
HETATM   23  N1  UNL     1       0.141   0.530  -2.644  1.00  0.00    -0.057 NA
HETATM   24  O1  UNL     1      -1.039   1.142  -4.546  1.00  0.00    -0.271 OA
ENDBRANCH  15  22
ENDBRANCH   1  11
BRANCH  10  25
HETATM   25  O5  UNL     1      -2.710  -1.851   2.540  1.00  0.00    -0.251 OA
BRANCH  25  26
HETATM   26  S1  UNL     1      -4.149  -1.432   3.272  1.00  0.00     0.251 S 
HETATM   27  O6  UNL     1      -5.250  -1.812   2.319  1.00  0.00    -0.572 OA
HETATM   28  O7  UNL     1      -4.388  -2.200   4.540  1.00  0.00    -0.572 OA
HETATM   29  O8  UNL     1      -4.280   0.208   3.552  1.00  0.00    -0.572 OA
ENDBRANCH  25  26
ENDBRANCH  10  25
BRANCH   6  30
HETATM   30  O4  UNL     1       3.417   0.478   0.380  1.00  0.00    -0.298 OA
BRANCH  30  31
HETATM   31  C12 UNL     1       3.743   0.842  -0.929  1.00  0.00     0.133 C 
HETATM   32  C13 UNL     1       3.411   2.301  -1.175  1.00  0.00     0.032 C 
HETATM   33  C14 UNL     1       4.304   2.712  -2.311  1.00  0.00     0.002 C 
HETATM   34  C15 UNL     1       5.326   1.607  -2.489  1.00  0.00     0.002 C 
HETATM   35  C16 UNL     1       5.239   0.850  -1.168  1.00  0.00     0.032 C 
ENDBRANCH  30  31
ENDBRANCH   6  30
TORSDOF 6
