REMARK  4 active torsions:
REMARK  status: ('A' for Active; 'I' for Inactive)
REMARK    1  A    between atoms: C7_7  and  C8_8 
REMARK    2  A    between atoms: C8_8  and  O1_9 
REMARK    3  A    between atoms: C11_13  and  C12_14 
REMARK    4  A    between atoms: C12_14  and  C13_15 
REMARK       I    between atoms: C13_15  and  N1_17 
ROOT
HETATM    1  C1  UNL     1      -3.964   1.781  -2.110  1.00  0.00     0.024 C 
HETATM    2  C2  UNL     1      -4.231   0.906  -0.915  1.00  0.00     0.021 C 
HETATM    3  C3  UNL     1      -4.237  -0.525  -1.376  1.00  0.00     0.017 C 
HETATM    4  C4  UNL     1      -2.834  -1.037  -1.427  1.00  0.00     0.006 C 
HETATM    5  C5  UNL     1      -2.264  -0.920  -0.001  1.00  0.00    -0.009 C 
HETATM    6  C6  UNL     1      -1.210  -1.910   0.237  1.00  0.00     0.021 C 
HETATM    7  C7  UNL     1       0.197  -1.453   0.480  1.00  0.00     0.005 C 
HETATM    8  C9  UNL     1       1.087  -2.628   0.008  1.00  0.00     0.020 C 
HETATM    9  C10 UNL     1       2.428  -2.023  -0.337  1.00  0.00     0.036 C 
HETATM   10  C11 UNL     1       1.996  -0.715  -0.981  1.00  0.00    -0.068 C 
HETATM   11  C17 UNL     1       0.663  -0.375  -0.445  1.00  0.00    -0.066 C 
HETATM   12  C18 UNL     1       0.354   1.012  -0.076  1.00  0.00     0.036 C 
HETATM   13  C19 UNL     1      -1.121   1.289  -0.402  1.00  0.00     0.010 C 
HETATM   14  C20 UNL     1      -2.085   0.489   0.377  1.00  0.00    -0.005 C 
HETATM   15  C21 UNL     1      -3.432   1.205   0.280  1.00  0.00     0.006 C 
HETATM   16  C22 UNL     1      -4.282   1.001   1.501  1.00  0.00     0.013 C 
HETATM   17  C23 UNL     1      -5.618   1.560   0.988  1.00  0.00     0.079 C 
HETATM   18  C24 UNL     1      -5.636   1.192  -0.455  1.00  0.00     0.135 C 
HETATM   19  O3  UNL     1      -6.652   1.143  -1.118  1.00  0.00    -0.297 OA
ENDROOT
BRANCH  10  20
HETATM   20  C12 UNL     1       3.045   0.294  -1.135  1.00  0.00     0.137 C 
BRANCH  20  21
HETATM   21  C13 UNL     1       3.782   0.808  -0.006  1.00  0.00     0.224 C 
HETATM   22  O2  UNL     1       3.286   1.707   0.712  1.00  0.00    -0.273 OA
HETATM   23  N1  UNL     1       5.071   0.364   0.376  1.00  0.00    -0.342 N 
HETATM   24  C14 UNL     1       5.814   0.869   1.514  1.00  0.00     0.137 C 
HETATM   25  C16 UNL     1       5.874  -0.649  -0.280  1.00  0.00     0.199 C 
HETATM   26  C15 UNL     1       7.087   1.507   0.957  1.00  0.00     0.095 C 
HETATM   27  S1  UNL     1       7.479   0.257  -0.336  1.00  0.00    -0.148 SA
ENDBRANCH  20  21
ENDBRANCH  10  20
BRANCH   7  28
HETATM   28  C8  UNL     1       0.445  -1.355   1.918  1.00  0.00     0.178 C 
BRANCH  28  29
HETATM   29  O1  UNL     1       1.713  -0.943   2.314  1.00  0.00    -0.400 OA
ATOM     30  H1  UNL     1       1.874  -0.879   3.248  1.00  0.00     0.209 HD
ENDBRANCH  28  29
ENDBRANCH   7  28
TORSDOF 4
