REMARK  3 active torsions:
REMARK  status: ('A' for Active; 'I' for Inactive)
REMARK    1  A    between atoms: C8_9  and  N1_10 
REMARK    2  A    between atoms: N2_18  and  C14_19 
REMARK    3  A    between atoms: C14_19  and  C15_20 
ROOT
HETATM    1  C1  UNL     1       2.899  -0.887  -1.847  1.00  0.00     0.017 C 
HETATM    2  C2  UNL     1       2.398  -0.909  -0.433  1.00  0.00    -0.025 C 
HETATM    3  C3  UNL     1       3.339  -1.934   0.264  1.00  0.00     0.017 C 
HETATM    4  C4  UNL     1       1.038  -1.549  -0.400  1.00  0.00     0.040 C 
HETATM    5  C5  UNL     1      -0.115  -0.585  -0.291  1.00  0.00     0.128 C 
HETATM    6  C6  UNL     1       0.209   0.524   0.623  1.00  0.00     0.149 C 
HETATM    7  O1  UNL     1      -0.291   0.865   1.634  1.00  0.00    -0.296 OA
HETATM    8  C7  UNL     1       1.397   1.322   0.122  1.00  0.00     0.105 C 
HETATM    9  C8  UNL     1       2.560   0.320   0.361  1.00  0.00     0.094 C 
HETATM   10  C13 UNL     1      -0.687  -0.050  -1.527  1.00  0.00     0.243 C 
HETATM   11  O3  UNL     1      -0.332   0.346  -2.674  1.00  0.00    -0.272 OA
HETATM   12  N2  UNL     1      -1.992  -0.148  -0.879  1.00  0.00    -0.319 N 
HETATM   13  C20 UNL     1      -1.452  -1.251  -0.181  1.00  0.00     0.062 C 
HETATM   14  C21 UNL     1      -1.930  -1.611   1.149  1.00  0.00     0.033 C 
HETATM   15  C22 UNL     1      -2.622  -2.895   1.391  1.00  0.00     0.002 C 
HETATM   16  C23 UNL     1      -2.730  -3.860   0.269  1.00  0.00     0.000 C 
HETATM   17  C24 UNL     1      -1.415  -3.760  -0.521  1.00  0.00     0.002 C 
HETATM   18  C25 UNL     1      -1.501  -2.422  -1.180  1.00  0.00     0.033 C 
ENDROOT
BRANCH  12  19
HETATM   19  C14 UNL     1      -3.165   0.603  -1.109  1.00  0.00     0.072 C 
BRANCH  19  20
HETATM   20  C15 UNL     1      -3.462   1.868  -0.452  1.00  0.00     0.024 C 
HETATM   21  C16 UNL     1      -3.626   1.984   1.001  1.00  0.00     0.010 C 
HETATM   22  C17 UNL     1      -4.772   2.962   1.255  1.00  0.00     0.001 C 
HETATM   23  C18 UNL     1      -5.742   2.458   0.177  1.00  0.00     0.001 C 
HETATM   24  C19 UNL     1      -4.808   2.385  -1.003  1.00  0.00     0.010 C 
ENDBRANCH  19  20
ENDBRANCH  12  19
BRANCH   9  25
HETATM   25  N1  UNL     1       3.787   0.940   0.392  1.00  0.00    -0.403 N 
HETATM   26  C9  UNL     1       4.415   1.556  -0.698  1.00  0.00     0.143 C 
HETATM   27  C10 UNL     1       5.919   1.212  -0.600  1.00  0.00     0.187 C 
HETATM   28  O2  UNL     1       6.299   1.115   0.718  1.00  0.00    -0.388 OA
HETATM   29  C11 UNL     1       5.610   1.964   1.581  1.00  0.00     0.187 C 
HETATM   30  C12 UNL     1       4.125   1.624   1.613  1.00  0.00     0.143 C 
ENDBRANCH   9  25
TORSDOF 3
