REMARK  7 active torsions:
REMARK  status: ('A' for Active; 'I' for Inactive)
REMARK    1  A    between atoms: C5_6  and  N2_7 
REMARK       I    between atoms: N2_7  and  C6_9 
REMARK    2  A    between atoms: C6_9  and  C7_11 
REMARK    3  A    between atoms: C7_11  and  N3_12 
REMARK    4  A    between atoms: C10_15  and  C11_16 
REMARK    5  A    between atoms: C11_16  and  C12_17 
REMARK    6  A    between atoms: C17_23  and  S2_24 
REMARK    7  A    between atoms: S2_24  and  N4_25 
ROOT
HETATM    1  N1  UNL     1      -7.787   2.767   1.665  1.00  0.00    -0.191 NA
HETATM    2  C1  UNL     1      -6.803   2.242   1.357  1.00  0.00     0.099 C 
HETATM    3  C2  UNL     1      -5.564   1.602   0.965  1.00  0.00     0.046 A 
HETATM    4  C3  UNL     1      -4.400   1.846   1.608  1.00  0.00     0.025 A 
HETATM    5  C4  UNL     1      -3.226   1.209   1.199  1.00  0.00     0.032 A 
HETATM    6  C5  UNL     1      -3.225   0.326   0.144  1.00  0.00     0.058 A 
HETATM    7  C17 UNL     1      -4.435   0.095  -0.496  1.00  0.00     0.107 A 
HETATM    8  C18 UNL     1      -5.595   0.727  -0.090  1.00  0.00     0.050 A 
ENDROOT
BRANCH   7   9
HETATM    9  S2  UNL     1      -4.493  -1.012  -1.846  1.00  0.00     0.259 S 
HETATM   10  O2  UNL     1      -4.114  -2.387  -1.414  1.00  0.00    -0.201 OA
HETATM   11  O3  UNL     1      -3.606  -0.497  -2.942  1.00  0.00    -0.201 OA
BRANCH   9  12
HETATM   12  N4  UNL     1      -6.120  -1.130  -2.453  1.00  0.00    -0.324 N 
ATOM     13  H42 UNL     1      -6.914  -0.620  -2.066  1.00  0.00     0.169 HD
ATOM     14  H41 UNL     1      -6.154  -1.776  -3.241  1.00  0.00     0.169 HD
ENDBRANCH   9  12
ENDBRANCH   7   9
BRANCH   6  15
HETATM   15  N2  UNL     1      -2.049  -0.328  -0.274  1.00  0.00    -0.324 N 
HETATM   16  C6  UNL     1      -0.745  -0.215   0.234  1.00  0.00     0.240 C 
HETATM   17  O1  UNL     1      -0.403   0.509   1.174  1.00  0.00    -0.271 OA
ATOM     18  H2  UNL     1      -2.161  -0.974  -1.055  1.00  0.00     0.169 HD
BRANCH  16  19
HETATM   19  C7  UNL     1       0.345  -1.041  -0.409  1.00  0.00     0.230 C 
BRANCH  19  20
HETATM   20  N3  UNL     1       1.595  -0.771   0.266  1.00  0.00    -0.357 N 
HETATM   21  C8  UNL     1       2.037  -1.463   1.334  1.00  0.00     0.091 A 
HETATM   22  C9  UNL     1       3.256  -0.954   1.733  1.00  0.00     0.026 A 
HETATM   23  C10 UNL     1       3.566   0.079   0.883  1.00  0.00    -0.037 A 
HETATM   24  C16 UNL     1       2.522   0.166  -0.009  1.00  0.00     0.098 A 
BRANCH  23  25
HETATM   25  C11 UNL     1       4.754   0.918   0.911  1.00  0.00     0.086 C 
BRANCH  25  26
HETATM   26  C12 UNL     1       5.828   0.290   0.052  1.00  0.00    -0.013 A 
HETATM   27  C13 UNL     1       6.050   0.495  -1.282  1.00  0.00     0.015 A 
HETATM   28  C14 UNL     1       7.070  -0.174  -1.849  1.00  0.00     0.008 A 
HETATM   29  C15 UNL     1       7.798  -1.002  -1.042  1.00  0.00     0.050 A 
HETATM   30  S1  UNL     1       7.044  -0.826   0.475  1.00  0.00    -0.106 SA
ENDBRANCH  25  26
ENDBRANCH  23  25
ENDBRANCH  19  20
ENDBRANCH  16  19
ENDBRANCH   6  15
TORSDOF 7
