REMARK  2 active torsions:
REMARK  status: ('A' for Active; 'I' for Inactive)
REMARK    1  A    between atoms: C2_2  and  N1_3 
REMARK    2  A    between atoms: C6_7  and  N2_8 
ROOT
HETATM    1  N1  UNL     1       1.261   0.254  -0.182  1.00  0.00    -0.391 N 
HETATM    2  C3  UNL     1       1.448  -0.941   0.599  1.00  0.00     0.122 C 
HETATM    3  C4  UNL     1       0.149  -1.664   0.881  1.00  0.00     0.022 C 
HETATM    4  C5  UNL     1      -0.767  -1.489  -0.303  1.00  0.00     0.034 C 
HETATM    5  C6  UNL     1      -1.413  -0.146  -0.195  1.00  0.00     0.185 C 
HETATM    6  C7  UNL     1      -0.891   0.727  -1.288  1.00  0.00     0.052 C 
HETATM    7  C8  UNL     1       0.586   0.560  -1.410  1.00  0.00     0.124 C 
ENDROOT
BRANCH   5   8
HETATM    8  N2  UNL     1      -2.865  -0.287  -0.246  1.00  0.00    -0.075 N 
ATOM      9  H23 UNL     1      -3.171  -0.793  -1.077  1.00  0.00     0.274 HD
ATOM     10  H22 UNL     1      -3.212  -0.936   0.460  1.00  0.00     0.274 HD
ATOM     11  H21 UNL     1      -3.306   0.630  -0.172  1.00  0.00     0.274 HD
ENDBRANCH   5   8
BRANCH   1  12
HETATM   12  C2  UNL     1       1.888   1.387   0.397  1.00  0.00     0.075 C 
HETATM   13  C1  UNL     1       1.423   1.981   1.456  1.00  0.00     0.029 C 
ENDBRANCH   1  12
TORSDOF 2
