REMARK  9 active torsions:
REMARK  status: ('A' for Active; 'I' for Inactive)
REMARK    1  A    between atoms: O1_2  and  C2_3 
REMARK    2  A    between atoms: C2_3  and  C3_5 
REMARK    3  A    between atoms: C6_8  and  N1_9 
REMARK    4  A    between atoms: N1_9  and  C7_11 
REMARK    5  A    between atoms: C8_14  and  N3_15 
REMARK    6  A    between atoms: N3_15  and  C9_17 
REMARK    7  A    between atoms: C9_17  and  C10_18 
REMARK    8  A    between atoms: C16_28  and  C17_29 
REMARK       I    between atoms: C17_29  and  N5_31 
REMARK    9  A    between atoms: N5_31  and  C18_33 
ROOT
HETATM    1  C7  UNL     1      -0.595   0.898   0.393  1.00  0.00     0.134 A 
HETATM    2  N2  UNL     1      -1.342  -0.211   0.343  1.00  0.00    -0.176 N 
ATOM      3  H2  UNL     1      -0.881  -1.109   0.200  1.00  0.00     0.186 HD
HETATM    4  C8  UNL     1      -2.693  -0.182   0.476  1.00  0.00     0.679 A 
HETATM    5  N4  UNL     1      -3.362   0.982   0.668  1.00  0.00    -0.201 N 
ATOM      6  H4  UNL     1      -4.377   0.990   0.767  1.00  0.00     0.183 HD
HETATM    7  C15 UNL     1      -2.656   2.124   0.725  1.00  0.00     0.127 A 
HETATM    8  C16 UNL     1      -1.279   2.091   0.589  1.00  0.00     0.092 A 
ENDROOT
BRANCH   1   9
HETATM    9  N1  UNL     1       0.644   0.928   0.275  1.00  0.00    -0.370 N 
ATOM     10  H1  UNL     1       1.009   1.878   0.344  1.00  0.00     0.161 HD
BRANCH   9  11
HETATM   11  C6  UNL     1       1.662  -0.005   0.073  1.00  0.00     0.083 C 
HETATM   12  C5  UNL     1       1.606  -0.563  -1.327  1.00  0.00     0.026 C 
HETATM   13  C4  UNL     1       2.771  -1.472  -1.628  1.00  0.00     0.017 C 
HETATM   14  C3  UNL     1       3.140  -2.367  -0.483  1.00  0.00     0.093 C 
HETATM   15  C24 UNL     1       3.246  -1.669   0.836  1.00  0.00    -0.033 C 
HETATM   16  C23 UNL     1       1.865  -1.059   1.128  1.00  0.00     0.034 C 
HETATM   17  C25 UNL     1       4.326  -0.626   0.833  1.00  0.00     0.016 C 
HETATM   18  C26 UNL     1       3.607  -2.700   1.881  1.00  0.00     0.016 C 
BRANCH  14  19
HETATM   19  C2  UNL     1       4.436  -3.017  -0.816  1.00  0.00     0.263 C 
HETATM   20  O2  UNL     1       4.578  -4.262  -0.905  1.00  0.00    -0.265 OA
BRANCH  19  21
HETATM   21  O1  UNL     1       5.554  -2.228  -1.044  1.00  0.00    -0.326 OA
HETATM   22  C1  UNL     1       6.787  -2.837  -1.360  1.00  0.00     0.213 C 
ENDBRANCH  19  21
ENDBRANCH  14  19
ENDBRANCH   9  11
ENDBRANCH   1   9
BRANCH   8  23
HETATM   23  C17 UNL     1      -0.530   3.342   0.653  1.00  0.00     0.257 C 
HETATM   24  O3  UNL     1       0.572   3.315   1.214  1.00  0.00    -0.267 OA
HETATM   25  N5  UNL     1      -1.033   4.554   0.096  1.00  0.00    -0.352 N 
ATOM     26  H5  UNL     1      -1.942   4.574  -0.367  1.00  0.00     0.163 HD
BRANCH  25  27
HETATM   27  C18 UNL     1      -0.233   5.757   0.198  1.00  0.00     0.084 C 
HETATM   28  C19 UNL     1      -1.075   6.815   0.867  1.00  0.00     0.025 C 
HETATM   29  C20 UNL     1      -0.347   8.084   0.486  1.00  0.00     0.002 C 
HETATM   30  C21 UNL     1      -0.088   7.844  -1.003  1.00  0.00     0.002 C 
HETATM   31  C22 UNL     1      -0.017   6.354  -1.178  1.00  0.00     0.025 C 
ENDBRANCH  25  27
ENDBRANCH   8  23
BRANCH   4  32
HETATM   32  N3  UNL     1      -3.433  -1.236   0.432  1.00  0.00    -0.226 N 
ATOM     33  H3  UNL     1      -4.437  -1.095   0.544  1.00  0.00     0.177 HD
BRANCH  32  34
HETATM   34  C9  UNL     1      -2.993  -2.578   0.243  1.00  0.00     0.142 C 
BRANCH  34  35
HETATM   35  C10 UNL     1      -4.075  -3.479  -0.312  1.00  0.00     0.010 C 
HETATM   36  C11 UNL     1      -5.272  -3.562   0.578  1.00  0.00     0.012 C 
HETATM   37  C12 UNL     1      -5.878  -4.927   0.299  1.00  0.00     0.079 C 
HETATM   38  C13 UNL     1      -4.944  -5.629  -0.655  1.00  0.00     0.244 C 
HETATM   39  F1  UNL     1      -4.889  -6.961  -0.329  1.00  0.00    -0.206 F 
HETATM   40  F2  UNL     1      -5.248  -5.398  -1.972  1.00  0.00    -0.206 F 
HETATM   41  C14 UNL     1      -3.619  -4.922  -0.365  1.00  0.00     0.085 C 
ENDBRANCH  34  35
ENDBRANCH  32  34
ENDBRANCH   4  32
TORSDOF 9
