REMARK  10 active torsions:
REMARK  status: ('A' for Active; 'I' for Inactive)
REMARK    1  A    between atoms: C2_9  and  S1_10 
REMARK    2  A    between atoms: S1_10  and  C3_11 
REMARK    3  A    between atoms: C7_22  and  N8_23 
REMARK    4  A    between atoms: C11_34  and  N10_35 
REMARK    5  A    between atoms: N10_35  and  C12_36 
REMARK    6  A    between atoms: N10_35  and  C14_40 
REMARK    7  A    between atoms: C12_36  and  C13_37 
REMARK    8  A    between atoms: C13_37  and  O3_38 
REMARK    9  A    between atoms: C14_40  and  C15_41 
REMARK   10  A    between atoms: C15_41  and  O4_42 
ROOT
HETATM    1  C3  UNL     1       1.828  -0.626  -0.195  1.00  0.00     0.053 C 
HETATM    2  C4  UNL     1       1.761  -1.732  -0.988  1.00  0.00     0.069 C 
HETATM    3  C5  UNL     1       2.923  -2.607  -1.152  1.00  0.00     0.112 C 
HETATM    4  N5  UNL     1       4.045  -2.300  -0.749  1.00  0.00    -0.385 N 
ATOM      5  H51 UNL     1       4.855  -2.910  -0.863  1.00  0.00     0.157 HD
ATOM      6  H52 UNL     1       4.186  -1.425  -0.244  1.00  0.00     0.157 HD
HETATM    7  N6  UNL     1       2.721  -3.858  -1.875  1.00  0.00    -0.339 N 
ATOM      8  H6  UNL     1       3.480  -4.528  -1.997  1.00  0.00     0.168 HD
HETATM    9  C6  UNL     1       1.442  -4.103  -2.396  1.00  0.00     0.180 C 
HETATM   10  N7  UNL     1       0.470  -3.268  -2.312  1.00  0.00    -0.343 N 
ATOM     11  H7  UNL     1      -0.428  -3.556  -2.701  1.00  0.00     0.163 HD
HETATM   12  C7  UNL     1       0.539  -1.981  -1.725  1.00  0.00     0.294 C 
HETATM   13  C8  UNL     1      -0.678  -1.486  -1.110  1.00  0.00     0.227 C 
HETATM   14  O1  UNL     1      -1.807  -2.041  -1.257  1.00  0.00    -0.287 OA
HETATM   15  C9  UNL     1      -0.594  -0.276  -0.273  1.00  0.00     0.098 A 
HETATM   16  C10 UNL     1       0.640   0.132   0.171  1.00  0.00     0.091 A 
HETATM   17  N9  UNL     1       0.415   1.227   0.938  1.00  0.00    -0.257 N 
ATOM     18  H9  UNL     1       1.127   1.774   1.422  1.00  0.00     0.195 HD
HETATM   19  O2  UNL     1      -0.839   1.455   0.951  1.00  0.00    -0.218 OA
HETATM   20  C11 UNL     1      -1.502   0.590   0.244  1.00  0.00     0.185 A 
ENDROOT
BRANCH   1  21
HETATM   21  S1  UNL     1       3.349  -0.264   0.592  1.00  0.00    -0.048 SA
BRANCH  21  22
HETATM   22  C2  UNL     1       3.567   1.472   0.859  1.00  0.00     0.183 A 
HETATM   23  N1  UNL     1       4.606   2.021   1.572  1.00  0.00    -0.258 N 
HETATM   24  C1  UNL     1       5.617   1.274   2.272  1.00  0.00     0.181 C 
HETATM   25  N2  UNL     1       4.511   3.340   1.517  1.00  0.00    -0.224 N 
HETATM   26  N3  UNL     1       3.464   3.674   0.805  1.00  0.00    -0.226 N 
ATOM     27  H2  UNL     1       5.154   3.995   1.961  1.00  0.00     0.210 HD
HETATM   28  N4  UNL     1       2.908   2.552   0.419  1.00  0.00    -0.263 N 
ATOM     29  H3  UNL     1       3.145   4.619   0.593  1.00  0.00     0.210 HD
ATOM     30  H4  UNL     1       2.065   2.506  -0.154  1.00  0.00     0.190 HD
ENDBRANCH  21  22
ENDBRANCH   1  21
BRANCH  12  31
HETATM   31  N8  UNL     1       0.742  -1.099  -2.985  1.00  0.00    -0.040 N 
ATOM     32  H83 UNL     1       0.942  -0.117  -2.798  1.00  0.00     0.278 HD
ATOM     33  H82 UNL     1       1.603  -1.275  -3.502  1.00  0.00     0.278 HD
ATOM     34  H81 UNL     1      -0.118  -1.274  -3.504  1.00  0.00     0.278 HD
ENDBRANCH  12  31
BRANCH  20  35
HETATM   35  N10 UNL     1      -2.931   0.533   0.027  1.00  0.00    -0.355 N 
BRANCH  35  36
HETATM   36  C12 UNL     1      -3.713  -0.462   0.711  1.00  0.00     0.151 C 
BRANCH  36  37
HETATM   37  C13 UNL     1      -4.595   0.017   1.813  1.00  0.00     0.183 C 
BRANCH  37  38
HETATM   38  O3  UNL     1      -3.763   0.634   2.780  1.00  0.00    -0.399 OA
ATOM     39  H3  UNL     1      -4.325   0.939   3.482  1.00  0.00     0.209 HD
ENDBRANCH  37  38
ENDBRANCH  36  37
ENDBRANCH  35  36
BRANCH  35  40
HETATM   40  C14 UNL     1      -3.482   1.511  -0.834  1.00  0.00     0.151 C 
BRANCH  40  41
HETATM   41  C15 UNL     1      -4.290   2.601  -0.242  1.00  0.00     0.183 C 
BRANCH  41  42
HETATM   42  O4  UNL     1      -3.589   3.368   0.690  1.00  0.00    -0.399 OA
ATOM     43  H4  UNL     1      -4.108   4.067   1.070  1.00  0.00     0.209 HD
ENDBRANCH  41  42
ENDBRANCH  40  41
ENDBRANCH  35  40
ENDBRANCH  20  35
TORSDOF 10
