REMARK  10 active torsions:
REMARK  status: ('A' for Active; 'I' for Inactive)
REMARK    1  A    between atoms: C2_3  and  O1_4 
REMARK    2  A    between atoms: C3_6  and  C4_7 
REMARK       I    between atoms: C4_7  and  N2_9 
REMARK    3  A    between atoms: N2_9  and  N3_10 
REMARK    4  A    between atoms: N3_10  and  C5_11 
REMARK    5  A    between atoms: C5_11  and  C6_12 
REMARK       I    between atoms: C6_12  and  N4_14 
REMARK    6  A    between atoms: N4_14  and  N5_16 
REMARK    7  A    between atoms: C7_18  and  C8_19 
REMARK    8  A    between atoms: C11_24  and  N7_25 
REMARK    9  A    between atoms: C13_29  and  N8_30 
REMARK   10  A    between atoms: N9_33  and  O7_34 
ROOT
HETATM    1  N8  UNL     1      -5.086   4.045   0.665  1.00  0.00    -0.261 NA
HETATM    2  O6  UNL     1      -5.112   5.021   1.429  1.00  0.00    -0.217 OA
ATOM      3  H6  UNL     1      -5.223   5.780   1.990  1.00  0.00     0.261 HD
ENDROOT
BRANCH   1   4
HETATM    4  C13 UNL     1      -4.948   3.100  -0.034  1.00  0.00     0.263 A 
HETATM    5  C3  UNL     1      -3.759   2.368  -0.183  1.00  0.00     0.164 A 
HETATM    6  C2  UNL     1      -3.676   1.298  -1.030  1.00  0.00     0.168 A 
HETATM    7  N1  UNL     1      -4.746   0.935  -1.733  1.00  0.00    -0.281 N 
HETATM    8  C1  UNL     1      -4.693  -0.203  -2.645  1.00  0.00     0.163 C 
HETATM    9  C14 UNL     1      -5.920   1.605  -1.630  1.00  0.00     0.357 A 
HETATM   10  N9  UNL     1      -6.003   2.632  -0.818  1.00  0.00    -0.138 N 
HETATM   11  O8  UNL     1      -6.902   1.193  -2.337  1.00  0.00    -0.244 OA
BRANCH   5  12
HETATM   12  C4  UNL     1      -2.572   2.755   0.597  1.00  0.00     0.370 C 
HETATM   13  O2  UNL     1      -2.799   3.776   1.369  1.00  0.00    -0.247 OA
HETATM   14  N2  UNL     1      -1.393   2.149   0.539  1.00  0.00    -0.204 NA
BRANCH  14  15
HETATM   15  N3  UNL     1      -0.230   1.553   0.483  1.00  0.00    -0.253 NA
BRANCH  15  16
HETATM   16  C5  UNL     1       0.763   0.977   0.227  1.00  0.00     0.300 C 
BRANCH  16  17
HETATM   17  C6  UNL     1       1.881   0.728   1.189  1.00  0.00     0.291 C 
HETATM   18  O3  UNL     1       1.839   1.119   2.364  1.00  0.00    -0.264 OA
HETATM   19  N4  UNL     1       3.019   0.023   0.735  1.00  0.00    -0.265 N 
ATOM     20  H4  UNL     1       3.052  -0.302  -0.231  1.00  0.00     0.190 HD
BRANCH  19  21
HETATM   21  N5  UNL     1       4.047  -0.226   1.541  1.00  0.00    -0.308 N 
HETATM   22  C7  UNL     1       4.869  -1.096   1.761  1.00  0.00     0.120 C 
ATOM     23  H5  UNL     1       4.192   0.560   2.175  1.00  0.00     0.186 HD
BRANCH  22  24
HETATM   24  C8  UNL     1       5.039  -2.372   1.113  1.00  0.00    -0.002 A 
HETATM   25  C9  UNL     1       4.166  -2.917   0.209  1.00  0.00     0.100 A 
HETATM   26  N6  UNL     1       4.413  -4.105  -0.419  1.00  0.00    -0.372 N 
HETATM   27  C10 UNL     1       5.522  -4.789  -0.177  1.00  0.00     0.123 A 
ATOM     28  H6  UNL     1       3.733  -4.471  -1.085  1.00  0.00     0.164 HD
HETATM   29  C11 UNL     1       6.414  -4.282   0.717  1.00  0.00     0.119 A 
HETATM   30  C12 UNL     1       6.207  -3.083   1.376  1.00  0.00     0.051 A 
BRANCH  29  31
HETATM   31  N7  UNL     1       7.615  -5.000   0.984  1.00  0.00    -0.114 N 
HETATM   32  O4  UNL     1       7.822  -6.071   0.399  1.00  0.00    -0.532 OA
HETATM   33  O5  UNL     1       8.502  -4.481   1.880  1.00  0.00    -0.532 OA
ENDBRANCH  29  31
ENDBRANCH  22  24
ENDBRANCH  19  21
ENDBRANCH  16  17
ENDBRANCH  15  16
ENDBRANCH  14  15
ENDBRANCH   5  12
BRANCH   6  34
HETATM   34  O1  UNL     1      -2.506   0.546  -1.205  1.00  0.00    -0.345 OA
ATOM     35  H1  UNL     1      -1.742   0.805  -0.703  1.00  0.00     0.219 HD
ENDBRANCH   6  34
BRANCH  10  36
HETATM   36  O7  UNL     1      -7.193   3.311  -0.718  1.00  0.00    -0.276 OA
ATOM     37  H7  UNL     1      -7.911   2.992  -1.252  1.00  0.00     0.245 HD
ENDBRANCH  10  36
ENDBRANCH   1   4
TORSDOF 10
