REMARK  8 active torsions:
REMARK  status: ('A' for Active; 'I' for Inactive)
REMARK    1  A    between atoms: C2_2  and  C5_5 
REMARK    2  A    between atoms: C6_6  and  C7_7 
REMARK    3  A    between atoms: C9_9  and  C10_10 
REMARK       I    between atoms: C10_10  and  N1_12 
REMARK    4  A    between atoms: C11_14  and  C12_15 
REMARK    5  A    between atoms: C11_14  and  C13_18 
REMARK       I    between atoms: C13_18  and  N3_20 
REMARK    6  A    between atoms: N3_20  and  C14_21 
REMARK    7  A    between atoms: C14_21  and  C15_22 
REMARK    8  A    between atoms: C15_22  and  C18_25 
ROOT
HETATM    1  C10 UNL     1      -0.264  -0.049   1.993  1.00  0.00     0.258 C 
HETATM    2  O1  UNL     1      -0.679   0.918   2.752  1.00  0.00    -0.267 OA
HETATM    3  N1  UNL     1       1.017  -0.128   1.654  1.00  0.00    -0.313 N 
ATOM      4  H1  UNL     1       1.517   0.045   2.526  1.00  0.00     0.169 HD
HETATM    5  C11 UNL     1       1.907  -0.303   0.826  1.00  0.00     0.184 C 
ENDROOT
BRANCH   1   6
HETATM    6  C9  UNL     1      -1.331  -0.973   1.593  1.00  0.00     0.055 A 
HETATM    7  C8  UNL     1      -2.488  -0.376   1.090  1.00  0.00     0.041 A 
HETATM    8  C7  UNL     1      -3.514  -1.220   0.705  1.00  0.00     0.040 A 
HETATM    9  C21 UNL     1      -3.374  -2.583   0.824  1.00  0.00     0.054 A 
HETATM   10  C20 UNL     1      -2.213  -3.180   1.329  1.00  0.00     0.050 A 
HETATM   11 CL2  UNL     1      -4.726  -3.586   0.321  1.00  0.00    -0.083 Cl
HETATM   12  C19 UNL     1      -1.191  -2.325   1.711  1.00  0.00     0.051 A 
HETATM   13 CL1  UNL     1       0.288  -2.994   2.352  1.00  0.00    -0.083 Cl
BRANCH   8  14
HETATM   14  C6  UNL     1      -4.683  -0.582   0.178  1.00  0.00    -0.064 C 
HETATM   15  C5  UNL     1      -5.663  -0.014  -0.275  1.00  0.00    -0.092 C 
BRANCH  15  16
HETATM   16  C2  UNL     1      -6.825   0.701  -0.819  1.00  0.00     0.013 C 
HETATM   17  C1  UNL     1      -7.515  -0.069  -1.911  1.00  0.00     0.028 C 
HETATM   18  C3  UNL     1      -7.814   0.841   0.341  1.00  0.00     0.028 C 
HETATM   19  C4  UNL     1      -6.396   2.060  -1.318  1.00  0.00     0.028 C 
ENDBRANCH  15  16
ENDBRANCH   8  14
ENDBRANCH   1   6
BRANCH   5  20
HETATM   20  C12 UNL     1       1.720  -0.596  -0.589  1.00  0.00     0.288 C 
HETATM   21  N2  UNL     1       0.439  -0.702  -1.200  1.00  0.00    -0.056 NA
HETATM   22  O2  UNL     1       2.705  -0.771  -1.346  1.00  0.00    -0.269 OA
ENDBRANCH   5  20
BRANCH   5  23
HETATM   23  C13 UNL     1       3.325  -0.120   1.284  1.00  0.00     0.347 C 
HETATM   24  O3  UNL     1       3.344   0.260   2.519  1.00  0.00    -0.249 OA
HETATM   25  N3  UNL     1       4.451  -0.317   0.532  1.00  0.00    -0.381 NA
BRANCH  25  26
HETATM   26  C14 UNL     1       5.562  -0.512  -0.211  1.00  0.00     0.179 C 
BRANCH  26  27
HETATM   27  C15 UNL     1       6.473   0.672  -0.527  1.00  0.00     0.086 C 
HETATM   28  C16 UNL     1       5.675   1.713  -1.321  1.00  0.00     0.033 C 
HETATM   29  C17 UNL     1       7.573   0.158  -1.428  1.00  0.00     0.033 C 
BRANCH  27  30
HETATM   30  C18 UNL     1       7.075   1.275   0.658  1.00  0.00     0.187 C 
HETATM   31  O4  UNL     1       8.271   1.069   0.938  1.00  0.00    -0.647 OA
HETATM   32  O5  UNL     1       6.311   2.083   1.482  1.00  0.00    -0.647 OA
ENDBRANCH  27  30
ENDBRANCH  26  27
ENDBRANCH  25  26
ENDBRANCH   5  23
TORSDOF 8
