REMARK  10 active torsions:
REMARK  status: ('A' for Active; 'I' for Inactive)
REMARK    1  A    between atoms: C2_2  and  C3_3 
REMARK    2  A    between atoms: C3_3  and  C4_4 
REMARK    3  A    between atoms: C4_4  and  C5_5 
REMARK    4  A    between atoms: C5_5  and  C6_6 
REMARK    5  A    between atoms: C6_6  and  O2_8 
REMARK    6  A    between atoms: O2_8  and  C7_9 
REMARK    7  A    between atoms: N1_14  and  C11_15 
REMARK    8  A    between atoms: C11_15  and  C12_16 
REMARK    9  A    between atoms: C12_16  and  C13_17 
REMARK   10  A    between atoms: C13_17  and  C14_18 
ROOT
HETATM    1  C5  UNL     1      -1.931   0.474   0.332  1.00  0.00     0.089 C 
HETATM    2  C9  UNL     1      -1.775   1.449   1.444  1.00  0.00     0.126 C 
HETATM    3  C10 UNL     1      -0.388   1.957   1.135  1.00  0.00     0.222 C 
HETATM    4  O3  UNL     1      -0.089   3.167   1.318  1.00  0.00    -0.273 OA
HETATM    5  N1  UNL     1       0.385   0.883   0.655  1.00  0.00    -0.333 N 
HETATM    6  C19 UNL     1      -0.533  -0.149   0.228  1.00  0.00     0.126 C 
HETATM    7  C20 UNL     1      -0.428  -1.192   1.305  1.00  0.00     0.180 C 
HETATM    8  S1  UNL     1      -0.319  -2.856   0.813  1.00  0.00     0.147 S 
HETATM    9  O4  UNL     1      -1.590  -3.575   0.606  1.00  0.00    -0.228 OA
HETATM   10  O5  UNL     1       0.467  -3.664   1.840  1.00  0.00    -0.228 OA
HETATM   11  C21 UNL     1       0.582  -2.915  -0.736  1.00  0.00     0.148 C 
HETATM   12  C22 UNL     1      -0.280  -2.014  -1.634  1.00  0.00     0.096 C 
HETATM   13  C23 UNL     1      -0.314  -0.638  -1.132  1.00  0.00     0.158 C 
HETATM   14  O6  UNL     1      -0.128   0.219  -2.002  1.00  0.00    -0.295 OA
ENDROOT
BRANCH   1  15
HETATM   15  C4  UNL     1      -2.277   1.234  -0.930  1.00  0.00     0.023 C 
BRANCH  15  16
HETATM   16  C3  UNL     1      -3.624   1.888  -0.752  1.00  0.00     0.001 C 
BRANCH  16  17
HETATM   17  C2  UNL     1      -4.012   2.653  -2.021  1.00  0.00    -0.005 C 
HETATM   18  C1  UNL     1      -5.340   3.317  -1.888  1.00  0.00     0.005 C 
ENDBRANCH  16  17
ENDBRANCH  15  16
ENDBRANCH   1  15
BRANCH   1  19
HETATM   19  C6  UNL     1      -3.012  -0.517   0.494  1.00  0.00     0.271 C 
HETATM   20  O1  UNL     1      -3.556  -1.069  -0.498  1.00  0.00    -0.264 OA
BRANCH  19  21
HETATM   21  O2  UNL     1      -3.468  -0.878   1.739  1.00  0.00    -0.321 OA
BRANCH  21  22
HETATM   22  C7  UNL     1      -4.507  -1.828   1.851  1.00  0.00     0.174 C 
HETATM   23  C8  UNL     1      -4.783  -2.011   3.336  1.00  0.00     0.034 C 
ENDBRANCH  21  22
ENDBRANCH  19  21
ENDBRANCH   1  19
BRANCH   5  24
HETATM   24  C11 UNL     1       1.822   0.948   0.700  1.00  0.00     0.127 C 
BRANCH  24  25
HETATM   25  C12 UNL     1       2.556   1.537  -0.419  1.00  0.00     0.020 C 
BRANCH  25  26
HETATM   26  C13 UNL     1       4.045   1.514  -0.120  1.00  0.00     0.006 C 
BRANCH  26  27
HETATM   27  C14 UNL     1       4.597   0.147   0.098  1.00  0.00    -0.014 C 
HETATM   28  C15 UNL     1       4.441  -0.789  -1.076  1.00  0.00     0.004 C 
HETATM   29  C16 UNL     1       5.827  -1.121  -1.582  1.00  0.00     0.000 C 
HETATM   30  C17 UNL     1       6.675  -0.998  -0.362  1.00  0.00     0.000 C 
HETATM   31  C18 UNL     1       6.099   0.219   0.321  1.00  0.00     0.004 C 
ENDBRANCH  26  27
ENDBRANCH  25  26
ENDBRANCH  24  25
ENDBRANCH   5  24
TORSDOF 10
