REMARK  12 active torsions:
REMARK  status: ('A' for Active; 'I' for Inactive)
REMARK    1  A    between atoms: C3_3  and  O1_5 
REMARK    2  A    between atoms: C6_9  and  C7_10 
REMARK    3  A    between atoms: C7_10  and  O4_12 
REMARK    4  A    between atoms: C9_14  and  O5_15 
REMARK    5  A    between atoms: C9_14  and  C10_17 
REMARK    6  A    between atoms: C10_17  and  O6_18 
REMARK    7  A    between atoms: C10_17  and  C11_20 
REMARK    8  A    between atoms: C11_20  and  O7_21 
REMARK    9  A    between atoms: C11_20  and  N1_23 
REMARK   10  A    between atoms: N1_23  and  S1_25 
REMARK   11  A    between atoms: S1_25  and  O9_27 
REMARK   12  A    between atoms: S1_25  and  O10_29 
ROOT
HETATM    1  C1  UNL     1      -1.726  -0.925  -2.098  1.00  0.00     0.023 C 
HETATM    2  C2  UNL     1      -1.973  -1.023  -0.847  1.00  0.00     0.013 C 
HETATM    3  C3  UNL     1      -2.917  -2.082  -0.324  1.00  0.00     0.190 C 
HETATM    4  C4  UNL     1      -2.221  -3.328   0.094  1.00  0.00     0.085 C 
HETATM    5  O2  UNL     1      -3.608  -1.477   0.816  1.00  0.00    -0.322 OA
HETATM    6  C5  UNL     1      -3.681  -0.081   0.875  1.00  0.00     0.155 C 
HETATM    7  C6  UNL     1      -2.613   0.701   0.567  1.00  0.00     0.080 C 
HETATM    8  C9  UNL     1      -1.440  -0.121   0.189  1.00  0.00     0.150 C 
ENDROOT
BRANCH   8   9
HETATM    9  O5  UNL     1      -1.252  -0.917   1.389  1.00  0.00    -0.377 OA
ATOM     10  H5  UNL     1      -0.908  -0.335   2.057  1.00  0.00     0.211 HD
ENDBRANCH   8   9
BRANCH   8  11
HETATM   11  C10 UNL     1      -0.155   0.515  -0.050  1.00  0.00     0.211 C 
BRANCH  11  12
HETATM   12  O6  UNL     1       0.228   1.419   0.972  1.00  0.00    -0.387 OA
ATOM     13  H6  UNL     1       1.068   1.835   0.816  1.00  0.00     0.210 HD
ENDBRANCH  11  12
BRANCH  11  14
HETATM   14  C11 UNL     1       1.022  -0.456  -0.075  1.00  0.00     0.261 C 
BRANCH  14  15
HETATM   15  O7  UNL     1       0.881  -1.546  -0.892  1.00  0.00    -0.373 OA
ATOM     16  H7  UNL     1       1.614  -2.150  -0.908  1.00  0.00     0.212 HD
ENDBRANCH  14  15
BRANCH  14  17
HETATM   17  N1  UNL     1       2.224   0.231  -0.394  1.00  0.00    -0.279 N 
ATOM     18  H1  UNL     1       2.220   1.237  -0.561  1.00  0.00     0.176 HD
BRANCH  17  19
HETATM   19  S1  UNL     1       3.795  -0.738  -0.499  1.00  0.00     0.274 S 
HETATM   20  O8  UNL     1       3.796  -1.897  -2.117  1.00  0.00    -0.191 OA
BRANCH  19  21
HETATM   21  O9  UNL     1       5.282  -0.380   0.205  1.00  0.00    -0.276 OA
HETATM   22  C12 UNL     1       5.670  -0.802   1.449  1.00  0.00     0.226 C 
ENDBRANCH  19  21
BRANCH  19  23
HETATM   23  O10 UNL     1       4.306   0.446  -1.880  1.00  0.00    -0.276 OA
HETATM   24  C13 UNL     1       4.410   1.740  -1.444  1.00  0.00     0.226 C 
ENDBRANCH  19  23
ENDBRANCH  17  19
ENDBRANCH  14  17
ENDBRANCH  11  14
ENDBRANCH   8  11
BRANCH   7  25
HETATM   25  C7  UNL     1      -2.799   2.096   0.657  1.00  0.00     0.294 C 
HETATM   26  O3  UNL     1      -1.955   2.993   0.408  1.00  0.00    -0.259 OA
BRANCH  25  27
HETATM   27  O4  UNL     1      -4.053   2.626   1.069  1.00  0.00    -0.323 OA
HETATM   28  C8  UNL     1      -4.280   4.000   1.172  1.00  0.00     0.213 C 
ENDBRANCH  25  27
ENDBRANCH   7  25
BRANCH   3  29
HETATM   29  O1  UNL     1      -3.918  -2.395  -1.229  1.00  0.00    -0.362 OA
ATOM     30  H1  UNL     1      -4.511  -3.060  -0.900  1.00  0.00     0.213 HD
ENDBRANCH   3  29
TORSDOF 12
