REMARK  3 active torsions:
REMARK  status: ('A' for Active; 'I' for Inactive)
REMARK    1  A    between atoms: C2_2  and  C3_3 
REMARK    2  A    between atoms: C8_10  and  C9_11 
REMARK    3  A    between atoms: C20_26  and  C21_27 
ROOT
HETATM    1  C3  UNL     1       0.695  -3.175  -2.006  1.00  0.00     0.066 C 
HETATM    2  C4  UNL     1       0.024  -2.267  -1.335  1.00  0.00     0.215 C 
HETATM    3  O1  UNL     1       0.738  -1.314  -0.638  1.00  0.00    -0.169 OA
HETATM    4  O2  UNL     1       0.333  -0.059  -0.418  1.00  0.00    -0.190 OA
HETATM    5  C5  UNL     1       1.395   0.678   0.095  1.00  0.00     0.230 C 
HETATM    6  C6  UNL     1       1.906   0.129   1.403  1.00  0.00     0.075 C 
HETATM    7  C7  UNL     1       3.038  -0.843   1.262  1.00  0.00     0.012 C 
HETATM    8  C8  UNL     1       4.183  -0.324   0.463  1.00  0.00     0.015 C 
HETATM    9  C10 UNL     1       3.837   1.036  -0.101  1.00  0.00     0.012 C 
HETATM   10  C11 UNL     1       2.537   0.850  -0.872  1.00  0.00     0.075 C 
HETATM   11  O3  UNL     1       0.863   1.949   0.411  1.00  0.00    -0.189 OA
HETATM   12  O4  UNL     1       1.011   2.811  -0.594  1.00  0.00    -0.156 OA
HETATM   13  C12 UNL     1      -0.105   3.497  -1.046  1.00  0.00     0.289 C 
HETATM   14  O5  UNL     1      -0.388   3.691  -2.256  1.00  0.00    -0.263 OA
HETATM   15  C13 UNL     1      -1.036   4.041  -0.022  1.00  0.00     0.114 C 
HETATM   16  C14 UNL     1      -2.340   4.467  -0.653  1.00  0.00     0.010 C 
HETATM   17  C15 UNL     1      -3.252   3.296  -0.904  1.00  0.00     0.000 C 
HETATM   18  C16 UNL     1      -2.972   2.261   0.137  1.00  0.00     0.000 C 
HETATM   19  C17 UNL     1      -3.926   1.074   0.074  1.00  0.00     0.000 C 
HETATM   20  C18 UNL     1      -3.276  -0.159   0.700  1.00  0.00     0.002 C 
HETATM   21  C19 UNL     1      -3.360  -1.258  -0.313  1.00  0.00     0.032 C 
HETATM   22  C20 UNL     1      -2.241  -2.270  -0.228  1.00  0.00     0.131 C 
HETATM   23  O6  UNL     1      -1.325  -2.210  -1.283  1.00  0.00    -0.323 OA
ENDROOT
BRANCH   8  24
HETATM   24  C9  UNL     1       5.483  -0.302   1.230  1.00  0.00     0.226 C 
HETATM   25  F1  UNL     1       5.751  -1.605   1.606  1.00  0.00    -0.255 F 
ENDBRANCH   8  24
BRANCH   1  26
HETATM   26  C2  UNL     1       2.149  -3.152  -1.997  1.00  0.00    -0.005 C 
HETATM   27  C1  UNL     1       2.811  -4.063  -2.672  1.00  0.00     0.011 C 
ENDBRANCH   1  26
BRANCH  22  28
HETATM   28  C21 UNL     1      -1.673  -2.390   1.141  1.00  0.00     0.028 C 
HETATM   29  C22 UNL     1      -2.813  -2.836   2.068  1.00  0.00     0.007 C 
ENDBRANCH  22  28
TORSDOF 3
