REMARK  12 active torsions:
REMARK  status: ('A' for Active; 'I' for Inactive)
REMARK    1  A    between atoms: C3_3  and  O1_4 
REMARK    2  A    between atoms: C3_3  and  C21_39 
REMARK    3  A    between atoms: O1_4  and  C4_5 
REMARK    4  A    between atoms: C5_7  and  O3_8 
REMARK    5  A    between atoms: O3_8  and  C6_9 
REMARK    6  A    between atoms: C8_11  and  O4_12 
REMARK    7  A    between atoms: C9_14  and  N1_15 
REMARK    8  A    between atoms: C11_20  and  N2_21 
REMARK    9  A    between atoms: C12_25  and  O5_26 
REMARK   10  A    between atoms: O5_26  and  C13_27 
REMARK   11  A    between atoms: C19_33  and  O6_34 
REMARK   12  A    between atoms: C20_36  and  O7_37 
ROOT
HETATM    1  C1  UNL     1      -2.452   6.254  -2.787  1.00  0.00     0.015 C 
HETATM    2  C2  UNL     1      -1.761   5.270  -2.719  1.00  0.00    -0.074 C 
HETATM    3  C3  UNL     1      -0.930   4.056  -2.653  1.00  0.00     0.302 C 
ENDROOT
BRANCH   3   4
HETATM    4  O1  UNL     1      -1.694   2.941  -2.429  1.00  0.00    -0.330 OA
BRANCH   4   5
HETATM    5  C4  UNL     1      -1.457   2.302  -1.226  1.00  0.00     0.296 C 
HETATM    6  O2  UNL     1      -0.945   1.021  -1.549  1.00  0.00    -0.326 OA
HETATM    7  C5  UNL     1      -0.447   0.464  -0.322  1.00  0.00     0.295 C 
HETATM    8  C12 UNL     1      -1.606   0.121   0.552  1.00  0.00     0.208 C 
HETATM    9  C19 UNL     1      -2.440   1.371   0.854  1.00  0.00     0.185 C 
HETATM   10  C20 UNL     1      -2.741   2.064  -0.464  1.00  0.00     0.204 C 
BRANCH   7  11
HETATM   11  O3  UNL     1       0.306  -0.614  -0.661  1.00  0.00    -0.351 OA
BRANCH  11  12
HETATM   12  C6  UNL     1       1.670  -0.429  -0.517  1.00  0.00     0.157 C 
HETATM   13  C7  UNL     1       2.289  -1.328   0.485  1.00  0.00     0.068 C 
HETATM   14  C8  UNL     1       3.775  -1.284   0.533  1.00  0.00     0.151 C 
HETATM   15  C9  UNL     1       4.340  -1.497  -0.868  1.00  0.00     0.214 C 
HETATM   16  C10 UNL     1       3.852  -0.343  -1.703  1.00  0.00     0.070 C 
HETATM   17  C11 UNL     1       2.365  -0.454  -1.863  1.00  0.00     0.214 C 
BRANCH  14  18
HETATM   18  O4  UNL     1       4.279  -0.076   1.004  1.00  0.00    -0.393 OA
ATOM     19  H4  UNL     1       5.228  -0.048   1.035  1.00  0.00     0.210 HD
ENDBRANCH  14  18
BRANCH  15  20
HETATM   20  N1  UNL     1       5.772  -1.516  -0.760  1.00  0.00    -0.072 N 
ATOM     21  H13 UNL     1       6.147  -0.685  -0.303  1.00  0.00     0.274 HD
ATOM     22  H12 UNL     1       6.110  -2.203  -0.087  1.00  0.00     0.274 HD
ATOM     23  H11 UNL     1       6.150  -1.658  -1.697  1.00  0.00     0.274 HD
ENDBRANCH  15  20
BRANCH  17  24
HETATM   24  N2  UNL     1       1.930   0.681  -2.654  1.00  0.00    -0.072 N 
ATOM     25  H23 UNL     1       0.915   0.721  -2.745  1.00  0.00     0.274 HD
ATOM     26  H22 UNL     1       2.067   1.566  -2.166  1.00  0.00     0.274 HD
ATOM     27  H21 UNL     1       2.398   0.664  -3.560  1.00  0.00     0.274 HD
ENDBRANCH  17  24
ENDBRANCH  11  12
ENDBRANCH   7  11
BRANCH   8  28
HETATM   28  O5  UNL     1      -1.221  -0.540   1.658  1.00  0.00    -0.373 OA
BRANCH  28  29
HETATM   29  C13 UNL     1      -1.810  -1.764   1.878  1.00  0.00     0.122 C 
HETATM   30  C14 UNL     1      -2.649  -1.560   3.156  1.00  0.00     0.032 C 
HETATM   31  C15 UNL     1      -3.527  -2.775   3.288  1.00  0.00     0.002 C 
HETATM   32  C16 UNL     1      -2.571  -3.932   3.615  1.00  0.00     0.000 C 
HETATM   33  C17 UNL     1      -1.631  -4.119   2.473  1.00  0.00     0.002 C 
HETATM   34  C18 UNL     1      -0.821  -2.850   2.209  1.00  0.00     0.032 C 
ENDBRANCH  28  29
ENDBRANCH   8  28
BRANCH   9  35
HETATM   35  O6  UNL     1      -1.772   2.261   1.655  1.00  0.00    -0.390 OA
ATOM     36  H6  UNL     1      -2.289   3.036   1.842  1.00  0.00     0.210 HD
ENDBRANCH   9  35
BRANCH  10  37
HETATM   37  O7  UNL     1      -3.513   1.155  -1.211  1.00  0.00    -0.388 OA
ATOM     38  H7  UNL     1      -4.320   1.005  -0.732  1.00  0.00     0.210 HD
ENDBRANCH  10  37
ENDBRANCH   4   5
ENDBRANCH   3   4
BRANCH   3  39
HETATM   39  C21 UNL     1      -0.063   3.944  -3.851  1.00  0.00     0.215 C 
HETATM   40  O8  UNL     1      -0.090   2.911  -4.530  1.00  0.00    -0.645 OA
HETATM   41  O9  UNL     1       0.761   5.011  -4.178  1.00  0.00    -0.645 OA
ENDBRANCH   3  39
TORSDOF 12
