REMARK  7 active torsions:
REMARK  status: ('A' for Active; 'I' for Inactive)
REMARK    1  A    between atoms: C2_2  and  O1_3 
REMARK    2  A    between atoms: O1_3  and  C3_4 
REMARK    3  A    between atoms: C3_4  and  C4_6 
REMARK    4  A    between atoms: C5_7  and  C6_8 
REMARK    5  A    between atoms: C7_9  and  S1_10 
REMARK    6  A    between atoms: S1_10  and  N1_13 
REMARK    7  A    between atoms: N1_13  and  N2_15 
ROOT
HETATM    1  C6  UNL     1      -0.653   0.340  -0.479  1.00  0.00     0.012 A 
HETATM    2  C7  UNL     1      -1.728  -0.067   0.319  1.00  0.00     0.115 A 
HETATM    3  C8  UNL     1      -2.915   0.201  -0.346  1.00  0.00     0.032 A 
HETATM    4  C9  UNL     1      -4.263  -0.102   0.209  1.00  0.00     0.070 C 
HETATM    5  N3  UNL     1      -2.616   0.757  -1.518  1.00  0.00    -0.356 N 
HETATM    6  C10 UNL     1      -3.578   1.192  -2.527  1.00  0.00     0.156 C 
HETATM    7  C11 UNL     1      -1.256   0.844  -1.607  1.00  0.00     0.019 A 
HETATM    8  C12 UNL     1      -0.557   1.418  -2.788  1.00  0.00     0.069 C 
ENDROOT
BRANCH   2   9
HETATM    9  S1  UNL     1      -1.652  -0.786   1.903  1.00  0.00     0.278 S 
HETATM   10  O3  UNL     1      -2.959  -0.445   2.628  1.00  0.00    -0.199 OA
HETATM   11  O4  UNL     1      -0.509  -0.279   2.705  1.00  0.00    -0.199 OA
BRANCH   9  12
HETATM   12  N1  UNL     1      -1.502  -2.516   1.799  1.00  0.00    -0.229 N 
ATOM     13  H1  UNL     1      -2.300  -3.150   1.754  1.00  0.00     0.199 HD
BRANCH  12  14
HETATM   14  N2  UNL     1      -0.180  -2.943   1.784  1.00  0.00    -0.336 N 
ATOM     15  H22 UNL     1       0.608  -2.297   1.830  1.00  0.00     0.177 HD
ATOM     16  H21 UNL     1      -0.092  -3.957   1.723  1.00  0.00     0.177 HD
ENDBRANCH  12  14
ENDBRANCH   9  12
ENDBRANCH   2   9
BRANCH   1  17
HETATM   17  C5  UNL     1       0.728   0.192  -0.094  1.00  0.00     0.021 C 
HETATM   18  C4  UNL     1       1.796   0.561  -0.760  1.00  0.00     0.083 C 
BRANCH  18  19
HETATM   19  C3  UNL     1       3.144   0.325  -0.203  1.00  0.00     0.282 C 
HETATM   20  O2  UNL     1       4.130   0.693  -0.872  1.00  0.00    -0.260 OA
BRANCH  19  21
HETATM   21  O1  UNL     1       3.367  -0.280   1.020  1.00  0.00    -0.319 OA
BRANCH  21  22
HETATM   22  C2  UNL     1       4.706  -0.477   1.499  1.00  0.00     0.174 C 
HETATM   23  C1  UNL     1       5.432   0.835   1.644  1.00  0.00     0.034 C 
ENDBRANCH  21  22
ENDBRANCH  19  21
ENDBRANCH  18  19
ENDBRANCH   1  17
TORSDOF 7
