REMARK  2 active torsions:
REMARK  status: ('A' for Active; 'I' for Inactive)
REMARK    1  A    between atoms: C2_2  and  C3_3 
REMARK    2  A    between atoms: C3_3  and  C4_4 
ROOT
HETATM    1  C4  UNL     1       1.500   0.398  -0.343  1.00  0.00     0.121 C 
HETATM    2  C5  UNL     1       1.046  -0.138   0.949  1.00  0.00     0.033 C 
HETATM    3  C6  UNL     1      -0.399  -0.301   1.170  1.00  0.00     0.014 C 
HETATM    4  C7  UNL     1      -1.279  -0.169  -0.024  1.00  0.00    -0.016 C 
HETATM    5  C8  UNL     1      -2.381  -1.182  -0.036  1.00  0.00     0.031 C 
HETATM    6  C9  UNL     1      -3.751  -0.628  -0.080  1.00  0.00     0.114 C 
HETATM    7  N1  UNL     1      -3.966   0.489  -0.920  1.00  0.00    -0.421 N 
ATOM      8  H1  UNL     1      -4.886   0.705  -1.303  1.00  0.00     0.153 HD
HETATM    9  C10 UNL     1      -2.828   1.295  -1.202  1.00  0.00     0.114 C 
HETATM   10  C11 UNL     1      -1.848   1.221  -0.067  1.00  0.00     0.031 C 
HETATM   11  C12 UNL     1      -0.414  -0.440  -1.257  1.00  0.00     0.177 C 
HETATM   12  O1  UNL     1       0.514   0.594  -1.293  1.00  0.00    -0.385 OA
ENDROOT
BRANCH   1  13
HETATM   13  C3  UNL     1       2.560  -0.489  -0.991  1.00  0.00     0.031 C 
BRANCH  13  14
HETATM   14  C2  UNL     1       3.779  -0.621  -0.111  1.00  0.00    -0.002 C 
HETATM   15  C1  UNL     1       4.429   0.711   0.170  1.00  0.00     0.005 C 
ENDBRANCH  13  14
ENDBRANCH   1  13
TORSDOF 2
