REMARK  4 active torsions:
REMARK  status: ('A' for Active; 'I' for Inactive)
REMARK    1  A    between atoms: C3_3  and  C4_4 
REMARK    2  A    between atoms: C8_14  and  N3_15 
REMARK    3  A    between atoms: N4_18  and  C11_19 
REMARK    4  A    between atoms: C11_19  and  C12_20 
ROOT
HETATM    1  C1  UNL     1       5.128  -3.068   0.741  1.00  0.00     0.112 C 
HETATM    2  C2  UNL     1       4.780  -1.657   0.567  1.00  0.00    -0.105 C 
HETATM    3  C3  UNL     1       4.495  -0.474   0.419  1.00  0.00    -0.064 C 
ENDROOT
BRANCH   3   4
HETATM    4  C4  UNL     1       4.176   0.917   0.268  1.00  0.00     0.061 A 
HETATM    5  C5  UNL     1       5.180   1.888   0.354  1.00  0.00     0.112 A 
HETATM    6  N1  UNL     1       4.919   3.197   0.223  1.00  0.00    -0.350 N 
HETATM    7  C6  UNL     1       3.676   3.603   0.003  1.00  0.00     0.123 A 
ATOM      8  H1  UNL     1       5.675   3.878   0.292  1.00  0.00     0.166 HD
HETATM    9  N2  UNL     1       3.411   4.849  -0.124  1.00  0.00    -0.384 N 
HETATM   10  C7  UNL     1       2.656   2.659  -0.088  1.00  0.00     0.105 A 
ATOM     11  H22 UNL     1       4.158   5.540  -0.057  1.00  0.00     0.157 HD
ATOM     12  H21 UNL     1       2.455   5.161  -0.293  1.00  0.00     0.157 HD
HETATM   13 CL1  UNL     1       1.026   3.206  -0.378  1.00  0.00    -0.078 Cl
HETATM   14  C8  UNL     1       2.871   1.303   0.040  1.00  0.00     0.081 A 
BRANCH  14  15
HETATM   15  N3  UNL     1       1.806   0.367  -0.064  1.00  0.00    -0.336 N 
HETATM   16  C9  UNL     1       1.158   0.041   1.192  1.00  0.00     0.174 C 
HETATM   17  C10 UNL     1       0.331  -1.222   1.109  1.00  0.00     0.083 C 
HETATM   18  N4  UNL     1      -0.834  -1.160   0.322  1.00  0.00    -0.367 N 
HETATM   19  C18 UNL     1      -0.790  -1.651  -1.005  1.00  0.00     0.171 C 
HETATM   20  C19 UNL     1       0.478  -2.285  -1.426  1.00  0.00     0.082 C 
HETATM   21  N5  UNL     1       1.609  -1.487  -1.504  1.00  0.00    -0.364 N 
HETATM   22  C20 UNL     1       1.554  -0.097  -1.414  1.00  0.00     0.183 C 
ATOM     23  H5  UNL     1       2.517  -1.934  -1.632  1.00  0.00     0.165 HD
BRANCH  18  24
HETATM   24  C11 UNL     1      -1.604  -0.010   0.566  1.00  0.00     0.068 C 
BRANCH  24  25
HETATM   25  C12 UNL     1      -2.897   0.062  -0.220  1.00  0.00     0.026 C 
HETATM   26  C13 UNL     1      -3.730  -1.132   0.150  1.00  0.00     0.012 C 
HETATM   27  C14 UNL     1      -4.979  -0.798   0.897  1.00  0.00     0.027 C 
HETATM   28  C15 UNL     1      -6.032  -0.374  -0.105  1.00  0.00     0.167 C 
HETATM   29  O1  UNL     1      -5.343   0.361  -1.098  1.00  0.00    -0.391 OA
HETATM   30  C16 UNL     1      -4.919   1.536  -0.476  1.00  0.00     0.168 C 
HETATM   31  C17 UNL     1      -3.592   1.369   0.194  1.00  0.00     0.036 C 
ENDBRANCH  24  25
ENDBRANCH  18  24
ENDBRANCH  14  15
ENDBRANCH   3   4
TORSDOF 4
