REMARK  8 active torsions:
REMARK  status: ('A' for Active; 'I' for Inactive)
REMARK    1  A    between atoms: C2_2  and  C3_3 
REMARK    2  A    between atoms: C3_3  and  N1_4 
REMARK    3  A    between atoms: C6_7  and  C7_8 
REMARK    4  A    between atoms: C7_8  and  C8_9 
REMARK    5  A    between atoms: C8_9  and  C9_10 
REMARK       I    between atoms: C9_10  and  N2_12 
REMARK    6  A    between atoms: N2_12  and  C10_13 
REMARK    7  A    between atoms: N2_12  and  C13_16 
REMARK    8  A    between atoms: N3_21  and  O2_22 
ROOT
HETATM    1  C9  UNL     1      -1.610  -1.512  -0.088  1.00  0.00     0.221 C 
HETATM    2  O1  UNL     1      -1.312  -2.653   0.432  1.00  0.00    -0.273 OA
HETATM    3  N2  UNL     1      -2.953  -1.104  -0.045  1.00  0.00    -0.333 N 
ENDROOT
BRANCH   3   4
HETATM    4  C10 UNL     1      -3.918  -2.032   0.504  1.00  0.00     0.088 A 
HETATM    5  C11 UNL     1      -3.663  -2.866   1.702  1.00  0.00     0.027 A 
HETATM    6  C12 UNL     1      -3.806  -3.508   0.397  1.00  0.00     0.027 A 
ENDBRANCH   3   4
BRANCH   3   7
HETATM    7  C13 UNL     1      -3.423   0.199  -0.481  1.00  0.00     0.086 C 
HETATM    8  C14 UNL     1      -2.938   0.433  -1.912  1.00  0.00     0.044 C 
HETATM    9  C15 UNL     1      -4.921   0.296  -0.586  1.00  0.00     0.215 C 
HETATM   10  F1  UNL     1      -5.291   1.280  -1.552  1.00  0.00    -0.245 F 
HETATM   11  C16 UNL     1      -5.331   0.969   0.722  1.00  0.00     0.161 C 
HETATM   12  N3  UNL     1      -4.386   2.042   0.713  1.00  0.00    -0.185 NA
HETATM   13  C17 UNL     1      -3.112   1.362   0.380  1.00  0.00     0.059 C 
HETATM   14  C18 UNL     1      -2.356   2.487  -0.354  1.00  0.00     0.037 C 
HETATM   15  C19 UNL     1      -2.458   1.085   1.688  1.00  0.00     0.037 C 
BRANCH  12  16
HETATM   16  O2  UNL     1      -4.347   2.764   1.811  1.00  0.00    -0.312 OA
ATOM     17  H2  UNL     1      -3.719   3.477   1.805  1.00  0.00     0.237 HD
ENDBRANCH  12  16
ENDBRANCH   3   7
BRANCH   1  18
HETATM   18  C8  UNL     1      -0.442  -0.825  -0.657  1.00  0.00     0.103 C 
BRANCH  18  19
HETATM   19  C7  UNL     1       0.858  -1.547  -0.326  1.00  0.00     0.014 C 
BRANCH  19  20
HETATM   20  C6  UNL     1       2.072  -0.895  -0.881  1.00  0.00    -0.011 C 
HETATM   21  C5  UNL     1       2.355   0.494  -0.437  1.00  0.00     0.035 C 
HETATM   22  C4  UNL     1       3.390   0.527   0.686  1.00  0.00     0.272 C 
HETATM   23  N1  UNL     1       4.671   0.075   0.254  1.00  0.00     0.088 N 
HETATM   24  C21 UNL     1       4.580  -0.970  -0.745  1.00  0.00     0.272 C 
HETATM   25  C20 UNL     1       3.300  -1.751  -0.538  1.00  0.00     0.035 C 
BRANCH  23  26
HETATM   26  C3  UNL     1       5.552   1.150  -0.151  1.00  0.00     0.272 C 
BRANCH  26  27
HETATM   27  C2  UNL     1       6.899   0.626  -0.600  1.00  0.00     0.026 C 
HETATM   28  C1  UNL     1       7.749   1.806  -1.002  1.00  0.00     0.007 C 
ENDBRANCH  26  27
ENDBRANCH  23  26
ENDBRANCH  19  20
ENDBRANCH  18  19
ENDBRANCH   1  18
TORSDOF 8
