REMARK  10 active torsions:
REMARK  status: ('A' for Active; 'I' for Inactive)
REMARK    1  A    between atoms: N3_4  and  C2_6 
REMARK    2  A    between atoms: C2_6  and  C3_7 
REMARK    3  A    between atoms: C3_7  and  N4_8 
REMARK    4  A    between atoms: N4_8  and  C4_9 
REMARK    5  A    between atoms: C4_9  and  C5_10 
REMARK    6  A    between atoms: C5_10  and  C6_11 
REMARK    7  A    between atoms: C6_11  and  N5_12 
REMARK    8  A    between atoms: N5_12  and  N6_14 
REMARK    9  A    between atoms: N9_19  and  C8_21 
REMARK   10  A    between atoms: C8_21  and  C9_22 
ROOT
HETATM    1  N4  UNL     1      -0.564   0.243  -0.183  1.00  0.00    -0.330 N 
HETATM    2  N9  UNL     1      -0.585   1.275   0.503  1.00  0.00    -0.334 N 
ATOM      3  H9  UNL     1       0.156   1.956   0.336  1.00  0.00     0.180 HD
ENDROOT
BRANCH   1   4
HETATM    4  C3  UNL     1      -1.570  -0.732   0.008  1.00  0.00     0.161 C 
BRANCH   4   5
HETATM    5  C2  UNL     1      -1.191  -1.978   0.728  1.00  0.00     0.143 C 
BRANCH   5   6
HETATM    6  N3  UNL     1      -2.410  -2.828   0.824  1.00  0.00    -0.365 N 
HETATM    7  C1  UNL     1      -2.598  -3.682  -0.122  1.00  0.00     0.197 C 
HETATM    8  N1  UNL     1      -1.690  -3.802  -1.194  1.00  0.00    -0.067 NA
HETATM    9  N2  UNL     1      -3.748  -4.519  -0.085  1.00  0.00    -0.067 NA
ATOM     10  H3  UNL     1      -3.064  -2.738   1.601  1.00  0.00     0.161 HD
ENDBRANCH   5   6
ENDBRANCH   4   5
ENDBRANCH   1   4
BRANCH   1  11
HETATM   11  C4  UNL     1       0.497   0.110  -1.103  1.00  0.00     0.143 C 
BRANCH  11  12
HETATM   12  C5  UNL     1       1.570  -0.879  -0.831  1.00  0.00     0.042 C 
BRANCH  12  13
HETATM   13  C6  UNL     1       2.300  -0.636   0.473  1.00  0.00     0.141 C 
BRANCH  13  14
HETATM   14  N5  UNL     1       2.928   0.666   0.472  1.00  0.00    -0.334 N 
ATOM     15  H5  UNL     1       2.676   1.340   1.195  1.00  0.00     0.180 HD
BRANCH  14  16
HETATM   16  N6  UNL     1       3.869   1.023  -0.492  1.00  0.00    -0.280 N 
HETATM   17  C7  UNL     1       5.146   0.867  -0.300  1.00  0.00     0.215 C 
HETATM   18  N7  UNL     1       6.105   1.228  -1.277  1.00  0.00    -0.065 NA
HETATM   19  N8  UNL     1       5.556   0.316   0.934  1.00  0.00    -0.065 NA
ATOM     20  H6  UNL     1       3.546   1.419  -1.375  1.00  0.00     0.189 HD
ENDBRANCH  14  16
ENDBRANCH  13  14
ENDBRANCH  12  13
ENDBRANCH  11  12
ENDBRANCH   1  11
BRANCH   2  21
HETATM   21  C8  UNL     1      -1.542   1.597   1.498  1.00  0.00     0.185 C 
BRANCH  21  22
HETATM   22  C9  UNL     1      -2.413   2.681   0.912  1.00  0.00     0.002 A 
HETATM   23  C10 UNL     1      -3.541   2.583   0.148  1.00  0.00     0.017 A 
HETATM   24  C11 UNL     1      -4.124   3.719  -0.242  1.00  0.00     0.008 A 
HETATM   25  C12 UNL     1      -3.546   4.895   0.153  1.00  0.00     0.050 A 
HETATM   26  S1  UNL     1      -2.198   4.367   1.063  1.00  0.00    -0.105 SA
ENDBRANCH  21  22
ENDBRANCH   2  21
TORSDOF 10
