REMARK  12 active torsions:
REMARK  status: ('A' for Active; 'I' for Inactive)
REMARK    1  A    between atoms: C2_5  and  C3_6 
REMARK    2  A    between atoms: C2_5  and  N8_21 
REMARK    3  A    between atoms: C3_6  and  C4_7 
REMARK    4  A    between atoms: C4_7  and  C5_8 
REMARK    5  A    between atoms: C5_8  and  C6_9 
REMARK    6  A    between atoms: C6_9  and  N3_10 
REMARK       I    between atoms: C7_12  and  N5_14 
REMARK    7  A    between atoms: N5_14  and  N6_16 
REMARK    8  A    between atoms: N8_21  and  C8_23 
REMARK    9  A    between atoms: C8_23  and  C9_24 
REMARK   10  A    between atoms: C9_24  and  C10_25 
REMARK   11  A    between atoms: C10_25  and  C11_26 
REMARK   12  A    between atoms: C11_26  and  N9_27 
ROOT
HETATM    1  N1  UNL     1       0.134  -3.593  -1.249  1.00  0.00    -0.172 NA
HETATM    2  C1  UNL     1       0.467  -2.658  -0.662  1.00  0.00     0.183 C 
HETATM    3  N2  UNL     1       0.853  -1.536   0.063  1.00  0.00    -0.283 N 
ATOM      4  H2  UNL     1       1.477  -1.636   0.864  1.00  0.00     0.179 HD
HETATM    5  C2  UNL     1       0.427  -0.380  -0.273  1.00  0.00     0.086 C 
ENDROOT
BRANCH   5   6
HETATM    6  C3  UNL     1       0.736   0.894   0.379  1.00  0.00     0.077 C 
BRANCH   6   7
HETATM    7  C4  UNL     1       1.828   0.846   1.400  1.00  0.00     0.013 C 
BRANCH   7   8
HETATM    8  C5  UNL     1       3.163   0.451   0.813  1.00  0.00     0.045 C 
BRANCH   8   9
HETATM    9  C6  UNL     1       4.236   0.417   1.880  1.00  0.00     0.063 C 
BRANCH   9  10
HETATM   10  N3  UNL     1       5.480   0.044   1.360  1.00  0.00    -0.343 N 
HETATM   11  C7  UNL     1       5.981  -0.190   0.257  1.00  0.00     0.207 C 
HETATM   12  N4  UNL     1       5.285  -0.122  -0.961  1.00  0.00    -0.062 NA
HETATM   13  N5  UNL     1       7.376  -0.564   0.151  1.00  0.00    -0.259 N 
ATOM     14  H5  UNL     1       7.711  -1.188  -0.583  1.00  0.00     0.191 HD
ATOM     15  H3  UNL     1       6.169  -0.066   2.104  1.00  0.00     0.167 HD
BRANCH  13  16
HETATM   16  N6  UNL     1       8.231  -0.029   1.099  1.00  0.00    -0.247 N 
HETATM   17  N7  UNL     1       8.485  -0.673   2.146  1.00  0.00    -0.331 N 
ATOM     18  H72 UNL     1       8.054  -1.587   2.283  1.00  0.00     0.178 HD
ATOM     19  H71 UNL     1       9.115  -0.279   2.845  1.00  0.00     0.178 HD
ATOM     20  H6  UNL     1       8.654   0.887   0.947  1.00  0.00     0.207 HD
ENDBRANCH  13  16
ENDBRANCH   9  10
ENDBRANCH   8   9
ENDBRANCH   7   8
ENDBRANCH   6   7
ENDBRANCH   5   6
BRANCH   5  21
HETATM   21  N8  UNL     1      -0.475  -0.324  -1.403  1.00  0.00    -0.379 N 
ATOM     22  H8  UNL     1      -0.232  -0.735  -2.305  1.00  0.00     0.160 HD
BRANCH  21  23
HETATM   23  C8  UNL     1      -1.737   0.344  -1.187  1.00  0.00     0.121 C 
BRANCH  23  24
HETATM   24  C9  UNL     1      -2.582  -0.459  -0.237  1.00  0.00     0.021 C 
BRANCH  24  25
HETATM   25  C10 UNL     1      -3.922   0.160   0.052  1.00  0.00     0.021 C 
BRANCH  25  26
HETATM   26  C11 UNL     1      -4.694   0.294  -1.232  1.00  0.00     0.122 C 
BRANCH  26  27
HETATM   27  N9  UNL     1      -6.003   0.884  -1.025  1.00  0.00    -0.367 N 
HETATM   28  C12 UNL     1      -6.967   0.193  -0.492  1.00  0.00     0.196 C 
HETATM   29  N10 UNL     1      -6.799  -1.159  -0.088  1.00  0.00    -0.067 NA
HETATM   30  N11 UNL     1      -8.230   0.792  -0.303  1.00  0.00    -0.067 NA
ATOM     31  H9  UNL     1      -6.169   1.852  -1.301  1.00  0.00     0.161 HD
ENDBRANCH  26  27
ENDBRANCH  25  26
ENDBRANCH  24  25
ENDBRANCH  23  24
ENDBRANCH  21  23
ENDBRANCH   5  21
TORSDOF 12
