REMARK  4 active torsions:
REMARK  status: ('A' for Active; 'I' for Inactive)
REMARK    1  A    between atoms: C4_5  and  N2_6 
REMARK    2  A    between atoms: N2_6  and  C5_8 
REMARK    3  A    between atoms: C5_8  and  C7_11 
REMARK    4  A    between atoms: C8_12  and  C9_13 
ROOT
HETATM    1  C5  UNL     1       1.178   0.045   0.740  1.00  0.00     0.266 C 
HETATM    2  C6  UNL     1       1.070  -1.044   1.789  1.00  0.00     0.097 C 
HETATM    3  N3  UNL     1       1.006  -1.882   2.565  1.00  0.00    -0.194 NA
ENDROOT
BRANCH   1   4
HETATM    4  N2  UNL     1       1.796  -0.515  -0.411  1.00  0.00    -0.391 N 
ATOM      5  H2  UNL     1       1.271  -0.572  -1.284  1.00  0.00     0.155 HD
BRANCH   4   6
HETATM    6  C4  UNL     1       3.102  -0.986  -0.368  1.00  0.00     0.108 C 
HETATM    7  C3  UNL     1       3.907  -0.272  -1.467  1.00  0.00     0.056 C 
HETATM    8  C2  UNL     1       5.302  -0.385  -0.953  1.00  0.00     0.274 C 
HETATM    9  N1  UNL     1       5.134  -0.070   0.439  1.00  0.00     0.086 N 
HETATM   10  C1  UNL     1       4.905   1.369   0.548  1.00  0.00     0.310 C 
HETATM   11  C15 UNL     1       3.900  -0.722   0.845  1.00  0.00     0.296 C 
ENDBRANCH   4   6
ENDBRANCH   1   4
BRANCH   1  12
HETATM   12  C7  UNL     1      -0.235   0.291   0.326  1.00  0.00    -0.064 C 
HETATM   13  C8  UNL     1      -1.378   0.434  -0.023  1.00  0.00    -0.067 C 
BRANCH  13  14
HETATM   14  C9  UNL     1      -2.752   0.539  -0.437  1.00  0.00     0.300 C 
HETATM   15  C10 UNL     1      -3.396   1.804  -0.068  1.00  0.00     0.049 C 
HETATM   16  C11 UNL     1      -4.852   1.800  -0.535  1.00  0.00     0.005 C 
HETATM   17  C12 UNL     1      -5.590   0.549  -0.222  1.00  0.00     0.030 C 
HETATM   18  C13 UNL     1      -4.781  -0.717  -0.250  1.00  0.00     0.273 C 
HETATM   19  N4  UNL     1      -3.459  -0.568   0.229  1.00  0.00     0.100 N 
HETATM   20  C14 UNL     1      -2.675  -1.750  -0.074  1.00  0.00     0.311 C 
ENDBRANCH  13  14
ENDBRANCH   1  12
TORSDOF 4
