REMARK  12 active torsions:
REMARK  status: ('A' for Active; 'I' for Inactive)
REMARK    1  A    between atoms: N3_4  and  C2_6 
REMARK    2  A    between atoms: C2_6  and  C3_7 
REMARK    3  A    between atoms: C3_7  and  C4_8 
REMARK    4  A    between atoms: C4_8  and  C5_9 
REMARK    5  A    between atoms: C5_9  and  N4_10 
REMARK    6  A    between atoms: N4_10  and  C6_12 
REMARK    7  A    between atoms: C8_19  and  N8_20 
REMARK    8  A    between atoms: N8_20  and  C9_22 
REMARK    9  A    between atoms: C9_22  and  C10_23 
REMARK   10  A    between atoms: C10_23  and  C11_24 
REMARK   11  A    between atoms: C11_24  and  C12_25 
REMARK   12  A    between atoms: C12_25  and  O1_26 
ROOT
HETATM    1  C6  UNL     1      -0.166  -0.545  -1.183  1.00  0.00     0.695 A 
HETATM    2  N5  UNL     1       0.224  -1.472  -0.290  1.00  0.00    -0.162 N 
ATOM      3  H5  UNL     1       1.212  -1.718  -0.226  1.00  0.00     0.187 HD
HETATM    4  C7  UNL     1      -0.660  -2.083   0.521  1.00  0.00     0.221 A 
HETATM    5  N6  UNL     1      -0.230  -3.068   1.467  1.00  0.00    -0.062 NA
HETATM    6  N7  UNL     1      -1.956  -1.738   0.411  1.00  0.00    -0.162 N 
ATOM      7  H7  UNL     1      -2.632  -2.197   1.022  1.00  0.00     0.187 HD
HETATM    8  C8  UNL     1      -2.407  -0.821  -0.461  1.00  0.00     0.695 A 
HETATM    9  N9  UNL     1      -1.462  -0.239  -1.252  1.00  0.00    -0.022 N 
ATOM     10  H9  UNL     1      -1.760   0.464  -1.929  1.00  0.00     0.203 HD
ENDROOT
BRANCH   1  11
HETATM   11  N4  UNL     1       0.674   0.058  -1.976  1.00  0.00    -0.225 N 
ATOM     12  H4  UNL     1       0.354   0.758  -2.645  1.00  0.00     0.177 HD
BRANCH  11  13
HETATM   13  C5  UNL     1       2.074  -0.295  -1.879  1.00  0.00     0.138 C 
BRANCH  13  14
HETATM   14  C4  UNL     1       2.814   0.909  -1.332  1.00  0.00     0.022 C 
BRANCH  14  15
HETATM   15  C3  UNL     1       4.297   0.616  -1.200  1.00  0.00     0.021 C 
BRANCH  15  16
HETATM   16  C2  UNL     1       4.952   1.879  -0.647  1.00  0.00     0.122 C 
BRANCH  16  17
HETATM   17  N3  UNL     1       6.375   1.651  -0.501  1.00  0.00    -0.367 N 
HETATM   18  C1  UNL     1       6.878   1.181   0.593  1.00  0.00     0.196 C 
HETATM   19  N1  UNL     1       8.252   0.945   0.775  1.00  0.00    -0.067 NA
HETATM   20  N2  UNL     1       6.001   0.890   1.658  1.00  0.00    -0.067 NA
ATOM     21  H3  UNL     1       6.996   1.867  -1.281  1.00  0.00     0.161 HD
ENDBRANCH  16  17
ENDBRANCH  15  16
ENDBRANCH  14  15
ENDBRANCH  13  14
ENDBRANCH  11  13
ENDBRANCH   1  11
BRANCH   8  22
HETATM   22  N8  UNL     1      -3.638  -0.480  -0.578  1.00  0.00    -0.225 N 
ATOM     23  H8  UNL     1      -3.919   0.225  -1.259  1.00  0.00     0.177 HD
BRANCH  22  24
HETATM   24  C9  UNL     1      -4.607  -1.106   0.264  1.00  0.00     0.138 C 
BRANCH  24  25
HETATM   25  C10 UNL     1      -6.032  -0.828  -0.152  1.00  0.00     0.022 C 
BRANCH  25  26
HETATM   26  C11 UNL     1      -6.366   0.630  -0.137  1.00  0.00     0.028 C 
BRANCH  26  27
HETATM   27  C12 UNL     1      -6.210   1.264   1.211  1.00  0.00     0.164 C 
BRANCH  27  28
HETATM   28  O1  UNL     1      -7.062   0.615   2.095  1.00  0.00    -0.401 OA
ATOM     29  H1  UNL     1      -6.963   1.017   2.950  1.00  0.00     0.209 HD
ENDBRANCH  27  28
ENDBRANCH  26  27
ENDBRANCH  25  26
ENDBRANCH  24  25
ENDBRANCH  22  24
ENDBRANCH   8  22
TORSDOF 12
