REMARK  1 active torsions:
REMARK  status: ('A' for Active; 'I' for Inactive)
REMARK       I    between atoms: N1_2  and  C3_4 
REMARK       I    between atoms: C3_4  and  N3_8 
REMARK    1  A    between atoms: N3_8  and  C4_10 
ROOT
HETATM    1  C4  UNL     1      -1.916   0.464  -0.149  1.00  0.00     0.693 A 
HETATM    2  N4  UNL     1      -1.380   0.403   1.006  1.00  0.00    -0.221 N 
ATOM      3  H4  UNL     1      -2.013   0.426   1.805  1.00  0.00     0.178 HD
HETATM    4  C5  UNL     1       0.014   0.306   1.298  1.00  0.00     0.180 A 
HETATM    5  C6  UNL     1       0.847   0.280   0.084  1.00  0.00     0.005 A 
HETATM    6  C7  UNL     1       0.336   0.342  -1.201  1.00  0.00     0.058 A 
HETATM    7  C8  UNL     1       1.236   0.306  -2.215  1.00  0.00     0.031 A 
HETATM    8  C9  UNL     1       2.575   0.215  -2.029  1.00  0.00     0.016 A 
HETATM    9  C10 UNL     1       3.141   0.149  -0.731  1.00  0.00    -0.007 A 
HETATM   10  C11 UNL     1       2.232   0.185   0.288  1.00  0.00     0.027 A 
HETATM   11  S1  UNL     1       3.194   0.091   1.687  1.00  0.00    -0.088 SA
HETATM   12  C12 UNL     1       4.735   0.008   0.957  1.00  0.00     0.016 A 
HETATM   13  C13 UNL     1       6.050  -0.089   1.454  1.00  0.00     0.020 A 
HETATM   14  C14 UNL     1       7.132  -0.140   0.597  1.00  0.00     0.001 A 
HETATM   15  C15 UNL     1       6.833  -0.090  -0.737  1.00  0.00     0.001 A 
HETATM   16  C16 UNL     1       5.577   0.003  -1.242  1.00  0.00     0.013 A 
HETATM   17  C17 UNL     1       4.452   0.056  -0.378  1.00  0.00    -0.007 A 
HETATM   18  N5  UNL     1      -1.072   0.436  -1.320  1.00  0.00    -0.191 N 
ATOM     19  H5  UNL     1      -1.496   0.485  -2.246  1.00  0.00     0.184 HD
ENDROOT
BRANCH   1  20
HETATM   20  N3  UNL     1      -3.324   0.560  -0.372  1.00  0.00    -0.023 N 
HETATM   21  C3  UNL     1      -4.175  -0.499   0.057  1.00  0.00     0.687 C 
HETATM   22  N1  UNL     1      -5.575  -0.329   0.080  1.00  0.00    -0.226 N 
HETATM   23  N2  UNL     1      -3.711  -1.639   0.436  1.00  0.00    -0.234 N 
HETATM   24  C1  UNL     1      -6.431  -1.418  -0.311  1.00  0.00     0.168 C 
HETATM   25  C2  UNL     1      -6.122   0.939   0.498  1.00  0.00     0.168 C 
ATOM     26  H22 UNL     1      -4.320  -2.397   0.743  1.00  0.00     0.174 HD
ATOM     27  H21 UNL     1      -2.699  -1.762   0.419  1.00  0.00     0.174 HD
ATOM     28  H3  UNL     1      -3.717   1.380  -0.835  1.00  0.00     0.203 HD
ENDBRANCH   1  20
TORSDOF 1
