REMARK  2 active torsions:
REMARK  status: ('A' for Active; 'I' for Inactive)
REMARK    1  A    between atoms: N1_1  and  C1_4 
REMARK    2  A    between atoms: C2_7  and  N3_8 
ROOT
HETATM    1  C1  UNL     1      -3.017   1.043   0.606  1.00  0.00     0.111 C 
HETATM    2  N2  UNL     1      -3.060   2.005  -0.368  1.00  0.00    -0.328 N 
ATOM      3  H2  UNL     1      -3.844   2.656  -0.330  1.00  0.00     0.169 HD
HETATM    4  C2  UNL     1      -2.167   2.187  -1.384  1.00  0.00     0.120 C 
HETATM    5  C3  UNL     1      -0.804   1.800  -1.356  1.00  0.00     0.080 A 
HETATM    6  S1  UNL     1       0.488   2.637  -2.027  1.00  0.00    -0.047 SA
HETATM    7  C4  UNL     1       1.753   1.652  -1.363  1.00  0.00     0.157 A 
HETATM    8  N4  UNL     1       3.085   1.600  -1.287  1.00  0.00    -0.334 N 
ATOM      9  H4  UNL     1       3.760   2.205  -1.755  1.00  0.00     0.168 HD
HETATM   10  C5  UNL     1       3.340   0.572  -0.457  1.00  0.00     0.061 A 
HETATM   11  C6  UNL     1       4.558   0.149   0.014  1.00  0.00     0.032 A 
HETATM   12  C7  UNL     1       4.671  -0.848   0.926  1.00  0.00     0.002 A 
HETATM   13  C8  UNL     1       3.507  -1.427   1.369  1.00  0.00     0.002 A 
HETATM   14  C9  UNL     1       2.288  -1.006   0.896  1.00  0.00     0.032 A 
HETATM   15  C10 UNL     1       2.144   0.001  -0.036  1.00  0.00     0.068 A 
HETATM   16  N5  UNL     1       1.109   0.695  -0.636  1.00  0.00    -0.287 N 
HETATM   17  C11 UNL     1      -0.194   0.762  -0.643  1.00  0.00     0.074 A 
HETATM   18  C12 UNL     1      -1.029  -0.273  -0.159  1.00  0.00     0.007 A 
HETATM   19  C13 UNL     1      -0.527  -1.522  -0.375  1.00  0.00     0.015 A 
HETATM   20  C14 UNL     1      -1.275  -2.608   0.093  1.00  0.00     0.001 A 
HETATM   21  C15 UNL     1      -2.486  -2.464   0.750  1.00  0.00     0.001 A 
HETATM   22  C16 UNL     1      -2.989  -1.199   0.956  1.00  0.00     0.016 A 
HETATM   23  C17 UNL     1      -2.261  -0.126   0.499  1.00  0.00     0.020 A 
ENDROOT
BRANCH   1  24
HETATM   24  N1  UNL     1      -3.718   1.198   1.630  1.00  0.00    -0.385 N 
ATOM     25  H12 UNL     1      -4.270   2.052   1.708  1.00  0.00     0.157 HD
ATOM     26  H11 UNL     1      -3.686   0.482   2.355  1.00  0.00     0.157 HD
ENDBRANCH   1  24
BRANCH   4  27
HETATM   27  N3  UNL     1      -2.492   2.767  -2.452  1.00  0.00    -0.384 N 
ATOM     28  H32 UNL     1      -3.473   3.046  -2.472  1.00  0.00     0.157 HD
ATOM     29  H31 UNL     1      -1.825   2.903  -3.211  1.00  0.00     0.157 HD
ENDBRANCH   4  27
TORSDOF 2
