REMARK  6 active torsions:
REMARK  status: ('A' for Active; 'I' for Inactive)
REMARK    1  A    between atoms: O1_1  and  C1_3 
REMARK    2  A    between atoms: C1_3  and  C2_4 
REMARK    3  A    between atoms: C3_6  and  N1_7 
REMARK    4  A    between atoms: C9_14  and  O3_15 
REMARK    5  A    between atoms: C10_17  and  O4_18 
REMARK    6  A    between atoms: C11_20  and  O5_21 
ROOT
HETATM    1  C2  UNL     1      -1.900   0.019  -0.568  1.00  0.00     0.179 C 
HETATM    2  O2  UNL     1      -0.609  -0.064  -1.022  1.00  0.00    -0.354 OA
HETATM    3  C3  UNL     1       0.277   0.196  -0.003  1.00  0.00     0.259 C 
HETATM    4  C9  UNL     1      -0.171  -0.619   1.204  1.00  0.00     0.198 C 
HETATM    5  C10 UNL     1      -1.268   0.231   1.846  1.00  0.00     0.182 C 
HETATM    6  C11 UNL     1      -2.065   0.812   0.695  1.00  0.00     0.180 C 
ENDROOT
BRANCH   3   7
HETATM    7  N1  UNL     1       1.639  -0.051  -0.363  1.00  0.00    -0.337 N 
HETATM    8  C4  UNL     1       2.616   0.360   0.450  1.00  0.00     0.094 A 
HETATM    9  C5  UNL     1       3.929   0.130   0.119  1.00  0.00     0.036 A 
HETATM   10  C6  UNL     1       4.227  -0.525  -1.056  1.00  0.00     0.013 A 
HETATM   11 BR1  UNL     1       6.079  -0.827  -1.483  1.00  0.00    -0.051 Br
HETATM   12  C7  UNL     1       3.220  -0.951  -1.899  1.00  0.00     0.036 A 
HETATM   13  C8  UNL     1       1.906  -0.689  -1.507  1.00  0.00     0.094 A 
ENDBRANCH   3   7
BRANCH   4  14
HETATM   14  O3  UNL     1       0.850  -0.903   2.066  1.00  0.00    -0.388 OA
ATOM     15  H3  UNL     1       0.571  -1.411   2.819  1.00  0.00     0.210 HD
ENDBRANCH   4  14
BRANCH   1  16
HETATM   16  C1  UNL     1      -2.721   0.716  -1.645  1.00  0.00     0.198 C 
BRANCH  16  17
HETATM   17  O1  UNL     1      -2.625  -0.081  -2.807  1.00  0.00    -0.398 OA
ATOM     18  H1  UNL     1      -3.137   0.354  -3.479  1.00  0.00     0.209 HD
ENDBRANCH  16  17
ENDBRANCH   1  16
BRANCH   5  19
HETATM   19  O4  UNL     1      -2.028  -0.479   2.737  1.00  0.00    -0.390 OA
ATOM     20  H4  UNL     1      -2.710   0.049   3.136  1.00  0.00     0.210 HD
ENDBRANCH   5  19
BRANCH   6  21
HETATM   21  O5  UNL     1      -3.424   0.709   1.064  1.00  0.00    -0.390 OA
ATOM     22  H5  UNL     1      -3.528   1.211   1.864  1.00  0.00     0.210 HD
ENDBRANCH   6  21
TORSDOF 6
