REMARK  9 active torsions:
REMARK  status: ('A' for Active; 'I' for Inactive)
REMARK    1  A    between atoms: N1_1  and  N2_4 
REMARK    2  A    between atoms: N2_4  and  C1_6 
REMARK    3  A    between atoms: C1_6  and  O1_8 
REMARK    4  A    between atoms: O1_8  and  C2_9 
REMARK    5  A    between atoms: C3_10  and  O2_11 
REMARK    6  A    between atoms: C4_13  and  O3_14 
REMARK    7  A    between atoms: C5_16  and  C6_17 
REMARK    8  A    between atoms: C6_17  and  O4_18 
REMARK    9  A    between atoms: C7_21  and  N3_22 
ROOT
HETATM    1  C2  UNL     1       1.481   0.173   0.072  1.00  0.00     0.211 C 
HETATM    2  C3  UNL     1       2.679  -0.501   0.667  1.00  0.00     0.183 C 
HETATM    3  C4  UNL     1       2.474  -1.923   1.081  1.00  0.00     0.180 C 
HETATM    4  C5  UNL     1       1.499  -2.691   0.244  1.00  0.00     0.179 C 
HETATM    5  O5  UNL     1       0.347  -1.971  -0.031  1.00  0.00    -0.353 OA
HETATM    6  C7  UNL     1       0.562  -0.785  -0.674  1.00  0.00     0.259 C 
ENDROOT
BRANCH   6   7
HETATM    7  N3  UNL     1      -0.749  -0.147  -0.830  1.00  0.00    -0.336 N 
HETATM    8  C8  UNL     1      -1.042   0.628  -1.889  1.00  0.00     0.094 A 
HETATM    9  C9  UNL     1      -2.275   1.218  -2.019  1.00  0.00     0.029 A 
HETATM   10  C10 UNL     1      -3.250   1.036  -1.071  1.00  0.00    -0.023 A 
HETATM   11  C11 UNL     1      -4.518   1.600  -1.141  1.00  0.00     0.012 A 
HETATM   12  C15 UNL     1      -2.973   0.252   0.013  1.00  0.00    -0.010 A 
HETATM   13  C12 UNL     1      -5.471   1.392  -0.170  1.00  0.00     0.001 A 
HETATM   14  C13 UNL     1      -5.167   0.597   0.913  1.00  0.00     0.001 A 
HETATM   15  C14 UNL     1      -3.913   0.030   0.997  1.00  0.00     0.013 A 
HETATM   16  C16 UNL     1      -1.699  -0.330   0.102  1.00  0.00     0.105 A 
ENDBRANCH   6   7
BRANCH   1  17
HETATM   17  O1  UNL     1       1.803   1.286  -0.691  1.00  0.00    -0.313 OA
BRANCH  17  18
HETATM   18  C1  UNL     1       2.438   2.435  -0.313  1.00  0.00     0.229 C 
HETATM   19  S1  UNL     1       3.715   2.480   0.688  1.00  0.00    -0.032 SA
BRANCH  18  20
HETATM   20  N2  UNL     1       1.964   3.694  -0.822  1.00  0.00    -0.277 N 
ATOM     21  H2  UNL     1       1.163   3.698  -1.453  1.00  0.00     0.189 HD
BRANCH  20  22
HETATM   22  N1  UNL     1       2.558   4.909  -0.485  1.00  0.00    -0.343 N 
ATOM     23  H12 UNL     1       3.358   4.887   0.147  1.00  0.00     0.176 HD
ATOM     24  H11 UNL     1       2.222   5.802  -0.846  1.00  0.00     0.176 HD
ENDBRANCH  20  22
ENDBRANCH  18  20
ENDBRANCH  17  18
ENDBRANCH   1  17
BRANCH   2  25
HETATM   25  O2  UNL     1       3.758  -0.511  -0.249  1.00  0.00    -0.390 OA
ATOM     26  H2  UNL     1       4.518  -0.938   0.128  1.00  0.00     0.210 HD
ENDBRANCH   2  25
BRANCH   4  27
HETATM   27  C6  UNL     1       1.047  -3.960   0.944  1.00  0.00     0.198 C 
BRANCH  27  28
HETATM   28  O4  UNL     1       2.138  -4.762   1.270  1.00  0.00    -0.398 OA
ATOM     29  H4  UNL     1       1.855  -5.556   1.708  1.00  0.00     0.209 HD
ENDBRANCH  27  28
ENDBRANCH   4  27
BRANCH   3  30
HETATM   30  O3  UNL     1       2.066  -1.927   2.427  1.00  0.00    -0.390 OA
ATOM     31  H3  UNL     1       1.936  -2.831   2.690  1.00  0.00     0.210 HD
ENDBRANCH   3  30
TORSDOF 9
