REMARK  6 active torsions:
REMARK  status: ('A' for Active; 'I' for Inactive)
REMARK    1  A    between atoms: C2_2  and  C3_3 
REMARK    2  A    between atoms: C5_5  and  C6_6 
REMARK    3  A    between atoms: C16_18  and  C18_20 
REMARK    4  A    between atoms: C19_22  and  O4_23 
REMARK    5  A    between atoms: C20_25  and  O5_26 
REMARK    6  A    between atoms: C22_30  and  O7_31 
ROOT
HETATM    1  C3  UNL     1       2.464   1.644   0.324  1.00  0.00     0.127 C 
HETATM    2  C4  UNL     1       3.170   0.578   1.018  1.00  0.00     0.032 C 
HETATM    3  C5  UNL     1       2.984  -0.760   1.008  1.00  0.00     0.026 C 
HETATM    4  C7  UNL     1       1.956  -1.492   0.250  1.00  0.00    -0.007 C 
HETATM    5  C8  UNL     1       1.491  -2.769   0.909  1.00  0.00     0.021 C 
HETATM    6  C9  UNL     1       2.416  -1.937  -1.120  1.00  0.00     0.021 C 
HETATM    7  C10 UNL     1       0.750  -0.559   0.199  1.00  0.00     0.039 C 
HETATM    8  C11 UNL     1      -0.551  -1.261  -0.056  1.00  0.00     0.020 C 
HETATM    9  C12 UNL     1      -1.663  -0.251   0.253  1.00  0.00     0.047 C 
HETATM   10  C13 UNL     1      -1.486   0.919  -0.599  1.00  0.00    -0.046 C 
HETATM   11  C14 UNL     1      -2.474   1.817  -0.649  1.00  0.00    -0.020 C 
HETATM   12  C15 UNL     1      -3.673   1.577   0.151  1.00  0.00     0.046 C 
HETATM   13  C16 UNL     1      -4.071   0.150   0.327  1.00  0.00     0.039 C 
HETATM   14  C17 UNL     1      -5.231  -0.081  -0.659  1.00  0.00     0.026 C 
HETATM   15  C19 UNL     1      -3.019  -0.848  -0.048  1.00  0.00     0.141 C 
HETATM   16  C20 UNL     1      -0.249   1.114  -1.371  1.00  0.00     0.185 C 
HETATM   17  C21 UNL     1       0.949   0.704  -0.493  1.00  0.00     0.126 C 
HETATM   18  O6  UNL     1       1.112   1.735   0.484  1.00  0.00    -0.352 OA
HETATM   19  C22 UNL     1       2.177   1.164  -1.084  1.00  0.00     0.198 C 
ENDROOT
BRANCH   3  20
HETATM   20  C6  UNL     1       3.924  -1.430   1.853  1.00  0.00     0.205 C 
HETATM   21  O1  UNL     1       4.814  -0.789   2.519  1.00  0.00    -0.644 OA
HETATM   22  O2  UNL     1       3.905  -2.799   1.982  1.00  0.00    -0.644 OA
ENDBRANCH   3  20
BRANCH   1  23
HETATM   23  C2  UNL     1       3.093   2.981   0.410  1.00  0.00     0.007 C 
HETATM   24  C1  UNL     1       3.980   3.448  -0.423  1.00  0.00     0.010 C 
ENDBRANCH   1  23
BRANCH  19  25
HETATM   25  O7  UNL     1       1.979   2.316  -1.878  1.00  0.00    -0.389 OA
ATOM     26  H7  UNL     1       1.799   2.015  -2.761  1.00  0.00     0.210 HD
ENDBRANCH  19  25
BRANCH  16  27
HETATM   27  O5  UNL     1      -0.291   0.437  -2.569  1.00  0.00    -0.388 OA
ATOM     28  H5  UNL     1       0.508   0.563  -3.068  1.00  0.00     0.210 HD
ENDBRANCH  16  27
BRANCH  15  29
HETATM   29  O4  UNL     1      -3.214  -1.974   0.783  1.00  0.00    -0.394 OA
ATOM     30  H4  UNL     1      -4.066  -2.349   0.594  1.00  0.00     0.210 HD
ENDBRANCH  15  29
BRANCH  13  31
HETATM   31  C18 UNL     1      -4.577  -0.055   1.702  1.00  0.00     0.243 C 
HETATM   32  O3  UNL     1      -5.204  -1.052   1.986  1.00  0.00    -0.306 OA
ENDBRANCH  13  31
TORSDOF 6
