REMARK  8 active torsions:
REMARK  status: ('A' for Active; 'I' for Inactive)
REMARK    1  A    between atoms: C2_2  and  C3_3 
REMARK    2  A    between atoms: C2_2  and  O3_8 
REMARK    3  A    between atoms: C3_3  and  C4_4 
REMARK    4  A    between atoms: C4_4  and  C5_5 
REMARK    5  A    between atoms: O3_8  and  C6_9 
REMARK    6  A    between atoms: C6_9  and  C7_11 
REMARK    7  A    between atoms: C8_12  and  O5_13 
REMARK    8  A    between atoms: C19_31  and  O10_32 
ROOT
HETATM    1  C7  UNL     1       0.256  -0.165   1.217  1.00  0.00     0.154 C 
HETATM    2  C8  UNL     1      -0.171  -1.401   0.409  1.00  0.00     0.166 C 
HETATM    3  C9  UNL     1      -1.658  -1.132   0.352  1.00  0.00     0.188 C 
HETATM    4  O6  UNL     1      -2.381  -1.952  -0.460  1.00  0.00    -0.363 OA
HETATM    5  C10 UNL     1      -3.522  -1.250  -0.875  1.00  0.00     0.242 C 
HETATM    6  C11 UNL     1      -4.238  -0.597   0.256  1.00  0.00     0.193 C 
HETATM    7  O7  UNL     1      -4.757  -1.465   0.941  1.00  0.00    -0.292 OA
HETATM    8  C12 UNL     1      -4.521   0.744   0.813  1.00  0.00     0.119 C 
HETATM    9  C13 UNL     1      -4.843   0.604   2.273  1.00  0.00     0.054 C 
HETATM   10  C14 UNL     1      -5.736   1.373   0.143  1.00  0.00     0.054 C 
HETATM   11  O8  UNL     1      -3.465   1.658   0.606  1.00  0.00    -0.341 OA
HETATM   12  C15 UNL     1      -2.332   1.077   1.100  1.00  0.00     0.296 C 
HETATM   13  O9  UNL     1      -1.185   1.835   1.200  1.00  0.00    -0.344 OA
HETATM   14  C16 UNL     1      -0.403   0.941   0.461  1.00  0.00     0.108 C 
HETATM   15  C17 UNL     1       0.429   1.579  -0.633  1.00  0.00     0.050 C 
HETATM   16  C18 UNL     1      -1.678   0.312  -0.014  1.00  0.00     0.139 C 
HETATM   17  N1  UNL     1      -2.096   0.640  -1.314  1.00  0.00    -0.376 N 
ATOM     18  H1  UNL     1      -1.722   1.442  -1.822  1.00  0.00     0.157 HD
HETATM   19  C19 UNL     1      -3.085  -0.231  -1.877  1.00  0.00     0.251 C 
ENDROOT
BRANCH   1  20
HETATM   20  C6  UNL     1       1.719  -0.056   1.322  1.00  0.00     0.269 C 
HETATM   21  O4  UNL     1       2.237  -0.064   2.466  1.00  0.00    -0.265 OA
BRANCH  20  22
HETATM   22  O3  UNL     1       2.555   0.055   0.249  1.00  0.00    -0.316 OA
BRANCH  22  23
HETATM   23  C2  UNL     1       3.978   0.163   0.311  1.00  0.00     0.128 C 
HETATM   24  C1  UNL     1       4.422   1.501  -0.112  1.00  0.00     0.040 C 
BRANCH  23  25
HETATM   25  C3  UNL     1       4.593  -1.057  -0.224  1.00  0.00     0.043 C 
BRANCH  25  26
HETATM   26  C4  UNL     1       6.022  -1.319  -0.026  1.00  0.00     0.116 C 
BRANCH  26  27
HETATM   27  C5  UNL     1       7.015  -0.462  -0.663  1.00  0.00     0.172 C 
HETATM   28  O1  UNL     1       6.814   0.376  -1.556  1.00  0.00    -0.648 OA
HETATM   29  O2  UNL     1       8.369  -0.564  -0.246  1.00  0.00    -0.648 OA
ENDBRANCH  26  27
ENDBRANCH  25  26
ENDBRANCH  23  25
ENDBRANCH  22  23
ENDBRANCH  20  22
ENDBRANCH   1  20
BRANCH   2  30
HETATM   30  O5  UNL     1       0.157  -2.579   1.031  1.00  0.00    -0.392 OA
ATOM     31  H5  UNL     1      -0.107  -3.343   0.532  1.00  0.00     0.210 HD
ENDBRANCH   2  30
BRANCH  19  32
HETATM   32  O10 UNL     1      -2.618  -0.926  -3.007  1.00  0.00    -0.374 OA
ATOM     33  H10 UNL     1      -2.340  -0.278  -3.644  1.00  0.00     0.212 HD
ENDBRANCH  19  32
TORSDOF 8
