REMARK  9 active torsions:
REMARK  status: ('A' for Active; 'I' for Inactive)
REMARK    1  A    between atoms: C6_8  and  O2_9 
REMARK    2  A    between atoms: C7_11  and  O3_12 
REMARK    3  A    between atoms: C10_17  and  O5_18 
REMARK    4  A    between atoms: O5_18  and  C11_19 
REMARK    5  A    between atoms: C11_19  and  C12_20 
REMARK    6  A    between atoms: C12_20  and  C13_21 
REMARK    7  A    between atoms: C13_21  and  C14_22 
REMARK    8  A    between atoms: C19_28  and  O6_29 
REMARK    9  A    between atoms: C20_31  and  O7_32 
ROOT
HETATM    1  C1  UNL     1      -4.945   1.834   0.020  1.00  0.00     0.310 C 
HETATM    2  N1  UNL     1      -3.697   1.131  -0.222  1.00  0.00     0.096 N 
HETATM    3  C2  UNL     1      -2.939   1.826  -1.162  1.00  0.00     0.307 C 
HETATM    4  C3  UNL     1      -1.977   1.079  -2.019  1.00  0.00     0.181 C 
HETATM    5  O1  UNL     1      -1.597  -0.141  -1.689  1.00  0.00    -0.381 OA
HETATM    6  C4  UNL     1      -2.323  -1.110  -1.170  1.00  0.00     0.178 C 
HETATM    7  C5  UNL     1      -1.984  -1.176   0.319  1.00  0.00     0.072 C 
HETATM    8  C6  UNL     1      -3.175  -1.689   1.120  1.00  0.00     0.157 C 
HETATM    9  C7  UNL     1      -3.948  -0.471   1.508  1.00  0.00     0.183 C 
HETATM   10  C8  UNL     1      -3.163   0.725   1.006  1.00  0.00     0.282 C 
HETATM   11  C9  UNL     1      -1.745   0.155   0.918  1.00  0.00     0.169 C 
HETATM   12  O4  UNL     1      -0.994   1.051   0.311  1.00  0.00    -0.350 OA
HETATM   13  C10 UNL     1       0.317   0.859   0.008  1.00  0.00     0.291 C 
HETATM   14  C19 UNL     1       0.496   1.155  -1.457  1.00  0.00     0.204 C 
HETATM   15  C20 UNL     1      -0.685   1.918  -2.040  1.00  0.00     0.182 C 
ENDROOT
BRANCH  13  16
HETATM   16  O5  UNL     1       0.860  -0.320   0.443  1.00  0.00    -0.359 OA
BRANCH  16  17
HETATM   17  C11 UNL     1       1.860  -0.128   1.427  1.00  0.00     0.171 C 
BRANCH  17  18
HETATM   18  C12 UNL     1       2.414  -1.455   1.877  1.00  0.00     0.031 C 
BRANCH  18  19
HETATM   19  C13 UNL     1       3.062  -2.234   0.780  1.00  0.00     0.042 C 
BRANCH  19  20
HETATM   20  C14 UNL     1       4.209  -1.487   0.224  1.00  0.00    -0.041 A 
HETATM   21  C15 UNL     1       5.525  -1.578   0.690  1.00  0.00     0.025 A 
HETATM   22  C16 UNL     1       6.313  -0.746  -0.065  1.00  0.00     0.090 A 
HETATM   23  N2  UNL     1       5.534  -0.144  -0.979  1.00  0.00    -0.370 N 
HETATM   24  C17 UNL     1       5.964   0.803  -1.966  1.00  0.00     0.154 C 
HETATM   25  C18 UNL     1       4.255  -0.588  -0.811  1.00  0.00     0.097 A 
ENDBRANCH  19  20
ENDBRANCH  18  19
ENDBRANCH  17  18
ENDBRANCH  16  17
ENDBRANCH  13  16
BRANCH  14  26
HETATM   26  O6  UNL     1       0.686   0.011  -2.226  1.00  0.00    -0.388 OA
ATOM     27  H6  UNL     1       0.799   0.198  -3.151  1.00  0.00     0.210 HD
ENDBRANCH  14  26
BRANCH  15  28
HETATM   28  O7  UNL     1      -0.316   2.263  -3.340  1.00  0.00    -0.390 OA
ATOM     29  H7  UNL     1       0.481   2.780  -3.353  1.00  0.00     0.210 HD
ENDBRANCH  15  28
BRANCH   8  30
HETATM   30  O2  UNL     1      -2.681  -2.271   2.289  1.00  0.00    -0.392 OA
ATOM     31  H2  UNL     1      -3.423  -2.591   2.788  1.00  0.00     0.210 HD
ENDBRANCH   8  30
BRANCH   9  32
HETATM   32  O3  UNL     1      -4.156  -0.410   2.884  1.00  0.00    -0.391 OA
ATOM     33  H3  UNL     1      -4.648   0.365   3.131  1.00  0.00     0.210 HD
ENDBRANCH   9  32
TORSDOF 9
