REMARK  9 active torsions:
REMARK  status: ('A' for Active; 'I' for Inactive)
REMARK    1  A    between atoms: O1_2  and  C2_3 
REMARK    2  A    between atoms: C2_3  and  C3_4 
REMARK    3  A    between atoms: C2_3  and  C4_7 
REMARK    4  A    between atoms: C2_3  and  C5_10 
REMARK    5  A    between atoms: C3_4  and  O2_5 
REMARK    6  A    between atoms: C4_7  and  O3_8 
REMARK    7  A    between atoms: C5_10  and  O4_11 
REMARK    8  A    between atoms: C5_10  and  C6_13 
REMARK    9  A    between atoms: C6_13  and  O5_14 
ROOT
HETATM    1  C6  UNL     1       0.327  -0.075  -0.507  1.00  0.00     0.101 C 
HETATM    2  C7  UNL     1      -0.530  -1.142  -1.120  1.00  0.00     0.062 C 
HETATM    3  C8  UNL     1      -0.042  -2.567  -0.988  1.00  0.00     0.017 C 
HETATM    4  C9  UNL     1      -1.965  -1.273  -0.717  1.00  0.00     0.132 C 
HETATM    5  C10 UNL     1      -2.591  -2.283  -1.701  1.00  0.00     0.055 C 
HETATM    6  O6  UNL     1      -2.822  -0.276  -0.691  1.00  0.00    -0.358 OA
HETATM    7  C11 UNL     1      -2.987   0.512   0.381  1.00  0.00     0.099 C 
HETATM    8  C12 UNL     1      -4.036   0.065   1.364  1.00  0.00     0.050 C 
HETATM    9  C13 UNL     1      -3.320   1.911  -0.041  1.00  0.00     0.186 A 
HETATM   10  O7  UNL     1      -3.649   2.072  -1.466  1.00  0.00    -0.372 OA
HETATM   11  C14 UNL     1      -2.344   2.456  -0.886  1.00  0.00     0.155 A 
HETATM   12  C15 UNL     1      -1.210   1.585  -1.205  1.00  0.00     0.048 C 
HETATM   13  C16 UNL     1      -0.557   0.932   0.070  1.00  0.00     0.006 C 
HETATM   14  C17 UNL     1      -0.058   2.201   0.703  1.00  0.00     0.019 C 
HETATM   15  C18 UNL     1      -1.595   0.505   1.053  1.00  0.00     0.112 C 
HETATM   16  C19 UNL     1      -1.448  -0.859   1.618  1.00  0.00     0.205 C 
HETATM   17  O8  UNL     1      -1.006  -1.163   2.741  1.00  0.00    -0.289 OA
HETATM   18  C20 UNL     1      -1.907  -1.890   0.661  1.00  0.00     0.229 C 
HETATM   19  O9  UNL     1      -2.188  -3.041   0.959  1.00  0.00    -0.286 OA
ENDROOT
BRANCH   1  20
HETATM   20  C5  UNL     1       1.615  -0.561   0.017  1.00  0.00     0.192 C 
BRANCH  20  21
HETATM   21  C2  UNL     1       2.802   0.250   0.286  1.00  0.00     0.131 C 
BRANCH  21  22
HETATM   22  O1  UNL     1       2.765   1.025   1.438  1.00  0.00    -0.378 OA
HETATM   23  C1  UNL     1       2.562   0.389   2.626  1.00  0.00     0.202 C 
ENDBRANCH  21  22
BRANCH  21  24
HETATM   24  C3  UNL     1       3.204   1.195  -0.836  1.00  0.00     0.207 C 
BRANCH  24  25
HETATM   25  O2  UNL     1       4.494   1.693  -0.483  1.00  0.00    -0.398 OA
ATOM     26  H2  UNL     1       4.745   2.283  -1.184  1.00  0.00     0.209 HD
ENDBRANCH  24  25
ENDBRANCH  21  24
BRANCH  21  27
HETATM   27  C4  UNL     1       4.028  -0.610   0.481  1.00  0.00     0.207 C 
BRANCH  27  28
HETATM   28  O3  UNL     1       4.459  -1.395  -0.526  1.00  0.00    -0.398 OA
ATOM     29  H3  UNL     1       5.230  -1.936  -0.403  1.00  0.00     0.209 HD
ENDBRANCH  27  28
ENDBRANCH  21  27
ENDBRANCH  20  21
BRANCH  20  30
HETATM   30  O4  UNL     1       2.139  -1.265  -1.124  1.00  0.00    -0.389 OA
ATOM     31  H4  UNL     1       1.368  -1.792  -1.299  1.00  0.00     0.210 HD
ENDBRANCH  20  30
ENDBRANCH   1  20
BRANCH   1  32
HETATM   32  O5  UNL     1       0.857   0.646  -1.659  1.00  0.00    -0.386 OA
ATOM     33  H5  UNL     1       0.026   0.959  -1.997  1.00  0.00     0.210 HD
ENDBRANCH   1  32
TORSDOF 9
