REMARK  2 active torsions:
REMARK  status: ('A' for Active; 'I' for Inactive)
REMARK    1  A    between atoms: O1_2  and  C2_3 
REMARK    2  A    between atoms: C2_3  and  C3_5 
ROOT
HETATM    1  C3  UNL     1       0.351   1.272   0.716  1.00  0.00     0.162 C 
HETATM    2  O3  UNL     1       0.277   0.949   2.105  1.00  0.00    -0.363 OA
HETATM    3  C4  UNL     1       1.644   0.703   2.168  1.00  0.00     0.133 C 
HETATM    4  C5  UNL     1       1.847  -0.756   2.104  1.00  0.00     0.074 C 
HETATM    5  C6  UNL     1       1.647  -1.334   0.708  1.00  0.00     0.099 A 
HETATM    6  O4  UNL     1       2.418  -2.429   0.556  1.00  0.00    -0.363 OA
HETATM    7  C7  UNL     1       2.780  -1.308  -0.134  1.00  0.00     0.090 A 
HETATM    8  C8  UNL     1       2.863  -1.568  -1.595  1.00  0.00     0.049 C 
HETATM    9  C9  UNL     1       3.628  -0.195   0.352  1.00  0.00     0.041 C 
HETATM   10  C10 UNL     1       2.852   1.089  -0.006  1.00  0.00     0.014 C 
HETATM   11  C11 UNL     1       1.778   1.466   0.884  1.00  0.00     0.060 C 
HETATM   12  C12 UNL     1       0.215  -1.208   0.382  1.00  0.00     0.035 C 
HETATM   13  C13 UNL     1      -0.354  -2.281  -0.501  1.00  0.00     0.009 C 
HETATM   14  C14 UNL     1      -1.839  -2.305  -0.287  1.00  0.00     0.009 C 
HETATM   15  C15 UNL     1      -2.514  -1.019  -0.117  1.00  0.00    -0.047 C 
HETATM   16  C16 UNL     1      -3.629  -1.199   0.938  1.00  0.00     0.015 C 
HETATM   17  C17 UNL     1      -3.317  -0.744  -1.404  1.00  0.00     0.015 C 
HETATM   18  C18 UNL     1      -1.755   0.162   0.326  1.00  0.00     0.022 C 
HETATM   19  C19 UNL     1      -0.256   0.135  -0.061  1.00  0.00     0.005 C 
HETATM   20  C20 UNL     1      -0.234   0.461  -1.499  1.00  0.00     0.019 C 
ENDROOT
BRANCH   1  21
HETATM   21  C2  UNL     1      -0.459   2.510   0.548  1.00  0.00     0.294 C 
HETATM   22  O2  UNL     1      -1.052   3.065   1.506  1.00  0.00    -0.262 OA
BRANCH  21  23
HETATM   23  O1  UNL     1      -0.611   3.134  -0.679  1.00  0.00    -0.324 OA
HETATM   24  C1  UNL     1      -1.383   4.317  -0.847  1.00  0.00     0.213 C 
ENDBRANCH  21  23
ENDBRANCH   1  21
TORSDOF 2
