REMARK  5 active torsions:
REMARK  status: ('A' for Active; 'I' for Inactive)
REMARK       I    between atoms: C2_2  and  N1_4 
REMARK    1  A    between atoms: N1_4  and  S1_5 
REMARK    2  A    between atoms: N1_4  and  C15_25 
REMARK    3  A    between atoms: S1_5  and  N2_6 
REMARK    4  A    between atoms: C6_10  and  C7_11 
REMARK       I    between atoms: C7_11  and  N3_13 
REMARK    5  A    between atoms: N3_13  and  C8_15 
ROOT
HETATM    1  C7  UNL     1       0.704   0.706  -0.279  1.00  0.00     0.247 C 
HETATM    2  O2  UNL     1       0.729   1.792  -0.955  1.00  0.00    -0.271 OA
HETATM    3  N3  UNL     1       1.725  -0.137  -0.278  1.00  0.00    -0.310 N 
ATOM      4  H3  UNL     1       1.287  -1.022  -0.022  1.00  0.00     0.170 HD
ENDROOT
BRANCH   1   5
HETATM    5  C6  UNL     1      -0.597   0.502   0.498  1.00  0.00     0.190 C 
HETATM    6  N2  UNL     1      -1.440   1.587   0.227  1.00  0.00    -0.304 N 
HETATM    7  C3  UNL     1      -1.225   2.625   1.144  1.00  0.00     0.074 C 
HETATM    8  C4  UNL     1      -0.639   1.971   2.376  1.00  0.00     0.048 C 
HETATM    9  C5  UNL     1      -0.274   0.572   1.949  1.00  0.00     0.041 C 
BRANCH   6  10
HETATM   10  S1  UNL     1      -2.893   1.407  -0.599  1.00  0.00     0.075 SA
BRANCH  10  11
HETATM   11  N1  UNL     1      -4.160   0.458   0.112  1.00  0.00    -0.270 N 
HETATM   12  C2  UNL     1      -4.716   0.696   1.399  1.00  0.00     0.227 C 
HETATM   13  C1  UNL     1      -5.791  -0.151   1.945  1.00  0.00     0.118 C 
HETATM   14  O1  UNL     1      -4.272   1.669   2.101  1.00  0.00    -0.273 OA
BRANCH  11  15
HETATM   15  C15 UNL     1      -4.704  -0.651  -0.643  1.00  0.00     0.093 C 
HETATM   16  C16 UNL     1      -3.655  -1.697  -0.970  1.00  0.00     0.033 C 
HETATM   17  C17 UNL     1      -5.229  -0.150  -1.963  1.00  0.00     0.033 C 
ENDBRANCH  11  15
ENDBRANCH  10  11
ENDBRANCH   6  10
ENDBRANCH   1   5
BRANCH   3  18
HETATM   18  C8  UNL     1       2.894  -0.445  -0.412  1.00  0.00     0.130 A 
HETATM   19  N4  UNL     1       3.226  -1.765  -0.196  1.00  0.00    -0.350 N 
HETATM   20  C9  UNL     1       4.467  -2.231  -0.315  1.00  0.00     0.097 A 
ATOM     21  H4  UNL     1       2.486  -2.415   0.067  1.00  0.00     0.166 HD
HETATM   22  C10 UNL     1       5.510  -1.418  -0.666  1.00  0.00    -0.039 A 
HETATM   23  C11 UNL     1       6.895  -1.950  -0.798  1.00  0.00     0.050 C 
HETATM   24  C12 UNL     1       5.233  -0.093  -0.893  1.00  0.00    -0.029 A 
HETATM   25  C13 UNL     1       6.366   0.790  -1.280  1.00  0.00     0.050 C 
HETATM   26  C14 UNL     1       3.933   0.383  -0.765  1.00  0.00     0.084 A 
HETATM   27 CL1  UNL     1       3.708   2.103  -1.074  1.00  0.00    -0.080 Cl
ENDBRANCH   3  18
TORSDOF 5
