REMARK  6 active torsions:
REMARK  status: ('A' for Active; 'I' for Inactive)
REMARK    1  A    between atoms: C2_2  and  C3_3 
REMARK    2  A    between atoms: C3_3  and  C4_4 
REMARK    3  A    between atoms: C5_5  and  N1_6 
REMARK       I    between atoms: N2_9  and  C8_10 
REMARK    4  A    between atoms: C8_10  and  C9_12 
REMARK    5  A    between atoms: C9_12  and  N3_13 
REMARK    6  A    between atoms: C9_12  and  C10_17 
ROOT
HETATM    1  N1  UNL     1       1.154  -0.226  -0.043  1.00  0.00    -0.377 N 
HETATM    2  C6  UNL     1       0.636  -0.186   1.303  1.00  0.00     0.143 C 
HETATM    3  C7  UNL     1      -0.733  -0.879   1.281  1.00  0.00     0.145 C 
HETATM    4  N2  UNL     1      -1.589  -0.152   0.330  1.00  0.00    -0.347 N 
HETATM    5  C8  UNL     1      -2.810   0.374   0.780  1.00  0.00     0.251 C 
HETATM    6  O1  UNL     1      -3.139   0.202   2.006  1.00  0.00    -0.271 OA
HETATM    7  C14 UNL     1      -1.086  -0.036  -1.022  1.00  0.00     0.145 C 
HETATM    8  C15 UNL     1       0.288  -0.711  -1.105  1.00  0.00     0.143 C 
ENDROOT
BRANCH   1   9
HETATM    9  C5  UNL     1       2.478   0.206  -0.278  1.00  0.00     0.038 A 
HETATM   10  C4  UNL     1       3.546  -0.628  -0.449  1.00  0.00    -0.021 A 
HETATM   11  C20 UNL     1       4.818  -0.081  -0.665  1.00  0.00    -0.031 A 
HETATM   12  C19 UNL     1       4.971   1.283  -0.702  1.00  0.00     0.046 A 
HETATM   13  C21 UNL     1       5.961  -1.000  -0.853  1.00  0.00     0.050 C 
HETATM   14  C17 UNL     1       3.900   2.118  -0.532  1.00  0.00    -0.037 A 
HETATM   15 CL1  UNL     1       6.585   1.913  -0.976  1.00  0.00    -0.083 Cl
HETATM   16  C16 UNL     1       2.663   1.586  -0.321  1.00  0.00     0.038 A 
HETATM   17  C18 UNL     1       4.072   3.597  -0.573  1.00  0.00     0.050 C 
BRANCH  10  18
HETATM   18  C3  UNL     1       3.414  -2.078  -0.430  1.00  0.00     0.067 C 
BRANCH  18  19
HETATM   19  C2  UNL     1       3.330  -2.733   0.882  1.00  0.00    -0.032 C 
HETATM   20  C1  UNL     1       4.253  -3.643   1.249  1.00  0.00     0.007 C 
ENDBRANCH  18  19
ENDBRANCH  10  18
ENDBRANCH   1   9
BRANCH   5  21
HETATM   21  C9  UNL     1      -3.789   1.125  -0.014  1.00  0.00     0.282 C 
BRANCH  21  22
HETATM   22  N3  UNL     1      -3.454   1.340  -1.381  1.00  0.00    -0.066 N 
ATOM     23  H33 UNL     1      -2.540   1.787  -1.447  1.00  0.00     0.275 HD
ATOM     24  H32 UNL     1      -3.255   0.447  -1.832  1.00  0.00     0.275 HD
ATOM     25  H31 UNL     1      -4.135   1.862  -1.933  1.00  0.00     0.275 HD
ENDBRANCH  21  22
BRANCH  21  26
HETATM   26  C10 UNL     1      -5.156   0.436   0.016  1.00  0.00    -0.014 C 
HETATM   27  C11 UNL     1      -5.073  -0.965  -0.549  1.00  0.00     0.017 C 
HETATM   28  C12 UNL     1      -6.070   1.223  -0.927  1.00  0.00     0.017 C 
HETATM   29  C13 UNL     1      -5.779   0.488   1.374  1.00  0.00     0.017 C 
ENDBRANCH  21  26
ENDBRANCH   5  21
TORSDOF 6
