REMARK  8 active torsions:
REMARK  status: ('A' for Active; 'I' for Inactive)
REMARK    1  A    between atoms: C5_6  and  C6_7 
REMARK       I    between atoms: C6_7  and  N2_9 
REMARK    2  A    between atoms: N2_9  and  C7_11 
REMARK    3  A    between atoms: C7_11  and  C8_12 
REMARK    4  A    between atoms: C8_12  and  C9_13 
REMARK    5  A    between atoms: C9_13  and  C10_14 
REMARK    6  A    between atoms: C10_14  and  C11_15 
REMARK    7  A    between atoms: C11_15  and  C12_16 
REMARK       I    between atoms: C12_16  and  N3_18 
REMARK    8  A    between atoms: N3_18  and  C13_20 
ROOT
HETATM    1  N1  UNL     1       9.442   2.243  -2.657  1.00  0.00    -0.197 NA
HETATM    2  C1  UNL     1       9.247   1.397  -1.894  1.00  0.00     0.064 C 
HETATM    3  C2  UNL     1       8.988   0.346  -0.916  1.00  0.00     0.093 C 
HETATM    4  C3  UNL     1       8.136   0.956   0.188  1.00  0.00     0.020 C 
HETATM    5  C4  UNL     1       7.702  -0.203   1.074  1.00  0.00     0.015 C 
HETATM    6  C5  UNL     1       6.679  -0.992   0.334  1.00  0.00     0.078 C 
HETATM    7  C23 UNL     1       6.816  -0.893  -1.163  1.00  0.00     0.015 C 
HETATM    8  C24 UNL     1       8.293  -0.845  -1.495  1.00  0.00     0.020 C 
ENDROOT
BRANCH   6   9
HETATM    9  C6  UNL     1       5.322  -0.607   0.801  1.00  0.00     0.221 C 
HETATM   10  O1  UNL     1       5.260   0.272   1.693  1.00  0.00    -0.273 OA
HETATM   11  N2  UNL     1       4.150  -1.217   0.250  1.00  0.00    -0.361 N 
ATOM     12  H2  UNL     1       4.256  -1.930  -0.471  1.00  0.00     0.162 HD
BRANCH  11  13
HETATM   13  C7  UNL     1       2.832  -0.855   0.682  1.00  0.00     0.122 C 
BRANCH  13  14
HETATM   14  C8  UNL     1       2.584   0.595   0.379  1.00  0.00     0.020 C 
BRANCH  14  15
HETATM   15  C9  UNL     1       1.203   1.053   0.816  1.00  0.00     0.002 C 
BRANCH  15  16
HETATM   16  C10 UNL     1       0.112   0.282   0.126  1.00  0.00     0.009 C 
BRANCH  16  17
HETATM   17  C11 UNL     1      -1.250   0.798   0.599  1.00  0.00     0.103 C 
BRANCH  17  18
HETATM   18  C12 UNL     1      -2.354   0.072  -0.051  1.00  0.00     0.217 C 
HETATM   19  O2  UNL     1      -2.072  -0.829  -0.866  1.00  0.00    -0.274 OA
HETATM   20  N3  UNL     1      -3.677   0.375   0.230  1.00  0.00    -0.356 N 
ATOM     21  H3  UNL     1      -3.842   1.122   0.905  1.00  0.00     0.162 HD
BRANCH  20  22
HETATM   22  C13 UNL     1      -4.842  -0.255  -0.332  1.00  0.00     0.092 C 
HETATM   23  C14 UNL     1      -5.724  -0.922   0.658  1.00  0.00     0.009 C 
HETATM   24  C15 UNL     1      -6.571   0.032   1.461  1.00  0.00     0.011 C 
HETATM   25  C19 UNL     1      -6.713  -1.794  -0.130  1.00  0.00     0.011 C 
HETATM   26  C16 UNL     1      -7.408   0.892   0.547  1.00  0.00    -0.013 C 
HETATM   27  C17 UNL     1      -8.305   0.095  -0.339  1.00  0.00     0.009 C 
HETATM   28  C22 UNL     1      -6.443   1.669  -0.336  1.00  0.00     0.011 C 
HETATM   29  C18 UNL     1      -7.478  -0.932  -1.100  1.00  0.00    -0.013 C 
HETATM   30  C20 UNL     1      -6.579  -0.161  -2.034  1.00  0.00     0.011 C 
HETATM   31  C21 UNL     1      -5.666   0.701  -1.180  1.00  0.00     0.009 C 
ENDBRANCH  20  22
ENDBRANCH  17  18
ENDBRANCH  16  17
ENDBRANCH  15  16
ENDBRANCH  14  15
ENDBRANCH  13  14
ENDBRANCH  11  13
ENDBRANCH   6   9
TORSDOF 8
