REMARK  5 active torsions:
REMARK  status: ('A' for Active; 'I' for Inactive)
REMARK    1  A    between atoms: O1_2  and  C2_3 
REMARK    2  A    between atoms: C4_5  and  C5_6 
REMARK    3  A    between atoms: C6_10  and  C7_11 
REMARK    4  A    between atoms: C7_11  and  N1_12 
REMARK    5  A    between atoms: N1_12  and  C9_14 
ROOT
HETATM    1  C7  UNL     1       0.557   0.125  -0.816  1.00  0.00     0.081 C 
ENDROOT
BRANCH   1   2
HETATM    2  C6  UNL     1       1.960   0.211  -0.271  1.00  0.00     0.049 A 
HETATM    3  C2  UNL     1       2.877  -0.861  -0.325  1.00  0.00     0.087 A 
HETATM    4  C3  UNL     1       4.133  -0.567  -0.062  1.00  0.00     0.064 A 
HETATM    5  C4  UNL     1       4.456   0.734   0.245  1.00  0.00     0.085 A 
HETATM    6  S1  UNL     1       2.922   1.508   0.159  1.00  0.00    -0.080 SA
BRANCH   3   7
HETATM    7  O1  UNL     1       2.333  -2.150  -0.659  1.00  0.00    -0.355 OA
HETATM    8  C1  UNL     1       3.072  -3.286  -0.716  1.00  0.00     0.210 C 
ENDBRANCH   3   7
BRANCH   5   9
HETATM    9  C5  UNL     1       5.761   1.277   0.621  1.00  0.00     0.216 C 
HETATM   10  O2  UNL     1       6.755   0.572   0.867  1.00  0.00    -0.643 OA
HETATM   11  O3  UNL     1       5.949   2.643   0.742  1.00  0.00    -0.643 OA
ENDBRANCH   5   9
ENDBRANCH   1   2
BRANCH   1  12
HETATM   12  N1  UNL     1      -0.470   0.409   0.056  1.00  0.00    -0.289 NA
HETATM   13  C8  UNL     1      -0.321   1.541   0.864  1.00  0.00     0.116 C 
BRANCH  12  14
HETATM   14  C9  UNL     1      -1.772   0.322  -0.634  1.00  0.00     0.085 C 
HETATM   15  C10 UNL     1      -2.418   1.614  -0.943  1.00  0.00     0.022 C 
HETATM   16  C11 UNL     1      -3.690   1.814  -0.146  1.00  0.00     0.002 C 
HETATM   17  C12 UNL     1      -4.548   0.588  -0.036  1.00  0.00     0.002 C 
HETATM   18  C13 UNL     1      -3.746  -0.453   0.664  1.00  0.00     0.027 C 
HETATM   19  C14 UNL     1      -2.609  -0.828  -0.240  1.00  0.00     0.050 C 
HETATM   20  C15 UNL     1      -1.843  -1.949   0.397  1.00  0.00     0.034 C 
HETATM   21 CL1  UNL     1      -3.398  -1.568  -1.695  1.00  0.00    -0.118 Cl
ENDBRANCH  12  14
ENDBRANCH   1  12
TORSDOF 5
