REMARK  3 active torsions:
REMARK  status: ('A' for Active; 'I' for Inactive)
REMARK    1  A    between atoms: C5_6  and  C6_7 
REMARK    2  A    between atoms: C7_9  and  N2_10 
REMARK    3  A    between atoms: C18_24  and  O2_25 
ROOT
HETATM    1  N1  UNL     1       6.473  -0.180   2.670  1.00  0.00    -0.191 NA
HETATM    2  C1  UNL     1       5.503  -0.178   2.040  1.00  0.00     0.099 C 
HETATM    3  C2  UNL     1       4.266  -0.166   1.266  1.00  0.00     0.044 A 
HETATM    4  C3  UNL     1       3.109   0.326   1.824  1.00  0.00     0.023 A 
HETATM    5  C4  UNL     1       1.936   0.327   1.062  1.00  0.00     0.011 A 
HETATM    6  C5  UNL     1       1.868  -0.130  -0.203  1.00  0.00    -0.025 A 
HETATM    7  C21 UNL     1       3.074  -0.626  -0.739  1.00  0.00     0.011 A 
HETATM    8  C22 UNL     1       4.237  -0.642  -0.024  1.00  0.00     0.023 A 
ENDROOT
BRANCH   6   9
HETATM    9  C6  UNL     1       0.761  -0.163  -1.063  1.00  0.00     0.192 C 
HETATM   10  O1  UNL     1       0.720  -1.546  -1.510  1.00  0.00    -0.341 OA
HETATM   11  C7  UNL     1       0.532  -2.338  -0.379  1.00  0.00     0.354 C 
HETATM   12  C8  UNL     1      -0.841  -2.106   0.124  1.00  0.00     0.008 A 
HETATM   13  C9  UNL     1      -1.536  -3.087   0.810  1.00  0.00     0.012 A 
HETATM   14  C13 UNL     1      -1.415  -0.869  -0.127  1.00  0.00    -0.016 A 
HETATM   15  C10 UNL     1      -2.807  -2.857   1.257  1.00  0.00     0.001 A 
HETATM   16  C11 UNL     1      -3.385  -1.636   1.015  1.00  0.00     0.001 A 
HETATM   17  C12 UNL     1      -2.684  -0.647   0.322  1.00  0.00     0.013 A 
HETATM   18  C14 UNL     1      -0.619   0.158  -0.882  1.00  0.00    -0.004 C 
HETATM   19  C15 UNL     1      -1.160   1.481  -0.708  1.00  0.00    -0.026 A 
HETATM   20  C16 UNL     1      -1.546   2.270  -1.808  1.00  0.00     0.015 A 
HETATM   21  C20 UNL     1      -1.370   2.111   0.507  1.00  0.00     0.015 A 
HETATM   22  C17 UNL     1      -2.075   3.535  -1.672  1.00  0.00     0.037 A 
HETATM   23  C18 UNL     1      -2.251   4.089  -0.426  1.00  0.00     0.065 A 
HETATM   24  C19 UNL     1      -1.888   3.354   0.681  1.00  0.00     0.037 A 
BRANCH  11  25
HETATM   25  N2  UNL     1       0.689  -3.746  -0.707  1.00  0.00    -0.049 N 
ATOM     26  H23 UNL     1       0.075  -4.027  -1.472  1.00  0.00     0.277 HD
ATOM     27  H22 UNL     1       1.586  -3.932  -1.154  1.00  0.00     0.277 HD
ATOM     28  H21 UNL     1       0.551  -4.326   0.121  1.00  0.00     0.277 HD
ENDBRANCH  11  25
BRANCH  23  29
HETATM   29  O2  UNL     1      -2.776   5.354  -0.224  1.00  0.00    -0.361 OA
ATOM     30  H2  UNL     1      -2.898   5.737   0.637  1.00  0.00     0.217 HD
ENDBRANCH  23  29
ENDBRANCH   6   9
TORSDOF 3
