REMARK  8 active torsions:
REMARK  status: ('A' for Active; 'I' for Inactive)
REMARK    1  A    between atoms: N4_15  and  C7_16 
REMARK    2  A    between atoms: C7_16  and  O4_17 
REMARK    3  A    between atoms: C8_19  and  O5_20 
REMARK    4  A    between atoms: C9_22  and  C10_23 
REMARK    5  A    between atoms: C10_23  and  O6_24 
REMARK    6  A    between atoms: C11_26  and  O7_27 
REMARK    7  A    between atoms: C11_26  and  O8_29 
REMARK    8  A    between atoms: O8_29  and  N5_30 
ROOT
HETATM    1  C7  UNL     1      -0.632  -0.660   0.276  1.00  0.00     0.230 C 
HETATM    2  C8  UNL     1      -1.719  -1.572  -0.132  1.00  0.00     0.191 C 
HETATM    3  C9  UNL     1      -2.661  -0.523   0.513  1.00  0.00     0.113 C 
HETATM    4  C11 UNL     1      -1.606   0.482   0.017  1.00  0.00     0.249 C 
ENDROOT
BRANCH   1   5
HETATM    5  N4  UNL     1       0.630  -0.639  -0.329  1.00  0.00    -0.241 N 
HETATM    6  C3  UNL     1       1.652   0.045   0.272  1.00  0.00     0.151 A 
HETATM    7  N2  UNL     1       1.753   0.766   1.401  1.00  0.00    -0.292 N 
HETATM    8  C4  UNL     1       2.919   0.081  -0.309  1.00  0.00     0.152 A 
HETATM    9  C2  UNL     1       3.002   1.251   1.563  1.00  0.00     0.328 A 
ATOM     10  H2  UNL     1       0.984   0.926   2.052  1.00  0.00     0.172 HD
HETATM   11  N1  UNL     1       3.715   0.826   0.507  1.00  0.00    -0.296 N 
HETATM   12  O1  UNL     1       3.438   1.966   2.511  1.00  0.00    -0.246 OA
HETATM   13  C1  UNL     1       5.121   1.089   0.227  1.00  0.00     0.161 C 
HETATM   14  C5  UNL     1       3.196  -0.560  -1.494  1.00  0.00     0.280 A 
HETATM   15  O2  UNL     1       4.335  -0.533  -2.025  1.00  0.00    -0.265 OA
HETATM   16  N3  UNL     1       2.167  -1.222  -2.057  1.00  0.00    -0.273 N 
HETATM   17  C6  UNL     1       0.945  -1.252  -1.489  1.00  0.00     0.333 A 
ATOM     18  H3  UNL     1       2.317  -1.714  -2.938  1.00  0.00     0.173 HD
HETATM   19  O3  UNL     1       0.081  -1.901  -2.111  1.00  0.00    -0.246 OA
ENDBRANCH   1   5
BRANCH   1  20
HETATM   20  O4  UNL     1      -0.647  -0.757   1.697  1.00  0.00    -0.364 OA
ATOM     21  H4  UNL     1      -1.504  -0.771   2.108  1.00  0.00     0.213 HD
ENDBRANCH   1  20
BRANCH   2  22
HETATM   22  O5  UNL     1      -1.836  -2.759   0.612  1.00  0.00    -0.390 OA
ATOM     23  H5  UNL     1      -2.535  -3.346   0.349  1.00  0.00     0.210 HD
ENDBRANCH   2  22
BRANCH   4  24
HETATM   24  O7  UNL     1      -1.517   1.565   0.876  1.00  0.00    -0.359 OA
ATOM     25  H7  UNL     1      -2.124   2.277   0.714  1.00  0.00     0.213 HD
ENDBRANCH   4  24
BRANCH   4  26
HETATM   26  O8  UNL     1      -1.741   0.897  -1.274  1.00  0.00    -0.241 OA
BRANCH  26  27
HETATM   27  N5  UNL     1      -2.620   1.903  -1.343  1.00  0.00    -0.308 N 
ATOM     28  H52 UNL     1      -3.110   2.292  -0.537  1.00  0.00     0.184 HD
ATOM     29  H51 UNL     1      -2.721   2.214  -2.309  1.00  0.00     0.184 HD
ENDBRANCH  26  27
ENDBRANCH   4  26
BRANCH   3  30
HETATM   30  C10 UNL     1      -3.996  -0.437  -0.146  1.00  0.00     0.177 C 
BRANCH  30  31
HETATM   31  O6  UNL     1      -4.755   0.522   0.500  1.00  0.00    -0.400 OA
ATOM     32  H6  UNL     1      -5.605   0.577   0.080  1.00  0.00     0.209 HD
ENDBRANCH  30  31
ENDBRANCH   3  30
TORSDOF 8
