REMARK  4 active torsions:
REMARK  status: ('A' for Active; 'I' for Inactive)
REMARK    1  A    between atoms: C2_2  and  C3_3 
REMARK    2  A    between atoms: C5_6  and  N1_7 
REMARK    3  A    between atoms: N1_7  and  C6_9 
REMARK    4  A    between atoms: C6_9  and  C7_10 
ROOT
HETATM    1  C7  UNL     1      -0.631  -0.405  -0.349  1.00  0.00    -0.043 C 
HETATM    2  C8  UNL     1      -0.688  -1.137   0.741  1.00  0.00    -0.020 C 
HETATM    3  C9  UNL     1      -1.758  -0.884   1.783  1.00  0.00     0.033 C 
HETATM    4  C10 UNL     1      -2.511   0.334   1.358  1.00  0.00     0.001 C 
HETATM    5  C11 UNL     1      -1.601   1.423   0.828  1.00  0.00     0.036 C 
HETATM    6  C12 UNL     1      -1.642   0.659  -0.510  1.00  0.00     0.081 C 
HETATM    7  C13 UNL     1      -1.563   1.481  -1.681  1.00  0.00     0.074 C 
HETATM    8  N2  UNL     1      -1.501   2.146  -2.614  1.00  0.00    -0.196 NA
HETATM    9  C14 UNL     1      -3.019   0.213  -0.076  1.00  0.00    -0.019 C 
HETATM   10  C15 UNL     1      -4.024   1.296  -0.358  1.00  0.00     0.017 C 
HETATM   11  C16 UNL     1      -3.450  -1.140  -0.499  1.00  0.00     0.017 C 
ENDROOT
BRANCH   1  12
HETATM   12  C6  UNL     1       0.385  -0.613  -1.383  1.00  0.00     0.157 C 
BRANCH  12  13
HETATM   13  N1  UNL     1       1.270  -1.683  -1.048  1.00  0.00    -0.366 N 
ATOM     14  H1  UNL     1       0.910  -2.632  -1.148  1.00  0.00     0.161 HD
BRANCH  13  15
HETATM   15  C5  UNL     1       2.478  -1.558  -0.632  1.00  0.00     0.145 A 
HETATM   16  S1  UNL     1       3.546  -2.813  -0.230  1.00  0.00    -0.064 SA
HETATM   17  C4  UNL     1       4.899  -1.865   0.216  1.00  0.00     0.082 A 
HETATM   18  C3  UNL     1       4.422  -0.594   0.018  1.00  0.00     0.039 A 
HETATM   19  N3  UNL     1       3.198  -0.460  -0.410  1.00  0.00    -0.336 N 
ATOM     20  H3  UNL     1       2.801   0.465  -0.571  1.00  0.00     0.168 HD
BRANCH  18  21
HETATM   21  C2  UNL     1       5.315   0.562   0.300  1.00  0.00     0.020 C 
HETATM   22  C1  UNL     1       4.918   1.796   0.130  1.00  0.00     0.013 C 
ENDBRANCH  18  21
ENDBRANCH  13  15
ENDBRANCH  12  13
ENDBRANCH   1  12
TORSDOF 4
