REMARK  8 active torsions:
REMARK  status: ('A' for Active; 'I' for Inactive)
REMARK    1  A    between atoms: S1_2  and  C2_4 
REMARK    2  A    between atoms: C2_4  and  C3_5 
REMARK    3  A    between atoms: C3_5  and  N2_9 
REMARK    4  A    between atoms: N2_9  and  N3_11 
REMARK    5  A    between atoms: N3_11  and  C4_13 
REMARK    6  A    between atoms: C4_13  and  N4_15 
REMARK    7  A    between atoms: N4_15  and  N5_17 
REMARK    8  A    between atoms: N5_17  and  C5_19 
ROOT
HETATM    1  N3  UNL     1      -0.599  -0.499   0.081  1.00  0.00    -0.274 N 
ATOM      2  H3  UNL     1      -0.683  -1.513   0.146  1.00  0.00     0.189 HD
ENDROOT
BRANCH   1   3
HETATM    3  N2  UNL     1       0.544   0.130   0.567  1.00  0.00    -0.286 N 
ATOM      4  H2  UNL     1       0.655   1.136   0.442  1.00  0.00     0.188 HD
BRANCH   3   5
HETATM    5  C3  UNL     1       1.562  -0.612   1.237  1.00  0.00     0.101 C 
HETATM    6  N1  UNL     1       1.273  -1.072   2.406  1.00  0.00    -0.387 N 
ATOM      7  H12 UNL     1       2.001  -1.602   2.885  1.00  0.00     0.157 HD
ATOM      8  H11 UNL     1       0.362  -0.916   2.837  1.00  0.00     0.157 HD
BRANCH   5   9
HETATM    9  C2  UNL     1       2.878  -0.837   0.614  1.00  0.00     0.185 C 
BRANCH   9  10
HETATM   10  S1  UNL     1       3.722   0.679   0.260  1.00  0.00     0.018 S 
HETATM   11  C1  UNL     1       5.294   0.411  -0.484  1.00  0.00     0.127 C 
HETATM   12  O1  UNL     1       2.783   1.718  -0.662  1.00  0.00    -0.258 OA
ENDBRANCH   9  10
ENDBRANCH   5   9
ENDBRANCH   3   5
ENDBRANCH   1   3
BRANCH   1  13
HETATM   13  C4  UNL     1      -1.647   0.255  -0.503  1.00  0.00     0.205 C 
HETATM   14  S2  UNL     1      -1.479   1.874  -0.590  1.00  0.00    -0.038 SA
BRANCH  13  15
HETATM   15  N4  UNL     1      -2.818  -0.359  -1.004  1.00  0.00    -0.273 N 
ATOM     16  H4  UNL     1      -2.930  -1.372  -0.953  1.00  0.00     0.189 HD
BRANCH  15  17
HETATM   17  N5  UNL     1      -3.812   0.425  -1.565  1.00  0.00    -0.276 N 
ATOM     18  H5  UNL     1      -3.741   0.714  -2.541  1.00  0.00     0.189 HD
BRANCH  17  19
HETATM   19  C5  UNL     1      -4.926   0.827  -0.790  1.00  0.00     0.199 C 
HETATM   20  N6  UNL     1      -5.026   0.430   0.553  1.00  0.00    -0.068 NA
HETATM   21  S3  UNL     1      -6.123   1.753  -1.410  1.00  0.00    -0.043 SA
ENDBRANCH  17  19
ENDBRANCH  15  17
ENDBRANCH  13  15
ENDBRANCH   1  13
TORSDOF 8
