REMARK  14 active torsions:
REMARK  status: ('A' for Active; 'I' for Inactive)
REMARK    1  A    between atoms: C2_2  and  C3_3 
REMARK       I    between atoms: C3_3  and  N1_5 
REMARK    2  A    between atoms: N1_5  and  C4_7 
REMARK    3  A    between atoms: C5_8  and  O2_9 
REMARK    4  A    between atoms: O2_9  and  C6_10 
REMARK    5  A    between atoms: C6_10  and  C7_12 
REMARK    6  A    between atoms: C7_12  and  N2_13 
REMARK    7  A    between atoms: N2_13  and  C8_15 
REMARK    8  A    between atoms: C8_15  and  C9_16 
REMARK    9  A    between atoms: C8_15  and  C12_19 
REMARK   10  A    between atoms: C12_19  and  O4_20 
REMARK   11  A    between atoms: C12_19  and  C13_22 
REMARK   12  A    between atoms: C16_26  and  C17_27 
REMARK   13  A    between atoms: C18_30  and  O8_31 
REMARK   14  A    between atoms: C19_33  and  O9_34 
ROOT
HETATM    1  C4  UNL     1      -3.505  -0.416   0.534  1.00  0.00     0.171 C 
HETATM    2  C5  UNL     1      -2.783  -0.145  -0.790  1.00  0.00     0.296 C 
HETATM    3  O5  UNL     1      -3.346  -0.772  -1.837  1.00  0.00    -0.340 OA
HETATM    4  C16 UNL     1      -3.480  -2.134  -1.800  1.00  0.00     0.256 C 
HETATM    5  C18 UNL     1      -3.852  -2.692  -0.484  1.00  0.00     0.188 C 
HETATM    6  C19 UNL     1      -3.898  -1.824   0.699  1.00  0.00     0.177 C 
ENDROOT
BRANCH   2   7
HETATM    7  O2  UNL     1      -1.411  -0.476  -0.679  1.00  0.00    -0.283 OA
BRANCH   7   8
HETATM    8  C6  UNL     1      -0.403   0.438  -0.588  1.00  0.00     0.300 C 
HETATM    9  O3  UNL     1      -0.661   1.655  -0.581  1.00  0.00    -0.259 OA
BRANCH   8  10
HETATM   10  C7  UNL     1       1.056   0.000  -0.487  1.00  0.00     0.166 C 
BRANCH  10  11
HETATM   11  N2  UNL     1       1.850   1.004   0.077  1.00  0.00    -0.387 N 
ATOM     12  H2  UNL     1       1.465   1.878   0.435  1.00  0.00     0.159 HD
BRANCH  11  13
HETATM   13  C8  UNL     1       3.266   0.697   0.110  1.00  0.00     0.113 C 
BRANCH  13  14
HETATM   14  C9  UNL     1       3.450  -0.580   0.877  1.00  0.00     0.003 C 
HETATM   15  C10 UNL     1       2.889  -0.404   2.303  1.00  0.00     0.011 C 
HETATM   16  C11 UNL     1       4.868  -1.029   1.074  1.00  0.00     0.011 C 
ENDBRANCH  13  14
BRANCH  13  17
HETATM   17  C12 UNL     1       3.930   0.819  -1.192  1.00  0.00     0.144 C 
BRANCH  17  18
HETATM   18  O4  UNL     1       3.475  -0.107  -2.117  1.00  0.00    -0.393 OA
ATOM     19  H4  UNL     1       3.905  -0.028  -2.960  1.00  0.00     0.210 HD
ENDBRANCH  17  18
BRANCH  17  20
HETATM   20  C13 UNL     1       5.408   0.938  -1.275  1.00  0.00     0.008 C 
HETATM   21  C14 UNL     1       5.790   1.071  -2.778  1.00  0.00     0.012 C 
HETATM   22  C15 UNL     1       5.897   2.239  -0.629  1.00  0.00     0.012 C 
ENDBRANCH  17  20
ENDBRANCH  13  17
ENDBRANCH  11  13
ENDBRANCH  10  11
ENDBRANCH   8  10
ENDBRANCH   7   8
ENDBRANCH   2   7
BRANCH   1  23
HETATM   23  N1  UNL     1      -4.615   0.502   0.663  1.00  0.00    -0.349 N 
HETATM   24  C3  UNL     1      -4.681   1.623   1.493  1.00  0.00     0.217 C 
HETATM   25  O1  UNL     1      -3.711   1.923   2.227  1.00  0.00    -0.274 OA
ATOM     26  H1  UNL     1      -5.435   0.311   0.088  1.00  0.00     0.163 HD
BRANCH  24  27
HETATM   27  C2  UNL     1      -5.888   2.471   1.522  1.00  0.00     0.098 C 
HETATM   28  C1  UNL     1      -5.734   3.548   2.563  1.00  0.00     0.014 C 
ENDBRANCH  24  27
ENDBRANCH   1  23
BRANCH   6  29
HETATM   29  O9  UNL     1      -3.166  -2.440   1.752  1.00  0.00    -0.391 OA
ATOM     30  H9  UNL     1      -3.420  -3.349   1.859  1.00  0.00     0.210 HD
ENDBRANCH   6  29
BRANCH   4  31
HETATM   31  C17 UNL     1      -2.359  -2.856  -2.445  1.00  0.00     0.206 C 
HETATM   32  O6  UNL     1      -1.419  -2.239  -2.951  1.00  0.00    -0.646 OA
HETATM   33  O7  UNL     1      -2.378  -4.228  -2.474  1.00  0.00    -0.646 OA
ENDBRANCH   4  31
BRANCH   5  34
HETATM   34  O8  UNL     1      -5.076  -3.398  -0.624  1.00  0.00    -0.390 OA
ATOM     35  H8  UNL     1      -5.315  -3.757   0.222  1.00  0.00     0.210 HD
ENDBRANCH   5  34
TORSDOF 14
