REMARK  4 active torsions:
REMARK  status: ('A' for Active; 'I' for Inactive)
REMARK       I    between atoms: C2_4  and  N3_6 
REMARK    1  A    between atoms: C3_8  and  C4_9 
REMARK    2  A    between atoms: C3_8  and  C10_19 
REMARK    3  A    between atoms: C4_9  and  C5_10 
REMARK    4  A    between atoms: C5_10  and  N4_11 
REMARK       I    between atoms: C10_19  and  N5_21 
REMARK       I    between atoms: N5_21  and  C11_23 
REMARK       I    between atoms: C11_23  and  N6_25 
ROOT
HETATM    1  C1  UNL     1      -1.114   4.407  -1.292  1.00  0.00     0.148 C 
HETATM    2  N1  UNL     1      -0.326   3.227  -1.116  1.00  0.00    -0.369 N 
ATOM      3  H1  UNL     1      -0.015   2.708  -1.937  1.00  0.00     0.161 HD
HETATM    4  C2  UNL     1       0.002   2.801   0.064  1.00  0.00     0.188 C 
HETATM    5  N2  UNL     1      -0.452   3.552   1.201  1.00  0.00    -0.064 NA
HETATM    6  N3  UNL     1       0.774   1.658   0.171  1.00  0.00    -0.330 N 
ATOM      7  H3  UNL     1       1.717   1.749  -0.208  1.00  0.00     0.168 HD
HETATM    8  C3  UNL     1       0.511   0.509   0.662  1.00  0.00     0.082 C 
ENDROOT
BRANCH   8   9
HETATM    9  C4  UNL     1      -0.792   0.207   1.244  1.00  0.00     0.101 C 
BRANCH   9  10
HETATM   10  C5  UNL     1      -1.771  -0.601   0.524  1.00  0.00     0.129 C 
HETATM   11  C6  UNL     1      -1.438  -2.016   0.157  1.00  0.00     0.039 C 
HETATM   12  C7  UNL     1      -2.765  -2.361  -0.565  1.00  0.00     0.002 C 
HETATM   13  C8  UNL     1      -2.865  -1.221  -1.539  1.00  0.00     0.002 C 
HETATM   14  C9  UNL     1      -2.275  -0.040  -0.800  1.00  0.00     0.039 C 
BRANCH  10  15
HETATM   15  N4  UNL     1      -2.963  -0.708   1.414  1.00  0.00    -0.070 N 
ATOM     16  H43 UNL     1      -2.744  -1.070   2.342  1.00  0.00     0.275 HD
ATOM     17  H42 UNL     1      -3.327   0.197   1.714  1.00  0.00     0.275 HD
ATOM     18  H41 UNL     1      -3.647  -1.273   0.911  1.00  0.00     0.275 HD
ENDBRANCH  10  15
ENDBRANCH   9  10
ENDBRANCH   8   9
BRANCH   8  19
HETATM   19  C10 UNL     1       1.577  -0.500   0.592  1.00  0.00     0.272 C 
HETATM   20  O1  UNL     1       1.436  -1.644   1.074  1.00  0.00    -0.266 OA
HETATM   21  N5  UNL     1       2.783  -0.138  -0.044  1.00  0.00    -0.274 N 
HETATM   22  C11 UNL     1       3.945  -0.865  -0.258  1.00  0.00     0.322 C 
ATOM     23  H5  UNL     1       2.804   0.815  -0.406  1.00  0.00     0.173 HD
HETATM   24  O2  UNL     1       4.943  -0.322  -0.874  1.00  0.00    -0.247 OA
HETATM   25  N6  UNL     1       4.140  -2.192   0.152  1.00  0.00    -0.347 N 
HETATM   26  C12 UNL     1       5.396  -2.907  -0.105  1.00  0.00     0.151 C 
ATOM     27  H6  UNL     1       3.387  -2.674   0.643  1.00  0.00     0.163 HD
ENDBRANCH   8  19
TORSDOF 4
