REMARK  8 active torsions:
REMARK  status: ('A' for Active; 'I' for Inactive)
REMARK    1  A    between atoms: C2_2  and  C3_3 
REMARK    2  A    between atoms: C2_2  and  C8_10 
REMARK    3  A    between atoms: C3_3  and  C4_4 
REMARK    4  A    between atoms: C4_4  and  O1_5 
REMARK    5  A    between atoms: C13_15  and  C14_16 
REMARK    6  A    between atoms: C14_16  and  C15_17 
REMARK    7  A    between atoms: C15_17  and  C16_18 
REMARK    8  A    between atoms: C19_21  and  O2_22 
ROOT
HETATM    1  C8  UNL     1      -0.834  -0.017  -1.278  1.00  0.00     0.030 C 
HETATM    2  C9  UNL     1      -0.416  -1.463  -1.295  1.00  0.00    -0.039 C 
HETATM    3  C10 UNL     1       0.364  -1.854  -2.534  1.00  0.00     0.015 C 
HETATM    4  C11 UNL     1      -1.468  -2.475  -1.137  1.00  0.00     0.015 C 
HETATM    5  C12 UNL     1       0.545  -1.620  -0.122  1.00  0.00     0.022 C 
HETATM    6  C13 UNL     1       1.108  -0.232   0.178  1.00  0.00    -0.006 C 
HETATM    7  C19 UNL     1       0.806   0.053   1.629  1.00  0.00     0.127 C 
HETATM    8  C20 UNL     1       0.559   1.544   1.642  1.00  0.00     0.033 C 
HETATM    9  C21 UNL     1      -0.003   1.849   0.266  1.00  0.00     0.013 C 
HETATM   10  C22 UNL     1       0.311   0.731  -0.643  1.00  0.00    -0.026 C 
HETATM   11  C23 UNL     1       1.178   1.369  -1.764  1.00  0.00     0.016 C 
ENDROOT
BRANCH   1  12
HETATM   12  C2  UNL     1      -2.198   0.262  -0.841  1.00  0.00    -0.081 C 
HETATM   13  C1  UNL     1      -3.024   0.771  -1.762  1.00  0.00     0.015 C 
BRANCH  12  14
HETATM   14  C3  UNL     1      -2.791   0.002   0.468  1.00  0.00     0.071 C 
BRANCH  14  15
HETATM   15  C4  UNL     1      -4.222   0.437   0.670  1.00  0.00     0.061 C 
HETATM   16  C5  UNL     1      -4.644   0.057   2.111  1.00  0.00     0.038 C 
HETATM   17  C6  UNL     1      -6.004  -0.268   1.545  1.00  0.00     0.006 C 
HETATM   18  C7  UNL     1      -5.308  -0.456   0.208  1.00  0.00     0.038 C 
BRANCH  15  19
HETATM   19  O1  UNL     1      -4.452   1.803   0.529  1.00  0.00    -0.390 OA
ATOM     20  H1  UNL     1      -5.353   2.077   0.656  1.00  0.00     0.210 HD
ENDBRANCH  15  19
ENDBRANCH  14  15
ENDBRANCH  12  14
ENDBRANCH   1  12
BRANCH   6  21
HETATM   21  C14 UNL     1       2.560  -0.322  -0.030  1.00  0.00     0.013 C 
BRANCH  21  22
HETATM   22  C15 UNL     1       3.432   0.836   0.209  1.00  0.00     0.005 C 
BRANCH  22  23
HETATM   23  C16 UNL     1       4.881   0.403  -0.111  1.00  0.00    -0.023 C 
HETATM   24  C17 UNL     1       5.822   1.567   0.121  1.00  0.00     0.009 C 
HETATM   25  C18 UNL     1       5.276  -0.787   0.736  1.00  0.00     0.009 C 
ENDBRANCH  22  23
ENDBRANCH  21  22
ENDBRANCH   6  21
BRANCH   7  26
HETATM   26  O2  UNL     1       1.845  -0.311   2.481  1.00  0.00    -0.395 OA
ATOM     27  H2  UNL     1       1.655  -0.132   3.394  1.00  0.00     0.210 HD
ENDBRANCH   7  26
TORSDOF 8
