REMARK  9 active torsions:
REMARK  status: ('A' for Active; 'I' for Inactive)
REMARK    1  A    between atoms: C2_2  and  C3_3 
REMARK    2  A    between atoms: C3_3  and  C5_5 
REMARK    3  A    between atoms: C5_5  and  O2_7 
REMARK    4  A    between atoms: O2_7  and  C6_8 
REMARK    5  A    between atoms: C9_12  and  C10_13 
REMARK    6  A    between atoms: C10_13  and  C11_15 
REMARK    7  A    between atoms: C13_17  and  C15_19 
REMARK    8  A    between atoms: C16_23  and  O8_24 
REMARK    9  A    between atoms: C17_26  and  O9_27 
ROOT
HETATM    1  C6  UNL     1      -1.115   1.279  -0.360  1.00  0.00     0.191 C 
HETATM    2  C7  UNL     1       0.015   0.885   0.576  1.00  0.00     0.150 C 
HETATM    3  C8  UNL     1      -0.643   0.422   1.866  1.00  0.00     0.042 C 
HETATM    4  O3  UNL     1       0.691  -0.211   0.053  1.00  0.00    -0.368 OA
HETATM    5  C9  UNL     1       1.155  -0.016  -1.220  1.00  0.00     0.225 C 
HETATM    6  C16 UNL     1       0.890   1.381  -1.741  1.00  0.00     0.185 C 
HETATM    7  C17 UNL     1      -0.608   1.583  -1.747  1.00  0.00     0.181 C 
ENDROOT
BRANCH   5   8
HETATM    8  C10 UNL     1       2.588  -0.368  -1.278  1.00  0.00     0.186 C 
HETATM    9  O4  UNL     1       3.183  -0.262  -2.325  1.00  0.00    -0.292 OA
BRANCH   8  10
HETATM   10  C11 UNL     1       3.298  -0.846  -0.077  1.00  0.00     0.199 C 
HETATM   11  C12 UNL     1       3.602   0.223   0.951  1.00  0.00     0.089 C 
HETATM   12  C13 UNL     1       5.007  -0.352   0.823  1.00  0.00     0.148 C 
HETATM   13  C14 UNL     1       6.044   0.715   0.485  1.00  0.00     0.058 C 
HETATM   14  O7  UNL     1       4.632  -1.146  -0.242  1.00  0.00    -0.356 OA
BRANCH  12  15
HETATM   15  C15 UNL     1       5.411  -1.107   2.045  1.00  0.00     0.209 C 
HETATM   16  O5  UNL     1       5.762  -0.434   3.046  1.00  0.00    -0.646 OA
HETATM   17  O6  UNL     1       5.412  -2.488   2.113  1.00  0.00    -0.646 OA
ENDBRANCH  12  15
ENDBRANCH   8  10
ENDBRANCH   5   8
BRANCH   6  18
HETATM   18  O8  UNL     1       1.338   1.439  -3.050  1.00  0.00    -0.390 OA
ATOM     19  H8  UNL     1       1.172   2.315  -3.377  1.00  0.00     0.210 HD
ENDBRANCH   6  18
BRANCH   7  20
HETATM   20  O9  UNL     1      -1.173   0.801  -2.726  1.00  0.00    -0.390 OA
ATOM     21  H9  UNL     1      -0.854   0.993  -3.600  1.00  0.00     0.210 HD
ENDBRANCH   7  20
BRANCH   1  22
HETATM   22  O2  UNL     1      -2.025   0.199  -0.335  1.00  0.00    -0.310 OA
BRANCH  22  23
HETATM   23  C5  UNL     1      -3.319   0.298   0.142  1.00  0.00     0.263 C 
HETATM   24  O1  UNL     1      -3.675   1.421   0.571  1.00  0.00    -0.265 OA
BRANCH  23  25
HETATM   25  C3  UNL     1      -4.271  -0.836   0.167  1.00  0.00     0.081 C 
HETATM   26  C4  UNL     1      -4.481  -1.374  -1.237  1.00  0.00     0.020 C 
BRANCH  25  27
HETATM   27  C2  UNL     1      -5.571  -0.344   0.753  1.00  0.00     0.010 C 
HETATM   28  C1  UNL     1      -6.606  -1.445   0.838  1.00  0.00     0.006 C 
ENDBRANCH  25  27
ENDBRANCH  23  25
ENDBRANCH  22  23
ENDBRANCH   1  22
TORSDOF 9
