REMARK  1 active torsions:
REMARK  status: ('A' for Active; 'I' for Inactive)
REMARK    1  A    between atoms: O1_1  and  C1_3 
ROOT
HETATM    1  C1  UNL     1      -2.344  -0.088  -0.079  1.00  0.00     0.118 C 
HETATM    2  C2  UNL     1      -1.473   0.995  -0.738  1.00  0.00     0.036 C 
HETATM    3  C3  UNL     1      -0.161   0.648  -0.142  1.00  0.00    -0.008 C 
HETATM    4  C4  UNL     1       1.031   1.285  -0.734  1.00  0.00     0.005 C 
HETATM    5  C5  UNL     1       2.253   0.652  -0.088  1.00  0.00     0.000 C 
HETATM    6  C6  UNL     1       1.883  -0.285   1.029  1.00  0.00     0.000 C 
HETATM    7  C7  UNL     1       0.945  -1.382   0.549  1.00  0.00     0.005 C 
HETATM    8  C8  UNL     1      -0.068  -0.857  -0.424  1.00  0.00    -0.008 C 
HETATM    9  C9  UNL     1      -1.461  -1.311  -0.173  1.00  0.00     0.036 C 
ENDROOT
BRANCH   1  10
HETATM   10  O1  UNL     1      -2.474   0.231   1.285  1.00  0.00    -0.396 OA
ATOM     11  H1  UNL     1      -3.012  -0.438   1.692  1.00  0.00     0.210 HD
ENDBRANCH   1  10
TORSDOF 1
