REMARK  2 active torsions:
REMARK  status: ('A' for Active; 'I' for Inactive)
REMARK    1  A    between atoms: N1_2  and  C1_4 
REMARK    2  A    between atoms: N3_9  and  O3_10 
ROOT
HETATM    1  C1  UNL     1       0.887  -0.154   0.049  1.00  0.00     0.216 A 
HETATM    2  N2  UNL     1      -0.043  -1.119   0.187  1.00  0.00    -0.310 N 
ATOM      3  H2  UNL     1       0.271  -2.075   0.356  1.00  0.00     0.170 HD
HETATM    4  C2  UNL     1      -1.367  -0.884   0.113  1.00  0.00     0.204 A 
HETATM    5  S1  UNL     1      -2.473  -2.087   0.286  1.00  0.00    -0.038 SA
HETATM    6  N3  UNL     1      -1.818   0.365  -0.109  1.00  0.00    -0.206 N 
HETATM    7  C3  UNL     1      -0.910   1.345  -0.250  1.00  0.00     0.172 A 
HETATM    8  C4  UNL     1       0.444   1.120  -0.177  1.00  0.00     0.184 A 
HETATM    9  F1  UNL     1       1.366   2.121  -0.321  1.00  0.00    -0.200 F 
ENDROOT
BRANCH   1  10
HETATM   10  N1  UNL     1       2.274  -0.457   0.137  1.00  0.00    -0.095 N 
HETATM   11  O1  UNL     1       2.623  -1.637   0.344  1.00  0.00    -0.530 OA
HETATM   12  O2  UNL     1       3.183   0.566  -0.012  1.00  0.00    -0.530 OA
ENDBRANCH   1  10
BRANCH   6  13
HETATM   13  O3  UNL     1      -3.174   0.581  -0.181  1.00  0.00    -0.281 OA
ATOM     14  H3  UNL     1      -3.492   1.462  -0.338  1.00  0.00     0.245 HD
ENDBRANCH   6  13
TORSDOF 2
