REMARK  10 active torsions:
REMARK  status: ('A' for Active; 'I' for Inactive)
REMARK    1  A    between atoms: C4_10  and  N4_11 
REMARK    2  A    between atoms: N4_11  and  C5_13 
REMARK    3  A    between atoms: C5_13  and  C6_14 
REMARK    4  A    between atoms: C6_14  and  N5_15 
REMARK    5  A    between atoms: C8_22  and  N9_23 
REMARK    6  A    between atoms: N9_23  and  C9_25 
REMARK    7  A    between atoms: C9_25  and  C10_26 
REMARK    8  A    between atoms: C10_26  and  C11_27 
REMARK    9  A    between atoms: C11_27  and  O2_28 
REMARK   10  A    between atoms: O2_28  and  N10_29 
ROOT
HETATM    1  N10 UNL     1      -6.333   0.612   0.859  1.00  0.00    -0.201 N 
ATOM      2  H10 UNL     1      -6.144  -0.009   1.646  1.00  0.00     0.207 HD
HETATM    3  C12 UNL     1      -7.595   0.584   0.223  1.00  0.00     0.203 C 
HETATM    4  N11 UNL     1      -8.625   0.554  -0.293  1.00  0.00    -0.170 NA
ENDROOT
BRANCH   1   5
HETATM    5  O2  UNL     1      -5.379   1.461   0.425  1.00  0.00    -0.271 OA
BRANCH   5   6
HETATM    6  C11 UNL     1      -4.249   1.258   1.209  1.00  0.00     0.203 C 
BRANCH   6   7
HETATM    7  C10 UNL     1      -3.113   2.178   0.790  1.00  0.00     0.048 C 
BRANCH   7   8
HETATM    8  C9  UNL     1      -2.774   1.886  -0.655  1.00  0.00     0.123 C 
BRANCH   8   9
HETATM    9  N9  UNL     1      -2.375   0.515  -0.752  1.00  0.00    -0.375 N 
ATOM     10  H9  UNL     1      -3.094  -0.162  -1.008  1.00  0.00     0.161 HD
BRANCH   9  11
HETATM   11  C8  UNL     1      -1.193   0.063  -0.545  1.00  0.00     0.136 A 
HETATM   12  N8  UNL     1      -0.161   0.858  -0.202  1.00  0.00    -0.176 N 
HETATM   13  C4  UNL     1       1.085   0.382   0.015  1.00  0.00     0.681 A 
ATOM     14  H8  UNL     1      -0.327   1.859  -0.102  1.00  0.00     0.186 HD
HETATM   15  N3  UNL     1       1.264  -0.946  -0.125  1.00  0.00    -0.175 N 
HETATM   16  C3  UNL     1       0.281  -1.785  -0.463  1.00  0.00     0.144 A 
ATOM     17  H3  UNL     1       2.196  -1.329   0.035  1.00  0.00     0.186 HD
HETATM   18  N2  UNL     1       0.483  -3.105  -0.597  1.00  0.00    -0.293 N 
HETATM   19  C13 UNL     1      -0.983  -1.290  -0.682  1.00  0.00     0.121 A 
HETATM   20  C2  UNL     1      -0.536  -3.943  -0.943  1.00  0.00     0.330 A 
ATOM     21  H2  UNL     1       1.415  -3.488  -0.437  1.00  0.00     0.172 HD
HETATM   22  N1  UNL     1      -1.783  -3.496  -1.165  1.00  0.00    -0.270 N 
HETATM   23  O1  UNL     1      -0.342  -5.184  -1.068  1.00  0.00    -0.246 OA
HETATM   24  C1  UNL     1      -2.860  -4.383  -1.530  1.00  0.00     0.164 C 
HETATM   25  C14 UNL     1      -2.008  -2.176  -1.036  1.00  0.00     0.269 A 
HETATM   26  O3  UNL     1      -3.146  -1.701  -1.229  1.00  0.00    -0.267 OA
BRANCH  13  27
HETATM   27  N4  UNL     1       2.027   1.201   0.341  1.00  0.00    -0.224 N 
ATOM     28  H4  UNL     1       1.856   2.202   0.439  1.00  0.00     0.177 HD
BRANCH  27  29
HETATM   29  C5  UNL     1       3.344   0.626   0.561  1.00  0.00     0.157 C 
BRANCH  29  30
HETATM   30  C6  UNL     1       4.356   1.685   0.936  1.00  0.00     0.142 C 
BRANCH  30  31
HETATM   31  N5  UNL     1       5.617   1.044   1.134  1.00  0.00    -0.365 N 
HETATM   32  C7  UNL     1       6.755   1.631   0.890  1.00  0.00     0.197 C 
HETATM   33  N6  UNL     1       7.993   0.991   1.089  1.00  0.00    -0.067 NA
HETATM   34  N7  UNL     1       6.708   2.962   0.409  1.00  0.00    -0.067 NA
ATOM     35  H5  UNL     1       5.627   0.085   1.481  1.00  0.00     0.161 HD
ENDBRANCH  30  31
ENDBRANCH  29  30
ENDBRANCH  27  29
ENDBRANCH  13  27
ENDBRANCH   9  11
ENDBRANCH   8   9
ENDBRANCH   7   8
ENDBRANCH   6   7
ENDBRANCH   5   6
ENDBRANCH   1   5
TORSDOF 10
