REMARK  4 active torsions:
REMARK  status: ('A' for Active; 'I' for Inactive)
REMARK    1  A    between atoms: N1_1  and  N2_4 
REMARK    2  A    between atoms: C1_6  and  C2_8 
REMARK    3  A    between atoms: C3_15  and  C4_16 
REMARK       I    between atoms: C4_16  and  N7_18 
REMARK    4  A    between atoms: N7_18  and  N8_20 
ROOT
HETATM    1  C2  UNL     1      -0.845   0.667  -0.417  1.00  0.00     0.125 A 
HETATM    2  N4  UNL     1      -1.437   1.622  -1.202  1.00  0.00    -0.281 N 
ATOM      3  H4  UNL     1      -2.398   1.954  -1.116  1.00  0.00     0.188 HD
HETATM    4  N5  UNL     1      -0.569   2.031  -2.071  1.00  0.00    -0.242 N 
ATOM      5  H5  UNL     1      -0.748   2.742  -2.780  1.00  0.00     0.208 HD
HETATM    6  N6  UNL     1       0.571   1.406  -1.915  1.00  0.00    -0.279 N 
ATOM      7  H6  UNL     1       1.415   1.544  -2.470  1.00  0.00     0.189 HD
HETATM    8  C3  UNL     1       0.422   0.525  -0.861  1.00  0.00     0.150 A 
ENDROOT
BRANCH   1   9
HETATM    9  C1  UNL     1      -1.557  -0.001   0.666  1.00  0.00     0.161 C 
HETATM   10  N2  UNL     1      -1.057  -0.870   1.398  1.00  0.00    -0.292 N 
ATOM     11  H2  UNL     1      -0.086  -1.128   1.224  1.00  0.00     0.187 HD
HETATM   12  N3  UNL     1      -2.932   0.353   0.924  1.00  0.00    -0.079 NA
BRANCH  10  13
HETATM   13  N1  UNL     1      -1.712  -1.517   2.432  1.00  0.00    -0.344 N 
ATOM     14  H12 UNL     1      -2.682  -1.246   2.592  1.00  0.00     0.176 HD
ATOM     15  H11 UNL     1      -1.301  -2.231   3.033  1.00  0.00     0.176 HD
ENDBRANCH  10  13
ENDBRANCH   1   9
BRANCH   8  16
HETATM   16  C4  UNL     1       1.494  -0.344  -0.400  1.00  0.00     0.290 C 
HETATM   17  O1  UNL     1       1.440  -1.152   0.526  1.00  0.00    -0.264 OA
HETATM   18  N7  UNL     1       2.763  -0.272  -1.084  1.00  0.00    -0.271 N 
ATOM     19  H7  UNL     1       2.897   0.370  -1.865  1.00  0.00     0.189 HD
BRANCH  18  20
HETATM   20  N8  UNL     1       3.794  -1.090  -0.661  1.00  0.00    -0.342 N 
ATOM     21  H82 UNL     1       3.644  -1.727   0.121  1.00  0.00     0.176 HD
ATOM     22  H81 UNL     1       4.691  -1.039  -1.144  1.00  0.00     0.176 HD
ENDBRANCH  18  20
ENDBRANCH   8  16
TORSDOF 4
