REMARK  7 active torsions:
REMARK  status: ('A' for Active; 'I' for Inactive)
REMARK    1  A    between atoms: N3_7  and  C3_8 
REMARK    2  A    between atoms: C3_8  and  C4_9 
REMARK    3  A    between atoms: C10_15  and  O1_16 
REMARK    4  A    between atoms: C10_15  and  C11_18 
REMARK    5  A    between atoms: C11_18  and  N4_19 
REMARK    6  A    between atoms: C15_24  and  C16_25 
REMARK    7  A    between atoms: N5_35  and  C24_36 
ROOT
HETATM    1  C1  UNL     1      -0.347  -0.507   3.507  1.00  0.00     0.171 C 
HETATM    2  N1  UNL     1      -0.462   0.120   2.219  1.00  0.00    -0.194 N 
HETATM    3  C2  UNL     1      -0.288   1.494   1.877  1.00  0.00     0.676 C 
HETATM    4  N2  UNL     1      -0.536   2.496   2.640  1.00  0.00    -0.235 N 
ATOM      5  H21 UNL     1      -0.412   3.478   2.395  1.00  0.00     0.174 HD
ATOM      6  H22 UNL     1      -0.898   2.477   3.593  1.00  0.00     0.174 HD
HETATM    7  N3  UNL     1       0.220   1.521   0.541  1.00  0.00    -0.173 N 
HETATM    8  C10 UNL     1       0.202   0.154   0.044  1.00  0.00     0.223 C 
HETATM    9  C22 UNL     1      -0.802  -0.490   0.923  1.00  0.00     0.215 C 
HETATM   10  C23 UNL     1      -2.150   0.059   0.648  1.00  0.00     0.268 C 
HETATM   11  O3  UNL     1      -2.571   1.231   0.782  1.00  0.00    -0.269 OA
HETATM   12  N5  UNL     1      -2.960  -0.982   0.184  1.00  0.00    -0.279 N 
HETATM   13  C30 UNL     1      -2.200  -2.181   0.356  1.00  0.00     0.052 A 
HETATM   14  C31 UNL     1      -2.621  -3.499   0.132  1.00  0.00     0.031 A 
HETATM   15  C32 UNL     1      -1.827  -4.580   0.440  1.00  0.00     0.002 A 
HETATM   16  C33 UNL     1      -0.596  -4.288   0.982  1.00  0.00     0.001 A 
HETATM   17  C34 UNL     1      -0.167  -2.998   1.206  1.00  0.00     0.013 A 
HETATM   18  C35 UNL     1      -0.970  -1.902   0.891  1.00  0.00     0.013 A 
ENDROOT
BRANCH   8  19
HETATM   19  O1  UNL     1      -0.387   0.203  -1.269  1.00  0.00    -0.363 OA
ATOM     20  H1  UNL     1      -0.399  -0.690  -1.594  1.00  0.00     0.213 HD
ENDBRANCH   8  19
BRANCH   8  21
HETATM   21  C11 UNL     1       1.534  -0.369  -0.126  1.00  0.00     0.129 C 
BRANCH  21  22
HETATM   22  N4  UNL     1       2.460  -0.581   0.893  1.00  0.00    -0.353 N 
HETATM   23  C12 UNL     1       3.075   0.464   1.595  1.00  0.00     0.072 C 
HETATM   24  C13 UNL     1       4.461  -0.017   2.026  1.00  0.00     0.125 C 
HETATM   25  C14 UNL     1       4.499  -1.439   1.664  1.00  0.00     0.159 C 
HETATM   26  O2  UNL     1       5.192  -2.355   2.070  1.00  0.00    -0.295 OA
HETATM   27  C15 UNL     1       3.453  -1.600   0.619  1.00  0.00     0.191 C 
BRANCH  27  28
HETATM   28  C16 UNL     1       4.084  -1.513  -0.706  1.00  0.00    -0.028 A 
HETATM   29  C17 UNL     1       4.579  -0.352  -1.259  1.00  0.00     0.011 A 
HETATM   30  C18 UNL     1       5.169  -0.273  -2.495  1.00  0.00     0.024 A 
HETATM   31  C19 UNL     1       5.289  -1.422  -3.261  1.00  0.00     0.034 A 
HETATM   32 CL1  UNL     1       6.041  -1.320  -4.839  1.00  0.00    -0.084 Cl
HETATM   33  C20 UNL     1       4.806  -2.603  -2.742  1.00  0.00     0.024 A 
HETATM   34  C21 UNL     1       4.220  -2.659  -1.504  1.00  0.00     0.011 A 
ENDBRANCH  27  28
ENDBRANCH  21  22
ENDBRANCH   8  21
BRANCH   7  35
HETATM   35  C3  UNL     1       0.682   2.643  -0.229  1.00  0.00     0.183 C 
BRANCH  35  36
HETATM   36  C4  UNL     1      -0.269   3.715  -0.474  1.00  0.00    -0.040 A 
HETATM   37  C5  UNL     1      -0.271   4.832   0.336  1.00  0.00     0.009 A 
HETATM   38  C6  UNL     1      -1.163   5.880   0.134  1.00  0.00     0.001 A 
HETATM   39  C7  UNL     1      -2.074   5.823  -0.894  1.00  0.00     0.000 A 
HETATM   40  C8  UNL     1      -2.091   4.723  -1.713  1.00  0.00     0.001 A 
HETATM   41  C9  UNL     1      -1.198   3.694  -1.495  1.00  0.00     0.009 A 
ENDBRANCH  35  36
ENDBRANCH   7  35
BRANCH  12  42
HETATM   42  C24 UNL     1      -4.285  -0.914  -0.360  1.00  0.00     0.042 A 
HETATM   43  C25 UNL     1      -4.526  -1.385  -1.629  1.00  0.00     0.030 A 
HETATM   44  C26 UNL     1      -5.808  -1.333  -2.185  1.00  0.00     0.002 A 
HETATM   45  C27 UNL     1      -6.855  -0.807  -1.470  1.00  0.00     0.000 A 
HETATM   46  C28 UNL     1      -6.622  -0.334  -0.202  1.00  0.00     0.002 A 
HETATM   47  C29 UNL     1      -5.336  -0.390   0.350  1.00  0.00     0.030 A 
ENDBRANCH  12  42
TORSDOF 7
