REMARK  16 active torsions:
REMARK  status: ('A' for Active; 'I' for Inactive)
REMARK    1  A    between atoms: O1_2  and  C2_3 
REMARK    2  A    between atoms: C2_3  and  C5_6 
REMARK    3  A    between atoms: C5_6  and  C6_7 
REMARK    4  A    between atoms: C5_6  and  N2_14 
REMARK    5  A    between atoms: C6_7  and  O2_8 
REMARK    6  A    between atoms: N1_10  and  O3_12 
REMARK    7  A    between atoms: N2_14  and  N3_15 
REMARK    8  A    between atoms: N2_14  and  S2_28 
REMARK    9  A    between atoms: N3_15  and  C7_17 
REMARK   10  A    between atoms: C7_17  and  N4_19 
REMARK   11  A    between atoms: N4_19  and  C8_21 
REMARK   12  A    between atoms: S2_28  and  C15_31 
REMARK   13  A    between atoms: C15_31  and  C16_32 
REMARK   14  A    between atoms: C16_32  and  S3_33 
REMARK   15  A    between atoms: S3_33  and  C17_35 
REMARK   16  A    between atoms: S3_33  and  C19_38 
ROOT
HETATM    1  N2  UNL     1       0.178  -0.756  -1.334  1.00  0.00    -0.200 N 
ENDROOT
BRANCH   1   2
HETATM    2  C5  UNL     1      -0.168  -2.032  -0.911  1.00  0.00     0.230 C 
BRANCH   2   3
HETATM    3  C2  UNL     1       0.082  -2.455   0.482  1.00  0.00     0.084 C 
HETATM    4  C3  UNL     1      -0.427  -3.888   0.722  1.00  0.00     0.048 C 
HETATM    5  C4  UNL     1       1.527  -2.435   0.929  1.00  0.00     0.048 C 
BRANCH   3   6
HETATM    6  O1  UNL     1      -0.585  -1.694   1.434  1.00  0.00    -0.383 OA
HETATM    7  C1  UNL     1      -0.370  -2.074   2.716  1.00  0.00     0.202 C 
ENDBRANCH   3   6
ENDBRANCH   2   3
BRANCH   2   8
HETATM    8  C6  UNL     1       0.358  -3.108  -1.867  1.00  0.00     0.164 C 
HETATM    9  N1  UNL     1      -0.418  -3.783  -2.642  1.00  0.00    -0.249 N 
ATOM     10  H1  UNL     1       0.032  -4.476  -3.240  1.00  0.00     0.196 HD
BRANCH   8  11
HETATM   11  O2  UNL     1       1.695  -3.426  -1.960  1.00  0.00    -0.346 OA
ATOM     12  H2  UNL     1       2.021  -4.093  -2.553  1.00  0.00     0.219 HD
ENDBRANCH   8  11
BRANCH   9  13
HETATM   13  O3  UNL     1      -1.759  -3.677  -2.753  1.00  0.00    -0.288 OA
ATOM     14  H3  UNL     1      -2.331  -4.175  -3.325  1.00  0.00     0.244 HD
ENDBRANCH   9  13
ENDBRANCH   2   8
ENDBRANCH   1   2
BRANCH   1  15
HETATM   15  N3  UNL     1       1.520  -0.449  -1.452  1.00  0.00    -0.264 N 
ATOM     16  H3  UNL     1       2.110  -1.043  -2.035  1.00  0.00     0.190 HD
BRANCH  15  17
HETATM   17  C7  UNL     1       2.105   0.655  -0.796  1.00  0.00     0.191 C 
HETATM   18  S1  UNL     1       1.219   1.605   0.175  1.00  0.00    -0.039 SA
BRANCH  17  19
HETATM   19  N4  UNL     1       3.477   0.909  -0.960  1.00  0.00    -0.332 N 
ATOM     20  H4  UNL     1       3.986   0.251  -1.550  1.00  0.00     0.168 HD
BRANCH  19  21
HETATM   21  C8  UNL     1       4.239   1.966  -0.407  1.00  0.00     0.034 A 
HETATM   22  C9  UNL     1       3.787   3.229  -0.121  1.00  0.00     0.029 A 
HETATM   23  C10 UNL     1       4.588   4.207   0.455  1.00  0.00     0.003 A 
HETATM   24  C11 UNL     1       5.895   3.939   0.766  1.00  0.00     0.007 A 
HETATM   25  C12 UNL     1       6.391   2.682   0.494  1.00  0.00    -0.060 A 
HETATM   26  C13 UNL     1       7.814   2.398   0.834  1.00  0.00     0.048 C 
HETATM   27  C14 UNL     1       5.586   1.736  -0.072  1.00  0.00     0.036 A 
ENDBRANCH  19  21
ENDBRANCH  17  19
ENDBRANCH  15  17
ENDBRANCH   1  15
BRANCH   1  28
HETATM   28  S2  UNL     1      -0.876   0.285  -2.043  1.00  0.00     0.247 S 
HETATM   29  O4  UNL     1      -1.447  -0.359  -3.334  1.00  0.00    -0.204 OA
HETATM   30  O5  UNL     1      -0.147   1.509  -2.668  1.00  0.00    -0.204 OA
BRANCH  28  31
HETATM   31  C15 UNL     1      -2.262   0.825  -1.147  1.00  0.00     0.177 C 
BRANCH  31  32
HETATM   32  C16 UNL     1      -3.227  -0.216  -0.724  1.00  0.00     0.117 C 
BRANCH  32  33
HETATM   33  S3  UNL     1      -4.673   0.475   0.037  1.00  0.00    -0.029 S 
HETATM   34  O6  UNL     1      -5.566  -0.688   0.461  1.00  0.00    -0.266 OA
BRANCH  33  35
HETATM   35  C17 UNL     1      -5.530   1.547  -1.034  1.00  0.00     0.078 C 
HETATM   36  C18 UNL     1      -6.385   1.065  -1.947  1.00  0.00     0.093 C 
HETATM   37 CL1  UNL     1      -7.256   2.129  -3.033  1.00  0.00    -0.096 Cl
ENDBRANCH  33  35
BRANCH  33  38
HETATM   38  C19 UNL     1      -4.342   1.088   1.438  1.00  0.00     0.063 C 
HETATM   39  C20 UNL     1      -3.321   0.484   2.258  1.00  0.00     0.022 C 
HETATM   40  C21 UNL     1      -5.146   2.218   1.861  1.00  0.00     0.022 C 
ENDBRANCH  33  38
ENDBRANCH  32  33
ENDBRANCH  31  32
ENDBRANCH  28  31
ENDBRANCH   1  28
TORSDOF 16
