REMARK  5 active torsions:
REMARK  status: ('A' for Active; 'I' for Inactive)
REMARK    1  A    between atoms: S1_2  and  C2_3 
REMARK    2  A    between atoms: C2_3  and  C3_4 
REMARK    3  A    between atoms: N1_9  and  C8_10 
REMARK    4  A    between atoms: C9_13  and  N3_14 
REMARK    5  A    between atoms: C14_21  and  N5_22 
ROOT
HETATM    1  C8  UNL     1       0.486  -0.252  -0.282  1.00  0.00     0.709 A 
HETATM    2  N2  UNL     1      -0.128   0.938  -0.352  1.00  0.00    -0.021 N 
ATOM      3  H2  UNL     1       0.418   1.748  -0.645  1.00  0.00     0.203 HD
HETATM    4  C9  UNL     1      -1.427   1.118  -0.056  1.00  0.00     0.709 A 
HETATM    5  N4  UNL     1      -2.108   0.024   0.325  1.00  0.00    -0.021 N 
ATOM      6  H4  UNL     1      -3.096   0.121   0.557  1.00  0.00     0.203 HD
HETATM    7  C14 UNL     1      -1.538  -1.203   0.414  1.00  0.00     0.709 A 
HETATM    8  N6  UNL     1      -0.247  -1.307   0.106  1.00  0.00    -0.021 N 
ATOM      9  H6  UNL     1       0.201  -2.221   0.167  1.00  0.00     0.203 HD
ENDROOT
BRANCH   1  10
HETATM   10  N1  UNL     1       1.869  -0.390  -0.607  1.00  0.00    -0.211 N 
HETATM   11  C3  UNL     1       2.592   0.781  -1.014  1.00  0.00     0.111 C 
HETATM   12  C4  UNL     1       3.599   0.529  -2.088  1.00  0.00     0.027 C 
HETATM   13  C5  UNL     1       4.197  -0.830  -2.081  1.00  0.00     0.004 C 
HETATM   14  C6  UNL     1       3.249  -1.940  -1.779  1.00  0.00     0.020 C 
HETATM   15  C7  UNL     1       2.472  -1.707  -0.510  1.00  0.00     0.141 C 
BRANCH  11  16
HETATM   16  C2  UNL     1       3.256   1.473   0.175  1.00  0.00     0.099 C 
BRANCH  16  17
HETATM   17  S1  UNL     1       4.581   0.461   0.870  1.00  0.00    -0.172 SA
HETATM   18  C1  UNL     1       5.307   1.345   2.258  1.00  0.00     0.089 C 
ENDBRANCH  16  17
ENDBRANCH  11  16
ENDBRANCH   1  10
BRANCH   4  19
HETATM   19  N3  UNL     1      -2.054   2.395  -0.140  1.00  0.00    -0.217 N 
HETATM   20  C10 UNL     1      -3.450   2.631   0.171  1.00  0.00     0.141 C 
HETATM   21  C11 UNL     1      -3.441   4.051   0.659  1.00  0.00     0.022 C 
HETATM   22  C12 UNL     1      -2.437   4.693  -0.308  1.00  0.00     0.022 C 
HETATM   23  C13 UNL     1      -1.420   3.618  -0.535  1.00  0.00     0.141 C 
ENDBRANCH   4  19
BRANCH   7  24
HETATM   24  N5  UNL     1      -2.281  -2.337   0.819  1.00  0.00    -0.213 N 
HETATM   25  C15 UNL     1      -1.651  -3.629   0.905  1.00  0.00     0.167 C 
HETATM   26  C16 UNL     1      -2.717  -4.704   0.814  1.00  0.00     0.188 C 
HETATM   27  O1  UNL     1      -3.756  -4.345  -0.011  1.00  0.00    -0.388 OA
HETATM   28  C17 UNL     1      -4.459  -3.226   0.365  1.00  0.00     0.188 C 
HETATM   29  C18 UNL     1      -3.676  -2.216   1.150  1.00  0.00     0.167 C 
ENDBRANCH   7  24
TORSDOF 5
