REMARK  4 active torsions:
REMARK  status: ('A' for Active; 'I' for Inactive)
REMARK    1  A    between atoms: C2_2  and  C3_4 
REMARK    2  A    between atoms: C3_4  and  O2_5 
REMARK    3  A    between atoms: C15_18  and  C17_20 
REMARK    4  A    between atoms: C17_20  and  C18_21 
ROOT
HETATM    1  C3  UNL     1       5.814   0.421   0.234  1.00  0.00     0.206 C 
HETATM    2  C4  UNL     1       4.601  -0.531   0.120  1.00  0.00     0.071 C 
HETATM    3  C5  UNL     1       3.403   0.262   0.516  1.00  0.00     0.091 C 
HETATM    4  C6  UNL     1       3.678   0.812   1.869  1.00  0.00     0.064 C 
HETATM    5  C7  UNL     1       2.678   1.403   2.502  1.00  0.00     0.034 C 
HETATM    6  C8  UNL     1       1.366   1.447   1.896  1.00  0.00     0.009 C 
HETATM    7  C9  UNL     1       1.061   0.853   0.737  1.00  0.00    -0.035 C 
HETATM    8  C10 UNL     1      -0.326   1.108   0.287  1.00  0.00     0.027 C 
HETATM    9  C11 UNL     1      -0.340   1.734  -1.088  1.00  0.00     0.010 C 
HETATM   10  C12 UNL     1      -1.546   1.545  -1.902  1.00  0.00     0.005 C 
HETATM   11  C13 UNL     1      -2.790   1.209  -1.136  1.00  0.00    -0.010 C 
HETATM   12  C14 UNL     1      -3.503   2.538  -0.946  1.00  0.00     0.011 C 
HETATM   13  C15 UNL     1      -2.693   0.334   0.034  1.00  0.00    -0.032 C 
HETATM   14  C16 UNL     1      -3.256   1.204   1.192  1.00  0.00     0.016 C 
HETATM   15  C22 UNL     1      -1.259   0.016   0.542  1.00  0.00    -0.029 C 
HETATM   16  C23 UNL     1      -1.376  -0.069   2.066  1.00  0.00     0.016 C 
HETATM   17  C24 UNL     1      -0.708  -1.293   0.155  1.00  0.00     0.011 C 
HETATM   18  C25 UNL     1       0.250  -1.434  -0.932  1.00  0.00     0.009 C 
HETATM   19  C26 UNL     1       1.668  -1.052  -0.794  1.00  0.00     0.026 C 
HETATM   20  C27 UNL     1       2.502  -2.353  -0.740  1.00  0.00     0.014 C 
HETATM   21  C28 UNL     1       2.070  -0.208   0.356  1.00  0.00     0.140 C 
HETATM   22  F1  UNL     1       2.004  -1.182   1.454  1.00  0.00    -0.237 F 
HETATM   23  O3  UNL     1       4.934   0.729   2.488  1.00  0.00    -0.280 OA
HETATM   24  C29 UNL     1       6.047   0.608   1.683  1.00  0.00     0.306 C 
HETATM   25  O4  UNL     1       7.194   0.658   2.186  1.00  0.00    -0.261 OA
ENDROOT
BRANCH  13  26
HETATM   26  C17 UNL     1      -3.435  -0.940  -0.030  1.00  0.00     0.018 C 
BRANCH  26  27
HETATM   27  C18 UNL     1      -4.866  -1.100  -0.168  1.00  0.00    -0.051 C 
HETATM   28  C19 UNL     1      -5.602  -0.579  -1.357  1.00  0.00     0.014 C 
HETATM   29  C20 UNL     1      -5.051  -2.644  -0.342  1.00  0.00     0.014 C 
HETATM   30  C21 UNL     1      -5.722  -0.817   1.038  1.00  0.00     0.014 C 
ENDBRANCH  26  27
ENDBRANCH  13  26
BRANCH   1  31
HETATM   31  C2  UNL     1       6.966  -0.273  -0.416  1.00  0.00     0.167 C 
HETATM   32  C1  UNL     1       7.688   0.252  -1.579  1.00  0.00     0.095 C 
HETATM   33  O1  UNL     1       7.311  -1.338   0.064  1.00  0.00    -0.294 OA
ENDBRANCH   1  31
BRANCH   1  34
HETATM   34  O2  UNL     1       5.521   1.620  -0.406  1.00  0.00    -0.373 OA
ATOM     35  H2  UNL     1       4.788   2.061   0.007  1.00  0.00     0.211 HD
ENDBRANCH   1  34
TORSDOF 4
