REMARK  9 active torsions:
REMARK  status: ('A' for Active; 'I' for Inactive)
REMARK    1  A    between atoms: O1_2  and  C2_3 
REMARK    2  A    between atoms: C2_3  and  C3_5 
REMARK    3  A    between atoms: C3_5  and  O3_6 
REMARK    4  A    between atoms: C6_12  and  N1_13 
REMARK    5  A    between atoms: N1_13  and  O6_14 
REMARK    6  A    between atoms: N1_13  and  O7_16 
REMARK    7  A    between atoms: C7_18  and  C8_19 
REMARK    8  A    between atoms: C11_24  and  O10_25 
REMARK    9  A    between atoms: C11_24  and  C12_27 
ROOT
HETATM    1  C3  UNL     1      -1.452   0.094   0.827  1.00  0.00     0.305 C 
HETATM    2  O4  UNL     1      -0.086  -0.108   1.083  1.00  0.00    -0.298 OA
HETATM    3  C4  UNL     1       0.846  -0.467   0.153  1.00  0.00     0.129 A 
HETATM    4  C5  UNL     1       0.396  -1.271  -0.900  1.00  0.00     0.161 A 
HETATM    5  O5  UNL     1       1.418  -1.497  -1.661  1.00  0.00    -0.287 OA
HETATM    6  C6  UNL     1       2.517  -0.904  -1.194  1.00  0.00     0.194 A 
HETATM    7  C7  UNL     1       2.189  -0.238  -0.038  1.00  0.00     0.096 A 
HETATM    8  C10 UNL     1      -0.994  -1.642  -0.907  1.00  0.00     0.234 C 
HETATM    9  O9  UNL     1      -1.358  -2.709  -1.430  1.00  0.00    -0.286 OA
HETATM   10  C11 UNL     1      -2.000  -0.760  -0.294  1.00  0.00     0.252 C 
ENDROOT
BRANCH   1  11
HETATM   11  C2  UNL     1      -1.726   1.531   0.550  1.00  0.00     0.326 C 
HETATM   12  O2  UNL     1      -2.451   2.216   1.299  1.00  0.00    -0.259 OA
BRANCH  11  13
HETATM   13  O1  UNL     1      -1.191   2.189  -0.553  1.00  0.00    -0.322 OA
HETATM   14  C1  UNL     1      -1.468   3.569  -0.797  1.00  0.00     0.213 C 
ENDBRANCH  11  13
ENDBRANCH   1  11
BRANCH   1  15
HETATM   15  O3  UNL     1      -2.137  -0.235   1.996  1.00  0.00    -0.354 OA
ATOM     16  H3  UNL     1      -1.962  -1.152   2.173  1.00  0.00     0.213 HD
ENDBRANCH   1  15
BRANCH  10  17
HETATM   17  O10 UNL     1      -2.466   0.057  -1.349  1.00  0.00    -0.370 OA
ATOM     18  H10 UNL     1      -2.810  -0.480  -2.053  1.00  0.00     0.212 HD
ENDBRANCH  10  17
BRANCH  10  19
HETATM   19  C12 UNL     1      -3.148  -1.579   0.180  1.00  0.00     0.171 C 
HETATM   20  C13 UNL     1      -2.989  -2.564   1.302  1.00  0.00     0.095 C 
HETATM   21  O11 UNL     1      -4.224  -1.441  -0.356  1.00  0.00    -0.294 OA
ENDBRANCH  10  19
BRANCH   7  22
HETATM   22  C8  UNL     1       3.070   0.547   0.811  1.00  0.00     0.162 C 
HETATM   23  C9  UNL     1       2.614   1.224   2.036  1.00  0.00     0.097 C 
HETATM   24  O8  UNL     1       4.301   0.679   0.516  1.00  0.00    -0.293 OA
ENDBRANCH   7  22
BRANCH   6  25
HETATM   25  N1  UNL     1       3.822  -0.925  -1.756  1.00  0.00    -0.011 NA
BRANCH  25  26
HETATM   26  O6  UNL     1       4.681  -1.699  -1.081  1.00  0.00    -0.283 OA
ATOM     27  H6  UNL     1       5.553  -1.713  -1.457  1.00  0.00     0.240 HD
ENDBRANCH  25  26
BRANCH  25  28
HETATM   28  O7  UNL     1       3.714  -1.465  -3.010  1.00  0.00    -0.283 OA
ATOM     29  H7  UNL     1       4.586  -1.479  -3.386  1.00  0.00     0.240 HD
ENDBRANCH  25  28
ENDBRANCH   6  25
TORSDOF 9
