REMARK  6 active torsions:
REMARK  status: ('A' for Active; 'I' for Inactive)
REMARK    1  A    between atoms: O1_2  and  C2_3 
REMARK    2  A    between atoms: C2_3  and  C3_5 
REMARK    3  A    between atoms: C5_7  and  N1_8 
REMARK    4  A    between atoms: C11_15  and  C12_16 
REMARK    5  A    between atoms: C13_21  and  N5_22 
REMARK    6  A    between atoms: C15_26  and  C16_27 
ROOT
HETATM    1  N1  UNL     1       2.724   0.441  -0.917  1.00  0.00    -0.296 N 
HETATM    2  C6  UNL     1       3.268   0.278  -2.130  1.00  0.00     0.016 A 
HETATM    3  C7  UNL     1       2.687  -0.599  -3.193  1.00  0.00     0.068 C 
HETATM    4  C8  UNL     1       4.429   1.042  -2.218  1.00  0.00     0.050 A 
HETATM    5  C9  UNL     1       4.583   1.687  -1.012  1.00  0.00     0.079 A 
HETATM    6  C10 UNL     1       5.649   2.597  -0.626  1.00  0.00     0.102 C 
HETATM    7  N2  UNL     1       6.489   3.335  -0.329  1.00  0.00    -0.191 NA
HETATM    8  C11 UNL     1       3.515   1.294  -0.233  1.00  0.00     0.127 A 
ENDROOT
BRANCH   8   9
HETATM    9  C12 UNL     1       3.252   1.721   1.135  1.00  0.00     0.283 C 
HETATM   10  N3  UNL     1       4.143   2.625   1.778  1.00  0.00    -0.056 NA
HETATM   11  O3  UNL     1       2.254   1.321   1.787  1.00  0.00    -0.269 OA
ENDBRANCH   8   9
BRANCH   1  12
HETATM   12  C5  UNL     1       1.527  -0.185  -0.462  1.00  0.00     0.115 A 
HETATM   13  C4  UNL     1       1.517  -1.441   0.108  1.00  0.00     0.069 A 
HETATM   14  C3  UNL     1       0.360  -2.045   0.546  1.00  0.00     0.071 A 
HETATM   15  C19 UNL     1      -0.811  -1.311   0.382  1.00  0.00     0.108 A 
HETATM   16  C13 UNL     1      -0.813  -0.059  -0.185  1.00  0.00     0.157 A 
HETATM   17  N7  UNL     1      -2.051  -1.856   0.805  1.00  0.00    -0.097 NA
HETATM   18  N4  UNL     1       0.352   0.478  -0.594  1.00  0.00    -0.325 N 
ATOM     19  H4  UNL     1       0.350   1.408  -1.014  1.00  0.00     0.169 HD
BRANCH  14  20
HETATM   20  C2  UNL     1       0.372  -3.371   1.145  1.00  0.00     0.295 C 
HETATM   21  O2  UNL     1       1.463  -3.963   1.257  1.00  0.00    -0.259 OA
BRANCH  20  22
HETATM   22  O1  UNL     1      -0.759  -4.007   1.594  1.00  0.00    -0.322 OA
HETATM   23  C1  UNL     1      -0.709  -5.297   2.171  1.00  0.00     0.213 C 
ENDBRANCH  20  22
ENDBRANCH  14  20
BRANCH  16  24
HETATM   24  N5  UNL     1      -2.056   0.615  -0.312  1.00  0.00    -0.201 N 
HETATM   25  N6  UNL     1      -2.662   0.934  -1.442  1.00  0.00    -0.300 N 
HETATM   26  C14 UNL     1      -3.812   1.562  -1.139  1.00  0.00     0.128 A 
ATOM     27  H6  UNL     1      -2.317   0.738  -2.382  1.00  0.00     0.186 HD
HETATM   28  C15 UNL     1      -3.937   1.643   0.229  1.00  0.00     0.096 A 
HETATM   29  C18 UNL     1      -2.809   1.035   0.737  1.00  0.00     0.283 A 
HETATM   30  O5  UNL     1      -2.520   0.889   1.967  1.00  0.00    -0.265 OA
BRANCH  28  31
HETATM   31  C16 UNL     1      -5.026   2.242   0.980  1.00  0.00     0.162 C 
HETATM   32  C17 UNL     1      -6.163   2.854   0.275  1.00  0.00     0.097 C 
HETATM   33  O4  UNL     1      -4.976   2.227   2.225  1.00  0.00    -0.293 OA
ENDBRANCH  28  31
ENDBRANCH  16  24
ENDBRANCH   1  12
TORSDOF 6
