REMARK  4 active torsions:
REMARK  status: ('A' for Active; 'I' for Inactive)
REMARK    1  A    between atoms: C3_3  and  N1_4 
REMARK    2  A    between atoms: N1_4  and  N2_6 
REMARK       I    between atoms: N2_6  and  C4_8 
REMARK    3  A    between atoms: C4_8  and  C5_10 
REMARK    4  A    between atoms: C5_10  and  C6_11 
ROOT
HETATM    1  C1  UNL     1      -0.721  -2.396  -0.726  1.00  0.00     0.052 C 
HETATM    2  C2  UNL     1      -1.278  -1.183   0.000  1.00  0.00    -0.019 A 
HETATM    3  C3  UNL     1      -0.415  -0.438   0.756  1.00  0.00     0.095 A 
HETATM    4  S1  UNL     1      -1.409   0.794   1.383  1.00  0.00    -0.075 SA
HETATM    5  C9  UNL     1      -2.891   0.339   0.675  1.00  0.00    -0.008 A 
HETATM    6  C10 UNL     1      -2.566  -0.767  -0.033  1.00  0.00    -0.036 A 
HETATM    7  C11 UNL     1      -3.699  -1.430  -0.802  1.00  0.00     0.040 C 
HETATM    8  C12 UNL     1      -4.714  -0.398  -1.162  1.00  0.00     0.009 C 
HETATM    9  C13 UNL     1      -5.296   0.094   0.172  1.00  0.00    -0.014 C 
HETATM   10  C14 UNL     1      -6.558   0.865  -0.039  1.00  0.00     0.010 C 
HETATM   11  C15 UNL     1      -4.248   0.964   0.771  1.00  0.00     0.051 C 
ENDROOT
BRANCH   3  12
HETATM   12  N1  UNL     1       0.990  -0.609   0.997  1.00  0.00    -0.291 N 
ATOM     13  H1  UNL     1       1.325  -1.167   1.782  1.00  0.00     0.187 HD
BRANCH  12  14
HETATM   14  N2  UNL     1       1.876   0.008   0.130  1.00  0.00    -0.269 N 
HETATM   15  C4  UNL     1       3.210   0.273   0.531  1.00  0.00     0.236 C 
HETATM   16  O1  UNL     1       3.632  -0.040   1.683  1.00  0.00    -0.272 OA
ATOM     17  H2  UNL     1       1.566   0.274  -0.805  1.00  0.00     0.190 HD
BRANCH  15  18
HETATM   18  C5  UNL     1       4.141   0.933  -0.413  1.00  0.00     0.108 C 
BRANCH  18  19
HETATM   19  C6  UNL     1       5.523   1.081   0.133  1.00  0.00    -0.014 C 
HETATM   20  C7  UNL     1       6.383   1.792  -0.925  1.00  0.00     0.010 C 
HETATM   21  C8  UNL     1       6.215  -0.216   0.427  1.00  0.00     0.010 C 
ENDBRANCH  18  19
ENDBRANCH  15  18
ENDBRANCH  12  14
ENDBRANCH   3  12
TORSDOF 4
