REMARK  7 active torsions:
REMARK  status: ('A' for Active; 'I' for Inactive)
REMARK    1  A    between atoms: C2_2  and  C3_3 
REMARK    2  A    between atoms: C3_3  and  O1_4 
REMARK    3  A    between atoms: O1_4  and  C4_5 
REMARK    4  A    between atoms: C7_8  and  C8_9 
REMARK    5  A    between atoms: C9_12  and  C10_13 
REMARK    6  A    between atoms: C13_16  and  O3_17 
REMARK    7  A    between atoms: C14_19  and  O4_20 
ROOT
HETATM    1  C8  UNL     1       0.011  -1.814  -1.098  1.00  0.00     0.278 C 
HETATM    2  N1  UNL     1      -0.488  -2.751  -0.109  1.00  0.00    -0.060 NA
HETATM    3  O2  UNL     1      -1.743  -2.972  -0.564  1.00  0.00    -0.246 OA
HETATM    4  C9  UNL     1      -2.138  -1.850  -1.262  1.00  0.00     0.320 C 
HETATM    5  O5  UNL     1      -1.074  -0.955  -1.235  1.00  0.00    -0.328 OA
ENDROOT
BRANCH   1   6
HETATM    6  C7  UNL     1       1.251  -1.150  -0.702  1.00  0.00    -0.011 A 
HETATM    7  C6  UNL     1       2.265  -1.897  -0.153  1.00  0.00     0.014 A 
HETATM    8  C5  UNL     1       3.470  -1.323   0.244  1.00  0.00     0.037 A 
HETATM    9  C4  UNL     1       3.653   0.053   0.079  1.00  0.00     0.069 A 
HETATM   10  C18 UNL     1       2.643   0.812  -0.472  1.00  0.00     0.037 A 
HETATM   11  C17 UNL     1       1.465   0.203  -0.851  1.00  0.00     0.014 A 
BRANCH   9  12
HETATM   12  O1  UNL     1       4.863   0.591   0.484  1.00  0.00    -0.348 OA
BRANCH  12  13
HETATM   13  C3  UNL     1       5.188   1.948   0.380  1.00  0.00     0.202 C 
BRANCH  13  14
HETATM   14  C2  UNL     1       6.552   2.162   0.906  1.00  0.00    -0.011 C 
HETATM   15  C1  UNL     1       7.487   2.658   0.115  1.00  0.00     0.009 C 
ENDBRANCH  13  14
ENDBRANCH  12  13
ENDBRANCH   9  12
ENDBRANCH   1   6
BRANCH   4  16
HETATM   16  C10 UNL     1      -3.341  -1.289  -0.583  1.00  0.00     0.001 A 
HETATM   17  C11 UNL     1      -4.363  -2.123  -0.180  1.00  0.00     0.015 A 
HETATM   18  C12 UNL     1      -5.495  -1.664   0.450  1.00  0.00     0.040 A 
HETATM   19  C13 UNL     1      -5.611  -0.296   0.689  1.00  0.00     0.099 A 
HETATM   20  C14 UNL     1      -4.611   0.572   0.301  1.00  0.00     0.102 A 
HETATM   21  C16 UNL     1      -3.491   0.063  -0.329  1.00  0.00     0.051 A 
BRANCH  19  22
HETATM   22  O3  UNL     1      -6.741   0.210   1.324  1.00  0.00    -0.358 OA
ATOM     23  H3  UNL     1      -6.820   1.143   1.487  1.00  0.00     0.217 HD
ENDBRANCH  19  22
BRANCH  20  24
HETATM   24  O4  UNL     1      -4.784   1.924   0.567  1.00  0.00    -0.353 OA
HETATM   25  C15 UNL     1      -3.754   2.797   0.164  1.00  0.00     0.210 C 
ENDBRANCH  20  24
ENDBRANCH   4  16
TORSDOF 7
