REMARK  7 active torsions:
REMARK  status: ('A' for Active; 'I' for Inactive)
REMARK    1  A    between atoms: O1_2  and  C2_3 
REMARK    2  A    between atoms: C5_6  and  N1_7 
REMARK       I    between atoms: N1_7  and  C6_9 
REMARK    3  A    between atoms: C6_9  and  C7_11 
REMARK    4  A    between atoms: C7_11  and  S1_12 
REMARK    5  A    between atoms: S1_12  and  C8_13 
REMARK    6  A    between atoms: N3_18  and  N4_19 
REMARK    7  A    between atoms: N4_19  and  C11_21 
ROOT
HETATM    1  S1  UNL     1      -0.649   1.711  -0.100  1.00  0.00    -0.083 SA
ENDROOT
BRANCH   1   2
HETATM    2  C7  UNL     1       0.350   1.153  -1.475  1.00  0.00     0.185 C 
BRANCH   2   3
HETATM    3  C6  UNL     1       1.751   0.941  -0.999  1.00  0.00     0.231 C 
HETATM    4  N1  UNL     1       2.062   1.186   0.341  1.00  0.00    -0.327 N 
ATOM      5  H1  UNL     1       1.313   1.500   0.959  1.00  0.00     0.169 HD
HETATM    6  O2  UNL     1       2.560   0.552  -1.848  1.00  0.00    -0.272 OA
BRANCH   4   7
HETATM    7  C5  UNL     1       3.346   1.025   0.886  1.00  0.00     0.034 A 
HETATM    8  C4  UNL     1       4.529   0.950   0.197  1.00  0.00     0.032 A 
HETATM    9  C3  UNL     1       5.758   0.763   0.842  1.00  0.00     0.039 A 
HETATM   10  C2  UNL     1       5.839   0.647   2.211  1.00  0.00     0.068 A 
HETATM   11  C17 UNL     1       4.643   0.725   2.890  1.00  0.00     0.039 A 
HETATM   12  C16 UNL     1       3.450   0.904   2.280  1.00  0.00     0.032 A 
BRANCH  10  13
HETATM   13  O1  UNL     1       7.047   0.463   2.861  1.00  0.00    -0.356 OA
HETATM   14  C1  UNL     1       8.280   0.379   2.203  1.00  0.00     0.210 C 
ENDBRANCH  10  13
ENDBRANCH   4   7
ENDBRANCH   2   3
ENDBRANCH   1   2
BRANCH   1  15
HETATM   15  C8  UNL     1      -2.365   1.981  -0.615  1.00  0.00     0.165 A 
HETATM   16  N2  UNL     1      -2.877   3.124  -1.092  1.00  0.00    -0.344 N 
HETATM   17  C9  UNL     1      -4.179   2.951  -1.368  1.00  0.00     0.109 A 
ATOM     18  H2  UNL     1      -2.357   3.992  -1.225  1.00  0.00     0.167 HD
HETATM   19  C10 UNL     1      -4.482   1.655  -1.049  1.00  0.00     0.135 A 
HETATM   20  N3  UNL     1      -3.360   1.081  -0.592  1.00  0.00    -0.248 N 
BRANCH  20  21
HETATM   21  N4  UNL     1      -3.200  -0.238  -0.149  1.00  0.00    -0.323 N 
ATOM     22  H4  UNL     1      -2.279  -0.532   0.176  1.00  0.00     0.181 HD
BRANCH  21  23
HETATM   23  C11 UNL     1      -4.273  -1.201  -0.130  1.00  0.00     0.100 C 
HETATM   24  C12 UNL     1      -4.872  -1.492  -1.460  1.00  0.00     0.026 C 
HETATM   25  C13 UNL     1      -4.321  -2.883  -1.799  1.00  0.00     0.002 C 
HETATM   26  C14 UNL     1      -4.436  -3.573  -0.447  1.00  0.00     0.002 C 
HETATM   27  C15 UNL     1      -3.812  -2.516   0.459  1.00  0.00     0.026 C 
ENDBRANCH  21  23
ENDBRANCH  20  21
ENDBRANCH   1  15
TORSDOF 7
