REMARK  6 active torsions:
REMARK  status: ('A' for Active; 'I' for Inactive)
REMARK       I    between atoms: C2_4  and  N2_5 
REMARK       I    between atoms: C2_4  and  N4_11 
REMARK    1  A    between atoms: N2_5  and  C3_7 
REMARK    2  A    between atoms: C3_7  and  C4_8 
REMARK    3  A    between atoms: N4_11  and  N5_13 
REMARK    4  A    between atoms: C6_15  and  C7_16 
REMARK    5  A    between atoms: C10_19  and  C11_20 
REMARK    6  A    between atoms: C14_23  and  N6_24 
ROOT
HETATM    1  C4  UNL     1       3.919   1.435  -1.436  1.00  0.00     0.144 C 
HETATM    2  C5  UNL     1       5.371   1.666  -1.455  1.00  0.00     0.060 C 
HETATM    3  N3  UNL     1       6.516   1.829  -1.457  1.00  0.00    -0.197 NA
ENDROOT
BRANCH   1   4
HETATM    4  C3  UNL     1       3.449   1.217  -0.006  1.00  0.00     0.152 C 
BRANCH   4   5
HETATM    5  N2  UNL     1       4.066   0.095   0.618  1.00  0.00    -0.224 N 
HETATM    6  C2  UNL     1       3.840  -1.238   0.243  1.00  0.00     0.688 C 
HETATM    7  N1  UNL     1       4.803  -2.098   0.164  1.00  0.00    -0.229 N 
HETATM    8  N4  UNL     1       2.545  -1.784  -0.085  1.00  0.00    -0.133 N 
HETATM    9  C1  UNL     1       6.177  -1.814   0.438  1.00  0.00     0.165 C 
ATOM     10  H1  UNL     1       4.564  -3.050  -0.115  1.00  0.00     0.177 HD
ATOM     11  H4  UNL     1       2.274  -1.931  -1.057  1.00  0.00     0.205 HD
ATOM     12  H2  UNL     1       4.713   0.272   1.386  1.00  0.00     0.177 HD
BRANCH   8  13
HETATM   13  N5  UNL     1       1.695  -2.098   0.923  1.00  0.00    -0.295 N 
HETATM   14  C6  UNL     1       0.494  -1.849   1.177  1.00  0.00     0.144 C 
ATOM     15  H5  UNL     1       2.136  -2.671   1.643  1.00  0.00     0.186 HD
BRANCH  14  16
HETATM   16  C7  UNL     1      -0.437  -1.068   0.381  1.00  0.00     0.093 A 
HETATM   17  C8  UNL     1      -0.258  -0.394  -0.799  1.00  0.00     0.041 A 
HETATM   18  C9  UNL     1      -1.474   0.184  -1.129  1.00  0.00     0.041 A 
HETATM   19  C10 UNL     1      -2.329  -0.166  -0.136  1.00  0.00     0.086 A 
HETATM   20  O3  UNL     1      -1.702  -0.896   0.734  1.00  0.00    -0.309 OA
BRANCH  19  21
HETATM   21  C11 UNL     1      -3.745   0.207  -0.035  1.00  0.00    -0.002 A 
HETATM   22  C12 UNL     1      -4.359   0.975  -0.989  1.00  0.00     0.017 A 
HETATM   23  C13 UNL     1      -5.680   1.332  -0.913  1.00  0.00     0.037 A 
HETATM   24  C14 UNL     1      -6.423   0.901   0.169  1.00  0.00     0.102 A 
HETATM   25  C15 UNL     1      -5.837   0.134   1.135  1.00  0.00     0.037 A 
HETATM   26  C16 UNL     1      -4.523  -0.204   1.030  1.00  0.00     0.017 A 
BRANCH  24  27
HETATM   27  N6  UNL     1      -7.789   1.266   0.252  1.00  0.00    -0.116 N 
HETATM   28  O1  UNL     1      -8.336   1.963  -0.623  1.00  0.00    -0.532 OA
HETATM   29  O2  UNL     1      -8.523   0.837   1.329  1.00  0.00    -0.532 OA
ENDBRANCH  24  27
ENDBRANCH  19  21
ENDBRANCH  14  16
ENDBRANCH   8  13
ENDBRANCH   4   5
ENDBRANCH   1   4
TORSDOF 6
