REMARK  4 active torsions:
REMARK  status: ('A' for Active; 'I' for Inactive)
REMARK    1  A    between atoms: C2_2  and  S1_3 
REMARK    2  A    between atoms: S1_3  and  C3_4 
REMARK    3  A    between atoms: N1_6  and  C5_7 
REMARK    4  A    between atoms: C11_14  and  O2_15 
ROOT
HETATM    1  C3  UNL     1       1.692  -1.139  -0.101  1.00  0.00     0.106 C 
HETATM    2  C4  UNL     1       0.715  -0.004  -0.339  1.00  0.00     0.290 C 
HETATM    3  N1  UNL     1      -0.613  -0.599  -0.326  1.00  0.00     0.097 N 
HETATM    4  C10 UNL     1      -0.524  -1.562   0.735  1.00  0.00     0.305 C 
HETATM    5  C11 UNL     1       0.812  -2.235   0.451  1.00  0.00     0.161 C 
ENDROOT
BRANCH   3   6
HETATM    6  C5  UNL     1      -1.548   0.462  -0.086  1.00  0.00     0.227 C 
HETATM    7  C6  UNL     1      -2.202   0.791  -1.423  1.00  0.00     0.062 C 
HETATM    8  C7  UNL     1      -3.128   1.970  -1.300  1.00  0.00     0.169 C 
HETATM    9  O1  UNL     1      -3.785   2.008  -0.062  1.00  0.00    -0.391 OA
HETATM   10  C8  UNL     1      -3.927   0.737   0.465  1.00  0.00     0.169 C 
HETATM   11  C9  UNL     1      -2.603   0.151   0.925  1.00  0.00     0.062 C 
ENDBRANCH   3   6
BRANCH   1  12
HETATM   12  S1  UNL     1       2.958  -0.600   1.059  1.00  0.00    -0.160 SA
BRANCH  12  13
HETATM   13  C2  UNL     1       4.523  -0.191   0.283  1.00  0.00     0.070 C 
HETATM   14  C1  UNL     1       4.563   1.187  -0.315  1.00  0.00     0.016 C 
ENDBRANCH  12  13
ENDBRANCH   1  12
BRANCH   5  15
HETATM   15  O2  UNL     1       1.336  -2.848   1.571  1.00  0.00    -0.393 OA
ATOM     16  H2  UNL     1       0.782  -3.538   1.918  1.00  0.00     0.210 HD
ENDBRANCH   5  15
TORSDOF 4
