REMARK  15 active torsions:
REMARK  status: ('A' for Active; 'I' for Inactive)
REMARK    1  A    between atoms: N1_1  and  C1_4 
REMARK    2  A    between atoms: C2_7  and  C3_8 
REMARK    3  A    between atoms: C3_8  and  C4_9 
REMARK    4  A    between atoms: C3_8  and  N4_16 
REMARK    5  A    between atoms: C4_9  and  C5_10 
REMARK    6  A    between atoms: C5_10  and  C6_11 
REMARK    7  A    between atoms: C6_11  and  N3_12 
REMARK       I    between atoms: N4_16  and  C7_18 
REMARK    8  A    between atoms: C7_18  and  C8_20 
REMARK    9  A    between atoms: C8_20  and  C9_21 
REMARK   10  A    between atoms: C9_21  and  O2_22 
REMARK   11  A    between atoms: C9_21  and  C10_24 
REMARK   12  A    between atoms: C10_24  and  C11_25 
REMARK   13  A    between atoms: C11_25  and  O3_26 
REMARK   14  A    between atoms: C11_25  and  C12_28 
REMARK   15  A    between atoms: C21_54  and  N14_55 
ROOT
HETATM    1  C9  UNL     1       0.622   1.481   0.625  1.00  0.00     0.129 C 
ENDROOT
BRANCH   1   2
HETATM    2  C8  UNL     1      -0.109   0.196   0.531  1.00  0.00     0.134 C 
BRANCH   2   3
HETATM    3  C7  UNL     1      -1.560   0.499   0.550  1.00  0.00     0.220 C 
HETATM    4  N4  UNL     1      -2.563  -0.488   0.780  1.00  0.00    -0.351 N 
ATOM      5  H4  UNL     1      -2.281  -1.454   0.947  1.00  0.00     0.163 HD
HETATM    6  O1  UNL     1      -1.954   1.675   0.362  1.00  0.00    -0.274 OA
BRANCH   4   7
HETATM    7  C3  UNL     1      -3.990  -0.148   0.783  1.00  0.00     0.137 C 
BRANCH   7   8
HETATM    8  C2  UNL     1      -4.798  -1.064   0.039  1.00  0.00     0.077 A 
HETATM    9  N2  UNL     1      -5.508  -2.133   0.498  1.00  0.00    -0.192 N 
HETATM   10  C1  UNL     1      -6.153  -2.997  -0.289  1.00  0.00     0.677 A 
ATOM     11  H2  UNL     1      -5.549  -2.282   1.506  1.00  0.00     0.184 HD
HETATM   12  N15 UNL     1      -6.149  -2.873  -1.644  1.00  0.00    -0.175 N 
HETATM   13  C21 UNL     1      -5.463  -1.834  -2.182  1.00  0.00     0.141 A 
ATOM     14  H15 UNL     1      -6.645  -3.539  -2.236  1.00  0.00     0.186 HD
HETATM   15  C20 UNL     1      -4.814  -0.965  -1.365  1.00  0.00     0.115 A 
HETATM   16  N13 UNL     1      -4.095   0.115  -1.962  1.00  0.00    -0.096 NA
BRANCH  10  17
HETATM   17  N1  UNL     1      -6.826  -4.011   0.160  1.00  0.00    -0.234 N 
ATOM     18  H12 UNL     1      -6.829  -4.104   1.176  1.00  0.00     0.174 HD
ATOM     19  H11 UNL     1      -7.319  -4.671  -0.441  1.00  0.00     0.174 HD
ENDBRANCH  10  17
BRANCH  13  20
HETATM   20  N14 UNL     1      -5.470  -1.741  -3.460  1.00  0.00    -0.383 N 
ATOM     21 2H14 UNL     1      -4.954  -0.960  -3.865  1.00  0.00     0.157 HD
ATOM     22 1H14 UNL     1      -5.958  -2.394  -4.074  1.00  0.00     0.157 HD
ENDBRANCH  13  20
ENDBRANCH   7   8
BRANCH   7  23
HETATM   23  C4  UNL     1      -4.330   0.148   2.201  1.00  0.00     0.033 C 
BRANCH  23  24
HETATM   24  C5  UNL     1      -5.558   0.881   2.517  1.00  0.00     0.029 C 
BRANCH  24  25
HETATM   25  C6  UNL     1      -6.859   0.332   2.106  1.00  0.00     0.230 C 
BRANCH  25  26
HETATM   26  N3  UNL     1      -7.961   1.224   2.551  1.00  0.00    -0.079 N 
ATOM     27  H33 UNL     1      -7.924   1.402   3.555  1.00  0.00     0.274 HD
ATOM     28  H32 UNL     1      -7.831   2.181   2.222  1.00  0.00     0.274 HD
ATOM     29  H31 UNL     1      -8.863   0.843   2.266  1.00  0.00     0.274 HD
ENDBRANCH  25  26
ENDBRANCH  24  25
ENDBRANCH  23  24
ENDBRANCH   7  23
ENDBRANCH   4   7
ENDBRANCH   2   3
ENDBRANCH   1   2
BRANCH   1  30
HETATM   30  O2  UNL     1       0.342   2.362  -0.424  1.00  0.00    -0.395 OA
ATOM     31  H2  UNL     1       0.811   3.186  -0.364  1.00  0.00     0.210 HD
ENDBRANCH   1  30
BRANCH   1  32
HETATM   32  C10 UNL     1       2.091   1.412   0.923  1.00  0.00     0.070 C 
BRANCH  32  33
HETATM   33  C11 UNL     1       2.942   0.717  -0.054  1.00  0.00     0.172 C 
BRANCH  33  34
HETATM   34  O3  UNL     1       2.548  -0.637  -0.208  1.00  0.00    -0.389 OA
ATOM     35  H3  UNL     1       3.098  -1.086  -0.839  1.00  0.00     0.210 HD
ENDBRANCH  33  34
BRANCH  33  36
HETATM   36  C12 UNL     1       4.364   0.674   0.268  1.00  0.00     0.066 A 
HETATM   37  N5  UNL     1       4.787   0.923   1.501  1.00  0.00    -0.321 N 
HETATM   38  C13 UNL     1       6.060   0.878   1.850  1.00  0.00     0.273 A 
ATOM     39  H5  UNL     1       4.096   1.160   2.213  1.00  0.00     0.169 HD
HETATM   40  O4  UNL     1       6.430   1.122   3.046  1.00  0.00    -0.266 OA
HETATM   41  C14 UNL     1       7.037   0.566   0.944  1.00  0.00     0.116 A 
HETATM   42  N6  UNL     1       8.331   0.571   1.351  1.00  0.00    -0.347 N 
HETATM   43  C18 UNL     1       6.663   0.290  -0.380  1.00  0.00     0.053 A 
HETATM   44  C15 UNL     1       9.282   0.307   0.469  1.00  0.00     0.181 A 
ATOM     45  H6  UNL     1       8.568   0.775   2.322  1.00  0.00     0.167 HD
HETATM   46  N7  UNL     1       8.965   0.042  -0.784  1.00  0.00    -0.348 N 
HETATM   47  C16 UNL     1       7.655   0.017  -1.271  1.00  0.00     0.095 A 
ATOM     48  H7  UNL     1       9.722  -0.157  -1.438  1.00  0.00     0.167 HD
HETATM   49  C17 UNL     1       7.489  -0.265  -2.670  1.00  0.00     0.165 A 
HETATM   50  N8  UNL     1       6.654  -0.548  -3.592  1.00  0.00    -0.267 N 
HETATM   51  N11 UNL     1       8.662  -0.126  -3.444  1.00  0.00    -0.267 N 
HETATM   52  N9  UNL     1       7.131  -0.603  -4.804  1.00  0.00    -0.227 N 
ATOM     53  H8  UNL     1       5.669  -0.721  -3.392  1.00  0.00     0.190 HD
HETATM   54  N10 UNL     1       8.425  -0.330  -4.697  1.00  0.00    -0.227 N 
ATOM     55  H9  UNL     1       6.615  -0.813  -5.659  1.00  0.00     0.210 HD
ATOM     56  H10 UNL     1       9.103  -0.289  -5.458  1.00  0.00     0.210 HD
ATOM     57  H11 UNL     1       9.579   0.106  -3.062  1.00  0.00     0.190 HD
HETATM   58  C19 UNL     1       5.344   0.349  -0.691  1.00  0.00     0.086 A 
HETATM   59  N12 UNL     1       4.806   0.156  -1.949  1.00  0.00    -0.099 NA
ENDBRANCH  33  36
ENDBRANCH  32  33
ENDBRANCH   1  32
TORSDOF 15
