REMARK  5 active torsions:
REMARK  status: ('A' for Active; 'I' for Inactive)
REMARK    1  A    between atoms: C2_2  and  C3_3 
REMARK    2  A    between atoms: C9_9  and  O1_10 
REMARK    3  A    between atoms: O1_10  and  C10_11 
REMARK    4  A    between atoms: C15_17  and  C16_18 
REMARK    5  A    between atoms: C24_27  and  O4_28 
ROOT
HETATM    1  C3  UNL     1       3.869  -0.892   0.656  1.00  0.00     0.016 C 
HETATM    2  C4  UNL     1       2.848  -1.946   0.513  1.00  0.00     0.007 C 
HETATM    3  C5  UNL     1       1.616  -1.658  -0.249  1.00  0.00     0.010 C 
HETATM    4  C6  UNL     1       1.152  -0.289  -0.513  1.00  0.00    -0.031 C 
HETATM    5  C7  UNL     1       1.492   0.050  -1.985  1.00  0.00     0.016 C 
HETATM    6  C8  UNL     1       1.743   0.807   0.290  1.00  0.00     0.031 C 
HETATM    7  C9  UNL     1       0.913   2.104   0.194  1.00  0.00     0.137 C 
HETATM    8  C12 UNL     1      -0.535   1.798   0.633  1.00  0.00     0.038 C 
HETATM    9  C13 UNL     1      -1.058   0.975  -0.462  1.00  0.00     0.001 C 
HETATM   10  C14 UNL     1      -2.494   0.692  -0.550  1.00  0.00     0.006 C 
HETATM   11  C15 UNL     1      -3.373   0.716   0.596  1.00  0.00     0.001 C 
HETATM   12  C19 UNL     1      -4.786   0.447   0.025  1.00  0.00     0.083 C 
HETATM   13  C20 UNL     1      -4.831  -0.843  -0.666  1.00  0.00     0.128 C 
HETATM   14  O3  UNL     1      -5.859  -1.497  -0.635  1.00  0.00    -0.298 OA
HETATM   15  C21 UNL     1      -3.666  -1.382  -1.404  1.00  0.00     0.090 C 
HETATM   16  C22 UNL     1      -2.502  -0.483  -1.474  1.00  0.00    -0.007 C 
HETATM   17  C23 UNL     1      -2.392  -0.032  -2.950  1.00  0.00     0.018 C 
HETATM   18  C24 UNL     1      -1.144  -1.209  -1.247  1.00  0.00     0.135 C 
HETATM   19  C26 UNL     1      -0.360  -0.353  -0.393  1.00  0.00     0.028 C 
HETATM   20  C27 UNL     1       2.176   0.657   1.666  1.00  0.00     0.049 C 
HETATM   21  C28 UNL     1       1.607  -0.162   2.709  1.00  0.00     0.239 C 
HETATM   22  N1  UNL     1       2.950  -0.721   2.963  1.00  0.00    -0.070 N 
ATOM     23  H11 UNL     1       3.057  -1.733   3.026  1.00  0.00     0.277 HD
ATOM     24  H12 UNL     1       3.368  -0.594   3.885  1.00  0.00     0.277 HD
HETATM   25  C29 UNL     1       3.522  -0.039   1.850  1.00  0.00     0.196 C 
ENDROOT
BRANCH   7  26
HETATM   26  O1  UNL     1       0.968   2.670  -1.076  1.00  0.00    -0.316 OA
BRANCH  26  27
HETATM   27  C10 UNL     1       1.439   3.959  -1.287  1.00  0.00     0.255 C 
HETATM   28  C11 UNL     1       1.518   4.605  -2.604  1.00  0.00     0.126 C 
HETATM   29  O2  UNL     1       1.818   4.596  -0.256  1.00  0.00    -0.266 OA
ENDBRANCH  26  27
ENDBRANCH   7  26
BRANCH  18  30
HETATM   30  O4  UNL     1      -0.661  -1.687  -2.425  1.00  0.00    -0.389 OA
HETATM   31  C25 UNL     1      -0.792  -3.049  -2.614  1.00  0.00     0.202 C 
ENDBRANCH  18  30
BRANCH   1  32
HETATM   32  C2  UNL     1       5.210  -1.559   1.021  1.00  0.00     0.002 C 
HETATM   33  C1  UNL     1       6.281  -0.491   1.175  1.00  0.00     0.005 C 
ENDBRANCH   1  32
BRANCH  11  34
HETATM   34  C16 UNL     1      -3.240   0.037   1.855  1.00  0.00    -0.018 C 
HETATM   35  C17 UNL     1      -4.478   0.443   2.704  1.00  0.00     0.010 C 
HETATM   36  C18 UNL     1      -3.231  -1.442   1.982  1.00  0.00     0.010 C 
ENDBRANCH  11  34
TORSDOF 5
