REMARK  2 active torsions:
REMARK  status: ('A' for Active; 'I' for Inactive)
REMARK    1  A    between atoms: C2_2  and  C3_3 
REMARK    2  A    between atoms: C6_8  and  C7_9 
ROOT
HETATM    1  C3  UNL     1      -1.099   0.040   0.352  1.00  0.00     0.102 C 
HETATM    2  C4  UNL     1      -0.979   0.865  -0.850  1.00  0.00     0.014 C 
HETATM    3  C5  UNL     1       0.222   1.117  -1.334  1.00  0.00     0.083 C 
HETATM    4  N1  UNL     1       1.332   0.568  -0.653  1.00  0.00    -0.379 N 
ATOM      5  H1  UNL     1       2.233   1.046  -0.681  1.00  0.00     0.161 HD
HETATM    6  C6  UNL     1       1.196  -0.652   0.073  1.00  0.00     0.176 C 
HETATM    7  N2  UNL     1      -0.102  -0.934   0.556  1.00  0.00    -0.394 N 
ATOM      8  H2  UNL     1      -0.309  -1.811   1.035  1.00  0.00     0.155 HD
ENDROOT
BRANCH   1   9
HETATM    9  C2  UNL     1      -2.517  -0.535   0.381  1.00  0.00     0.024 C 
HETATM   10  C1  UNL     1      -3.497   0.634   0.417  1.00  0.00     0.007 C 
ENDBRANCH   1   9
BRANCH   6  11
HETATM   11  C7  UNL     1       2.127  -0.559   1.290  1.00  0.00     0.042 C 
HETATM   12  C8  UNL     1       3.557  -0.374   0.887  1.00  0.00     0.009 C 
ENDBRANCH   6  11
TORSDOF 2
