REMARK  2 active torsions:
REMARK  status: ('A' for Active; 'I' for Inactive)
REMARK    1  A    between atoms: N1_1  and  C1_5 
REMARK    2  A    between atoms: C4_8  and  C5_9 
ROOT
HETATM    1  C1  UNL     1      -2.110  -0.364   0.150  1.00  0.00     0.184 C 
HETATM    2  C2  UNL     1      -1.686   0.847  -0.691  1.00  0.00     0.033 C 
HETATM    3  C3  UNL     1      -0.438   0.263  -1.368  1.00  0.00     0.009 C 
HETATM    4  C4  UNL     1       0.147  -0.691  -0.376  1.00  0.00     0.018 C 
HETATM    5  C8  UNL     1      -0.777  -0.678   0.835  1.00  0.00     0.039 C 
ENDROOT
BRANCH   4   6
HETATM    6  C5  UNL     1       1.570  -0.394  -0.019  1.00  0.00     0.191 C 
HETATM    7  C6  UNL     1       1.845   0.944   0.593  1.00  0.00     0.061 C 
HETATM    8  C7  UNL     1       2.811   0.161   1.465  1.00  0.00     0.235 C 
HETATM    9  N2  UNL     1       1.971  -0.999   1.253  1.00  0.00    -0.070 N 
ATOM     10  H22 UNL     1       1.277  -1.281   1.945  1.00  0.00     0.277 HD
ATOM     11  H21 UNL     1       2.356  -1.943   1.290  1.00  0.00     0.277 HD
ENDBRANCH   4   6
BRANCH   1  12
HETATM   12  N1  UNL     1      -3.133  -0.052   1.087  1.00  0.00    -0.075 N 
ATOM     13  H13 UNL     1      -2.857   0.728   1.683  1.00  0.00     0.274 HD
ATOM     14  H12 UNL     1      -3.937   0.370   0.623  1.00  0.00     0.274 HD
ATOM     15  H11 UNL     1      -3.415  -0.857   1.646  1.00  0.00     0.274 HD
ENDBRANCH   1  12
TORSDOF 2
