REMARK  1 active torsions:
REMARK  status: ('A' for Active; 'I' for Inactive)
REMARK    1  A    between atoms: C3_4  and  N1_5 
ROOT
HETATM    1  C1  UNL     1      -1.984  -1.039   0.224  1.00  0.00     0.078 C 
HETATM    2  C2  UNL     1      -0.511  -0.711   0.152  1.00  0.00     0.068 A 
HETATM    3  S1  UNL     1       0.829  -1.747   0.377  1.00  0.00    -0.039 SA
HETATM    4  C3  UNL     1       2.057  -0.587   0.123  1.00  0.00     0.158 A 
HETATM    5  N2  UNL     1       1.350   0.523  -0.118  1.00  0.00    -0.278 N 
ATOM      6  H2  UNL     1       1.821   1.407  -0.310  1.00  0.00     0.189 HD
HETATM    7  N3  UNL     1       0.075   0.457  -0.103  1.00  0.00    -0.292 N 
HETATM    8  C4  UNL     1      -0.781   1.644  -0.361  1.00  0.00     0.178 C 
ENDROOT
BRANCH   4   9
HETATM    9  N1  UNL     1       3.367  -0.719   0.151  1.00  0.00    -0.379 N 
ATOM     10  H12 UNL     1       3.906  -1.565   0.335  1.00  0.00     0.158 HD
ATOM     11  H11 UNL     1       4.100  -0.026  -0.001  1.00  0.00     0.158 HD
ENDBRANCH   4   9
TORSDOF 1
