REMARK  9 active torsions:
REMARK  status: ('A' for Active; 'I' for Inactive)
REMARK    1  A    between atoms: N1_1  and  C1_4 
REMARK    2  A    between atoms: C2_7  and  S1_8 
REMARK    3  A    between atoms: S1_8  and  C3_9 
REMARK    4  A    between atoms: C3_9  and  C4_10 
REMARK       I    between atoms: C4_10  and  N3_12 
REMARK    5  A    between atoms: N3_12  and  C5_14 
REMARK    6  A    between atoms: C5_14  and  C6_15 
REMARK    7  A    between atoms: C7_19  and  N5_20 
REMARK       I    between atoms: C8_22  and  N7_24 
REMARK    8  A    between atoms: N7_24  and  N8_26 
REMARK    9  A    between atoms: C10_36  and  N11_37 
ROOT
HETATM    1  C4  UNL     1       2.119  -0.868  -1.122  1.00  0.00     0.227 C 
HETATM    2  O1  UNL     1       2.621   0.267  -1.343  1.00  0.00    -0.273 OA
HETATM    3  N3  UNL     1       0.743  -0.993  -0.801  1.00  0.00    -0.356 N 
ATOM      4  H3  UNL     1       0.357  -1.922  -0.631  1.00  0.00     0.162 HD
ENDROOT
BRANCH   3   5
HETATM    5  C5  UNL     1      -0.135   0.163  -0.707  1.00  0.00     0.184 C 
BRANCH   5   6
HETATM    6  C6  UNL     1      -1.499  -0.348  -0.349  1.00  0.00     0.354 C 
HETATM    7  N4  UNL     1      -2.532   0.669  -0.351  1.00  0.00    -0.008 N 
HETATM    8  C7  UNL     1      -3.739   0.054   0.166  1.00  0.00     0.398 C 
ATOM      9  H42 UNL     1      -2.264   1.512   0.157  1.00  0.00     0.285 HD
ATOM     10  H41 UNL     1      -2.664   1.103  -1.265  1.00  0.00     0.285 HD
HETATM   11  N9  UNL     1      -3.542  -0.137   1.584  1.00  0.00    -0.292 N 
HETATM   12  C9  UNL     1      -2.267  -0.636   1.960  1.00  0.00     0.365 C 
ATOM     13  H9  UNL     1      -4.269   0.072   2.268  1.00  0.00     0.168 HD
HETATM   14  O4  UNL     1      -1.930  -0.743   3.158  1.00  0.00    -0.238 OA
HETATM   15  O5  UNL     1      -1.412  -1.002   0.908  1.00  0.00    -0.268 OA
BRANCH   8  16
HETATM   16  N5  UNL     1      -4.954   0.671  -0.216  1.00  0.00    -0.319 N 
HETATM   17  C8  UNL     1      -6.128   0.237   0.093  1.00  0.00     0.210 C 
HETATM   18  N6  UNL     1      -6.313  -0.930   0.866  1.00  0.00    -0.062 NA
HETATM   19  N7  UNL     1      -7.243   0.992  -0.384  1.00  0.00    -0.213 N 
ATOM     20  H7  UNL     1      -8.055   0.527  -0.791  1.00  0.00     0.196 HD
ATOM     21  H5  UNL     1      -4.897   1.521  -0.777  1.00  0.00     0.166 HD
BRANCH  19  22
HETATM   22  N8  UNL     1      -7.192   2.379  -0.279  1.00  0.00    -0.036 N 
HETATM   23  O2  UNL     1      -6.399   2.911   0.521  1.00  0.00    -0.516 OA
HETATM   24  O3  UNL     1      -8.033   3.137  -1.074  1.00  0.00    -0.516 OA
ENDBRANCH  19  22
ENDBRANCH   8  16
ENDBRANCH   5   6
ENDBRANCH   3   5
BRANCH   1  25
HETATM   25  C3  UNL     1       2.978  -2.046  -1.205  1.00  0.00     0.185 C 
BRANCH  25  26
HETATM   26  S1  UNL     1       4.051  -2.267   0.256  1.00  0.00    -0.084 SA
BRANCH  26  27
HETATM   27  C2  UNL     1       5.251  -0.946   0.326  1.00  0.00     0.174 A 
HETATM   28  N2  UNL     1       6.429  -0.998  -0.320  1.00  0.00    -0.170 N 
HETATM   29  C1  UNL     1       7.324   0.026  -0.268  1.00  0.00     0.692 A 
ATOM     30  H2  UNL     1       6.659  -1.829  -0.865  1.00  0.00     0.186 HD
HETATM   31  N12 UNL     1       7.042   1.133   0.446  1.00  0.00    -0.023 N 
HETATM   32  C10 UNL     1       5.856   1.196   1.102  1.00  0.00     0.692 A 
ATOM     33  H12 UNL     1       7.705   1.907   0.492  1.00  0.00     0.203 HD
HETATM   34  N10 UNL     1       4.992   0.164   1.029  1.00  0.00    -0.170 N 
ATOM     35  H10 UNL     1       4.106   0.231   1.529  1.00  0.00     0.186 HD
BRANCH  29  36
HETATM   36  N1  UNL     1       8.439  -0.074  -0.911  1.00  0.00    -0.234 N 
ATOM     37  H12 UNL     1       8.653  -0.912  -1.452  1.00  0.00     0.174 HD
ATOM     38  H11 UNL     1       9.110   0.693  -0.872  1.00  0.00     0.174 HD
ENDBRANCH  29  36
BRANCH  32  39
HETATM   39  N11 UNL     1       5.531   2.231   1.802  1.00  0.00    -0.234 N 
ATOM     40 2H11 UNL     1       4.639   2.278   2.295  1.00  0.00     0.174 HD
ATOM     41 1H11 UNL     1       6.185   3.012   1.857  1.00  0.00     0.174 HD
ENDBRANCH  32  39
ENDBRANCH  26  27
ENDBRANCH  25  26
ENDBRANCH   1  25
TORSDOF 9
