REMARK  2 active torsions:
REMARK  status: ('A' for Active; 'I' for Inactive)
REMARK    1  A    between atoms: O1_2  and  C2_3 
REMARK    2  A    between atoms: C2_3  and  C3_5 
ROOT
HETATM    1  C3  UNL     1       1.759  -1.078  -0.265  1.00  0.00     0.119 C 
HETATM    2  C4  UNL     1       1.057  -0.164  -1.255  1.00  0.00     0.018 C 
HETATM    3  C5  UNL     1       0.116   0.741  -0.490  1.00  0.00     0.010 C 
HETATM    4  C6  UNL     1      -1.112  -0.036   0.005  1.00  0.00    -0.035 C 
HETATM    5  C7  UNL     1      -1.571   0.577   1.264  1.00  0.00     0.037 C 
HETATM    6  C8  UNL     1      -3.025   0.901   1.357  1.00  0.00     0.233 C 
HETATM    7  N1  UNL     1      -3.661   1.188   0.116  1.00  0.00    -0.075 N 
ATOM      8  H11 UNL     1      -3.311   2.038  -0.326  1.00  0.00     0.277 HD
ATOM      9  H12 UNL     1      -4.631   1.486   0.223  1.00  0.00     0.277 HD
HETATM   10  C9  UNL     1      -3.516   0.003  -0.726  1.00  0.00     0.233 C 
HETATM   11  C10 UNL     1      -2.081  -0.065  -1.121  1.00  0.00     0.037 C 
HETATM   12  C11 UNL     1      -0.629  -1.461   0.309  1.00  0.00     0.047 C 
HETATM   13  C12 UNL     1       0.786  -1.349   0.852  1.00  0.00     0.184 C 
HETATM   14  F1  UNL     1       1.096  -2.506   1.526  1.00  0.00    -0.248 F 
ENDROOT
BRANCH   1  15
HETATM   15  C2  UNL     1       2.962  -0.379   0.250  1.00  0.00     0.265 C 
HETATM   16  O2  UNL     1       3.055  -0.160   1.484  1.00  0.00    -0.265 OA
BRANCH  15  17
HETATM   17  O1  UNL     1       3.973   0.031  -0.599  1.00  0.00    -0.326 OA
HETATM   18  C1  UNL     1       5.107   0.695  -0.074  1.00  0.00     0.213 C 
ENDBRANCH  15  17
ENDBRANCH   1  15
TORSDOF 2
