REMARK  1 active torsions:
REMARK  status: ('A' for Active; 'I' for Inactive)
REMARK       I    between atoms: N2_6  and  C4_8 
REMARK    1  A    between atoms: C4_8  and  C5_10 
ROOT
HETATM    1  C1  UNL     1      -0.151  -2.859   0.444  1.00  0.00     0.044 C 
HETATM    2  C2  UNL     1      -0.661  -1.767   1.313  1.00  0.00     0.141 C 
HETATM    3  N1  UNL     1       0.189  -0.602   1.324  1.00  0.00    -0.366 N 
ATOM      4  H1  UNL     1       1.159  -0.647   1.636  1.00  0.00     0.162 HD
HETATM    5  C3  UNL     1      -0.385   0.583   0.887  1.00  0.00     0.094 C 
HETATM    6  N2  UNL     1       0.107   1.558   0.288  1.00  0.00    -0.313 N 
ATOM      7  H2  UNL     1      -0.563   2.301   0.091  1.00  0.00     0.170 HD
HETATM    8  C4  UNL     1       1.376   1.825  -0.158  1.00  0.00     0.261 C 
HETATM    9  O1  UNL     1       1.893   2.958   0.175  1.00  0.00    -0.270 OA
HETATM   10  C7  UNL     1      -1.864   0.624   1.233  1.00  0.00     0.112 C 
HETATM   11  C8  UNL     1      -2.621   1.610   0.419  1.00  0.00     0.029 C 
HETATM   12  S1  UNL     1      -2.260  -1.098   0.794  1.00  0.00    -0.132 SA
ENDROOT
BRANCH   8  13
HETATM   13  C5  UNL     1       2.269   0.987  -0.988  1.00  0.00     0.190 C 
HETATM   14  C6  UNL     1       1.515   0.080  -1.906  1.00  0.00     0.061 C 
HETATM   15 CL1  UNL     1       3.076   2.189  -2.115  1.00  0.00    -0.091 Cl
HETATM   16 CL2  UNL     1       3.523   0.135  -0.128  1.00  0.00    -0.091 Cl
ENDBRANCH   8  13
TORSDOF 1
