REMARK  0 active torsions:
REMARK  status: ('A' for Active; 'I' for Inactive)
ROOT
HETATM    1  C1  UNL     1      -0.083   0.866   0.794  1.00  0.00     0.009 C 
HETATM    2  C2  UNL     1       0.128   0.624  -0.673  1.00  0.00    -0.013 C 
HETATM    3  C3  UNL     1       1.040  -0.491  -0.254  1.00  0.00     0.009 C 
HETATM    4  C4  UNL     1      -0.154  -0.622   0.670  1.00  0.00    -0.013 C 
HETATM    5  C5  UNL     1      -0.984  -0.392  -0.559  1.00  0.00     0.009 C 
ENDROOT
TORSDOF 0
