REMARK  2 active torsions:
REMARK  status: ('A' for Active; 'I' for Inactive)
REMARK    1  A    between atoms: C2_2  and  C3_3 
REMARK    2  A    between atoms: C4_4  and  C5_5 
ROOT
HETATM    1  C3  UNL     1      -0.260  -0.303   0.036  1.00  0.00    -0.073 C 
HETATM    2  C4  UNL     1       0.935  -0.257   0.228  1.00  0.00    -0.057 C 
ENDROOT
BRANCH   2   3
HETATM    3  C5  UNL     1       2.351  -0.196   0.468  1.00  0.00     0.146 C 
HETATM    4  N1  UNL     1       3.142  -0.181  -0.548  1.00  0.00    -0.401 N 
ATOM      5  H12 UNL     1       2.758  -0.212  -1.492  1.00  0.00     0.156 HD
ATOM      6  H11 UNL     1       4.147  -0.138  -0.378  1.00  0.00     0.156 HD
ENDBRANCH   2   3
BRANCH   1   7
HETATM    7  C2  UNL     1      -1.676  -0.360  -0.187  1.00  0.00     0.054 C 
HETATM    8  C1  UNL     1      -2.427   0.680   0.109  1.00  0.00     0.020 C 
ENDBRANCH   1   7
TORSDOF 2
