REMARK  3 active torsions:
REMARK  status: ('A' for Active; 'I' for Inactive)
REMARK    1  A    between atoms: C2_2  and  N1_5 
REMARK       I    between atoms: C5_7  and  N3_9 
REMARK    2  A    between atoms: N3_9  and  N4_11 
REMARK    3  A    between atoms: N4_11  and  C6_13 
ROOT
HETATM    1  N4  UNL     1       1.466   0.846  -0.620  1.00  0.00    -0.127 N 
ATOM      2  H4  UNL     1       1.011   1.739  -0.807  1.00  0.00     0.206 HD
ENDROOT
BRANCH   1   3
HETATM    3  N3  UNL     1       0.717  -0.299  -0.243  1.00  0.00    -0.259 N 
HETATM    4  C5  UNL     1       0.154  -0.442   1.042  1.00  0.00     0.204 C 
HETATM    5  N1  UNL     1      -1.090  -0.469   1.226  1.00  0.00    -0.355 N 
HETATM    6  N2  UNL     1       1.028  -0.558   2.144  1.00  0.00    -0.062 NA
ATOM      7  H1  UNL     1      -1.388  -0.577   2.195  1.00  0.00     0.163 HD
ATOM      8  H3  UNL     1       0.581  -1.045  -0.926  1.00  0.00     0.190 HD
BRANCH   5   9
HETATM    9  C2  UNL     1      -2.135  -0.370   0.274  1.00  0.00     0.021 C 
HETATM   10  C1  UNL     1      -2.276  -1.610  -0.576  1.00  0.00     0.037 C 
HETATM   11  C3  UNL     1      -2.013   0.807  -0.664  1.00  0.00     0.037 C 
HETATM   12  C4  UNL     1      -3.445  -0.169   1.044  1.00  0.00     0.037 C 
ENDBRANCH   5   9
ENDBRANCH   1   3
BRANCH   1  13
HETATM   13  C6  UNL     1       2.735   0.713  -0.716  1.00  0.00     0.728 A 
HETATM   14  N5  UNL     1       3.503  -0.392  -0.506  1.00  0.00    -0.114 N 
HETATM   15  N6  UNL     1       4.765  -0.127  -0.706  1.00  0.00    -0.213 N 
ATOM     16  H5  UNL     1       3.140  -1.304  -0.229  1.00  0.00     0.207 HD
HETATM   17  N7  UNL     1       4.850   1.135  -1.045  1.00  0.00    -0.213 N 
ATOM     18  H6  UNL     1       5.542  -0.782  -0.615  1.00  0.00     0.210 HD
HETATM   19  N8  UNL     1       3.628   1.669  -1.058  1.00  0.00    -0.114 N 
ATOM     20  H7  UNL     1       5.714   1.631  -1.264  1.00  0.00     0.210 HD
ATOM     21  H8  UNL     1       3.404   2.637  -1.288  1.00  0.00     0.207 HD
ENDBRANCH   1  13
TORSDOF 3
