REMARK  5 active torsions:
REMARK  status: ('A' for Active; 'I' for Inactive)
REMARK    1  A    between atoms: C2_2  and  O2_4 
REMARK    2  A    between atoms: O2_4  and  C3_5 
REMARK    3  A    between atoms: C7_9  and  O3_10 
REMARK    4  A    between atoms: C10_14  and  C11_15 
REMARK    5  A    between atoms: C15_19  and  C16_21 
ROOT
HETATM    1  C3  UNL     1       1.060   0.501  -0.495  1.00  0.00     0.143 C 
HETATM    2  C4  UNL     1       2.096  -0.490   0.116  1.00  0.00     0.038 C 
HETATM    3  C5  UNL     1       1.320  -1.156   1.222  1.00  0.00     0.027 C 
HETATM    4  C6  UNL     1       0.506  -1.655   0.078  1.00  0.00     0.034 C 
HETATM    5  C7  UNL     1      -0.416  -2.706   0.202  1.00  0.00     0.050 C 
HETATM    6  C8  UNL     1      -1.630  -2.415   0.646  1.00  0.00     0.006 C 
HETATM    7  C9  UNL     1      -1.898  -0.996   0.970  1.00  0.00     0.035 C 
HETATM    8  C10 UNL     1      -1.457  -0.080  -0.194  1.00  0.00     0.000 C 
HETATM    9  C14 UNL     1      -0.098  -0.351  -0.544  1.00  0.00     0.037 C 
HETATM   10  C15 UNL     1       1.790  -1.738  -0.695  1.00  0.00     0.051 C 
HETATM   11 BR1  UNL     1       1.671  -1.398  -2.600  1.00  0.00    -0.083 Br
ENDROOT
BRANCH   1  12
HETATM   12  O2  UNL     1       1.186   1.603   0.318  1.00  0.00    -0.315 OA
BRANCH  12  13
HETATM   13  C2  UNL     1       1.871   2.770   0.000  1.00  0.00     0.255 C 
HETATM   14  C1  UNL     1       1.979   3.930   0.906  1.00  0.00     0.126 C 
HETATM   15  O1  UNL     1       2.409   2.782  -1.134  1.00  0.00    -0.266 OA
ENDBRANCH  12  13
ENDBRANCH   1  12
BRANCH  10  16
HETATM   16  C16 UNL     1       2.805  -2.772  -0.344  1.00  0.00     0.137 C 
HETATM   17 CL1  UNL     1       2.532  -4.264  -1.312  1.00  0.00    -0.129 Cl
ENDBRANCH  10  16
BRANCH   8  18
HETATM   18  C11 UNL     1      -2.028   1.241   0.096  1.00  0.00    -0.018 C 
HETATM   19  C12 UNL     1      -1.743   2.294  -0.954  1.00  0.00     0.010 C 
HETATM   20  C13 UNL     1      -3.568   1.209   0.186  1.00  0.00     0.010 C 
ENDBRANCH   8  18
BRANCH   5  21
HETATM   21  O3  UNL     1      -0.191  -4.031  -0.093  1.00  0.00    -0.364 OA
ATOM     22  H3  UNL     1      -0.815  -4.742  -0.009  1.00  0.00     0.217 HD
ENDBRANCH   5  21
TORSDOF 5
