REMARK  16 active torsions:
REMARK  status: ('A' for Active; 'I' for Inactive)
REMARK    1  A    between atoms: O1_2  and  C2_3 
REMARK    2  A    between atoms: C2_3  and  C3_4 
REMARK    3  A    between atoms: C3_4  and  O2_5 
REMARK    4  A    between atoms: O2_5  and  C4_6 
REMARK    5  A    between atoms: C8_10  and  C9_11 
REMARK    6  A    between atoms: C9_11  and  N1_12 
REMARK       I    between atoms: N1_12  and  C10_13 
REMARK    7  A    between atoms: C10_13  and  C11_15 
REMARK    8  A    between atoms: C11_15  and  N2_17 
REMARK    9  A    between atoms: N2_17  and  C13_18 
REMARK   10  A    between atoms: C17_24  and  N4_25 
REMARK   11  A    between atoms: N4_25  and  C18_26 
REMARK   12  A    between atoms: C21_29  and  C22_30 
REMARK   13  A    between atoms: C22_30  and  C23_31 
REMARK   14  A    between atoms: C23_31  and  O4_32 
REMARK   15  A    between atoms: N5_34  and  C24_36 
REMARK   16  A    between atoms: C24_36  and  C25_37 
ROOT
HETATM    1  C25 UNL     1      12.856   0.233   1.590  1.00  0.00     0.143 C 
HETATM    2  C26 UNL     1      13.779  -0.420   2.479  1.00  0.00     0.060 C 
HETATM    3  N6  UNL     1      14.530  -0.906   3.215  1.00  0.00    -0.197 NA
ENDROOT
BRANCH   1   4
HETATM    4  C24 UNL     1      11.381  -0.052   2.035  1.00  0.00     0.135 C 
BRANCH   4   5
HETATM    5  N5  UNL     1      10.624   0.829   1.069  1.00  0.00    -0.373 N 
HETATM    6  C23 UNL     1      10.650   0.581  -0.213  1.00  0.00     0.115 C 
ATOM      7  H5  UNL     1      10.089   1.623   1.420  1.00  0.00     0.161 HD
BRANCH   6   8
HETATM    8  C22 UNL     1      10.056   1.464  -1.318  1.00  0.00     0.122 C 
BRANCH   8   9
HETATM    9  C21 UNL     1       8.599   1.262  -1.331  1.00  0.00    -0.051 A 
HETATM   10  C20 UNL     1       7.788   2.295  -1.692  1.00  0.00     0.011 A 
HETATM   11  C19 UNL     1       6.332   2.176  -1.714  1.00  0.00     0.045 A 
HETATM   12  C18 UNL     1       5.932   0.943  -1.310  1.00  0.00     0.111 A 
HETATM   13  C28 UNL     1       6.745  -0.113  -0.937  1.00  0.00     0.045 A 
HETATM   14  C27 UNL     1       8.101   0.017  -0.940  1.00  0.00     0.011 A 
BRANCH  12  15
HETATM   15  N4  UNL     1       4.602   0.589  -1.289  1.00  0.00    -0.371 NA
BRANCH  15  16
HETATM   16  C17 UNL     1       3.479   0.360  -1.279  1.00  0.00     0.262 A 
HETATM   17  N3  UNL     1       3.379  -1.154  -1.097  1.00  0.00    -0.314 N 
HETATM   18  C16 UNL     1       2.074  -1.417  -1.017  1.00  0.00     0.059 A 
ATOM     19  H3  UNL     1       4.148  -1.822  -1.047  1.00  0.00     0.170 HD
HETATM   20  C15 UNL     1       1.455  -2.657  -0.721  1.00  0.00     0.034 A 
HETATM   21  C30 UNL     1       1.419  -0.341  -1.142  1.00  0.00     0.048 A 
HETATM   22  C14 UNL     1       0.108  -2.705  -0.570  1.00  0.00     0.043 A 
HETATM   23  C13 UNL     1      -0.654  -1.594  -0.697  1.00  0.00     0.090 A 
HETATM   24  C31 UNL     1      -0.000  -0.325  -0.997  1.00  0.00     0.132 A 
HETATM   25  N7  UNL     1       2.214   0.779  -1.301  1.00  0.00    -0.313 N 
HETATM   26  C29 UNL     1       1.738   2.102  -1.419  1.00  0.00     0.160 C 
BRANCH  23  27
HETATM   27  N2  UNL     1      -1.978  -1.498  -0.638  1.00  0.00    -0.408 NA
BRANCH  27  28
HETATM   28  C11 UNL     1      -3.171  -1.278  -0.534  1.00  0.00     0.162 C 
HETATM   29  C12 UNL     1      -4.337  -1.968  -1.008  1.00  0.00     0.092 C 
BRANCH  28  30
HETATM   30  C10 UNL     1      -3.383   0.166   0.030  1.00  0.00     0.347 C 
HETATM   31  N1  UNL     1      -4.511   0.777  -0.175  1.00  0.00    -0.405 NA
HETATM   32  O3  UNL     1      -2.396   0.645   0.705  1.00  0.00    -0.249 OA
BRANCH  31  33
HETATM   33  C9  UNL     1      -5.781   1.464  -0.406  1.00  0.00     0.261 C 
BRANCH  33  34
HETATM   34  C8  UNL     1      -6.937   0.656  -0.006  1.00  0.00    -0.025 A 
HETATM   35  C7  UNL     1      -7.604   0.000  -1.041  1.00  0.00     0.010 A 
HETATM   36  C6  UNL     1      -8.755  -0.704  -0.827  1.00  0.00     0.003 A 
HETATM   37  C5  UNL     1      -9.228  -0.706   0.527  1.00  0.00     0.037 A 
HETATM   38  C4  UNL     1      -8.622  -0.080   1.474  1.00  0.00     0.069 A 
HETATM   39  C32 UNL     1      -7.424   0.640   1.298  1.00  0.00     0.046 A 
BRANCH  38  40
HETATM   40  O2  UNL     1      -9.129  -0.034   2.802  1.00  0.00    -0.349 OA
BRANCH  40  41
HETATM   41  C3  UNL     1     -10.487  -0.415   3.106  1.00  0.00     0.201 C 
BRANCH  41  42
HETATM   42  C2  UNL     1     -11.434   0.651   2.580  1.00  0.00     0.193 C 
BRANCH  42  43
HETATM   43  O1  UNL     1     -11.707   1.015   1.332  1.00  0.00    -0.394 OA
HETATM   44  C1  UNL     1     -12.704   0.215   0.737  1.00  0.00     0.201 C 
ENDBRANCH  42  43
ENDBRANCH  41  42
ENDBRANCH  40  41
ENDBRANCH  38  40
ENDBRANCH  33  34
ENDBRANCH  31  33
ENDBRANCH  28  30
ENDBRANCH  27  28
ENDBRANCH  23  27
ENDBRANCH  15  16
ENDBRANCH  12  15
ENDBRANCH   8   9
ENDBRANCH   6   8
BRANCH   6  45
HETATM   45  O4  UNL     1      11.205  -0.464  -0.772  1.00  0.00    -0.349 OA
ATOM     46  H4  UNL     1      11.573  -1.011  -0.088  1.00  0.00     0.219 HD
ENDBRANCH   6  45
ENDBRANCH   4   5
ENDBRANCH   1   4
TORSDOF 16
