REMARK  14 active torsions:
REMARK  status: ('A' for Active; 'I' for Inactive)
REMARK    1  A    between atoms: O1_2  and  C2_3 
REMARK    2  A    between atoms: C5_6  and  C6_7 
REMARK    3  A    between atoms: C6_7  and  C7_9 
REMARK    4  A    between atoms: C8_10  and  C9_11 
REMARK    5  A    between atoms: C11_13  and  C12_14 
REMARK    6  A    between atoms: C13_17  and  C14_18 
REMARK    7  A    between atoms: C18_22  and  N1_23 
REMARK    8  A    between atoms: N1_23  and  C19_24 
REMARK    9  A    between atoms: N1_23  and  C21_27 
REMARK   10  A    between atoms: C19_24  and  C20_25 
REMARK   11  A    between atoms: C21_27  and  C22_28 
REMARK   12  A    between atoms: C25_32  and  N2_33 
REMARK       I    between atoms: N2_33  and  C26_35 
REMARK   13  A    between atoms: C26_35  and  O6_37 
REMARK   14  A    between atoms: O6_37  and  C27_38 
ROOT
HETATM    1  C7  UNL     1       0.278  -0.444  -0.079  1.00  0.00     0.056 C 
HETATM    2  C8  UNL     1      -0.704   0.423   0.072  1.00  0.00     0.015 C 
ENDROOT
BRANCH   2   3
HETATM    3  C9  UNL     1      -2.094   0.021   0.015  1.00  0.00    -0.033 A 
HETATM    4  C10 UNL     1      -2.464  -1.261  -0.206  1.00  0.00     0.030 A 
HETATM    5  C11 UNL     1      -3.811  -1.713  -0.266  1.00  0.00     0.050 A 
HETATM    6  C13 UNL     1      -4.828  -0.739  -0.080  1.00  0.00    -0.007 A 
HETATM    7  C18 UNL     1      -4.487   0.563   0.142  1.00  0.00     0.039 A 
HETATM    8  C23 UNL     1      -3.095   0.919   0.186  1.00  0.00     0.041 A 
BRANCH   5   9
HETATM    9  C12 UNL     1      -3.981  -3.091  -0.510  1.00  0.00     0.210 C 
HETATM   10  O3  UNL     1      -3.018  -3.843   0.051  1.00  0.00    -0.644 OA
HETATM   11  O4  UNL     1      -4.839  -3.903  -1.159  1.00  0.00    -0.644 OA
ENDBRANCH   5   9
BRANCH   6  12
HETATM   12  C14 UNL     1      -6.193  -1.199  -0.150  1.00  0.00    -0.021 C 
HETATM   13  C15 UNL     1      -7.283  -0.206   0.159  1.00  0.00     0.019 C 
HETATM   14  C16 UNL     1      -6.526  -2.394   0.733  1.00  0.00     0.019 C 
HETATM   15  C17 UNL     1      -6.572  -1.607  -1.603  1.00  0.00     0.019 C 
ENDBRANCH   6  12
BRANCH   7  16
HETATM   16  N1  UNL     1      -5.204   1.755   0.287  1.00  0.00    -0.378 N 
BRANCH  16  17
HETATM   17  C19 UNL     1      -5.872   2.413  -0.797  1.00  0.00     0.138 C 
BRANCH  17  18
HETATM   18  C20 UNL     1      -5.030   3.620  -1.281  1.00  0.00     0.134 C 
HETATM   19 CL1  UNL     1      -5.959   4.345  -2.612  1.00  0.00    -0.129 Cl
ENDBRANCH  17  18
ENDBRANCH  16  17
BRANCH  16  20
HETATM   20  C21 UNL     1      -5.087   2.500   1.520  1.00  0.00     0.138 C 
BRANCH  20  21
HETATM   21  C22 UNL     1      -6.311   2.849   2.256  1.00  0.00     0.134 C 
HETATM   22 CL2  UNL     1      -5.842   3.799   3.703  1.00  0.00    -0.129 Cl
ENDBRANCH  20  21
ENDBRANCH  16  20
ENDBRANCH   7  16
ENDBRANCH   2   3
BRANCH   1  23
HETATM   23  C6  UNL     1       1.674  -0.020  -0.018  1.00  0.00     0.182 C 
HETATM   24  O2  UNL     1       1.902   1.196   0.181  1.00  0.00    -0.288 OA
BRANCH  23  25
HETATM   25  C5  UNL     1       2.754  -0.975  -0.183  1.00  0.00     0.016 A 
HETATM   26  C4  UNL     1       2.562  -2.307  -0.394  1.00  0.00     0.018 A 
HETATM   27  C3  UNL     1       3.628  -3.148  -0.543  1.00  0.00     0.040 A 
HETATM   28  C2  UNL     1       4.907  -2.690  -0.486  1.00  0.00     0.095 A 
HETATM   29  C25 UNL     1       5.154  -1.320  -0.269  1.00  0.00     0.071 A 
HETATM   30  C24 UNL     1       4.081  -0.508  -0.125  1.00  0.00     0.048 A 
BRANCH  28  31
HETATM   31  O1  UNL     1       5.999  -3.516  -0.632  1.00  0.00    -0.354 OA
HETATM   32  C1  UNL     1       5.833  -4.905  -0.853  1.00  0.00     0.210 C 
ENDBRANCH  28  31
BRANCH  29  33
HETATM   33  N2  UNL     1       6.478  -0.882  -0.221  1.00  0.00    -0.300 N 
HETATM   34  C26 UNL     1       6.944   0.418  -0.002  1.00  0.00     0.366 C 
HETATM   35  O5  UNL     1       6.193   1.381   0.187  1.00  0.00    -0.238 OA
ATOM     36  H2  UNL     1       7.192  -1.596  -0.363  1.00  0.00     0.171 HD
BRANCH  34  37
HETATM   37  O6  UNL     1       8.350   0.654   0.006  1.00  0.00    -0.294 OA
BRANCH  37  38
HETATM   38  C27 UNL     1       8.782   1.993   0.235  1.00  0.00     0.061 C 
HETATM   39  C28 UNL     1      10.283   2.080   0.201  1.00  0.00     0.046 C 
HETATM   40  C29 UNL     1       8.290   2.468   1.599  1.00  0.00     0.046 C 
HETATM   41  C30 UNL     1       8.215   2.850  -0.874  1.00  0.00     0.046 C 
ENDBRANCH  37  38
ENDBRANCH  34  37
ENDBRANCH  29  33
ENDBRANCH  23  25
ENDBRANCH   1  23
TORSDOF 14
