REMARK  15 active torsions:
REMARK  status: ('A' for Active; 'I' for Inactive)
REMARK    1  A    between atoms: C2_2  and  C3_3 
REMARK    2  A    between atoms: C3_3  and  C4_4 
REMARK    3  A    between atoms: C4_4  and  N1_5 
REMARK    4  A    between atoms: C4_4  and  C33_45 
REMARK       I    between atoms: N1_5  and  C5_7 
REMARK    5  A    between atoms: C5_7  and  C6_9 
REMARK    6  A    between atoms: C6_9  and  C7_10 
REMARK    7  A    between atoms: C7_10  and  C8_11 
REMARK    8  A    between atoms: C7_10  and  C10_13 
REMARK       I    between atoms: C10_13  and  N2_15 
REMARK    9  A    between atoms: N2_15  and  C11_17 
REMARK   10  A    between atoms: C11_17  and  C12_18 
REMARK   11  A    between atoms: C11_17  and  C18_27 
REMARK   12  A    between atoms: C12_18  and  S1_19 
REMARK   13  A    between atoms: S1_19  and  C13_22 
REMARK       I    between atoms: C18_27  and  N3_29 
REMARK   14  A    between atoms: N3_29  and  C19_31 
REMARK   15  A    between atoms: C28_40  and  C30_42 
ROOT
HETATM    1  C11 UNL     1      -0.097   1.188  -1.918  1.00  0.00     0.190 C 
ENDROOT
BRANCH   1   2
HETATM    2  N2  UNL     1       1.362   1.192  -2.068  1.00  0.00    -0.347 N 
HETATM    3  C10 UNL     1       2.009   0.976  -3.277  1.00  0.00     0.223 C 
HETATM    4  O2  UNL     1       1.201   0.776  -4.274  1.00  0.00    -0.273 OA
ATOM      5  H2  UNL     1       1.932   1.363  -1.239  1.00  0.00     0.163 HD
BRANCH   3   6
HETATM    6  C7  UNL     1       3.420   0.933  -3.620  1.00  0.00     0.086 C 
BRANCH   6   7
HETATM    7  C6  UNL     1       4.217  -0.241  -3.208  1.00  0.00     0.117 C 
BRANCH   7   8
HETATM    8  C5  UNL     1       4.600  -0.387  -1.803  1.00  0.00     0.219 C 
HETATM    9  N1  UNL     1       5.197  -1.596  -1.385  1.00  0.00    -0.348 N 
ATOM     10  H1  UNL     1       5.350  -2.342  -2.064  1.00  0.00     0.163 HD
HETATM   11  O1  UNL     1       4.440   0.486  -0.924  1.00  0.00    -0.274 OA
BRANCH   9  12
HETATM   12  C4  UNL     1       5.600  -1.795   0.011  1.00  0.00     0.173 C 
BRANCH  12  13
HETATM   13  C3  UNL     1       4.842  -2.942   0.581  1.00  0.00     0.034 C 
BRANCH  13  14
HETATM   14  C2  UNL     1       5.103  -3.302   1.994  1.00  0.00    -0.002 C 
HETATM   15  C1  UNL     1       4.213  -4.484   2.418  1.00  0.00     0.005 C 
ENDBRANCH  13  14
ENDBRANCH  12  13
BRANCH  12  16
HETATM   16  C33 UNL     1       7.064  -1.896   0.044  1.00  0.00     0.254 C 
HETATM   17  N4  UNL     1       7.869  -2.022   1.209  1.00  0.00    -0.060 NA
HETATM   18  O6  UNL     1       7.728  -1.873  -1.048  1.00  0.00    -0.275 OA
ENDBRANCH  12  16
ENDBRANCH   9  12
ENDBRANCH   7   8
ENDBRANCH   6   7
BRANCH   6  19
HETATM   19  C8  UNL     1       4.064   2.277  -3.316  1.00  0.00     0.010 C 
HETATM   20  C9  UNL     1       5.393   2.422  -4.012  1.00  0.00     0.006 C 
ENDBRANCH   6  19
ENDBRANCH   3   6
ENDBRANCH   1   2
BRANCH   1  21
HETATM   21  C12 UNL     1      -0.619   2.557  -1.596  1.00  0.00     0.175 C 
BRANCH  21  22
HETATM   22  S1  UNL     1      -0.025   3.281  -0.135  1.00  0.00     0.150 S 
HETATM   23  O3  UNL     1      -0.279   2.540   1.110  1.00  0.00    -0.227 OA
HETATM   24  O4  UNL     1       1.460   3.566  -0.207  1.00  0.00    -0.227 OA
BRANCH  22  25
HETATM   25  C13 UNL     1      -0.780   4.901   0.038  1.00  0.00     0.108 C 
HETATM   26  C14 UNL     1      -0.380   5.794  -1.120  1.00  0.00     0.020 C 
HETATM   27  C15 UNL     1      -0.099   7.150  -0.532  1.00  0.00     0.001 C 
HETATM   28  C16 UNL     1      -0.212   7.044   0.957  1.00  0.00     0.001 C 
HETATM   29  C17 UNL     1      -0.202   5.561   1.266  1.00  0.00     0.020 C 
ENDBRANCH  22  25
ENDBRANCH  21  22
ENDBRANCH   1  21
BRANCH   1  30
HETATM   30  C18 UNL     1      -0.532   0.136  -0.984  1.00  0.00     0.241 C 
HETATM   31  O5  UNL     1       0.355  -0.540  -0.410  1.00  0.00    -0.271 OA
HETATM   32  N3  UNL     1      -1.873  -0.193  -0.668  1.00  0.00    -0.354 N 
ATOM     33  H3  UNL     1      -2.612   0.341  -1.126  1.00  0.00     0.162 HD
BRANCH  32  34
HETATM   34  C19 UNL     1      -2.269  -1.228   0.255  1.00  0.00     0.093 C 
HETATM   35  C20 UNL     1      -2.943  -2.398  -0.435  1.00  0.00     0.032 C 
HETATM   36  C21 UNL     1      -4.174  -2.702   0.445  1.00  0.00     0.004 C 
HETATM   37  C22 UNL     1      -5.200  -1.728  -0.057  1.00  0.00    -0.043 C 
HETATM   38  C28 UNL     1      -3.642  -2.272   1.761  1.00  0.00    -0.028 C 
HETATM   39  C23 UNL     1      -5.248  -1.647  -1.597  1.00  0.00     0.015 C 
HETATM   40  C24 UNL     1      -6.607  -1.978   0.322  1.00  0.00     0.015 C 
HETATM   41  C25 UNL     1      -4.585  -0.442   0.504  1.00  0.00     0.021 C 
HETATM   42  C26 UNL     1      -3.338  -0.838   1.252  1.00  0.00    -0.015 C 
HETATM   43  C27 UNL     1      -2.918   0.074   2.318  1.00  0.00     0.018 C 
HETATM   44  C29 UNL     1      -2.292  -2.946   2.019  1.00  0.00     0.016 C 
BRANCH  38  45
HETATM   45  C30 UNL     1      -4.312  -2.368   3.020  1.00  0.00    -0.013 C 
HETATM   46  C31 UNL     1      -5.550  -1.765   3.475  1.00  0.00     0.010 C 
HETATM   47  C32 UNL     1      -4.426  -3.886   3.329  1.00  0.00     0.010 C 
ENDBRANCH  38  45
ENDBRANCH  32  34
ENDBRANCH   1  30
TORSDOF 15
