REMARK  1 active torsions:
REMARK  status: ('A' for Active; 'I' for Inactive)
REMARK    1  A    between atoms: N1_1  and  C1_4 
ROOT
HETATM    1  C1  UNL     1      -1.613  -0.387  -0.136  1.00  0.00     0.694 A 
HETATM    2  N2  UNL     1      -1.356   0.904   0.131  1.00  0.00    -0.139 N 
ATOM      3  H2  UNL     1      -2.142   1.546   0.230  1.00  0.00     0.189 HD
HETATM    4  C2  UNL     1      -0.107   1.389   0.274  1.00  0.00     0.374 A 
HETATM    5  O1  UNL     1       0.073   2.598   0.522  1.00  0.00    -0.244 OA
HETATM    6  N3  UNL     1       0.952   0.564   0.147  1.00  0.00    -0.029 N 
HETATM    7  N4  UNL     1       2.275   0.765   0.236  1.00  0.00    -0.270 N 
ATOM      8  H4  UNL     1       2.725   1.659   0.432  1.00  0.00     0.189 HD
HETATM    9  C3  UNL     1       2.915  -0.401   0.026  1.00  0.00     0.216 A 
HETATM   10  N5  UNL     1       1.957  -1.311  -0.191  1.00  0.00    -0.184 N 
ATOM     11  H5  UNL     1       2.126  -2.299  -0.382  1.00  0.00     0.185 HD
HETATM   12  C4  UNL     1       0.730  -0.736  -0.121  1.00  0.00     0.723 A 
HETATM   13  N6  UNL     1      -0.529  -1.193  -0.258  1.00  0.00    -0.020 N 
ATOM     14  H6  UNL     1      -0.673  -2.182  -0.461  1.00  0.00     0.203 HD
ENDROOT
BRANCH   1  15
HETATM   15  N1  UNL     1      -2.812  -0.831  -0.268  1.00  0.00    -0.234 N 
ATOM     16  H12 UNL     1      -3.627  -0.225  -0.176  1.00  0.00     0.174 HD
ATOM     17  H11 UNL     1      -3.007  -1.811  -0.471  1.00  0.00     0.174 HD
ENDBRANCH   1  15
TORSDOF 1
