REMARK  7 active torsions:
REMARK  status: ('A' for Active; 'I' for Inactive)
REMARK    1  A    between atoms: C3_3  and  C4_4 
REMARK    2  A    between atoms: C3_3  and  N1_9 
REMARK    3  A    between atoms: C3_3  and  C14_23 
REMARK    4  A    between atoms: C4_4  and  C5_5 
REMARK    5  A    between atoms: C5_5  and  C6_6 
REMARK       I    between atoms: N1_9  and  C7_11 
REMARK    6  A    between atoms: C7_11  and  C8_13 
REMARK       I    between atoms: C14_23  and  N2_25 
REMARK    7  A    between atoms: N2_25  and  C15_27 
ROOT
HETATM    1  C1  UNL     1       0.706  -0.817   4.230  1.00  0.00     0.015 C 
HETATM    2  C2  UNL     1       0.527  -0.863   3.041  1.00  0.00    -0.075 C 
HETATM    3  C3  UNL     1       0.290  -0.894   1.530  1.00  0.00     0.177 C 
ENDROOT
BRANCH   3   4
HETATM    4  C4  UNL     1       0.454  -2.352   1.216  1.00  0.00     0.065 C 
BRANCH   4   5
HETATM    5  C5  UNL     1       0.280  -2.810  -0.175  1.00  0.00     0.117 C 
BRANCH   5   6
HETATM    6  C6  UNL     1       0.576  -4.308  -0.249  1.00  0.00     0.172 C 
HETATM    7  O1  UNL     1       0.907  -4.957   0.768  1.00  0.00    -0.648 OA
HETATM    8  O2  UNL     1       0.463  -4.905  -1.472  1.00  0.00    -0.648 OA
ENDBRANCH   5   6
ENDBRANCH   4   5
ENDBRANCH   3   4
BRANCH   3   9
HETATM    9  N1  UNL     1      -1.009  -0.399   1.285  1.00  0.00    -0.332 N 
HETATM   10  C7  UNL     1      -1.649  -0.059   0.083  1.00  0.00     0.239 C 
HETATM   11  O3  UNL     1      -1.041  -0.167  -1.006  1.00  0.00    -0.272 OA
ATOM     12  H1  UNL     1      -1.578  -0.266   2.121  1.00  0.00     0.164 HD
BRANCH  10  13
HETATM   13  C8  UNL     1      -3.047   0.436   0.022  1.00  0.00     0.221 C 
HETATM   14  C9  UNL     1      -3.545   0.679  -1.379  1.00  0.00     0.061 C 
HETATM   15  C10 UNL     1      -3.301   2.114  -1.801  1.00  0.00     0.031 C 
HETATM   16 BR1  UNL     1      -2.980  -0.563  -2.716  1.00  0.00    -0.082 Br
HETATM   17  C11 UNL     1      -4.985   0.394  -0.981  1.00  0.00     0.076 C 
HETATM   18  C12 UNL     1      -5.734   1.555  -0.407  1.00  0.00     0.033 C 
HETATM   19  C13 UNL     1      -5.798  -0.343  -1.999  1.00  0.00     0.033 C 
HETATM   20  S1  UNL     1      -4.328  -0.737   0.229  1.00  0.00     0.168 S 
HETATM   21  O4  UNL     1      -5.113  -0.634   1.497  1.00  0.00    -0.226 OA
HETATM   22  O5  UNL     1      -4.045  -2.103  -0.264  1.00  0.00    -0.226 OA
ENDBRANCH  10  13
ENDBRANCH   3   9
BRANCH   3  23
HETATM   23  C14 UNL     1       1.389  -0.049   0.994  1.00  0.00     0.260 C 
HETATM   24  O6  UNL     1       1.126   1.020   0.393  1.00  0.00    -0.270 OA
HETATM   25  N2  UNL     1       2.753  -0.393   1.128  1.00  0.00    -0.336 N 
ATOM     26  H2  UNL     1       2.987  -1.259   1.614  1.00  0.00     0.164 HD
BRANCH  25  27
HETATM   27  C15 UNL     1       3.832   0.413   0.615  1.00  0.00     0.122 C 
HETATM   28  C16 UNL     1       5.142  -0.212   0.921  1.00  0.00     0.091 C 
HETATM   29  N3  UNL     1       6.156  -0.707   1.178  1.00  0.00    -0.195 NA
HETATM   30  C17 UNL     1       3.807   1.743   1.335  1.00  0.00     0.046 C 
HETATM   31  C18 UNL     1       4.032   2.859   0.307  1.00  0.00     0.004 C 
HETATM   32  C19 UNL     1       5.328   2.522  -0.402  1.00  0.00     0.000 C 
HETATM   33  C20 UNL     1       5.079   1.314  -1.277  1.00  0.00     0.004 C 
HETATM   34  C21 UNL     1       3.813   0.582  -0.881  1.00  0.00     0.046 C 
ENDBRANCH  25  27
ENDBRANCH   3  23
TORSDOF 7
