REMARK  9 active torsions:
REMARK  status: ('A' for Active; 'I' for Inactive)
REMARK    1  A    between atoms: C2_2  and  C3_3 
REMARK    2  A    between atoms: C3_3  and  N1_4 
REMARK       I    between atoms: N1_4  and  C4_6 
REMARK    3  A    between atoms: C4_6  and  C5_8 
REMARK       I    between atoms: C5_8  and  N2_10 
REMARK    4  A    between atoms: N2_10  and  C6_12 
REMARK    5  A    between atoms: C6_12  and  C7_13 
REMARK    6  A    between atoms: C7_13  and  N3_14 
REMARK    7  A    between atoms: C13_20  and  N4_22 
REMARK    8  A    between atoms: N5_26  and  C15_27 
REMARK       I    between atoms: N6_30  and  C18_31 
REMARK    9  A    between atoms: C18_31  and  C19_33 
ROOT
HETATM    1  C15 UNL     1      -2.020   0.312  -0.085  1.00  0.00     0.102 C 
HETATM    2  C16 UNL     1      -2.605   0.592   1.256  1.00  0.00     0.046 C 
HETATM    3  C17 UNL     1      -3.453  -0.547   1.784  1.00  0.00     0.128 C 
HETATM    4  N6  UNL     1      -4.540  -0.676   0.785  1.00  0.00    -0.350 N 
HETATM    5  C18 UNL     1      -5.870  -0.425   1.168  1.00  0.00     0.224 C 
HETATM    6  O3  UNL     1      -6.154  -0.124   2.371  1.00  0.00    -0.273 OA
HETATM    7  C25 UNL     1      -4.085  -1.085  -0.503  1.00  0.00     0.147 C 
HETATM    8  C26 UNL     1      -2.881  -0.408  -1.045  1.00  0.00     0.133 C 
HETATM    9  C27 UNL     1      -3.349   0.469  -2.155  1.00  0.00     0.067 C 
HETATM   10  N7  UNL     1      -3.723   1.153  -3.016  1.00  0.00    -0.197 NA
ENDROOT
BRANCH   1  11
HETATM   11  N5  UNL     1      -0.718  -0.240  -0.034  1.00  0.00    -0.374 N 
HETATM   12  C13 UNL     1       0.347   0.551   0.475  1.00  0.00     0.210 C 
HETATM   13  C12 UNL     1       1.611   0.037  -0.247  1.00  0.00     0.139 C 
HETATM   14  C14 UNL     1       0.179   1.990   0.046  1.00  0.00     0.072 C 
HETATM   15  N3  UNL     1       2.244  -0.901   0.592  1.00  0.00    -0.383 N 
HETATM   16  C11 UNL     1       1.262  -0.461  -1.623  1.00  0.00     0.030 C 
HETATM   17  C8  UNL     1       1.772  -2.228   0.622  1.00  0.00     0.065 C 
HETATM   18  C9  UNL     1       0.525  -2.346  -0.229  1.00  0.00     0.041 C 
HETATM   19  C10 UNL     1       0.896  -1.925  -1.630  1.00  0.00     0.013 C 
HETATM   20  C28 UNL     1      -0.652  -1.623   0.329  1.00  0.00     0.129 C 
BRANCH  12  21
HETATM   21  N4  UNL     1       0.632   0.504   1.856  1.00  0.00    -0.051 N 
ATOM     22  H43 UNL     1       0.935  -0.416   2.176  1.00  0.00     0.277 HD
ATOM     23  H42 UNL     1       1.479   1.011   2.112  1.00  0.00     0.277 HD
ATOM     24  H41 UNL     1      -0.203   0.844   2.333  1.00  0.00     0.277 HD
ENDBRANCH  12  21
BRANCH  15  25
HETATM   25  C7  UNL     1       3.615  -0.676   0.890  1.00  0.00     0.142 C 
BRANCH  25  26
HETATM   26  C6  UNL     1       4.561  -1.216  -0.138  1.00  0.00     0.143 C 
BRANCH  26  27
HETATM   27  N2  UNL     1       5.955  -0.981   0.157  1.00  0.00    -0.351 N 
HETATM   28  C5  UNL     1       6.541   0.307   0.297  1.00  0.00     0.309 C 
HETATM   29  O2  UNL     1       5.790   1.309   0.150  1.00  0.00    -0.262 OA
ATOM     30  H2  UNL     1       6.560  -1.794   0.273  1.00  0.00     0.162 HD
BRANCH  28  31
HETATM   31  C4  UNL     1       7.957   0.482   0.600  1.00  0.00     0.309 C 
HETATM   32  N1  UNL     1       8.504   1.775   0.726  1.00  0.00    -0.353 N 
ATOM     33  H1  UNL     1       7.883   2.575   0.606  1.00  0.00     0.162 HD
HETATM   34  O1  UNL     1       8.654  -0.536   0.740  1.00  0.00    -0.262 OA
BRANCH  32  35
HETATM   35  C3  UNL     1       9.892   2.028   1.015  1.00  0.00     0.122 C 
BRANCH  35  36
HETATM   36  C2  UNL     1      10.755   1.477  -0.084  1.00  0.00     0.015 C 
HETATM   37  C1  UNL     1      10.371   2.149  -1.389  1.00  0.00     0.006 C 
ENDBRANCH  35  36
ENDBRANCH  32  35
ENDBRANCH  28  31
ENDBRANCH  26  27
ENDBRANCH  25  26
ENDBRANCH  15  25
ENDBRANCH   1  11
BRANCH   5  38
HETATM   38  C19 UNL     1      -6.952  -0.506   0.167  1.00  0.00     0.078 C 
HETATM   39  C20 UNL     1      -6.949   0.712  -0.725  1.00  0.00     0.014 C 
HETATM   40  C21 UNL     1      -8.340   1.327  -0.797  1.00  0.00     0.001 C 
HETATM   41  C22 UNL     1      -9.367   0.254  -1.181  1.00  0.00     0.000 C 
HETATM   42  C23 UNL     1      -9.411  -0.771  -0.079  1.00  0.00     0.001 C 
HETATM   43  C24 UNL     1      -8.274  -0.652   0.890  1.00  0.00     0.014 C 
ENDBRANCH   5  38
TORSDOF 9
