REMARK  14 active torsions:
REMARK  status: ('A' for Active; 'I' for Inactive)
REMARK    1  A    between atoms: O1_2  and  C2_3 
REMARK    2  A    between atoms: C9_10  and  C10_11 
REMARK       I    between atoms: C10_11  and  N1_13 
REMARK    3  A    between atoms: N1_13  and  C11_14 
REMARK    4  A    between atoms: C11_14  and  C12_15 
REMARK    5  A    between atoms: C11_14  and  C20_25 
REMARK    6  A    between atoms: C12_15  and  C13_16 
REMARK    7  A    between atoms: C13_16  and  C14_17 
REMARK    8  A    between atoms: C14_17  and  C15_18 
REMARK    9  A    between atoms: C15_18  and  N2_19 
REMARK   10  A    between atoms: C25_30  and  C26_31 
REMARK       I    between atoms: C26_31  and  N3_33 
REMARK   11  A    between atoms: N3_33  and  C27_35 
REMARK   12  A    between atoms: C29_38  and  C30_39 
REMARK   13  A    between atoms: C30_39  and  O6_41 
REMARK   14  A    between atoms: O6_41  and  C31_42 
ROOT
HETATM    1  C27 UNL     1      -1.018   2.643   4.509  1.00  0.00     0.247 C 
HETATM    2  C28 UNL     1      -2.262   3.091   5.088  1.00  0.00     0.078 C 
HETATM    3  N4  UNL     1      -3.262   3.424   5.549  1.00  0.00    -0.196 NA
ENDROOT
BRANCH   1   4
HETATM    4  N3  UNL     1      -1.240   2.156   3.173  1.00  0.00    -0.348 N 
HETATM    5  C26 UNL     1      -2.167   1.066   3.003  1.00  0.00     0.223 C 
HETATM    6  O4  UNL     1      -2.714   0.648   4.033  1.00  0.00    -0.273 OA
ATOM      7  H3  UNL     1      -0.758   2.568   2.374  1.00  0.00     0.163 HD
BRANCH   5   8
HETATM    8  C25 UNL     1      -2.372   0.558   1.615  1.00  0.00     0.097 C 
HETATM    9  C24 UNL     1      -1.059   0.066   1.128  1.00  0.00     0.031 C 
HETATM   10  C9  UNL     1      -1.101  -0.341  -0.364  1.00  0.00     0.105 C 
HETATM   11  C8  UNL     1      -2.309  -1.079  -0.757  1.00  0.00     0.004 C 
HETATM   12  C2  UNL     1      -2.186  -2.231  -1.705  1.00  0.00     0.131 C 
HETATM   13  C7  UNL     1      -3.222  -0.128  -1.606  1.00  0.00     0.014 C 
HETATM   14  C37 UNL     1      -3.201  -1.485   0.379  1.00  0.00     0.017 C 
HETATM   15  C3  UNL     1      -1.432  -1.928  -2.980  1.00  0.00     0.037 C 
HETATM   16  C4  UNL     1      -1.859  -0.686  -3.679  1.00  0.00    -0.016 C 
HETATM   17  C5  UNL     1      -2.690  -1.023  -4.932  1.00  0.00     0.010 C 
HETATM   18  C6  UNL     1      -2.591   0.303  -2.875  1.00  0.00     0.005 C 
HETATM   19  C29 UNL     1      -3.452  -0.435   1.442  1.00  0.00     0.064 C 
HETATM   20  C36 UNL     1      -2.855  -2.698   1.146  1.00  0.00     0.007 C 
HETATM   21  C34 UNL     1      -3.740  -1.248   2.681  1.00  0.00     0.021 C 
HETATM   22  C35 UNL     1      -4.068  -2.675   2.133  1.00  0.00     0.002 C 
BRANCH  10  23
HETATM   23  C10 UNL     1       0.236  -1.056  -0.463  1.00  0.00     0.296 C 
HETATM   24  O2  UNL     1       0.150  -2.252  -0.141  1.00  0.00    -0.257 OA
HETATM   25  N1  UNL     1       1.379  -0.404  -0.862  1.00  0.00    -0.379 NA
BRANCH  25  26
HETATM   26  C11 UNL     1       2.516   0.244  -1.258  1.00  0.00     0.073 C 
BRANCH  26  27
HETATM   27  C12 UNL     1       3.867  -0.055  -0.632  1.00  0.00     0.069 C 
BRANCH  27  28
HETATM   28  C13 UNL     1       4.388  -1.417  -0.726  1.00  0.00     0.008 C 
BRANCH  28  29
HETATM   29  C14 UNL     1       5.785  -1.533  -0.195  1.00  0.00     0.030 C 
BRANCH  29  30
HETATM   30  C15 UNL     1       6.073  -1.168   1.193  1.00  0.00     0.272 C 
BRANCH  30  31
HETATM   31  N2  UNL     1       5.890   0.159   1.638  1.00  0.00     0.092 N 
HETATM   32  C16 UNL     1       6.801   1.126   1.084  1.00  0.00     0.298 C 
HETATM   33  C17 UNL     1       8.207   1.029   1.608  1.00  0.00     0.198 C 
HETATM   34  O3  UNL     1       8.169   1.259   2.962  1.00  0.00    -0.388 OA
HETATM   35  C18 UNL     1       7.488   0.158   3.533  1.00  0.00     0.198 C 
HETATM   36  C19 UNL     1       6.059   0.199   3.081  1.00  0.00     0.298 C 
ENDBRANCH  30  31
ENDBRANCH  29  30
ENDBRANCH  28  29
ENDBRANCH  27  28
ENDBRANCH  26  27
BRANCH  26  37
HETATM   37  C20 UNL     1       2.628   0.628  -2.730  1.00  0.00     0.001 C 
HETATM   38  C21 UNL     1       1.465   1.601  -2.985  1.00  0.00     0.022 C 
HETATM   39  C22 UNL     1       2.427  -0.502  -3.682  1.00  0.00     0.022 C 
HETATM   40  C23 UNL     1       3.894   1.388  -2.949  1.00  0.00     0.022 C 
ENDBRANCH  26  37
ENDBRANCH  25  26
ENDBRANCH  10  23
BRANCH  12  41
HETATM   41  O1  UNL     1      -3.495  -2.502  -2.183  1.00  0.00    -0.390 OA
HETATM   42  C1  UNL     1      -3.904  -3.789  -2.165  1.00  0.00     0.202 C 
ENDBRANCH  12  41
BRANCH  19  43
HETATM   43  C30 UNL     1      -4.722   0.331   1.142  1.00  0.00     0.269 C 
HETATM   44  O5  UNL     1      -5.653  -0.256   0.576  1.00  0.00    -0.264 OA
BRANCH  43  45
HETATM   45  O6  UNL     1      -4.837   1.656   1.492  1.00  0.00    -0.316 OA
BRANCH  45  46
HETATM   46  C31 UNL     1      -5.930   2.496   1.270  1.00  0.00     0.123 C 
HETATM   47  C32 UNL     1      -6.467   3.123   2.516  1.00  0.00     0.040 C 
HETATM   48  C33 UNL     1      -5.455   3.606   0.335  1.00  0.00     0.040 C 
ENDBRANCH  45  46
ENDBRANCH  43  45
ENDBRANCH  19  43
ENDBRANCH   5   8
ENDBRANCH   1   4
TORSDOF 14
