REMARK  17 active torsions:
REMARK  status: ('A' for Active; 'I' for Inactive)
REMARK    1  A    between atoms: C2_2  and  O2_4 
REMARK    2  A    between atoms: O2_4  and  C3_5 
REMARK    3  A    between atoms: C3_5  and  N1_6 
REMARK    4  A    between atoms: C3_5  and  C21_52 
REMARK    5  A    between atoms: N1_6  and  N2_8 
REMARK    6  A    between atoms: C5_11  and  N3_12 
REMARK    7  A    between atoms: C6_17  and  C7_18 
REMARK       I    between atoms: C7_18  and  N6_20 
REMARK    8  A    between atoms: N6_20  and  C8_22 
REMARK    9  A    between atoms: C8_22  and  C9_23 
REMARK   10  A    between atoms: C8_22  and  C10_26 
REMARK   11  A    between atoms: C10_26  and  O6_27 
REMARK   12  A    between atoms: C10_26  and  O7_29 
REMARK   13  A    between atoms: C11_31  and  O8_32 
REMARK   14  A    between atoms: C14_38  and  C15_39 
REMARK   15  A    between atoms: C19_43  and  O11_44 
REMARK   16  A    between atoms: O11_44  and  S2_45 
REMARK   17  A    between atoms: S2_45  and  N7_46 
ROOT
HETATM    1  N2  UNL     1      -2.284   0.496  -0.585  1.00  0.00    -0.224 N 
HETATM    2  S1  UNL     1      -0.679   1.017  -0.935  1.00  0.00     0.015 SA
HETATM    3  C4  UNL     1       0.056  -0.469  -1.265  1.00  0.00     0.095 A 
HETATM    4  C5  UNL     1       1.172  -1.232  -1.639  1.00  0.00     0.196 A 
HETATM    5  O9  UNL     1       0.816  -2.454  -1.686  1.00  0.00    -0.254 OA
HETATM    6  C12 UNL     1      -0.464  -2.622  -1.374  1.00  0.00     0.303 A 
HETATM    7  O10 UNL     1      -0.954  -3.771  -1.386  1.00  0.00    -0.259 OA
HETATM    8  C13 UNL     1      -1.054  -1.383  -1.077  1.00  0.00     0.093 A 
HETATM    9  C14 UNL     1      -2.237  -0.813  -0.725  1.00  0.00     0.092 A 
ENDROOT
BRANCH   4  10
HETATM   10  N3  UNL     1       2.435  -0.653  -1.899  1.00  0.00    -0.193 N 
HETATM   11  N4  UNL     1       2.917  -0.249  -3.059  1.00  0.00    -0.231 N 
HETATM   12  N5  UNL     1       4.114   0.237  -2.944  1.00  0.00    -0.277 N 
ATOM     13  H4  UNL     1       2.409  -0.311  -3.941  1.00  0.00     0.209 HD
HETATM   14  C6  UNL     1       4.483   0.169  -1.648  1.00  0.00     0.170 A 
ATOM     15  H5  UNL     1       4.681   0.608  -3.706  1.00  0.00     0.189 HD
HETATM   16  C11 UNL     1       3.421  -0.393  -0.990  1.00  0.00     0.199 A 
BRANCH  14  17
HETATM   17  C7  UNL     1       5.767   0.623  -1.134  1.00  0.00     0.275 C 
HETATM   18  O3  UNL     1       6.600   1.118  -1.965  1.00  0.00    -0.266 OA
HETATM   19  N6  UNL     1       6.142   0.547   0.226  1.00  0.00    -0.337 N 
ATOM     20  H6  UNL     1       5.499   0.156   0.915  1.00  0.00     0.164 HD
BRANCH  19  21
HETATM   21  C8  UNL     1       7.464   1.035   0.641  1.00  0.00     0.241 C 
BRANCH  21  22
HETATM   22  C9  UNL     1       7.303   2.132   1.602  1.00  0.00     0.201 C 
HETATM   23  O4  UNL     1       6.155   2.508   1.939  1.00  0.00    -0.646 OA
HETATM   24  O5  UNL     1       8.386   2.786   2.167  1.00  0.00    -0.646 OA
ENDBRANCH  21  22
BRANCH  21  25
HETATM   25  C10 UNL     1       8.218  -0.144   1.214  1.00  0.00     0.287 C 
BRANCH  25  26
HETATM   26  O6  UNL     1       7.459  -0.609   2.311  1.00  0.00    -0.369 OA
ATOM     27  H6  UNL     1       7.933  -1.350   2.671  1.00  0.00     0.212 HD
ENDBRANCH  25  26
BRANCH  25  28
HETATM   28  O7  UNL     1       8.160  -1.164   0.239  1.00  0.00    -0.369 OA
ATOM     29  H7  UNL     1       8.634  -1.905   0.599  1.00  0.00     0.212 HD
ENDBRANCH  25  28
ENDBRANCH  21  25
ENDBRANCH  19  21
ENDBRANCH  14  17
BRANCH  16  30
HETATM   30  O8  UNL     1       3.315  -0.672   0.371  1.00  0.00    -0.343 OA
ATOM     31  H8  UNL     1       4.001  -0.491   1.003  1.00  0.00     0.219 HD
ENDBRANCH  16  30
ENDBRANCH   4  10
BRANCH   1  32
HETATM   32  N1  UNL     1      -3.285   1.400  -0.213  1.00  0.00    -0.287 N 
ATOM     33  H1  UNL     1      -4.220   1.061   0.016  1.00  0.00     0.184 HD
BRANCH  32  34
HETATM   34  C3  UNL     1      -2.993   2.816  -0.153  1.00  0.00     0.316 C 
BRANCH  34  35
HETATM   35  O2  UNL     1      -4.194   3.563   0.013  1.00  0.00    -0.287 OA
BRANCH  35  36
HETATM   36  C2  UNL     1      -4.585   4.572  -0.839  1.00  0.00     0.257 C 
HETATM   37  C1  UNL     1      -5.881   5.274  -0.537  1.00  0.00     0.126 C 
HETATM   38  O1  UNL     1      -3.864   4.854  -1.806  1.00  0.00    -0.266 OA
ENDBRANCH  35  36
ENDBRANCH  34  35
BRANCH  34  39
HETATM   39  C21 UNL     1      -2.079   3.077   1.002  1.00  0.00     0.173 C 
HETATM   40  C22 UNL     1      -1.546   4.418   1.314  1.00  0.00     0.096 C 
HETATM   41  O14 UNL     1      -1.763   2.147   1.711  1.00  0.00    -0.294 OA
ENDBRANCH  34  39
ENDBRANCH  32  34
ENDBRANCH   1  32
BRANCH   9  42
HETATM   42  C15 UNL     1      -3.420  -1.663  -0.380  1.00  0.00    -0.003 A 
HETATM   43  C16 UNL     1      -4.686  -1.291  -0.738  1.00  0.00     0.014 A 
HETATM   44  C17 UNL     1      -5.798  -2.007  -0.325  1.00  0.00     0.004 A 
HETATM   45  C18 UNL     1      -5.633  -3.121   0.464  1.00  0.00     0.038 A 
HETATM   46  C19 UNL     1      -4.372  -3.517   0.838  1.00  0.00     0.091 A 
HETATM   47  C20 UNL     1      -3.277  -2.792   0.419  1.00  0.00     0.052 A 
BRANCH  46  48
HETATM   48  O11 UNL     1      -4.265  -4.645   1.630  1.00  0.00    -0.217 OA
BRANCH  48  49
HETATM   49  S2  UNL     1      -4.102  -6.214   0.982  1.00  0.00     0.360 S 
HETATM   50  O12 UNL     1      -2.856  -6.810   1.535  1.00  0.00    -0.176 OA
HETATM   51  O13 UNL     1      -5.275  -7.063   1.422  1.00  0.00    -0.176 OA
BRANCH  49  52
HETATM   52  N7  UNL     1      -4.066  -6.192  -0.727  1.00  0.00    -0.305 N 
ATOM     53  H72 UNL     1      -4.135  -5.336  -1.278  1.00  0.00     0.171 HD
ATOM     54  H71 UNL     1      -3.969  -7.130  -1.115  1.00  0.00     0.171 HD
ENDBRANCH  49  52
ENDBRANCH  48  49
ENDBRANCH  46  48
ENDBRANCH   9  42
TORSDOF 17
