REMARK  6 active torsions:
REMARK  status: ('A' for Active; 'I' for Inactive)
REMARK    1  A    between atoms: C7_11  and  O1_12 
REMARK    2  A    between atoms: N1_15  and  N2_17 
REMARK    3  A    between atoms: N2_17  and  C9_19 
REMARK    4  A    between atoms: C9_19  and  C10_20 
REMARK    5  A    between atoms: C15_27  and  O2_29 
REMARK    6  A    between atoms: C17_31  and  O3_32 
ROOT
HETATM    1  C1  UNL     1      -1.950  -2.436   0.922  1.00  0.00     0.012 C 
HETATM    2  C2  UNL     1      -2.272  -1.956  -0.419  1.00  0.00     0.016 C 
HETATM    3  C3  UNL     1      -3.800  -1.898  -0.556  1.00  0.00     0.087 C 
HETATM    4  C4  UNL     1      -4.076  -0.534   0.073  1.00  0.00     0.272 C 
HETATM    5  F1  UNL     1      -5.332  -0.160  -0.370  1.00  0.00    -0.204 F 
HETATM    6  F2  UNL     1      -4.123  -0.649   1.418  1.00  0.00    -0.204 F 
HETATM    7  C5  UNL     1      -2.979   0.349  -0.452  1.00  0.00     0.190 C 
HETATM    8 CL1  UNL     1      -3.711   1.185  -1.880  1.00  0.00    -0.104 Cl
HETATM    9  C6  UNL     1      -1.885  -0.573  -0.823  1.00  0.00     0.104 C 
HETATM   10 CL2  UNL     1      -1.923  -0.667  -2.639  1.00  0.00    -0.113 Cl
HETATM   11  C7  UNL     1      -0.503  -0.160  -0.481  1.00  0.00     0.194 C 
HETATM   12  C8  UNL     1      -0.344   1.272  -0.146  1.00  0.00     0.073 C 
HETATM   13  N1  UNL     1       0.873   1.712  -0.034  1.00  0.00    -0.307 N 
ATOM     14  H1  UNL     1       1.011   2.696   0.196  1.00  0.00     0.186 HD
HETATM   15  C15 UNL     1      -1.434   2.217   0.066  1.00  0.00     0.159 C 
HETATM   16  C16 UNL     1      -1.693   3.113  -1.133  1.00  0.00     0.059 C 
HETATM   17  C17 UNL     1      -2.641   1.451   0.496  1.00  0.00     0.268 C 
HETATM   18  F3  UNL     1      -3.717   2.356   0.437  1.00  0.00    -0.205 F 
ENDROOT
BRANCH  11  19
HETATM   19  O1  UNL     1       0.073  -0.874   0.581  1.00  0.00    -0.388 OA
ATOM     20  H1  UNL     1       0.959  -0.609   0.800  1.00  0.00     0.210 HD
ENDBRANCH  11  19
BRANCH  13  21
HETATM   21  N2  UNL     1       2.004   0.910  -0.212  1.00  0.00    -0.331 N 
ATOM     22  H2  UNL     1       2.125   0.422  -1.099  1.00  0.00     0.180 HD
BRANCH  21  23
HETATM   23  C9  UNL     1       3.010   0.746   0.815  1.00  0.00     0.196 C 
BRANCH  23  24
HETATM   24  C10 UNL     1       4.134  -0.102   0.459  1.00  0.00     0.028 A 
HETATM   25  C11 UNL     1       4.552  -0.257  -0.828  1.00  0.00     0.027 A 
HETATM   26  C12 UNL     1       5.638  -1.091  -1.126  1.00  0.00     0.003 A 
HETATM   27  C13 UNL     1       6.278  -1.752  -0.102  1.00  0.00     0.017 A 
HETATM   28  C14 UNL     1       5.813  -1.560   1.191  1.00  0.00     0.088 A 
HETATM   29  N3  UNL     1       4.779  -0.763   1.449  1.00  0.00    -0.368 N 
ATOM     30  H3  UNL     1       4.466  -0.648   2.413  1.00  0.00     0.165 HD
ENDBRANCH  23  24
ENDBRANCH  21  23
ENDBRANCH  13  21
BRANCH  15  31
HETATM   31  O2  UNL     1      -1.065   3.043   1.153  1.00  0.00    -0.378 OA
ATOM     32  H2  UNL     1      -1.775   3.659   1.291  1.00  0.00     0.211 HD
ENDBRANCH  15  31
BRANCH  17  33
HETATM   33  O3  UNL     1      -2.518   1.093   1.808  1.00  0.00    -0.357 OA
ATOM     34  H3  UNL     1      -2.303   1.794   2.411  1.00  0.00     0.213 HD
ENDBRANCH  17  33
TORSDOF 6
