REMARK  5 active torsions:
REMARK  status: ('A' for Active; 'I' for Inactive)
REMARK    1  A    between atoms: C2_2  and  N1_3 
REMARK       I    between atoms: N1_3  and  C3_5 
REMARK    2  A    between atoms: C3_5  and  O2_7 
REMARK    3  A    between atoms: O2_7  and  C4_8 
REMARK    4  A    between atoms: C17_21  and  O3_22 
REMARK    5  A    between atoms: O3_22  and  S1_23 
ROOT
HETATM    1  C4  UNL     1       1.817  -0.338  -1.128  1.00  0.00     0.138 C 
HETATM    2  C5  UNL     1       1.788  -1.463  -2.134  1.00  0.00     0.033 C 
HETATM    3  C6  UNL     1       0.893  -2.592  -1.893  1.00  0.00     0.007 C 
HETATM    4  C7  UNL     1      -0.289  -2.423  -1.010  1.00  0.00    -0.010 C 
HETATM    5  C8  UNL     1      -1.604  -2.402  -1.755  1.00  0.00     0.005 C 
HETATM    6  C9  UNL     1      -2.818  -2.516  -0.939  1.00  0.00     0.005 C 
HETATM    7  C10 UNL     1      -3.289  -1.343  -0.133  1.00  0.00    -0.010 C 
HETATM    8  C11 UNL     1      -3.335  -1.827   1.324  1.00  0.00     0.005 C 
HETATM    9  C12 UNL     1      -1.838  -2.080   1.545  1.00  0.00     0.006 C 
HETATM   10  C13 UNL     1      -1.206  -0.956   0.802  1.00  0.00    -0.005 C 
HETATM   11  C14 UNL     1      -2.228  -0.333  -0.098  1.00  0.00     0.000 C 
HETATM   12  C15 UNL     1      -2.422   1.061   0.281  1.00  0.00     0.017 C 
HETATM   13  C16 UNL     1      -2.760   1.377   1.685  1.00  0.00     0.013 C 
HETATM   14  C17 UNL     1      -1.219   1.842  -0.238  1.00  0.00     0.149 C 
HETATM   15  C18 UNL     1       0.103   1.209  -0.100  1.00  0.00     0.041 C 
HETATM   16  C19 UNL     1       0.333  -0.058  -0.828  1.00  0.00     0.022 C 
HETATM   17  C20 UNL     1      -0.062  -1.306  -0.073  1.00  0.00     0.001 C 
ENDROOT
BRANCH   1  18
HETATM   18  O2  UNL     1       2.523  -0.653   0.029  1.00  0.00    -0.298 OA
BRANCH  18  19
HETATM   19  C3  UNL     1       3.591   0.145   0.413  1.00  0.00     0.360 C 
HETATM   20  N1  UNL     1       4.343  -0.133   1.583  1.00  0.00    -0.337 N 
ATOM     21  H1  UNL     1       4.105  -0.935   2.166  1.00  0.00     0.164 HD
HETATM   22  O1  UNL     1       3.872   1.136  -0.323  1.00  0.00    -0.239 OA
BRANCH  20  23
HETATM   23  C2  UNL     1       5.446   0.723   1.945  1.00  0.00     0.120 C 
HETATM   24  C1  UNL     1       4.905   2.122   2.150  1.00  0.00     0.026 C 
ENDBRANCH  20  23
ENDBRANCH  18  19
ENDBRANCH   1  18
BRANCH  14  25
HETATM   25  O3  UNL     1      -1.208   3.050   0.467  1.00  0.00    -0.251 OA
BRANCH  25  26
HETATM   26  S1  UNL     1      -1.398   4.376  -0.512  1.00  0.00     0.251 S 
HETATM   27  O4  UNL     1      -2.676   5.087  -0.088  1.00  0.00    -0.572 OA
HETATM   28  O5  UNL     1      -1.521   4.052  -1.955  1.00  0.00    -0.572 OA
HETATM   29  O6  UNL     1      -0.155   5.505  -0.277  1.00  0.00    -0.572 OA
ENDBRANCH  25  26
ENDBRANCH  14  25
TORSDOF 5
