REMARK  4 active torsions:
REMARK  status: ('A' for Active; 'I' for Inactive)
REMARK    1  A    between atoms: C2_2  and  C3_3 
REMARK       I    between atoms: C3_3  and  N1_5 
REMARK    2  A    between atoms: N1_5  and  C4_7 
REMARK    3  A    between atoms: C10_15  and  C11_16 
REMARK    4  A    between atoms: C11_16  and  O4_17 
ROOT
HETATM    1  C4  UNL     1       1.049   0.500   0.349  1.00  0.00     0.126 C 
HETATM    2  C5  UNL     1       0.506   0.915   1.686  1.00  0.00     0.191 C 
HETATM    3  O2  UNL     1      -0.042  -0.034   2.447  1.00  0.00    -0.232 OA
HETATM    4  O3  UNL     1      -0.920  -0.820   2.079  1.00  0.00    -0.233 OA
HETATM    5  C6  UNL     1      -1.674  -0.719   0.983  1.00  0.00     0.181 C 
HETATM    6  C7  UNL     1      -1.390  -2.050   0.249  1.00  0.00     0.005 C 
HETATM    7  C8  UNL     1      -1.349  -3.197   1.201  1.00  0.00     0.022 C 
HETATM    8  C9  UNL     1      -2.317  -2.263  -0.852  1.00  0.00    -0.010 C 
HETATM    9  C10 UNL     1      -2.762  -1.238  -1.538  1.00  0.00    -0.059 C 
HETATM   10  C12 UNL     1      -2.331   0.118  -1.202  1.00  0.00     0.049 C 
HETATM   11  C13 UNL     1      -1.320   0.226  -0.086  1.00  0.00     0.004 C 
HETATM   12  C14 UNL     1      -1.314   1.683   0.279  1.00  0.00     0.025 C 
HETATM   13  C15 UNL     1      -0.520   2.023   1.483  1.00  0.00    -0.016 C 
HETATM   14  C16 UNL     1       0.196   3.349   1.361  1.00  0.00     0.018 C 
HETATM   15  C17 UNL     1      -1.440   2.116   2.672  1.00  0.00     0.018 C 
HETATM   16  C18 UNL     1       0.052  -0.243  -0.494  1.00  0.00    -0.009 C 
HETATM   17  C19 UNL     1       0.353   0.019  -1.948  1.00  0.00     0.018 C 
HETATM   18  C20 UNL     1       0.015  -1.717  -0.277  1.00  0.00     0.028 C 
ENDROOT
BRANCH   1  19
HETATM   19  N1  UNL     1       2.327  -0.138   0.469  1.00  0.00    -0.353 N 
HETATM   20  C3  UNL     1       3.529   0.411  -0.036  1.00  0.00     0.217 C 
HETATM   21  O1  UNL     1       3.496   1.516  -0.626  1.00  0.00    -0.274 OA
ATOM     22  H1  UNL     1       2.372  -1.039   0.945  1.00  0.00     0.163 HD
BRANCH  20  23
HETATM   23  C2  UNL     1       4.795  -0.315   0.134  1.00  0.00     0.098 C 
HETATM   24  C1  UNL     1       5.902   0.490  -0.493  1.00  0.00     0.014 C 
ENDBRANCH  20  23
ENDBRANCH   1  19
BRANCH   9  25
HETATM   25  C11 UNL     1      -3.714  -1.437  -2.671  1.00  0.00     0.198 C 
BRANCH  25  26
HETATM   26  O4  UNL     1      -3.100  -0.932  -3.840  1.00  0.00    -0.397 OA
ATOM     27  H4  UNL     1      -3.706  -1.059  -4.561  1.00  0.00     0.209 HD
ENDBRANCH  25  26
ENDBRANCH   9  25
TORSDOF 4
