REMARK  11 active torsions:
REMARK  status: ('A' for Active; 'I' for Inactive)
REMARK    1  A    between atoms: O1_2  and  C2_3 
REMARK    2  A    between atoms: C2_3  and  C3_4 
REMARK    3  A    between atoms: C2_3  and  C25_36 
REMARK    4  A    between atoms: C3_4  and  C4_5 
REMARK    5  A    between atoms: C5_6  and  C6_7 
REMARK    6  A    between atoms: C6_7  and  C7_8 
REMARK    7  A    between atoms: C7_8  and  O2_9 
REMARK    8  A    between atoms: C7_8  and  C8_11 
REMARK    9  A    between atoms: C8_11  and  O3_12 
REMARK   10  A    between atoms: C8_11  and  C9_14 
REMARK   11  A    between atoms: C18_23  and  S1_24 
ROOT
HETATM    1  C9  UNL     1       0.183  -0.277   1.384  1.00  0.00     0.025 C 
HETATM    2  C10 UNL     1       0.062  -1.445   2.299  1.00  0.00     0.008 C 
HETATM    3  C11 UNL     1      -1.407  -1.894   2.216  1.00  0.00     0.006 C 
HETATM    4  C12 UNL     1      -2.033  -0.800   1.392  1.00  0.00     0.001 C 
HETATM    5  C13 UNL     1      -3.311  -1.143   0.738  1.00  0.00     0.027 C 
HETATM    6  C14 UNL     1      -4.434  -0.844   1.746  1.00  0.00     0.008 C 
HETATM    7  C15 UNL     1      -4.544   0.653   1.751  1.00  0.00     0.007 C 
HETATM    8  C16 UNL     1      -4.083   1.085   0.381  1.00  0.00     0.025 C 
HETATM    9  C17 UNL     1      -5.288   1.566  -0.387  1.00  0.00     0.056 C 
HETATM   10  C18 UNL     1      -5.858   0.283  -0.923  1.00  0.00     0.307 C 
HETATM   11  N1  UNL     1      -4.760  -0.599  -1.158  1.00  0.00    -0.048 N 
ATOM     12  H11 UNL     1      -4.520  -0.675  -2.146  1.00  0.00     0.279 HD
ATOM     13  H12 UNL     1      -4.999  -1.578  -1.000  1.00  0.00     0.279 HD
HETATM   14  C20 UNL     1      -3.644  -0.154  -0.341  1.00  0.00     0.135 C 
HETATM   15  C21 UNL     1      -2.505   0.147  -1.272  1.00  0.00     0.040 C 
HETATM   16  C22 UNL     1      -1.251   0.563  -0.503  1.00  0.00     0.012 C 
HETATM   17  C23 UNL     1      -0.879  -0.572   0.376  1.00  0.00    -0.034 C 
HETATM   18  C24 UNL     1      -0.684  -1.843  -0.405  1.00  0.00     0.016 C 
ENDROOT
BRANCH   1  19
HETATM   19  C8  UNL     1       1.488   0.155   0.920  1.00  0.00     0.152 C 
BRANCH  19  20
HETATM   20  C7  UNL     1       2.371  -0.732   0.158  1.00  0.00     0.150 C 
BRANCH  20  21
HETATM   21  C6  UNL     1       3.463   0.038  -0.527  1.00  0.00     0.061 C 
BRANCH  21  22
HETATM   22  C5  UNL     1       4.449   0.707   0.306  1.00  0.00    -0.028 C 
HETATM   23  C4  UNL     1       5.743   0.446   0.302  1.00  0.00    -0.027 C 
BRANCH  23  24
HETATM   24  C3  UNL     1       6.412  -0.562  -0.541  1.00  0.00     0.070 C 
BRANCH  24  25
HETATM   25  C2  UNL     1       7.458   0.098  -1.454  1.00  0.00     0.224 C 
BRANCH  25  26
HETATM   26  O1  UNL     1       8.426   0.743  -0.712  1.00  0.00    -0.380 OA
HETATM   27  C1  UNL     1       8.386   2.093  -1.052  1.00  0.00     0.202 C 
ENDBRANCH  25  26
BRANCH  25  28
HETATM   28  C25 UNL     1       8.106  -1.007  -2.209  1.00  0.00     0.203 C 
HETATM   29  O6  UNL     1       7.390  -1.730  -2.958  1.00  0.00    -0.646 OA
HETATM   30  O7  UNL     1       9.452  -1.273  -2.125  1.00  0.00    -0.646 OA
ENDBRANCH  25  28
ENDBRANCH  24  25
ENDBRANCH  23  24
ENDBRANCH  21  22
ENDBRANCH  20  21
BRANCH  20  31
HETATM   31  O2  UNL     1       2.887  -1.759   0.968  1.00  0.00    -0.393 OA
ATOM     32  H2  UNL     1       2.196  -2.246   1.401  1.00  0.00     0.210 HD
ENDBRANCH  20  31
ENDBRANCH  19  20
BRANCH  19  33
HETATM   33  O3  UNL     1       2.230   0.693   2.009  1.00  0.00    -0.393 OA
ATOM     34  H3  UNL     1       1.658   1.268   2.503  1.00  0.00     0.210 HD
ENDBRANCH  19  33
ENDBRANCH   1  19
BRANCH  10  35
HETATM   35  S1  UNL     1      -6.755   0.675  -2.408  1.00  0.00     0.170 S 
HETATM   36  C19 UNL     1      -7.956   1.933  -1.950  1.00  0.00     0.163 C 
HETATM   37  O4  UNL     1      -5.883   1.246  -3.467  1.00  0.00    -0.226 OA
HETATM   38  O5  UNL     1      -7.437  -0.567  -2.882  1.00  0.00    -0.226 OA
ENDBRANCH  10  35
TORSDOF 11
