REMARK  2 active torsions:
REMARK  status: ('A' for Active; 'I' for Inactive)
REMARK       I    between atoms: C1_2  and  N1_3 
REMARK       I    between atoms: C1_2  and  N4_24 
REMARK    1  A    between atoms: N1_3  and  C2_5 
REMARK       I    between atoms: N2_13  and  C10_14 
REMARK       I    between atoms: C10_14  and  N3_16 
REMARK    2  A    between atoms: N3_16  and  C11_18 
ROOT
HETATM    1  C2  UNL     1      -1.170   0.011  -0.306  1.00  0.00     0.088 C 
HETATM    2  C3  UNL     1      -0.690   1.433  -0.439  1.00  0.00     0.027 C 
HETATM    3  C4  UNL     1       0.780   1.581  -0.608  1.00  0.00     0.027 C 
HETATM    4  C5  UNL     1       1.571   1.514   0.663  1.00  0.00     0.089 C 
HETATM    5  C6  UNL     1       0.792   2.033   1.862  1.00  0.00     0.027 C 
HETATM    6  C7  UNL     1       0.023   0.873   2.404  1.00  0.00     0.027 C 
HETATM    7  C8  UNL     1       0.493  -0.278   1.602  1.00  0.00     0.091 C 
HETATM    8  C9  UNL     1      -0.440  -0.858   0.623  1.00  0.00     0.050 C 
HETATM    9  N2  UNL     1       1.764   0.128   1.030  1.00  0.00    -0.325 N 
HETATM   10  C10 UNL     1       2.948  -0.622   0.850  1.00  0.00     0.319 C 
HETATM   11  O2  UNL     1       2.973  -1.842   1.228  1.00  0.00    -0.247 OA
HETATM   12  N3  UNL     1       4.103  -0.057   0.261  1.00  0.00    -0.338 N 
ATOM     13  H3  UNL     1       4.061   0.918  -0.034  1.00  0.00     0.164 HD
ENDROOT
BRANCH   1  14
HETATM   14  N1  UNL     1      -2.596   0.020  -0.048  1.00  0.00    -0.338 N 
HETATM   15  C1  UNL     1      -3.555  -0.449  -0.973  1.00  0.00     0.318 C 
HETATM   16  O1  UNL     1      -3.091  -0.894  -2.079  1.00  0.00    -0.247 OA
HETATM   17  N4  UNL     1      -4.953  -0.437  -0.710  1.00  0.00    -0.334 N 
HETATM   18  C16 UNL     1      -5.836  -0.944  -1.737  1.00  0.00     0.127 C 
HETATM   19  C20 UNL     1      -5.379   0.079   0.560  1.00  0.00     0.127 C 
HETATM   20  C17 UNL     1      -7.280  -0.697  -1.473  1.00  0.00     0.020 C 
HETATM   21  C18 UNL     1      -7.520  -1.006   0.011  1.00  0.00     0.003 C 
HETATM   22  C19 UNL     1      -6.854   0.091   0.778  1.00  0.00     0.020 C 
ATOM     23  H1  UNL     1      -2.924   0.383   0.847  1.00  0.00     0.164 HD
ENDBRANCH   1  14
BRANCH  12  24
HETATM   24  C11 UNL     1       5.331  -0.770   0.053  1.00  0.00     0.090 C 
HETATM   25  C12 UNL     1       5.515  -0.891  -1.466  1.00  0.00     0.051 C 
HETATM   26  C13 UNL     1       6.586  -1.917  -1.701  1.00  0.00     0.169 C 
HETATM   27  O3  UNL     1       7.647  -1.661  -0.870  1.00  0.00    -0.391 OA
HETATM   28  C14 UNL     1       7.691  -0.360  -0.390  1.00  0.00     0.169 C 
HETATM   29  C15 UNL     1       6.541  -0.085   0.587  1.00  0.00     0.051 C 
ENDBRANCH  12  24
TORSDOF 2
