REMARK  7 active torsions:
REMARK  status: ('A' for Active; 'I' for Inactive)
REMARK    1  A    between atoms: O1_2  and  N1_3 
REMARK    2  A    between atoms: N1_3  and  C2_4 
REMARK    3  A    between atoms: C2_4  and  C3_5 
REMARK    4  A    between atoms: C2_4  and  C13_20 
REMARK    5  A    between atoms: C3_5  and  O2_6 
REMARK    6  A    between atoms: C3_5  and  N2_8 
REMARK    7  A    between atoms: C15_26  and  O4_27 
ROOT
HETATM    1  C3  UNL     1       0.638   0.528  -0.258  1.00  0.00     0.142 C 
ENDROOT
BRANCH   1   2
HETATM    2  C2  UNL     1       1.604   0.159   0.749  1.00  0.00     0.225 C 
BRANCH   2   3
HETATM    3  N1  UNL     1       2.957   0.736   0.386  1.00  0.00    -0.083 NA
BRANCH   3   4
HETATM    4  O1  UNL     1       3.785   0.343   1.351  1.00  0.00    -0.290 OA
HETATM    5  C1  UNL     1       4.099   1.373   2.239  1.00  0.00     0.231 C 
ENDBRANCH   3   4
ENDBRANCH   2   3
BRANCH   2   6
HETATM    6  C13 UNL     1       1.972  -1.319   0.715  1.00  0.00     0.068 A 
HETATM    7  S1  UNL     1       2.056  -2.428   2.018  1.00  0.00    -0.027 SA
HETATM    8  C14 UNL     1       2.518  -3.809   1.138  1.00  0.00     0.290 A 
HETATM    9  O3  UNL     1       2.748  -5.000   1.558  1.00  0.00    -0.260 OA
HETATM   10  N3  UNL     1       2.589  -3.365  -0.109  1.00  0.00    -0.297 N 
HETATM   11  C15 UNL     1       2.316  -2.104  -0.350  1.00  0.00     0.159 A 
ATOM     12  H3  UNL     1       2.851  -3.993  -0.869  1.00  0.00     0.171 HD
BRANCH  11  13
HETATM   13  O4  UNL     1       2.379  -1.562  -1.677  1.00  0.00    -0.345 OA
ATOM     14  H4  UNL     1       2.618  -2.108  -2.417  1.00  0.00     0.219 HD
ENDBRANCH  11  13
ENDBRANCH   2   6
ENDBRANCH   1   2
BRANCH   1  15
HETATM   15  O2  UNL     1       1.155   1.020  -1.348  1.00  0.00    -0.348 OA
ATOM     16  H2  UNL     1       0.519   1.263  -2.011  1.00  0.00     0.219 HD
ENDBRANCH   1  15
BRANCH   1  17
HETATM   17  N2  UNL     1      -0.787   0.450  -0.275  1.00  0.00    -0.346 N 
HETATM   18  C4  UNL     1      -1.403   0.820  -1.574  1.00  0.00     0.032 C 
HETATM   19  C5  UNL     1      -0.785  -0.092  -2.656  1.00  0.00     0.038 C 
HETATM   20  C6  UNL     1      -0.995   2.230  -1.943  1.00  0.00     0.038 C 
HETATM   21  C7  UNL     1      -2.874   0.665  -1.638  1.00  0.00     0.091 C 
HETATM   22  C8  UNL     1      -3.612   1.183  -0.440  1.00  0.00     0.183 C 
HETATM   23  F1  UNL     1      -4.742   0.407  -0.286  1.00  0.00    -0.225 F 
HETATM   24 CL1  UNL     1      -4.161   2.849  -0.741  1.00  0.00    -0.083 Cl
HETATM   25  C9  UNL     1      -2.809   1.146   0.800  1.00  0.00     0.091 C 
HETATM   26  C10 UNL     1      -1.672   0.108   0.769  1.00  0.00     0.032 C 
HETATM   27  C11 UNL     1      -1.046   0.218   2.169  1.00  0.00     0.038 C 
HETATM   28  C12 UNL     1      -2.284  -1.245   0.688  1.00  0.00     0.038 C 
ENDBRANCH   1  17
TORSDOF 7
