REMARK  5 active torsions:
REMARK  status: ('A' for Active; 'I' for Inactive)
REMARK       I    between atoms: N1_5  and  C5_6 
REMARK    1  A    between atoms: C5_6  and  C6_8 
REMARK    2  A    between atoms: C16_21  and  N2_22 
REMARK    3  A    between atoms: N2_22  and  C18_24 
REMARK    4  A    between atoms: C18_24  and  C19_25 
REMARK    5  A    between atoms: C19_25  and  O3_26 
ROOT
HETATM    1  C1  UNL     1      -4.165   1.418   2.396  1.00  0.00     0.012 C 
HETATM    2  C2  UNL     1      -3.436   0.380   1.526  1.00  0.00     0.026 C 
HETATM    3  C3  UNL     1      -2.254  -0.142   2.231  1.00  0.00     0.027 C 
HETATM    4  C4  UNL     1      -0.931   0.065   1.621  1.00  0.00     0.135 C 
HETATM    5  N1  UNL     1      -0.882   0.056   0.174  1.00  0.00    -0.285 N 
HETATM    6  C5  UNL     1       0.160  -0.556  -0.558  1.00  0.00     0.240 C 
HETATM    7  O1  UNL     1       0.099  -0.503  -1.805  1.00  0.00    -0.272 OA
HETATM    8  C15 UNL     1      -1.958   0.710  -0.477  1.00  0.00     0.260 C 
HETATM    9  O2  UNL     1      -1.819   1.177  -1.658  1.00  0.00    -0.270 OA
HETATM   10  C16 UNL     1      -3.271   0.891   0.145  1.00  0.00     0.318 C 
ENDROOT
BRANCH   6  11
HETATM   11  C6  UNL     1       1.316  -1.255   0.035  1.00  0.00     0.142 C 
HETATM   12  C7  UNL     1       2.201  -0.440   0.874  1.00  0.00     0.040 C 
HETATM   13  C8  UNL     1       3.539  -0.055   0.402  1.00  0.00     0.046 C 
HETATM   14  C9  UNL     1       3.755   0.064  -1.046  1.00  0.00     0.021 C 
HETATM   15  S1  UNL     1       4.623  -1.425   0.432  1.00  0.00    -0.200 SA
HETATM   16  C10 UNL     1       4.997   0.737  -1.473  1.00  0.00     0.007 C 
HETATM   17  C14 UNL     1       3.925  -1.458  -1.198  1.00  0.00     0.105 C 
HETATM   18  C11 UNL     1       5.868   1.298  -0.404  1.00  0.00     0.001 C 
HETATM   19  C12 UNL     1       6.726   0.358   0.340  1.00  0.00     0.009 C 
HETATM   20  C13 UNL     1       6.316  -1.033   0.518  1.00  0.00     0.065 C 
HETATM   21  S2  UNL     1       2.273  -2.160  -1.192  1.00  0.00    -0.140 SA
ENDBRANCH   6  11
BRANCH  10  22
HETATM   22  N2  UNL     1      -4.321   0.449  -0.760  1.00  0.00     0.100 N 
HETATM   23  C17 UNL     1      -5.592   0.943  -0.326  1.00  0.00     0.311 C 
BRANCH  22  24
HETATM   24  C18 UNL     1      -4.268  -0.933  -1.089  1.00  0.00     0.299 C 
BRANCH  24  25
HETATM   25  C19 UNL     1      -5.415  -1.233  -2.036  1.00  0.00     0.194 C 
BRANCH  25  26
HETATM   26  O3  UNL     1      -5.264  -0.451  -3.175  1.00  0.00    -0.399 OA
ATOM     27  H3  UNL     1      -5.982  -0.639  -3.768  1.00  0.00     0.209 HD
ENDBRANCH  25  26
ENDBRANCH  24  25
ENDBRANCH  22  24
ENDBRANCH  10  22
TORSDOF 5
