REMARK  7 active torsions:
REMARK  status: ('A' for Active; 'I' for Inactive)
REMARK    1  A    between atoms: C2_2  and  N1_3 
REMARK    2  A    between atoms: N1_3  and  C4_5 
REMARK    3  A    between atoms: C4_5  and  C5_6 
REMARK    4  A    between atoms: C6_7  and  C7_8 
REMARK    5  A    between atoms: C7_8  and  C8_9 
REMARK    6  A    between atoms: C7_8  and  C16_25 
REMARK    7  A    between atoms: C10_14  and  N3_16 
REMARK       I    between atoms: N3_16  and  C12_18 
ROOT
HETATM    1  C8  UNL     1      -0.773  -0.462  -0.811  1.00  0.00     0.193 C 
HETATM    2  N2  UNL     1      -2.137  -0.491  -1.275  1.00  0.00    -0.343 N 
ATOM      3  H2  UNL     1      -2.419  -0.029  -2.140  1.00  0.00     0.163 HD
HETATM    4  C9  UNL     1      -3.084  -1.208  -0.452  1.00  0.00     0.267 C 
HETATM    5  O1  UNL     1      -3.976  -1.884  -1.005  1.00  0.00    -0.269 OA
HETATM    6  C10 UNL     1      -2.951  -1.105   1.013  1.00  0.00     0.189 C 
HETATM    7  C11 UNL     1      -2.860  -2.452   1.681  1.00  0.00     0.074 C 
HETATM    8  N4  UNL     1      -1.879  -0.217   1.425  1.00  0.00    -0.320 N 
HETATM    9  C14 UNL     1      -1.875   0.241   2.787  1.00  0.00     0.155 C 
HETATM   10  C15 UNL     1      -0.861   0.200   0.539  1.00  0.00     0.245 C 
HETATM   11  O3  UNL     1      -0.067   1.078   0.855  1.00  0.00    -0.271 OA
ENDROOT
BRANCH   1  12
HETATM   12  C7  UNL     1       0.138   0.331  -1.654  1.00  0.00     0.104 C 
BRANCH  12  13
HETATM   13  C6  UNL     1       1.493   0.226  -0.979  1.00  0.00    -0.097 C 
HETATM   14  C5  UNL     1       2.605   0.126  -0.479  1.00  0.00    -0.076 C 
BRANCH  14  15
HETATM   15  C4  UNL     1       3.954  -0.005   0.060  1.00  0.00     0.365 C 
BRANCH  15  16
HETATM   16  N1  UNL     1       4.330   1.127   0.836  1.00  0.00     0.094 N 
HETATM   17  C3  UNL     1       5.753   1.219   0.949  1.00  0.00     0.310 C 
BRANCH  16  18
HETATM   18  C2  UNL     1       3.608   1.172   2.066  1.00  0.00     0.268 C 
HETATM   19  C1  UNL     1       3.846  -0.063   2.922  1.00  0.00     0.037 C 
ENDBRANCH  16  18
ENDBRANCH  15  16
ENDBRANCH  14  15
ENDBRANCH  12  13
BRANCH  12  20
HETATM   20  C16 UNL     1       0.376  -0.094  -3.063  1.00  0.00    -0.035 C 
HETATM   21  C17 UNL     1       1.449   0.879  -3.637  1.00  0.00     0.016 C 
HETATM   22  C18 UNL     1       1.041  -1.450  -3.105  1.00  0.00     0.016 C 
HETATM   23  C19 UNL     1      -0.751  -0.087  -4.016  1.00  0.00     0.016 C 
ENDBRANCH  12  20
ENDBRANCH   1  12
BRANCH   6  24
HETATM   24  N3  UNL     1      -4.178  -0.452   1.502  1.00  0.00    -0.327 N 
HETATM   25  C12 UNL     1      -4.544   0.859   1.070  1.00  0.00     0.215 C 
HETATM   26  C13 UNL     1      -5.753   1.563   1.517  1.00  0.00     0.117 C 
HETATM   27  O2  UNL     1      -3.798   1.477   0.248  1.00  0.00    -0.274 OA
ATOM     28  H3  UNL     1      -4.778  -0.946   2.162  1.00  0.00     0.165 HD
ENDBRANCH   6  24
TORSDOF 7
