REMARK  3 active torsions:
REMARK  status: ('A' for Active; 'I' for Inactive)
REMARK    1  A    between atoms: N1_1  and  C1_5 
REMARK    2  A    between atoms: C1_5  and  C2_6 
REMARK    3  A    between atoms: C2_6  and  N2_7 
ROOT
HETATM    1  N2  UNL     1      -0.687  -0.141  -0.675  1.00  0.00     0.090 N 
HETATM    2  C3  UNL     1       0.307  -1.164  -0.483  1.00  0.00     0.274 C 
HETATM    3  C4  UNL     1       1.573  -0.943  -1.242  1.00  0.00     0.057 C 
HETATM    4  C5  UNL     1       2.787  -0.861  -0.352  1.00  0.00     0.234 C 
HETATM    5  N3  UNL     1       2.544  -0.114   0.862  1.00  0.00    -0.075 N 
ATOM      6  H31 UNL     1       3.381  -0.094   1.444  1.00  0.00     0.277 HD
ATOM      7  H32 UNL     1       1.917  -0.629   1.480  1.00  0.00     0.277 HD
HETATM    8  C6  UNL     1       2.055   1.210   0.640  1.00  0.00     0.234 C 
HETATM    9  C7  UNL     1       0.560   1.229   0.933  1.00  0.00     0.057 C 
HETATM   10  C8  UNL     1      -0.222   1.167  -0.355  1.00  0.00     0.274 C 
ENDROOT
BRANCH   1  11
HETATM   11  C2  UNL     1      -1.894  -0.548  -0.041  1.00  0.00     0.299 C 
BRANCH  11  12
HETATM   12  C1  UNL     1      -3.034   0.406  -0.147  1.00  0.00     0.259 C 
BRANCH  12  13
HETATM   13  N1  UNL     1      -4.167  -0.208   0.568  1.00  0.00    -0.078 N 
ATOM     14  H13 UNL     1      -4.394  -1.145   0.235  1.00  0.00     0.274 HD
ATOM     15  H12 UNL     1      -3.945  -0.465   1.530  1.00  0.00     0.274 HD
ATOM     16  H11 UNL     1      -4.947   0.445   0.495  1.00  0.00     0.274 HD
ENDBRANCH  12  13
ENDBRANCH  11  12
ENDBRANCH   1  11
TORSDOF 3
