REMARK  7 active torsions:
REMARK  status: ('A' for Active; 'I' for Inactive)
REMARK    1  A    between atoms: N1_2  and  C3_4 
REMARK    2  A    between atoms: N2_5  and  C4_7 
REMARK    3  A    between atoms: C5_9  and  C6_10 
REMARK    4  A    between atoms: C6_10  and  C7_11 
REMARK    5  A    between atoms: C13_19  and  N3_20 
REMARK    6  A    between atoms: C14_21  and  O1_22 
REMARK    7  A    between atoms: C17_26  and  O2_27 
ROOT
HETATM    1  C4  UNL     1       2.263   0.337  -1.133  1.00  0.00     0.098 A 
HETATM    2  S1  UNL     1       1.482   1.712  -1.686  1.00  0.00    -0.073 SA
HETATM    3  C5  UNL     1      -0.190   1.252  -1.324  1.00  0.00     0.018 A 
HETATM    4  C13 UNL     1      -0.034   0.033  -0.789  1.00  0.00     0.080 A 
HETATM    5  C22 UNL     1       1.249  -0.462  -0.682  1.00  0.00     0.106 A 
HETATM    6  C23 UNL     1       1.533  -1.820  -0.142  1.00  0.00     0.104 C 
HETATM    7  N4  UNL     1       1.781  -2.901   0.274  1.00  0.00    -0.191 NA
ENDROOT
BRANCH   1   8
HETATM    8  N2  UNL     1       3.687  -0.013  -1.103  1.00  0.00    -0.345 N 
HETATM    9  C3  UNL     1       4.129  -0.401   0.051  1.00  0.00     0.178 C 
ATOM     10  H2  UNL     1       4.284   0.045  -1.928  1.00  0.00     0.167 HD
BRANCH   9  11
HETATM   11  N1  UNL     1       5.475  -0.770   0.231  1.00  0.00    -0.386 N 
HETATM   12  C1  UNL     1       6.240  -1.343  -0.837  1.00  0.00     0.149 C 
HETATM   13  C2  UNL     1       6.087  -0.566   1.528  1.00  0.00     0.149 C 
ENDBRANCH   9  11
ENDBRANCH   1   8
BRANCH   4  14
HETATM   14  N3  UNL     1      -1.159  -0.844  -0.414  1.00  0.00    -0.269 N 
HETATM   15  C14 UNL     1      -1.952  -1.527  -1.251  1.00  0.00     0.156 A 
HETATM   16  C15 UNL     1      -2.819  -2.315  -0.540  1.00  0.00     0.008 A 
HETATM   17  C16 UNL     1      -2.529  -2.088   0.774  1.00  0.00     0.010 A 
HETATM   18  C21 UNL     1      -3.860  -3.284  -0.927  1.00  0.00     0.073 C 
HETATM   19  C17 UNL     1      -1.492  -1.170   0.830  1.00  0.00     0.156 A 
HETATM   20  C18 UNL     1      -3.250  -2.730   1.904  1.00  0.00     0.113 C 
HETATM   21  C19 UNL     1      -4.436  -3.476   1.479  1.00  0.00     0.095 C 
HETATM   22  F1  UNL     1      -5.294  -3.926   2.429  1.00  0.00    -0.211 F 
HETATM   23  C20 UNL     1      -4.692  -3.713   0.201  1.00  0.00     0.016 C 
BRANCH  15  24
HETATM   24  O1  UNL     1      -1.887  -1.437  -2.624  1.00  0.00    -0.345 OA
ATOM     25  H1  UNL     1      -2.449  -1.921  -3.217  1.00  0.00     0.219 HD
ENDBRANCH  15  24
BRANCH  19  26
HETATM   26  O2  UNL     1      -0.929  -0.700   2.008  1.00  0.00    -0.345 OA
ATOM     27  H2  UNL     1      -1.167  -0.933   2.898  1.00  0.00     0.219 HD
ENDBRANCH  19  26
ENDBRANCH   4  14
BRANCH   3  28
HETATM   28  C6  UNL     1      -1.322   2.187  -1.559  1.00  0.00     0.088 C 
BRANCH  28  29
HETATM   29  C7  UNL     1      -1.407   3.324  -0.647  1.00  0.00    -0.032 A 
HETATM   30  C8  UNL     1      -0.703   4.497  -1.059  1.00  0.00     0.011 A 
HETATM   31  C9  UNL     1      -0.634   5.620  -0.332  1.00  0.00     0.024 A 
HETATM   32  C10 UNL     1      -1.265   5.701   0.897  1.00  0.00     0.035 A 
HETATM   33 CL1  UNL     1      -1.130   7.198   1.792  1.00  0.00    -0.084 Cl
HETATM   34  C11 UNL     1      -1.949   4.611   1.334  1.00  0.00     0.048 A 
HETATM   35  C12 UNL     1      -2.013   3.440   0.556  1.00  0.00     0.042 A 
HETATM   36 CL2  UNL     1      -3.015   2.129   1.146  1.00  0.00    -0.084 Cl
ENDBRANCH  28  29
ENDBRANCH   3  28
TORSDOF 7
