REMARK  8 active torsions:
REMARK  status: ('A' for Active; 'I' for Inactive)
REMARK    1  A    between atoms: O1_2  and  C2_3 
REMARK    2  A    between atoms: C4_6  and  O2_7 
REMARK    3  A    between atoms: C6_9  and  O3_10 
REMARK    4  A    between atoms: C10_16  and  C11_17 
REMARK    5  A    between atoms: C11_17  and  O4_18 
REMARK    6  A    between atoms: C11_17  and  C12_20 
REMARK    7  A    between atoms: C16_25  and  C17_26 
REMARK    8  A    between atoms: C18_28  and  O6_29 
ROOT
HETATM    1  C2  UNL     1       1.697  -1.905   0.008  1.00  0.00     0.120 A 
HETATM    2  C3  UNL     1       3.029  -1.572  -0.095  1.00  0.00     0.105 A 
HETATM    3 CL1  UNL     1       4.194  -2.886  -0.220  1.00  0.00    -0.078 Cl
HETATM    4  C4  UNL     1       3.456  -0.282  -0.101  1.00  0.00     0.127 A 
HETATM    5  C6  UNL     1       2.521   0.746  -0.001  1.00  0.00     0.116 A 
HETATM    6  C8  UNL     1       1.176   0.430   0.103  1.00  0.00     0.031 A 
HETATM    7  C9  UNL     1       0.770  -0.883   0.108  1.00  0.00     0.081 A 
HETATM    8  N1  UNL     1      -0.580  -1.267   0.223  1.00  0.00    -0.350 N 
ATOM      9  H1  UNL     1      -0.844  -2.252   0.222  1.00  0.00     0.166 HD
HETATM   10  C10 UNL     1      -1.602  -0.214   0.344  1.00  0.00     0.080 A 
HETATM   11  C16 UNL     1      -1.171   1.149   0.343  1.00  0.00     0.030 A 
HETATM   12  C21 UNL     1       0.151   1.448   0.227  1.00  0.00     0.033 A 
ENDROOT
BRANCH  11  13
HETATM   13  C17 UNL     1      -2.070   2.302   0.410  1.00  0.00     0.114 A 
HETATM   14  O5  UNL     1      -3.228   2.430   0.980  1.00  0.00    -0.284 OA
HETATM   15  C18 UNL     1      -3.796   3.584   0.865  1.00  0.00     0.207 A 
HETATM   16  C19 UNL     1      -2.949   4.353   0.134  1.00  0.00     0.116 A 
HETATM   17 CL2  UNL     1      -3.192   6.032  -0.344  1.00  0.00    -0.077 Cl
HETATM   18  C20 UNL     1      -1.849   3.555  -0.165  1.00  0.00     0.095 A 
HETATM   19 CL3  UNL     1      -0.533   4.104  -1.152  1.00  0.00    -0.079 Cl
BRANCH  15  20
HETATM   20  O6  UNL     1      -5.048   3.983   1.390  1.00  0.00    -0.339 OA
ATOM     21  H6  UNL     1      -5.466   4.832   1.305  1.00  0.00     0.220 HD
ENDBRANCH  15  20
ENDBRANCH  11  13
BRANCH  10  22
HETATM   22  C11 UNL     1      -2.844  -0.610   0.368  1.00  0.00     0.104 C 
BRANCH  22  23
HETATM   23  O4  UNL     1      -3.943   0.181   0.480  1.00  0.00    -0.357 OA
ATOM     24  H4  UNL     1      -4.848  -0.108   0.497  1.00  0.00     0.217 HD
ENDBRANCH  22  23
BRANCH  22  25
HETATM   25  C12 UNL     1      -3.225  -2.066   0.255  1.00  0.00     0.006 A 
HETATM   26  C13 UNL     1      -2.898  -2.835  -0.788  1.00  0.00     0.022 A 
HETATM   27  C14 UNL     1      -3.291  -4.143  -0.762  1.00  0.00     0.050 A 
HETATM   28  S1  UNL     1      -4.110  -4.269   0.727  1.00  0.00    -0.113 SA
HETATM   29  C15 UNL     1      -3.930  -2.656   1.270  1.00  0.00     0.063 A 
ENDBRANCH  22  25
ENDBRANCH  10  22
BRANCH   5  30
HETATM   30  O3  UNL     1       2.924   2.063  -0.002  1.00  0.00    -0.352 OA
HETATM   31  C7  UNL     1       3.107   2.863  -1.151  1.00  0.00     0.210 C 
ENDBRANCH   5  30
BRANCH   1  32
HETATM   32  O1  UNL     1       1.256  -3.218   0.015  1.00  0.00    -0.352 OA
HETATM   33  C1  UNL     1       1.132  -3.914   1.249  1.00  0.00     0.210 C 
ENDBRANCH   1  32
BRANCH   4  34
HETATM   34  O2  UNL     1       4.806   0.043  -0.205  1.00  0.00    -0.351 OA
HETATM   35  C5  UNL     1       5.446   0.240  -1.433  1.00  0.00     0.210 C 
ENDBRANCH   4  34
TORSDOF 8
