REMARK  11 active torsions:
REMARK  status: ('A' for Active; 'I' for Inactive)
REMARK    1  A    between atoms: C2_2  and  C4_4 
REMARK    2  A    between atoms: C4_4  and  C5_5 
REMARK    3  A    between atoms: C4_4  and  C9_11 
REMARK    4  A    between atoms: C5_5  and  C6_6 
REMARK    5  A    between atoms: C7_7  and  C8_8 
REMARK    6  A    between atoms: C9_11  and  C10_12 
REMARK    7  A    between atoms: C14_16  and  C15_17 
REMARK    8  A    between atoms: C17_19  and  N1_20 
REMARK    9  A    between atoms: C25_34  and  C27_36 
REMARK   10  A    between atoms: C27_36  and  C28_37 
REMARK   11  A    between atoms: C28_37  and  C29_38 
ROOT
HETATM    1  C9  UNL     1       0.444   0.380   0.312  1.00  0.00    -0.020 C 
HETATM    2  C19 UNL     1       0.500   1.367   1.467  1.00  0.00     0.012 C 
HETATM    3  C20 UNL     1      -0.893   2.007   1.576  1.00  0.00     0.012 C 
HETATM    4  C21 UNL     1      -1.658   1.627   0.414  1.00  0.00    -0.024 A 
HETATM    5  C22 UNL     1      -2.042   2.763  -0.426  1.00  0.00     0.017 C 
HETATM    6  C23 UNL     1      -2.230   0.471  -0.217  1.00  0.00     0.005 A 
HETATM    7  C24 UNL     1      -3.057   0.548  -1.458  1.00  0.00     0.180 C 
HETATM    8  O6  UNL     1      -4.360   0.729  -1.112  1.00  0.00    -0.379 OA
HETATM    9  C25 UNL     1      -4.622  -0.104  -0.054  1.00  0.00     0.062 C 
HETATM   10  C26 UNL     1      -5.471   0.681   0.930  1.00  0.00     0.046 C 
HETATM   11  C30 UNL     1      -3.293  -0.460   0.431  1.00  0.00     0.032 C 
HETATM   12  C31 UNL     1      -2.981  -0.130   1.818  1.00  0.00     0.009 C 
HETATM   13  C32 UNL     1      -1.468  -0.443   1.657  1.00  0.00     0.012 C 
HETATM   14  C33 UNL     1      -1.055   0.289   0.324  1.00  0.00    -0.013 A 
ENDROOT
BRANCH   1  15
HETATM   15  C4  UNL     1       1.187   0.634  -0.908  1.00  0.00     0.002 C 
BRANCH  15  16
HETATM   16  C2  UNL     1       1.017   1.294  -2.205  1.00  0.00    -0.018 C 
HETATM   17  C1  UNL     1       2.315   1.093  -3.022  1.00  0.00     0.010 C 
HETATM   18  C3  UNL     1       0.089   0.555  -3.193  1.00  0.00     0.010 C 
ENDBRANCH  15  16
BRANCH  15  19
HETATM   19  C5  UNL     1       2.423   1.629  -0.458  1.00  0.00     0.033 C 
BRANCH  19  20
HETATM   20  C6  UNL     1       2.021   3.044  -0.557  1.00  0.00    -0.019 C 
HETATM   21  C7  UNL     1       2.762   3.891  -1.251  1.00  0.00     0.080 C 
BRANCH  21  22
HETATM   22  C8  UNL     1       2.349   5.277  -1.338  1.00  0.00     0.198 C 
HETATM   23  O1  UNL     1       1.313   5.676  -0.771  1.00  0.00    -0.645 OA
HETATM   24  O2  UNL     1       3.133   6.153  -2.066  1.00  0.00    -0.645 OA
ENDBRANCH  21  22
ENDBRANCH  19  20
ENDBRANCH  15  19
ENDBRANCH   1  15
BRANCH   1  25
HETATM   25  C10 UNL     1       1.175  -0.822   0.983  1.00  0.00    -0.035 C 
HETATM   26  C11 UNL     1       0.870  -2.026  -0.009  1.00  0.00     0.016 C 
HETATM   27  C12 UNL     1       1.005  -1.372   2.262  1.00  0.00     0.011 C 
HETATM   28  C13 UNL     1       2.336  -2.081   2.683  1.00  0.00     0.011 C 
HETATM   29  C14 UNL     1       3.039  -2.216   1.405  1.00  0.00     0.038 C 
HETATM   30  C18 UNL     1       2.650  -0.764   0.924  1.00  0.00     0.020 C 
BRANCH  29  31
HETATM   31  C15 UNL     1       4.507  -2.240   1.632  1.00  0.00     0.041 A 
HETATM   32  C16 UNL     1       5.386  -3.107   1.022  1.00  0.00     0.092 A 
HETATM   33  C17 UNL     1       6.649  -2.811   1.496  1.00  0.00     0.237 A 
HETATM   34  O5  UNL     1       6.495  -1.823   2.336  1.00  0.00    -0.213 OA
HETATM   35  N2  UNL     1       5.250  -1.466   2.438  1.00  0.00    -0.263 N 
ATOM     36  H2  UNL     1       4.895  -0.718   3.034  1.00  0.00     0.194 HD
BRANCH  33  37
HETATM   37  N1  UNL     1       7.824  -3.489   1.100  1.00  0.00    -0.088 N 
HETATM   38  O3  UNL     1       7.805  -4.420   0.281  1.00  0.00    -0.530 OA
HETATM   39  O4  UNL     1       9.023  -3.111   1.636  1.00  0.00    -0.530 OA
ENDBRANCH  33  37
ENDBRANCH  29  31
ENDBRANCH   1  25
BRANCH   9  40
HETATM   40  C27 UNL     1      -5.415  -1.319  -0.417  1.00  0.00     0.048 C 
BRANCH  40  41
HETATM   41  C28 UNL     1      -4.808  -2.222  -1.427  1.00  0.00     0.116 C 
BRANCH  41  42
HETATM   42  C29 UNL     1      -5.761  -3.366  -1.643  1.00  0.00     0.172 C 
HETATM   43  O7  UNL     1      -5.510  -4.292  -2.450  1.00  0.00    -0.648 OA
HETATM   44  O8  UNL     1      -6.960  -3.438  -0.953  1.00  0.00    -0.648 OA
ENDBRANCH  41  42
ENDBRANCH  40  41
ENDBRANCH   9  40
TORSDOF 11
