REMARK  12 active torsions:
REMARK  status: ('A' for Active; 'I' for Inactive)
REMARK    1  A    between atoms: C4_6  and  N2_7 
REMARK    2  A    between atoms: N2_7  and  C5_8 
REMARK    3  A    between atoms: C8_11  and  C9_12 
REMARK    4  A    between atoms: C9_12  and  N3_13 
REMARK    5  A    between atoms: C16_25  and  N6_26 
REMARK    6  A    between atoms: N8_32  and  C18_33 
REMARK    7  A    between atoms: C19_35  and  C20_36 
REMARK    8  A    between atoms: C20_36  and  O2_37 
REMARK    9  A    between atoms: C21_39  and  O3_40 
REMARK   10  A    between atoms: O3_40  and  C22_41 
REMARK   11  A    between atoms: C22_41  and  N9_43 
REMARK   12  A    between atoms: C25_46  and  O4_47 
ROOT
HETATM    1  C1  UNL     1       3.234  -3.121   0.033  1.00  0.00     0.089 C 
HETATM    2  C2  UNL     1       2.395  -1.963  -0.352  1.00  0.00     0.083 A 
HETATM    3  N1  UNL     1       1.035  -2.085  -0.372  1.00  0.00    -0.339 N 
ATOM      4  H1  UNL     1       0.499  -2.918  -0.131  1.00  0.00     0.167 HD
HETATM    5  C3  UNL     1       0.538  -0.908  -0.766  1.00  0.00     0.138 A 
HETATM    6  C4  UNL     1      -0.784  -0.483  -0.962  1.00  0.00     0.218 A 
HETATM    7  N5  UNL     1      -0.944   0.791  -1.377  1.00  0.00    -0.163 N 
ATOM      8  H5  UNL     1      -1.893   1.133  -1.530  1.00  0.00     0.187 HD
HETATM    9  C16 UNL     1       0.063   1.622  -1.597  1.00  0.00     0.679 A 
HETATM   10  N7  UNL     1       1.321   1.198  -1.404  1.00  0.00    -0.174 N 
ATOM     11  H7  UNL     1       2.096   1.839  -1.575  1.00  0.00     0.186 HD
HETATM   12  C17 UNL     1       1.585  -0.065  -0.987  1.00  0.00     0.158 A 
HETATM   13  N8  UNL     1       2.757  -0.728  -0.725  1.00  0.00    -0.290 N 
ENDROOT
BRANCH   6  14
HETATM   14  N2  UNL     1      -1.713  -1.200  -0.785  1.00  0.00    -0.422 NA
BRANCH  14  15
HETATM   15  C5  UNL     1      -2.736  -2.034  -0.577  1.00  0.00     0.165 C 
HETATM   16  C6  UNL     1      -3.991  -1.825  -1.415  1.00  0.00     0.040 C 
HETATM   17  C7  UNL     1      -4.629  -0.507  -1.184  1.00  0.00     0.009 C 
HETATM   18  C8  UNL     1      -4.718  -0.085   0.241  1.00  0.00     0.014 C 
HETATM   19  C14 UNL     1      -3.611  -0.530   1.131  1.00  0.00     0.009 C 
HETATM   20  C15 UNL     1      -3.241  -1.962   0.878  1.00  0.00     0.040 C 
BRANCH  18  21
HETATM   21  C9  UNL     1      -6.037  -0.453   0.885  1.00  0.00     0.277 C 
BRANCH  21  22
HETATM   22  N3  UNL     1      -7.162   0.138   0.234  1.00  0.00     0.092 N 
HETATM   23  C10 UNL     1      -7.275   1.558   0.351  1.00  0.00     0.300 C 
HETATM   24  C11 UNL     1      -8.521   1.964  -0.446  1.00  0.00     0.262 C 
HETATM   25  N4  UNL     1      -9.721   1.427   0.123  1.00  0.00    -0.072 N 
HETATM   26  C12 UNL     1      -9.456   0.389   1.078  1.00  0.00     0.262 C 
ATOM     27  H42 UNL     1     -10.296   2.164   0.531  1.00  0.00     0.277 HD
ATOM     28  H41 UNL     1     -10.360   1.104  -0.603  1.00  0.00     0.277 HD
HETATM   29  C13 UNL     1      -8.363  -0.556   0.660  1.00  0.00     0.300 C 
ENDBRANCH  21  22
ENDBRANCH  18  21
ENDBRANCH  14  15
ENDBRANCH   6  14
BRANCH   9  30
HETATM   30  N6  UNL     1      -0.158   2.821  -1.993  1.00  0.00    -0.234 N 
ATOM     31  H62 UNL     1      -1.115   3.143  -2.140  1.00  0.00     0.174 HD
ATOM     32  H61 UNL     1       0.618   3.461  -2.162  1.00  0.00     0.174 HD
ENDBRANCH   9  30
BRANCH  13  33
HETATM   33  C18 UNL     1       4.043  -0.124  -0.856  1.00  0.00     0.263 C 
HETATM   34  O1  UNL     1       3.946   1.206  -0.415  1.00  0.00    -0.353 OA
HETATM   35  C19 UNL     1       4.606   1.306   0.795  1.00  0.00     0.180 C 
HETATM   36  C21 UNL     1       5.875   0.509   0.472  1.00  0.00     0.195 C 
HETATM   37  C25 UNL     1       5.176  -0.742  -0.127  1.00  0.00     0.199 C 
BRANCH  35  38
HETATM   38  C20 UNL     1       5.036   2.725   1.067  1.00  0.00     0.198 C 
BRANCH  38  39
HETATM   39  O2  UNL     1       3.941   3.579   1.113  1.00  0.00    -0.398 OA
ATOM     40  H2  UNL     1       4.212   4.473   1.284  1.00  0.00     0.209 HD
ENDBRANCH  38  39
ENDBRANCH  35  38
BRANCH  36  41
HETATM   41  O3  UNL     1       6.594   0.199   1.623  1.00  0.00    -0.316 OA
BRANCH  41  42
HETATM   42  C22 UNL     1       7.780  -0.528   1.517  1.00  0.00     0.212 C 
HETATM   43  S1  UNL     1       7.761  -2.112   1.927  1.00  0.00    -0.033 SA
BRANCH  42  44
HETATM   44  N9  UNL     1       8.990   0.048   1.072  1.00  0.00    -0.361 N 
HETATM   45  C23 UNL     1       9.091   1.443   0.691  1.00  0.00     0.152 C 
HETATM   46  C24 UNL     1      10.185  -0.760   0.981  1.00  0.00     0.152 C 
ENDBRANCH  42  44
ENDBRANCH  41  42
ENDBRANCH  36  41
BRANCH  37  47
HETATM   47  O4  UNL     1       6.160  -1.258  -0.998  1.00  0.00    -0.388 OA
ATOM     48  H4  UNL     1       6.886  -1.654  -0.531  1.00  0.00     0.210 HD
ENDBRANCH  37  47
ENDBRANCH  13  33
TORSDOF 12
