REMARK  9 active torsions:
REMARK  status: ('A' for Active; 'I' for Inactive)
REMARK    1  A    between atoms: C2_2  and  C3_3 
REMARK    2  A    between atoms: C2_2  and  C4_5 
REMARK    3  A    between atoms: C4_5  and  C5_6 
REMARK    4  A    between atoms: C11_12  and  C12_13 
REMARK    5  A    between atoms: C12_13  and  O1_14 
REMARK    6  A    between atoms: C14_17  and  O2_18 
REMARK    7  A    between atoms: C15_20  and  C17_22 
REMARK    8  A    between atoms: C17_22  and  C18_23 
REMARK    9  A    between atoms: C18_23  and  O3_24 
ROOT
HETATM    1  C5  UNL     1       2.496   0.663   0.439  1.00  0.00     0.056 C 
HETATM    2  C6  UNL     1       2.110  -0.387  -0.534  1.00  0.00     0.021 C 
HETATM    3  C7  UNL     1       0.638  -0.694  -0.614  1.00  0.00    -0.039 C 
HETATM    4  C8  UNL     1       0.305  -0.709  -2.116  1.00  0.00     0.015 C 
HETATM    5  C9  UNL     1       0.332  -2.044  -0.076  1.00  0.00     0.010 C 
HETATM    6  C10 UNL     1      -0.722  -2.139   0.968  1.00  0.00     0.013 C 
HETATM    7  C11 UNL     1      -1.954  -1.412   0.478  1.00  0.00    -0.012 C 
HETATM    8  C13 UNL     1      -2.904  -1.035   1.573  1.00  0.00     0.044 C 
HETATM    9  C14 UNL     1      -3.622   0.223   1.089  1.00  0.00     0.127 C 
HETATM   10  C15 UNL     1      -2.775   0.844   0.020  1.00  0.00    -0.011 C 
HETATM   11  C16 UNL     1      -2.331   2.186   0.589  1.00  0.00     0.018 C 
HETATM   12  C19 UNL     1      -1.655  -0.111  -0.207  1.00  0.00     0.012 C 
HETATM   13  C20 UNL     1      -0.261   0.392  -0.025  1.00  0.00     0.006 C 
HETATM   14  C21 UNL     1       0.164   0.815   1.335  1.00  0.00     0.084 C 
HETATM   15  C22 UNL     1       1.585   0.462   1.605  1.00  0.00     0.131 C 
HETATM   16  O4  UNL     1       1.896   0.058   2.688  1.00  0.00    -0.298 OA
ENDROOT
BRANCH   1  17
HETATM   17  C4  UNL     1       3.899   0.635   0.911  1.00  0.00     0.017 C 
BRANCH  17  18
HETATM   18  C2  UNL     1       5.003   0.808  -0.057  1.00  0.00    -0.008 C 
HETATM   19  C1  UNL     1       5.144  -0.192  -1.157  1.00  0.00     0.011 C 
BRANCH  18  20
HETATM   20  C3  UNL     1       6.324   0.740   0.745  1.00  0.00     0.090 C 
HETATM   21  S1  UNL     1       7.655   1.161  -0.409  1.00  0.00    -0.097 SA
ENDBRANCH  18  20
ENDBRANCH  17  18
ENDBRANCH   1  17
BRANCH   7  22
HETATM   22  C12 UNL     1      -2.678  -2.411  -0.435  1.00  0.00     0.174 C 
BRANCH  22  23
HETATM   23  O1  UNL     1      -3.028  -3.556   0.275  1.00  0.00    -0.400 OA
ATOM     24  H1  UNL     1      -3.476  -4.174  -0.290  1.00  0.00     0.209 HD
ENDBRANCH  22  23
ENDBRANCH   7  22
BRANCH  10  25
HETATM   25  C17 UNL     1      -3.476   1.151  -1.264  1.00  0.00     0.038 C 
BRANCH  25  26
HETATM   26  C18 UNL     1      -4.613   2.083  -1.245  1.00  0.00     0.165 C 
BRANCH  26  27
HETATM   27  O3  UNL     1      -5.095   2.163  -2.585  1.00  0.00    -0.401 OA
ATOM     28  H3  UNL     1      -5.830   2.765  -2.573  1.00  0.00     0.209 HD
ENDBRANCH  26  27
ENDBRANCH  25  26
ENDBRANCH  10  25
BRANCH   9  29
HETATM   29  O2  UNL     1      -4.897  -0.105   0.755  1.00  0.00    -0.395 OA
ATOM     30  H2  UNL     1      -5.344   0.678   0.454  1.00  0.00     0.210 HD
ENDBRANCH   9  29
TORSDOF 9
