REMARK  8 active torsions:
REMARK  status: ('A' for Active; 'I' for Inactive)
REMARK    1  A    between atoms: N1_1  and  C1_4 
REMARK    2  A    between atoms: C2_9  and  C3_10 
REMARK    3  A    between atoms: C3_10  and  S1_11 
REMARK    4  A    between atoms: S1_11  and  C4_12 
REMARK    5  A    between atoms: C4_12  and  C5_13 
REMARK    6  A    between atoms: C5_13  and  O1_14 
REMARK    7  A    between atoms: C5_13  and  O2_16 
REMARK    8  A    between atoms: N6_26  and  N7_27 
ROOT
HETATM    1  C3  UNL     1      -0.250  -0.569  -0.503  1.00  0.00     0.322 C 
HETATM    2  N4  UNL     1       0.216  -1.791   0.192  1.00  0.00    -0.015 N 
ATOM      3  H41 UNL     1      -0.402  -2.051   0.961  1.00  0.00     0.283 HD
ATOM      4  H42 UNL     1       1.065  -1.622   0.732  1.00  0.00     0.283 HD
HETATM    5  C6  UNL     1       0.386  -2.882  -0.765  1.00  0.00     0.363 C 
HETATM    6  N5  UNL     1      -0.970  -3.278  -1.108  1.00  0.00    -0.318 N 
ATOM      7  H5  UNL     1      -1.332  -4.225  -0.992  1.00  0.00     0.166 HD
HETATM    8  C7  UNL     1      -1.739  -2.190  -1.627  1.00  0.00     0.341 C 
HETATM    9  O3  UNL     1      -2.888  -2.410  -2.109  1.00  0.00    -0.245 OA
HETATM   10  N6  UNL     1      -1.156  -0.912  -1.566  1.00  0.00    -0.196 N 
ENDROOT
BRANCH   1  11
HETATM   11  C2  UNL     1      -0.992   0.209   0.510  1.00  0.00     0.139 A 
HETATM   12  N3  UNL     1      -0.708   0.532   1.751  1.00  0.00    -0.291 N 
HETATM   13  N2  UNL     1      -1.536   1.153   2.478  1.00  0.00    -0.279 N 
ATOM     14  H3  UNL     1       0.201   0.276   2.137  1.00  0.00     0.187 HD
HETATM   15  C1  UNL     1      -2.727   1.488   1.967  1.00  0.00     0.158 A 
ATOM     16  H2  UNL     1      -1.300   1.395   3.440  1.00  0.00     0.189 HD
HETATM   17  S2  UNL     1      -2.600   0.862   0.378  1.00  0.00    -0.033 SA
BRANCH  15  18
HETATM   18  N1  UNL     1      -3.715   2.114   2.548  1.00  0.00    -0.379 N 
ATOM     19  H12 UNL     1      -3.791   2.487   3.494  1.00  0.00     0.158 HD
ATOM     20  H11 UNL     1      -4.623   2.369   2.159  1.00  0.00     0.158 HD
ENDBRANCH  15  18
ENDBRANCH   1  11
BRANCH   1  21
HETATM   21  S1  UNL     1       1.141   0.310  -1.186  1.00  0.00    -0.095 SA
BRANCH  21  22
HETATM   22  C4  UNL     1       2.510   0.551  -0.070  1.00  0.00     0.139 C 
BRANCH  22  23
HETATM   23  C5  UNL     1       2.922   1.967   0.166  1.00  0.00     0.263 C 
BRANCH  23  24
HETATM   24  O1  UNL     1       1.962   2.787   0.688  1.00  0.00    -0.371 OA
ATOM     25  H1  UNL     1       2.224   3.688   0.838  1.00  0.00     0.212 HD
ENDBRANCH  23  24
BRANCH  23  26
HETATM   26  O2  UNL     1       4.089   1.963   0.974  1.00  0.00    -0.371 OA
ATOM     27  H2  UNL     1       4.351   2.864   1.124  1.00  0.00     0.212 HD
ENDBRANCH  23  26
ENDBRANCH  22  23
ENDBRANCH  21  22
ENDBRANCH   1  21
BRANCH  10  28
HETATM   28  N7  UNL     1      -1.465   0.034  -2.539  1.00  0.00    -0.336 N 
ATOM     29  H72 UNL     1      -1.042   0.961  -2.495  1.00  0.00     0.177 HD
ATOM     30  H71 UNL     1      -2.108  -0.209  -3.293  1.00  0.00     0.177 HD
ENDBRANCH  10  28
TORSDOF 8
