REMARK  19 active torsions:
REMARK  status: ('A' for Active; 'I' for Inactive)
REMARK    1  A    between atoms: N1_1  and  C1_4 
REMARK    2  A    between atoms: N3_10  and  C5_11 
REMARK    3  A    between atoms: C6_12  and  C7_13 
REMARK    4  A    between atoms: C7_13  and  O1_14 
REMARK    5  A    between atoms: O1_14  and  C8_15 
REMARK    6  A    between atoms: C9_19  and  O2_20 
REMARK    7  A    between atoms: C10_22  and  O3_23 
REMARK    8  A    between atoms: C11_25  and  N5_26 
REMARK    9  A    between atoms: C12_30  and  O4_31 
REMARK   10  A    between atoms: C13_33  and  C14_34 
REMARK   11  A    between atoms: C14_34  and  S1_35 
REMARK   12  A    between atoms: S1_35  and  C15_36 
REMARK   13  A    between atoms: C15_36  and  C16_37 
REMARK   14  A    between atoms: C16_37  and  C17_38 
REMARK   15  A    between atoms: C17_38  and  N6_39 
REMARK   16  A    between atoms: N6_39  and  C18_41 
REMARK   17  A    between atoms: C19_44  and  N8_45 
REMARK   18  A    between atoms: C20_55  and  O5_56 
REMARK   19  A    between atoms: C21_58  and  O6_59 
ROOT
HETATM    1  C5  UNL     1      -2.607   1.865  -0.304  1.00  0.00     0.155 C 
HETATM    2  C6  UNL     1      -1.628   1.055   0.473  1.00  0.00    -0.025 C 
HETATM    3  C13 UNL     1      -0.508   0.978  -0.211  1.00  0.00    -0.033 C 
HETATM    4  C20 UNL     1      -0.574   1.716  -1.488  1.00  0.00     0.179 C 
HETATM    5  C21 UNL     1      -2.017   2.035  -1.677  1.00  0.00     0.178 C 
ENDROOT
BRANCH   3   6
HETATM    6  C14 UNL     1       0.789   0.258   0.163  1.00  0.00     0.111 C 
BRANCH   6   7
HETATM    7  S1  UNL     1       1.160  -0.978  -1.070  1.00  0.00    -0.165 SA
BRANCH   7   8
HETATM    8  C15 UNL     1       2.602  -1.958  -0.842  1.00  0.00     0.076 C 
BRANCH   8   9
HETATM    9  C16 UNL     1       3.942  -1.350  -1.093  1.00  0.00     0.030 C 
BRANCH   9  10
HETATM   10  C17 UNL     1       4.228  -0.153  -0.243  1.00  0.00     0.139 C 
BRANCH  10  11
HETATM   11  N6  UNL     1       5.593   0.285  -0.552  1.00  0.00    -0.225 N 
ATOM     12  H6  UNL     1       5.715   1.174  -1.036  1.00  0.00     0.177 HD
BRANCH  11  13
HETATM   13  C18 UNL     1       6.750  -0.458  -0.216  1.00  0.00     0.692 C 
HETATM   14  N7  UNL     1       7.793  -0.480  -0.999  1.00  0.00    -0.177 N 
HETATM   15  C19 UNL     1       8.921  -1.267  -0.568  1.00  0.00     0.416 C 
ATOM     16  H7  UNL     1       7.810   0.037  -1.878  1.00  0.00     0.181 HD
HETATM   17  N9  UNL     1       9.182  -1.174   0.831  1.00  0.00    -0.274 N 
HETATM   18  N10 UNL     1       8.072  -1.270   1.635  1.00  0.00    -0.230 N 
ATOM     19  H9  UNL     1      10.122  -1.046   1.206  1.00  0.00     0.185 HD
HETATM   20  N11 UNL     1       6.850  -1.220   0.981  1.00  0.00    -0.118 N 
ATOM     21  H10 UNL     1       8.142  -1.371   2.648  1.00  0.00     0.208 HD
ATOM     22  H11 UNL     1       6.041  -1.719   1.350  1.00  0.00     0.207 HD
BRANCH  15  23
HETATM   23  N8  UNL     1      10.092  -0.750  -1.289  1.00  0.00    -0.039 N 
ATOM     24  H83 UNL     1       9.970  -0.740  -2.302  1.00  0.00     0.279 HD
ATOM     25  H82 UNL     1      10.230   0.253  -1.168  1.00  0.00     0.279 HD
ATOM     26  H81 UNL     1      10.890  -1.307  -0.984  1.00  0.00     0.279 HD
ENDBRANCH  15  23
ENDBRANCH  11  13
ENDBRANCH  10  11
ENDBRANCH   9  10
ENDBRANCH   8   9
ENDBRANCH   7   8
ENDBRANCH   6   7
ENDBRANCH   3   6
BRANCH   2  27
HETATM   27  C7  UNL     1      -1.927   0.490   1.801  1.00  0.00     0.207 C 
BRANCH  27  28
HETATM   28  O1  UNL     1      -2.967  -0.388   1.731  1.00  0.00    -0.353 OA
BRANCH  28  29
HETATM   29  C8  UNL     1      -2.798  -1.512   0.965  1.00  0.00     0.355 C 
HETATM   30  N4  UNL     1      -2.760  -2.720   1.805  1.00  0.00    -0.018 N 
HETATM   31  C9  UNL     1      -2.555  -3.835   0.907  1.00  0.00     0.352 C 
ATOM     32  H42 UNL     1      -2.069  -2.671   2.553  1.00  0.00     0.283 HD
ATOM     33  H41 UNL     1      -3.582  -2.825   2.400  1.00  0.00     0.283 HD
HETATM   34  C10 UNL     1      -3.915  -4.166   0.320  1.00  0.00     0.207 C 
HETATM   35  C11 UNL     1      -4.726  -2.898   0.121  1.00  0.00     0.249 C 
HETATM   36  C12 UNL     1      -3.807  -1.711  -0.115  1.00  0.00     0.207 C 
BRANCH  31  37
HETATM   37  O2  UNL     1      -1.989  -4.940   1.538  1.00  0.00    -0.368 OA
ATOM     38  H2  UNL     1      -1.854  -5.672   0.948  1.00  0.00     0.212 HD
ENDBRANCH  31  37
BRANCH  34  39
HETATM   39  O3  UNL     1      -3.750  -4.783  -0.911  1.00  0.00    -0.389 OA
ATOM     40  H3  UNL     1      -4.601  -4.990  -1.278  1.00  0.00     0.210 HD
ENDBRANCH  34  39
BRANCH  35  41
HETATM   41  N5  UNL     1      -5.572  -3.071  -1.025  1.00  0.00    -0.070 N 
ATOM     42  H53 UNL     1      -5.050  -3.336  -1.860  1.00  0.00     0.274 HD
ATOM     43  H52 UNL     1      -6.158  -3.903  -0.956  1.00  0.00     0.274 HD
ATOM     44  H51 UNL     1      -6.117  -2.219  -1.159  1.00  0.00     0.274 HD
ENDBRANCH  35  41
BRANCH  36  45
HETATM   45  O4  UNL     1      -3.154  -1.943  -1.350  1.00  0.00    -0.389 OA
ATOM     46  H4  UNL     1      -3.797  -2.070  -2.038  1.00  0.00     0.210 HD
ENDBRANCH  36  45
ENDBRANCH  28  29
ENDBRANCH  27  28
ENDBRANCH   2  27
BRANCH   4  47
HETATM   47  O5  UNL     1      -0.126   0.964  -2.571  1.00  0.00    -0.388 OA
ATOM     48  H5  UNL     1      -0.168   1.439  -3.393  1.00  0.00     0.210 HD
ENDBRANCH   4  47
BRANCH   1  49
HETATM   49  N3  UNL     1      -2.825   3.161   0.323  1.00  0.00    -0.316 N 
HETATM   50  C1  UNL     1      -3.969   3.843   0.178  1.00  0.00     0.141 A 
HETATM   51  C2  UNL     1      -4.176   5.069   0.769  1.00  0.00     0.166 A 
HETATM   52  C3  UNL     1      -3.175   5.652   1.555  1.00  0.00     0.183 A 
HETATM   53  O8  UNL     1      -5.243   5.959   0.776  1.00  0.00    -0.318 OA
HETATM   54  N2  UNL     1      -2.035   4.931   1.676  1.00  0.00    -0.330 N 
HETATM   55  O7  UNL     1      -3.609   6.874   2.039  1.00  0.00    -0.307 OA
HETATM   56  C4  UNL     1      -1.871   3.734   1.082  1.00  0.00     0.187 A 
ATOM     57  H2  UNL     1      -1.272   5.309   2.238  1.00  0.00     0.168 HD
HETATM   58  C22 UNL     1      -4.907   7.093   1.521  1.00  0.00     0.354 A 
BRANCH  50  59
HETATM   59  N1  UNL     1      -4.919   3.346  -0.535  1.00  0.00    -0.383 N 
ATOM     60  H12 UNL     1      -5.790   3.865  -0.645  1.00  0.00     0.157 HD
ATOM     61  H11 UNL     1      -4.766   2.438  -0.973  1.00  0.00     0.157 HD
ENDBRANCH  50  59
ENDBRANCH   1  49
BRANCH   5  62
HETATM   62  O6  UNL     1      -2.595   1.161  -2.574  1.00  0.00    -0.390 OA
ATOM     63  H6  UNL     1      -2.222   1.268  -3.441  1.00  0.00     0.210 HD
ENDBRANCH   5  62
TORSDOF 19
