REMARK  7 active torsions:
REMARK  status: ('A' for Active; 'I' for Inactive)
REMARK    1  A    between atoms: S1_2  and  N1_5 
REMARK    2  A    between atoms: C6_15  and  C7_16 
REMARK    3  A    between atoms: C8_19  and  N3_20 
REMARK    4  A    between atoms: N3_20  and  C9_22 
REMARK    5  A    between atoms: C11_27  and  C12_28 
REMARK    6  A    between atoms: C12_28  and  O5_29 
REMARK    7  A    between atoms: C13_32  and  C14_33 
ROOT
HETATM    1  N1  UNL     1      -5.029   0.739  -0.544  1.00  0.00    -0.273 N 
ATOM      2  H1  UNL     1      -5.431   1.534  -1.040  1.00  0.00     0.179 HD
HETATM    3  C2  UNL     1      -3.843   0.942  -0.177  1.00  0.00     0.102 C 
HETATM    4  N2  UNL     1      -3.245   2.218  -0.497  1.00  0.00    -0.318 N 
ATOM      5  H2  UNL     1      -3.910   2.945  -0.761  1.00  0.00     0.175 HD
HETATM    6  S2  UNL     1      -1.556   2.726  -0.506  1.00  0.00    -0.037 SA
HETATM    7  C3  UNL     1      -0.757   1.757   0.838  1.00  0.00     0.153 C 
HETATM    8  S3  UNL     1      -1.983   1.783   2.209  1.00  0.00    -0.149 SA
HETATM    9  C4  UNL     1      -3.007   0.304   1.996  1.00  0.00     0.088 C 
HETATM   10  C5  UNL     1      -3.115  -0.119   0.556  1.00  0.00     0.080 C 
HETATM   11  C6  UNL     1      -1.781  -0.370  -0.084  1.00  0.00     0.123 C 
HETATM   12  C8  UNL     1      -0.610   0.319   0.491  1.00  0.00     0.123 C 
ENDROOT
BRANCH  12  13
HETATM   13  N3  UNL     1       0.538   0.033  -0.349  1.00  0.00    -0.367 N 
ATOM     14  H3  UNL     1       0.377  -0.345  -1.282  1.00  0.00     0.161 HD
BRANCH  13  15
HETATM   15  C9  UNL     1       1.885   0.258   0.074  1.00  0.00     0.129 A 
HETATM   16  N4  UNL     1       2.282   0.733   1.250  1.00  0.00    -0.330 N 
HETATM   17  C10 UNL     1       3.652   0.797   1.268  1.00  0.00     0.096 A 
ATOM     18  H4  UNL     1       1.667   1.006   2.016  1.00  0.00     0.168 HD
HETATM   19  N5  UNL     1       4.124   0.376   0.139  1.00  0.00    -0.309 N 
HETATM   20  C15 UNL     1       4.609   1.238   2.303  1.00  0.00     0.153 C 
HETATM   21  C11 UNL     1       3.047   0.030  -0.634  1.00  0.00     0.098 A 
HETATM   22  C13 UNL     1       5.554   0.374  -0.028  1.00  0.00     0.254 C 
HETATM   23  S5  UNL     1       6.063   1.589   1.269  1.00  0.00    -0.125 SA
BRANCH  21  24
HETATM   24  C12 UNL     1       3.062  -0.506  -2.015  1.00  0.00     0.244 C 
HETATM   25  S4  UNL     1       3.445   0.807  -3.217  1.00  0.00    -0.056 SA
BRANCH  24  26
HETATM   26  O5  UNL     1       4.011  -1.509  -2.202  1.00  0.00    -0.378 OA
ATOM     27  H5  UNL     1       4.021  -1.853  -3.088  1.00  0.00     0.211 HD
ENDBRANCH  24  26
ENDBRANCH  21  24
BRANCH  22  28
HETATM   28  C14 UNL     1       6.080  -0.922   0.456  1.00  0.00     0.207 C 
HETATM   29  O6  UNL     1       5.289  -1.770   0.927  1.00  0.00    -0.646 OA
HETATM   30  O7  UNL     1       7.425  -1.251   0.413  1.00  0.00    -0.646 OA
ENDBRANCH  22  28
ENDBRANCH  13  15
ENDBRANCH  12  13
BRANCH  11  31
HETATM   31  C7  UNL     1      -1.532  -1.833  -0.089  1.00  0.00     0.179 C 
HETATM   32  O3  UNL     1      -0.533  -2.255   0.583  1.00  0.00    -0.648 OA
HETATM   33  O4  UNL     1      -2.316  -2.752  -0.774  1.00  0.00    -0.648 OA
ENDBRANCH  11  31
BRANCH   1  34
HETATM   34  S1  UNL     1      -6.092  -0.539  -0.401  1.00  0.00     0.228 S 
HETATM   35  C1  UNL     1      -6.673  -0.669   1.293  1.00  0.00     0.186 C 
HETATM   36  O1  UNL     1      -5.567  -1.875  -0.814  1.00  0.00    -0.206 OA
HETATM   37  O2  UNL     1      -7.348  -0.327  -1.254  1.00  0.00    -0.206 OA
ENDBRANCH   1  34
TORSDOF 7
