REMARK  2 active torsions:
REMARK  status: ('A' for Active; 'I' for Inactive)
REMARK    1  A    between atoms: C4_8  and  C5_9 
REMARK    2  A    between atoms: N3_18  and  C9_19 
ROOT
HETATM    1  C5  UNL     1       0.762   1.218  -0.500  1.00  0.00     0.065 A 
HETATM    2  C6  UNL     1       1.550   2.314  -0.254  1.00  0.00     0.106 A 
HETATM    3 BR1  UNL     1       3.350   2.342  -0.824  1.00  0.00    -0.043 Br
HETATM    4  C7  UNL     1       1.032   3.454   0.375  1.00  0.00     0.269 A 
HETATM    5  O3  UNL     1       1.791   4.444   0.586  1.00  0.00    -0.267 OA
HETATM    6  N2  UNL     1      -0.245   3.445   0.725  1.00  0.00    -0.274 N 
ATOM      7  H2  UNL     1      -0.646   4.263   1.184  1.00  0.00     0.173 HD
HETATM    8  C8  UNL     1      -1.018   2.376   0.485  1.00  0.00     0.331 A 
HETATM    9  O4  UNL     1      -2.213   2.438   0.841  1.00  0.00    -0.246 OA
HETATM   10  N3  UNL     1      -0.553   1.267  -0.116  1.00  0.00    -0.267 N 
ENDROOT
BRANCH  10  11
HETATM   11  C9  UNL     1      -1.354   0.123  -0.378  1.00  0.00     0.320 C 
HETATM   12  C10 UNL     1      -1.417  -0.865   0.783  1.00  0.00     0.287 C 
HETATM   13  N4  UNL     1      -1.948  -2.100   0.199  1.00  0.00    -0.070 N 
HETATM   14  C11 UNL     1      -3.230  -1.911  -0.405  1.00  0.00     0.260 C 
ATOM     15  H42 UNL     1      -1.287  -2.508  -0.462  1.00  0.00     0.277 HD
ATOM     16  H41 UNL     1      -1.974  -2.851   0.889  1.00  0.00     0.277 HD
HETATM   17  C12 UNL     1      -3.189  -0.811  -1.453  1.00  0.00     0.262 C 
HETATM   18  N5  UNL     1      -2.731   0.395  -0.736  1.00  0.00    -0.050 N 
ATOM     19  H52 UNL     1      -3.320   0.652   0.056  1.00  0.00     0.279 HD
ATOM     20  H51 UNL     1      -2.857   1.260  -1.262  1.00  0.00     0.279 HD
ENDBRANCH  10  11
BRANCH   1  21
HETATM   21  C4  UNL     1       1.320   0.023  -1.099  1.00  0.00     0.056 C 
HETATM   22  C3  UNL     1       2.230  -0.761  -0.621  1.00  0.00     0.080 C 
HETATM   23  C2  UNL     1       3.019  -0.807   0.600  1.00  0.00     0.266 C 
HETATM   24  S1  UNL     1       2.897  -2.211  -1.520  1.00  0.00    -0.024 SA
HETATM   25  N1  UNL     1       4.216  -1.513   0.526  1.00  0.00    -0.283 N 
HETATM   26  O2  UNL     1       2.607  -0.223   1.670  1.00  0.00    -0.267 OA
HETATM   27  C1  UNL     1       4.517  -2.098  -0.717  1.00  0.00     0.291 C 
ATOM     28  H1  UNL     1       4.840  -1.601   1.328  1.00  0.00     0.172 HD
HETATM   29  O1  UNL     1       5.566  -2.476  -1.233  1.00  0.00    -0.260 OA
ENDBRANCH   1  21
TORSDOF 2
