REMARK  2 active torsions:
REMARK  status: ('A' for Active; 'I' for Inactive)
REMARK    1  A    between atoms: C1_2  and  C2_4 
REMARK    2  A    between atoms: C6_8  and  N2_9 
ROOT
HETATM    1  C2  UNL     1       2.344   0.975  -0.298  1.00  0.00     0.054 A 
HETATM    2  C3  UNL     1       0.962   1.062  -0.316  1.00  0.00     0.029 A 
HETATM    3  C4  UNL     1       0.171  -0.039  -0.063  1.00  0.00     0.001 A 
HETATM    4  C5  UNL     1       0.784  -1.265   0.216  1.00  0.00     0.071 A 
HETATM    5  C6  UNL     1       2.175  -1.323   0.227  1.00  0.00     0.152 A 
HETATM    6  C7  UNL     1       2.963  -0.227  -0.024  1.00  0.00     0.084 A 
HETATM    7 CL1  UNL     1       4.700  -0.433   0.020  1.00  0.00    -0.081 Cl
HETATM    8  N3  UNL     1      -0.260  -2.208   0.433  1.00  0.00    -0.385 N 
ATOM      9  H3  UNL     1      -0.221  -3.051   1.006  1.00  0.00     0.159 HD
HETATM   10  C8  UNL     1      -1.407  -1.711  -0.342  1.00  0.00     0.154 C 
HETATM   11  C9  UNL     1      -1.311  -0.230  -0.019  1.00  0.00     0.167 C 
HETATM   12  C10 UNL     1      -1.852  -0.039   1.334  1.00  0.00     0.248 C 
HETATM   13  O4  UNL     1      -1.103  -0.163   2.321  1.00  0.00    -0.271 OA
HETATM   14  N4  UNL     1      -3.214   0.283   1.501  1.00  0.00    -0.300 N 
ATOM     15  H4  UNL     1      -3.655   0.168   2.413  1.00  0.00     0.171 HD
HETATM   16  C11 UNL     1      -3.905   0.723   0.505  1.00  0.00     0.197 C 
HETATM   17  N5  UNL     1      -5.277   1.026   0.756  1.00  0.00    -0.063 NA
HETATM   18  N6  UNL     1      -3.373   0.912  -0.798  1.00  0.00    -0.300 N 
ATOM     19  H6  UNL     1      -3.961   1.262  -1.554  1.00  0.00     0.171 HD
HETATM   20  C12 UNL     1      -2.005   0.604  -1.027  1.00  0.00     0.248 C 
HETATM   21  O5  UNL     1      -1.402   1.016  -2.037  1.00  0.00    -0.271 OA
ENDROOT
BRANCH   1  22
HETATM   22  C1  UNL     1       3.199   2.121  -0.561  1.00  0.00     0.266 C 
HETATM   23  N1  UNL     1       4.613   2.036  -0.545  1.00  0.00    -0.057 NA
HETATM   24  O1  UNL     1       2.641   3.217  -0.809  1.00  0.00    -0.271 OA
ENDBRANCH   1  22
BRANCH   5  25
HETATM   25  N2  UNL     1       2.775  -2.574   0.512  1.00  0.00    -0.112 N 
HETATM   26  O2  UNL     1       2.724  -2.967   1.711  1.00  0.00    -0.532 OA
HETATM   27  O3  UNL     1       3.390  -3.360  -0.409  1.00  0.00    -0.532 OA
ENDBRANCH   5  25
TORSDOF 2
