REMARK  4 active torsions:
REMARK  status: ('A' for Active; 'I' for Inactive)
REMARK    1  A    between atoms: N1_1  and  C1_4 
REMARK    2  A    between atoms: C3_9  and  C4_10 
REMARK    3  A    between atoms: N4_17  and  C8_18 
REMARK    4  A    between atoms: C8_18  and  C9_19 
ROOT
HETATM    1  C4  UNL     1       0.844   1.132   0.033  1.00  0.00     0.165 C 
HETATM    2  C5  UNL     1       1.001   2.141  -1.134  1.00  0.00     0.264 C 
HETATM    3  N3  UNL     1       0.518   3.394  -0.529  1.00  0.00    -0.071 N 
ATOM      4  H31 UNL     1       0.301   4.095  -1.237  1.00  0.00     0.277 HD
ATOM      5  H32 UNL     1       1.265   3.891  -0.044  1.00  0.00     0.277 HD
HETATM    6  C6  UNL     1      -0.618   3.144   0.346  1.00  0.00     0.252 C 
HETATM    7  C7  UNL     1      -1.427   1.981  -0.169  1.00  0.00     0.150 C 
HETATM    8  N4  UNL     1      -0.602   0.791  -0.167  1.00  0.00    -0.375 N 
ENDROOT
BRANCH   1   9
HETATM    9  C3  UNL     1       1.764   0.032  -0.147  1.00  0.00     0.107 A 
HETATM   10  C2  UNL     1       2.606  -0.353   0.873  1.00  0.00     0.229 A 
HETATM   11  N2  UNL     1       3.443  -1.380   0.829  1.00  0.00    -0.163 N 
HETATM   12  F1  UNL     1       2.662   0.395   2.045  1.00  0.00    -0.183 F 
HETATM   13  C1  UNL     1       3.474  -2.143  -0.314  1.00  0.00     0.692 A 
ATOM     14  H2  UNL     1       4.047  -1.598   1.621  1.00  0.00     0.186 HD
HETATM   15  N7  UNL     1       2.670  -1.795  -1.282  1.00  0.00    -0.132 N 
HETATM   16  N6  UNL     1       1.817  -0.757  -1.289  1.00  0.00    -0.284 N 
ATOM     17  H7  UNL     1       2.692  -2.373  -2.122  1.00  0.00     0.205 HD
ATOM     18  H6  UNL     1       1.232  -0.556  -2.100  1.00  0.00     0.187 HD
BRANCH  13  19
HETATM   19  N1  UNL     1       4.316  -3.137  -0.369  1.00  0.00    -0.233 N 
ATOM     20  H12 UNL     1       4.944  -3.409   0.387  1.00  0.00     0.174 HD
ATOM     21  H11 UNL     1       4.339  -3.703  -1.217  1.00  0.00     0.174 HD
ENDBRANCH  13  19
ENDBRANCH   1   9
BRANCH   8  22
HETATM   22  C8  UNL     1      -1.097  -0.445  -0.463  1.00  0.00     0.111 C 
BRANCH  22  23
HETATM   23  C9  UNL     1      -1.994  -1.215   0.096  1.00  0.00     0.091 A 
HETATM   24  S1  UNL     1      -2.426  -2.845  -0.595  1.00  0.00    -0.054 SA
HETATM   25  C10 UNL     1      -3.656  -3.269   0.594  1.00  0.00     0.146 A 
HETATM   26  S2  UNL     1      -4.542  -4.666   0.676  1.00  0.00    -0.052 SA
HETATM   27  N5  UNL     1      -3.731  -2.157   1.471  1.00  0.00    -0.307 N 
HETATM   28  C11 UNL     1      -2.863  -1.098   1.216  1.00  0.00     0.265 A 
ATOM     29  H5  UNL     1      -4.389  -2.134   2.250  1.00  0.00     0.170 HD
HETATM   30  O1  UNL     1      -2.871  -0.077   1.988  1.00  0.00    -0.267 OA
ENDBRANCH  22  23
ENDBRANCH   8  22
TORSDOF 4
