REMARK  3 active torsions:
REMARK  status: ('A' for Active; 'I' for Inactive)
REMARK    1  A    between atoms: N1_2  and  C2_4 
REMARK    2  A    between atoms: C3_7  and  C4_8 
REMARK    3  A    between atoms: C5_15  and  N6_16 
ROOT
HETATM    1  C2  UNL     1      -1.519   0.148   0.043  1.00  0.00     0.134 A 
HETATM    2  N2  UNL     1      -0.273  -0.415  -0.039  1.00  0.00    -0.324 N 
ATOM      3  H2  UNL     1      -0.196  -1.385  -0.344  1.00  0.00     0.169 HD
HETATM    4  C3  UNL     1       0.844   0.250   0.262  1.00  0.00     0.154 A 
HETATM    5  N7  UNL     1       0.674   1.546   0.662  1.00  0.00    -0.274 N 
ATOM      6  H7  UNL     1       1.510   2.080   0.899  1.00  0.00     0.189 HD
HETATM    7  N8  UNL     1      -0.477   2.150   0.763  1.00  0.00    -0.221 N 
HETATM    8  C6  UNL     1      -0.878   3.400   1.130  1.00  0.00     0.202 A 
HETATM    9 CL1  UNL     1       0.241   4.670   1.623  1.00  0.00    -0.043 Cl
HETATM   10  N9  UNL     1      -2.209   3.439   1.038  1.00  0.00    -0.320 N 
ATOM     11  H9  UNL     1      -2.788   4.251   1.252  1.00  0.00     0.169 HD
HETATM   12  C7  UNL     1      -2.668   2.261   0.626  1.00  0.00     0.149 A 
HETATM   13  C8  UNL     1      -4.065   1.966   0.421  1.00  0.00     0.120 C 
HETATM   14  N10 UNL     1      -5.199   1.743   0.267  1.00  0.00    -0.190 NA
HETATM   15  C9  UNL     1      -1.580   1.447   0.452  1.00  0.00     0.140 A 
ENDROOT
BRANCH   1  16
HETATM   16  N1  UNL     1      -2.577  -0.492  -0.245  1.00  0.00    -0.379 N 
HETATM   17  C1  UNL     1      -2.618  -1.864  -0.685  1.00  0.00     0.147 C 
ATOM     18  H1  UNL     1      -3.465   0.002  -0.158  1.00  0.00     0.160 HD
ENDBRANCH   1  16
BRANCH   4  19
HETATM   19  C4  UNL     1       2.182  -0.302   0.191  1.00  0.00     0.140 A 
HETATM   20  N3  UNL     1       3.336   0.364   0.495  1.00  0.00    -0.279 N 
HETATM   21  N4  UNL     1       4.371  -0.434   0.322  1.00  0.00    -0.240 N 
ATOM     22  H3  UNL     1       3.389   1.333   0.809  1.00  0.00     0.189 HD
HETATM   23  N5  UNL     1       3.956  -1.619  -0.089  1.00  0.00    -0.269 N 
ATOM     24  H4  UNL     1       5.345  -0.176   0.481  1.00  0.00     0.208 HD
HETATM   25  C5  UNL     1       2.585  -1.551  -0.175  1.00  0.00     0.147 A 
ATOM     26  H5  UNL     1       4.540  -2.428  -0.302  1.00  0.00     0.190 HD
BRANCH  25  27
HETATM   27  N6  UNL     1       1.881  -2.549  -0.549  1.00  0.00    -0.382 N 
ATOM     28  H62 UNL     1       0.864  -2.499  -0.613  1.00  0.00     0.157 HD
ATOM     29  H61 UNL     1       2.183  -3.484  -0.823  1.00  0.00     0.157 HD
ENDBRANCH  25  27
ENDBRANCH   4  19
TORSDOF 3
