REMARK  3 active torsions:
REMARK  status: ('A' for Active; 'I' for Inactive)
REMARK    1  A    between atoms: N1_1  and  C1_4 
REMARK    2  A    between atoms: C3_12  and  C4_13 
REMARK    3  A    between atoms: C5_16  and  N6_17 
ROOT
HETATM    1  C4  UNL     1       1.404  -0.569  -0.329  1.00  0.00     0.126 A 
HETATM    2  N5  UNL     1       0.193   0.034  -0.032  1.00  0.00    -0.184 N 
ATOM      3  H5  UNL     1       0.196   1.000   0.295  1.00  0.00     0.184 HD
HETATM    4  C5  UNL     1      -0.961  -0.586  -0.154  1.00  0.00     0.695 A 
HETATM    5  N7  UNL     1      -0.971  -1.856  -0.585  1.00  0.00    -0.130 N 
ATOM      6  H7  UNL     1      -1.862  -2.342  -0.682  1.00  0.00     0.205 HD
HETATM    7  N8  UNL     1       0.129  -2.481  -0.882  1.00  0.00    -0.270 N 
ATOM      8  H8  UNL     1       0.086  -3.447  -1.208  1.00  0.00     0.189 HD
HETATM    9  C10 UNL     1       1.354  -1.858  -0.763  1.00  0.00     0.144 A 
HETATM   10  N9  UNL     1       2.378  -2.547  -1.076  1.00  0.00    -0.383 N 
ATOM     11  H91 UNL     1       2.341  -3.513  -1.401  1.00  0.00     0.157 HD
ATOM     12  H92 UNL     1       3.284  -2.086  -0.988  1.00  0.00     0.157 HD
ENDROOT
BRANCH   1  13
HETATM   13  C3  UNL     1       2.581   0.239  -0.144  1.00  0.00     0.123 A 
HETATM   14  C1  UNL     1       3.877  -0.055  -0.344  1.00  0.00     0.130 A 
HETATM   15  N2  UNL     1       4.873   0.879  -0.105  1.00  0.00    -0.336 N 
HETATM   16  C2  UNL     1       4.583   2.096   0.331  1.00  0.00     0.199 A 
ATOM     17  H2  UNL     1       5.847   0.625  -0.268  1.00  0.00     0.168 HD
HETATM   18  N3  UNL     1       3.297   2.392   0.532  1.00  0.00    -0.296 N 
HETATM   19  N4  UNL     1       2.350   1.525   0.311  1.00  0.00    -0.294 N 
ATOM     20  H3  UNL     1       3.049   3.323   0.868  1.00  0.00     0.187 HD
ATOM     21  H4  UNL     1       1.386   1.810   0.483  1.00  0.00     0.187 HD
BRANCH  14  22
HETATM   22  N1  UNL     1       4.243  -1.202  -0.762  1.00  0.00    -0.383 N 
ATOM     23  H12 UNL     1       5.227  -1.425  -0.914  1.00  0.00     0.157 HD
ATOM     24  H11 UNL     1       3.510  -1.889  -0.938  1.00  0.00     0.157 HD
ENDBRANCH  14  22
ENDBRANCH   1  13
BRANCH   4  25
HETATM   25  N6  UNL     1      -2.200   0.071   0.162  1.00  0.00    -0.212 N 
HETATM   26  C6  UNL     1      -3.415  -0.667   0.025  1.00  0.00     0.167 C 
HETATM   27  C7  UNL     1      -4.544  -0.145   0.850  1.00  0.00     0.188 C 
HETATM   28  O1  UNL     1      -4.250   1.028   1.525  1.00  0.00    -0.388 OA
HETATM   29  C8  UNL     1      -3.563   1.943   0.736  1.00  0.00     0.188 C 
HETATM   30  C9  UNL     1      -2.140   1.452   0.604  1.00  0.00     0.167 C 
ENDBRANCH   4  25
TORSDOF 3
