REMARK  9 active torsions:
REMARK  status: ('A' for Active; 'I' for Inactive)
REMARK    1  A    between atoms: O1_2  and  C2_3 
REMARK    2  A    between atoms: C5_6  and  C6_7 
REMARK    3  A    between atoms: C6_7  and  C7_8 
REMARK    4  A    between atoms: C7_8  and  C8_9 
REMARK    5  A    between atoms: C8_9  and  O2_10 
REMARK    6  A    between atoms: C8_9  and  C9_12 
REMARK    7  A    between atoms: C9_12  and  O3_13 
REMARK    8  A    between atoms: C9_12  and  C10_15 
REMARK    9  A    between atoms: C14_21  and  O6_22 
ROOT
HETATM    1  C7  UNL     1       0.739   0.555  -0.323  1.00  0.00     0.039 C 
ENDROOT
BRANCH   1   2
HETATM    2  C6  UNL     1      -0.344   0.464  -1.397  1.00  0.00     0.041 C 
BRANCH   2   3
HETATM    3  C5  UNL     1      -1.649   0.127  -0.802  1.00  0.00    -0.055 A 
HETATM    4  C4  UNL     1      -2.487   1.144  -0.389  1.00  0.00     0.010 A 
HETATM    5  C3  UNL     1      -3.688   0.807   0.158  1.00  0.00     0.040 A 
HETATM    6  C2  UNL     1      -4.116  -0.509   0.322  1.00  0.00     0.101 A 
HETATM    7  C14 UNL     1      -3.280  -1.517  -0.090  1.00  0.00     0.099 A 
HETATM    8  C13 UNL     1      -2.067  -1.196  -0.643  1.00  0.00     0.046 A 
BRANCH   6   9
HETATM    9  O1  UNL     1      -5.336  -0.832   0.878  1.00  0.00    -0.353 OA
HETATM   10  C1  UNL     1      -6.191   0.220   1.300  1.00  0.00     0.210 C 
ENDBRANCH   6   9
BRANCH   7  11
HETATM   11  O6  UNL     1      -3.659  -2.844   0.050  1.00  0.00    -0.358 OA
ATOM     12  H6  UNL     1      -3.080  -3.542  -0.235  1.00  0.00     0.217 HD
ENDBRANCH   7  11
ENDBRANCH   2   3
ENDBRANCH   1   2
BRANCH   1  13
HETATM   13  C8  UNL     1       2.072   0.907  -1.001  1.00  0.00     0.149 C 
BRANCH  13  14
HETATM   14  O2  UNL     1       1.855   2.158  -1.660  1.00  0.00    -0.393 OA
ATOM     15  H2  UNL     1       2.679   2.376  -2.079  1.00  0.00     0.210 HD
ENDBRANCH  13  14
BRANCH  13  16
HETATM   16  C9  UNL     1       3.116   1.111   0.035  1.00  0.00     0.178 C 
BRANCH  16  17
HETATM   17  O3  UNL     1       2.778   1.984   1.056  1.00  0.00    -0.390 OA
ATOM     18  H3  UNL     1       3.446   2.115   1.719  1.00  0.00     0.210 HD
ENDBRANCH  16  17
BRANCH  16  19
HETATM   19  C10 UNL     1       3.843  -0.045   0.542  1.00  0.00     0.179 C 
HETATM   20  C11 UNL     1       3.254  -0.907   1.598  1.00  0.00     0.205 C 
HETATM   21  O4  UNL     1       4.311  -1.878   1.685  1.00  0.00    -0.364 OA
HETATM   22  C12 UNL     1       4.857  -1.945   0.432  1.00  0.00     0.338 C 
HETATM   23  O5  UNL     1       4.194  -1.026  -0.409  1.00  0.00    -0.357 OA
ENDBRANCH  16  19
ENDBRANCH  13  16
ENDBRANCH   1  13
TORSDOF 9
