REMARK  2 active torsions:
REMARK  status: ('A' for Active; 'I' for Inactive)
REMARK    1  A    between atoms: C1_2  and  C2_4 
REMARK    2  A    between atoms: C3_7  and  N3_8 
ROOT
HETATM    1  C2  UNL     1      -0.589   0.125  -0.197  1.00  0.00     0.141 A 
HETATM    2  N2  UNL     1       0.438   0.993  -0.235  1.00  0.00    -0.326 N 
ATOM      3  H2  UNL     1       0.284   1.936  -0.593  1.00  0.00     0.168 HD
HETATM    4  C3  UNL     1       1.663   0.640   0.191  1.00  0.00     0.243 A 
HETATM    5  C4  UNL     1       1.842  -0.644   0.672  1.00  0.00     0.297 A 
HETATM    6  O4  UNL     1       2.983  -0.985   1.073  1.00  0.00    -0.264 OA
HETATM    7  N4  UNL     1       0.814  -1.509   0.709  1.00  0.00    -0.306 N 
ATOM      8  H4  UNL     1       0.973  -2.450   1.069  1.00  0.00     0.170 HD
HETATM    9  C5  UNL     1      -0.416  -1.174   0.287  1.00  0.00     0.151 A 
HETATM   10  N5  UNL     1      -1.484  -2.106   0.337  1.00  0.00    -0.080 NA
ENDROOT
BRANCH   1  11
HETATM   11  C1  UNL     1      -1.926   0.486  -0.653  1.00  0.00     0.284 C 
HETATM   12  N1  UNL     1      -2.204   1.783  -1.163  1.00  0.00    -0.056 NA
HETATM   13  O1  UNL     1      -2.865  -0.340  -0.608  1.00  0.00    -0.269 OA
ENDBRANCH   1  11
BRANCH   4  14
HETATM   14  N3  UNL     1       2.764   1.542   0.161  1.00  0.00    -0.092 N 
HETATM   15  O2  UNL     1       3.940   1.190  -0.011  1.00  0.00    -0.530 OA
HETATM   16  O3  UNL     1       2.497   2.872   0.333  1.00  0.00    -0.530 OA
ENDBRANCH   4  14
TORSDOF 2
