REMARK  5 active torsions:
REMARK  status: ('A' for Active; 'I' for Inactive)
REMARK    1  A    between atoms: C2_2  and  N1_3 
REMARK    2  A    between atoms: C5_6  and  C6_7 
REMARK    3  A    between atoms: C7_8  and  C8_9 
REMARK       I    between atoms: C8_9  and  N2_11 
REMARK    4  A    between atoms: N2_11  and  C9_13 
REMARK    5  A    between atoms: C10_15  and  C11_16 
ROOT
HETATM    1  C6  UNL     1      -0.443  -0.232   0.077  1.00  0.00    -0.011 C 
HETATM    2  C7  UNL     1       0.076   0.902   0.447  1.00  0.00     0.071 C 
ENDROOT
BRANCH   2   3
HETATM    3  C8  UNL     1       1.495   1.061   0.641  1.00  0.00     0.246 C 
HETATM    4  O1  UNL     1       1.987   2.190   1.006  1.00  0.00    -0.268 OA
HETATM    5  N2  UNL     1       2.394   0.002   0.441  1.00  0.00    -0.314 N 
ATOM      6  H2  UNL     1       2.053  -0.914   0.150  1.00  0.00     0.170 HD
BRANCH   5   7
HETATM    7  C9  UNL     1       3.784   0.218   0.648  1.00  0.00     0.103 C 
HETATM    8 CL1  UNL     1       4.314   0.715   2.215  1.00  0.00    -0.065 Cl
HETATM    9  C10 UNL     1       4.602   0.025  -0.378  1.00  0.00     0.024 C 
BRANCH   9  10
HETATM   10  C11 UNL     1       6.051   0.254  -0.148  1.00  0.00    -0.031 C 
HETATM   11  C12 UNL     1       6.515  -0.690   0.924  1.00  0.00     0.019 C 
HETATM   12  C13 UNL     1       6.234   1.692   0.272  1.00  0.00     0.019 C 
HETATM   13  C14 UNL     1       6.796  -0.030  -1.443  1.00  0.00     0.019 C 
ENDBRANCH   9  10
ENDBRANCH   5   7
ENDBRANCH   2   3
BRANCH   1  14
HETATM   14  C5  UNL     1      -1.920  -0.331  -0.106  1.00  0.00    -0.018 C 
HETATM   15  C4  UNL     1      -2.445   0.616  -1.135  1.00  0.00     0.041 C 
HETATM   16  C3  UNL     1      -3.959   0.726  -0.913  1.00  0.00     0.238 C 
HETATM   17  N1  UNL     1      -4.409  -0.497  -0.324  1.00  0.00    -0.067 N 
HETATM   18  C16 UNL     1      -4.043  -0.472   1.095  1.00  0.00     0.238 C 
HETATM   19  C18 UNL     1      -3.776  -1.670  -0.932  1.00  0.00     0.238 C 
HETATM   20  C15 UNL     1      -2.589  -0.096   1.230  1.00  0.00     0.041 C 
HETATM   21  C17 UNL     1      -2.312  -1.740  -0.542  1.00  0.00     0.041 C 
BRANCH  17  22
HETATM   22  C2  UNL     1      -5.831  -0.666  -0.483  1.00  0.00     0.233 C 
HETATM   23  C1  UNL     1      -6.636   0.516  -0.055  1.00  0.00     0.035 C 
ENDBRANCH  17  22
ENDBRANCH   1  14
TORSDOF 5
