REMARK  7 active torsions:
REMARK  status: ('A' for Active; 'I' for Inactive)
REMARK    1  A    between atoms: C4_7  and  C5_8 
REMARK    2  A    between atoms: C5_8  and  C6_9 
REMARK    3  A    between atoms: C6_9  and  C7_10 
REMARK    4  A    between atoms: C7_10  and  C8_11 
REMARK    5  A    between atoms: C8_11  and  C9_12 
REMARK    6  A    between atoms: C9_12  and  N2_13 
REMARK    7  A    between atoms: C12_16  and  O2_17 
ROOT
HETATM    1  C6  UNL     1       0.777   0.809  -0.062  1.00  0.00     0.001 C 
ENDROOT
BRANCH   1   2
HETATM    2  C5  UNL     1       1.701   0.063   0.839  1.00  0.00     0.016 C 
BRANCH   2   3
HETATM    3  C4  UNL     1       2.741  -0.768   0.128  1.00  0.00     0.102 C 
HETATM    4  C3  UNL     1       3.553  -1.422   1.187  1.00  0.00     0.225 C 
HETATM    5  N1  UNL     1       4.903  -1.737   0.890  1.00  0.00    -0.335 N 
HETATM    6  O1  UNL     1       3.089  -1.702   2.325  1.00  0.00    -0.273 OA
HETATM    7  C2  UNL     1       5.593  -0.941  -0.091  1.00  0.00     0.218 C 
ATOM      8  H1  UNL     1       5.374  -2.510   1.360  1.00  0.00     0.165 HD
HETATM    9  C1  UNL     1       6.343   0.142   0.654  1.00  0.00     0.063 C 
HETATM   10  O3  UNL     1       4.791  -0.442  -1.093  1.00  0.00    -0.366 OA
HETATM   11  C15 UNL     1       3.649   0.184  -0.620  1.00  0.00     0.184 C 
ENDBRANCH   2   3
ENDBRANCH   1   2
BRANCH   1  12
HETATM   12  C7  UNL     1       0.023  -0.162  -0.941  1.00  0.00     0.002 C 
BRANCH  12  13
HETATM   13  C8  UNL     1      -0.898   0.638  -1.833  1.00  0.00     0.030 C 
BRANCH  13  14
HETATM   14  C9  UNL     1      -1.879   1.442  -1.009  1.00  0.00     0.272 C 
BRANCH  14  15
HETATM   15  N2  UNL     1      -2.679   0.531  -0.190  1.00  0.00     0.088 N 
HETATM   16  C10 UNL     1      -3.592   1.365   0.569  1.00  0.00     0.275 C 
HETATM   17  C11 UNL     1      -4.502   0.543   1.453  1.00  0.00     0.062 C 
HETATM   18  C12 UNL     1      -4.760  -0.823   0.849  1.00  0.00     0.121 C 
HETATM   19  C13 UNL     1      -4.791  -0.647  -0.651  1.00  0.00     0.062 C 
HETATM   20  C14 UNL     1      -3.391  -0.337  -1.111  1.00  0.00     0.275 C 
BRANCH  18  21
HETATM   21  O2  UNL     1      -5.975  -1.312   1.322  1.00  0.00    -0.395 OA
ATOM     22  H2  UNL     1      -6.137  -2.168   0.943  1.00  0.00     0.210 HD
ENDBRANCH  18  21
ENDBRANCH  14  15
ENDBRANCH  13  14
ENDBRANCH  12  13
ENDBRANCH   1  12
TORSDOF 7
