REMARK  5 active torsions:
REMARK  status: ('A' for Active; 'I' for Inactive)
REMARK    1  A    between atoms: C4_4  and  N1_5 
REMARK       I    between atoms: N1_5  and  C5_7 
REMARK    2  A    between atoms: C5_7  and  C6_9 
REMARK    3  A    between atoms: C9_12  and  S1_13 
REMARK    4  A    between atoms: S1_13  and  C10_14 
REMARK    5  A    between atoms: C14_18  and  N2_19 
ROOT
HETATM    1  C6  UNL     1       0.100   0.477   0.659  1.00  0.00     0.034 A 
HETATM    2  C7  UNL     1      -0.536  -0.665   1.087  1.00  0.00     0.018 A 
HETATM    3  C8  UNL     1      -1.919  -0.649   1.306  1.00  0.00     0.022 A 
HETATM    4  C9  UNL     1      -2.656   0.491   1.100  1.00  0.00     0.034 A 
HETATM    5  C14 UNL     1      -2.026   1.633   0.675  1.00  0.00     0.120 A 
HETATM    6  C15 UNL     1      -0.658   1.614   0.459  1.00  0.00     0.054 A 
ENDROOT
BRANCH   1   7
HETATM    7  C5  UNL     1       1.546   0.491   0.417  1.00  0.00     0.256 C 
HETATM    8  N1  UNL     1       2.307  -0.667   0.469  1.00  0.00    -0.317 N 
ATOM      9  H1  UNL     1       1.813  -1.533   0.683  1.00  0.00     0.169 HD
HETATM   10  O1  UNL     1       2.056   1.602   0.161  1.00  0.00    -0.267 OA
BRANCH   8  11
HETATM   11  C4  UNL     1       3.730  -0.765   0.249  1.00  0.00     0.077 A 
HETATM   12  C3  UNL     1       4.660   0.185  -0.050  1.00  0.00     0.045 A 
HETATM   13  C2  UNL     1       5.944  -0.210  -0.203  1.00  0.00    -0.046 A 
HETATM   14  C1  UNL     1       7.066   0.767  -0.537  1.00  0.00     0.049 C 
HETATM   15  C16 UNL     1       6.212  -1.538  -0.046  1.00  0.00    -0.013 A 
HETATM   16  S2  UNL     1       4.693  -2.205   0.308  1.00  0.00    -0.077 SA
HETATM   17  C17 UNL     1       7.529  -2.248  -0.156  1.00  0.00     0.057 C 
ENDBRANCH   8  11
ENDBRANCH   1   7
BRANCH   5  18
HETATM   18  N2  UNL     1      -2.728   2.847   0.452  1.00  0.00    -0.114 N 
HETATM   19  O2  UNL     1      -2.306   3.659  -0.361  1.00  0.00    -0.532 OA
HETATM   20  O3  UNL     1      -3.874   3.089   1.157  1.00  0.00    -0.532 OA
ENDBRANCH   5  18
BRANCH   4  21
HETATM   21  S1  UNL     1      -4.403   0.490   1.383  1.00  0.00    -0.118 SA
BRANCH  21  22
HETATM   22  C10 UNL     1      -5.356  -0.031  -0.040  1.00  0.00     0.002 C 
HETATM   23  C11 UNL     1      -5.097  -1.513  -0.358  1.00  0.00     0.026 C 
HETATM   24  C12 UNL     1      -5.015   0.707  -1.315  1.00  0.00     0.026 C 
HETATM   25  C13 UNL     1      -6.834   0.144   0.217  1.00  0.00     0.026 C 
ENDBRANCH  21  22
ENDBRANCH   4  21
TORSDOF 5
