REMARK  4 active torsions:
REMARK  status: ('A' for Active; 'I' for Inactive)
REMARK    1  A    between atoms: C2_2  and  N1_3 
REMARK    2  A    between atoms: C2_2  and  C8_10 
REMARK    3  A    between atoms: N1_3  and  C4_5 
REMARK    4  A    between atoms: C8_10  and  C11_13 
ROOT
HETATM    1  C1  UNL     1      -0.777  -1.888   0.981  1.00  0.00     0.033 C 
HETATM    2  C2  UNL     1      -0.517  -0.493   0.448  1.00  0.00     0.091 C 
ENDROOT
BRANCH   2   3
HETATM    3  N1  UNL     1       0.465  -0.387  -0.544  1.00  0.00    -0.407 N 
HETATM    4  C3  UNL     1       0.332  -1.038  -1.769  1.00  0.00     0.144 C 
BRANCH   3   5
HETATM    5  C4  UNL     1       1.771  -0.145  -0.122  1.00  0.00     0.089 C 
HETATM    6  C5  UNL     1       2.024   1.175   0.579  1.00  0.00     0.036 C 
HETATM    7  C6  UNL     1       3.394   0.929   1.231  1.00  0.00     0.076 C 
HETATM    8  S1  UNL     1       4.290   0.282  -0.241  1.00  0.00    -0.167 SA
HETATM    9  C7  UNL     1       2.807  -0.124  -1.262  1.00  0.00     0.098 C 
ENDBRANCH   3   5
ENDBRANCH   2   3
BRANCH   2  10
HETATM   10  C8  UNL     1      -1.819   0.230   0.195  1.00  0.00     0.070 C 
HETATM   11  C9  UNL     1      -2.725  -0.472  -0.765  1.00  0.00     0.026 C 
HETATM   12  C10 UNL     1      -1.504   1.594  -0.484  1.00  0.00     0.026 C 
BRANCH  10  13
HETATM   13  C11 UNL     1      -2.533   0.616   1.456  1.00  0.00     0.396 C 
HETATM   14  F1  UNL     1      -1.740   1.459   2.226  1.00  0.00    -0.170 F 
HETATM   15  F2  UNL     1      -3.647   1.368   1.023  1.00  0.00    -0.170 F 
HETATM   16  F3  UNL     1      -2.983  -0.390   2.234  1.00  0.00    -0.170 F 
ENDBRANCH  10  13
ENDBRANCH   2  10
TORSDOF 4
