REMARK  11 active torsions:
REMARK  status: ('A' for Active; 'I' for Inactive)
REMARK    1  A    between atoms: C2_2  and  C4_4 
REMARK    2  A    between atoms: C4_4  and  C5_5 
REMARK    3  A    between atoms: C5_5  and  O1_9 
REMARK    4  A    between atoms: O1_9  and  C7_10 
REMARK    5  A    between atoms: C7_10  and  C8_11 
REMARK    6  A    between atoms: C15_18  and  C16_19 
REMARK    7  A    between atoms: C16_19  and  O2_20 
REMARK    8  A    between atoms: C16_19  and  C17_22 
REMARK    9  A    between atoms: C17_22  and  O3_23 
REMARK   10  A    between atoms: C17_22  and  C18_25 
REMARK   11  A    between atoms: C18_25  and  O4_27 
ROOT
HETATM    1  C8  UNL     1      -0.109   0.098  -0.562  1.00  0.00     0.022 C 
HETATM    2  C9  UNL     1       0.817   0.732  -1.513  1.00  0.00     0.020 C 
HETATM    3  C10 UNL     1       0.751   2.246  -1.557  1.00  0.00     0.034 C 
HETATM    4  C11 UNL     1      -0.098   2.820  -0.483  1.00  0.00    -0.087 C 
HETATM    5  C12 UNL     1       0.284   4.115   0.113  1.00  0.00     0.043 C 
HETATM    6  C13 UNL     1      -1.205   2.164  -0.055  1.00  0.00    -0.016 C 
HETATM    7  C14 UNL     1      -1.409   0.918  -0.760  1.00  0.00     0.053 C 
HETATM    8  C15 UNL     1      -2.456  -0.026  -0.429  1.00  0.00     0.162 C 
HETATM    9  O5  UNL     1      -1.840  -1.251  -0.195  1.00  0.00    -0.371 OA
HETATM   10  C20 UNL     1      -0.686  -1.227  -1.020  1.00  0.00     0.065 C 
HETATM   11  C21 UNL     1      -1.024  -1.270  -2.452  1.00  0.00     0.046 C 
HETATM   12  C22 UNL     1       0.164  -2.410  -0.681  1.00  0.00     0.046 C 
ENDROOT
BRANCH   1  13
HETATM   13  C7  UNL     1       0.357   0.066   0.824  1.00  0.00     0.190 C 
BRANCH  13  14
HETATM   14  O1  UNL     1       1.493  -0.542   1.234  1.00  0.00    -0.338 OA
BRANCH  14  15
HETATM   15  C5  UNL     1       2.843  -0.207   0.877  1.00  0.00     0.117 C 
HETATM   16  N1  UNL     1       3.048   1.000   1.097  1.00  0.00    -0.379 N 
HETATM   17  C6  UNL     1       4.054   1.935   0.993  1.00  0.00     0.148 C 
ATOM     18  H1  UNL     1       2.205   1.434   1.473  1.00  0.00     0.160 HD
BRANCH  15  19
HETATM   19  C4  UNL     1       3.714  -1.260   0.346  1.00  0.00     0.116 C 
BRANCH  19  20
HETATM   20  C2  UNL     1       5.143  -0.938   0.442  1.00  0.00    -0.086 C 
HETATM   21  C1  UNL     1       5.902  -0.857  -0.671  1.00  0.00     0.014 C 
HETATM   22  C3  UNL     1       5.827  -0.727   1.734  1.00  0.00     0.043 C 
ENDBRANCH  19  20
ENDBRANCH  15  19
ENDBRANCH  14  15
ENDBRANCH  13  14
ENDBRANCH   1  13
BRANCH   8  23
HETATM   23  C16 UNL     1      -3.530   0.372   0.487  1.00  0.00     0.179 C 
BRANCH  23  24
HETATM   24  O2  UNL     1      -3.181   0.410   1.829  1.00  0.00    -0.390 OA
ATOM     25  H2  UNL     1      -3.877   0.668   2.422  1.00  0.00     0.210 HD
ENDBRANCH  23  24
BRANCH  23  26
HETATM   26  C17 UNL     1      -4.865  -0.302   0.342  1.00  0.00     0.177 C 
BRANCH  26  27
HETATM   27  O3  UNL     1      -5.837   0.459   1.057  1.00  0.00    -0.390 OA
ATOM     28  H3  UNL     1      -6.681   0.033   0.965  1.00  0.00     0.210 HD
ENDBRANCH  26  27
BRANCH  26  29
HETATM   29  C18 UNL     1      -4.979  -1.704   0.827  1.00  0.00     0.145 C 
HETATM   30  C19 UNL     1      -4.473  -2.781  -0.042  1.00  0.00     0.042 C 
BRANCH  29  31
HETATM   31  O4  UNL     1      -4.675  -1.838   2.185  1.00  0.00    -0.393 OA
ATOM     32  H4  UNL     1      -4.748  -2.733   2.495  1.00  0.00     0.210 HD
ENDBRANCH  29  31
ENDBRANCH  26  29
ENDBRANCH  23  26
ENDBRANCH   8  23
TORSDOF 11
