REMARK  7 active torsions:
REMARK  status: ('A' for Active; 'I' for Inactive)
REMARK    1  A    between atoms: C2_2  and  C4_4 
REMARK    2  A    between atoms: C4_4  and  N1_5 
REMARK    3  A    between atoms: C7_10  and  N3_11 
REMARK    4  A    between atoms: C8_16  and  S1_17 
REMARK    5  A    between atoms: S1_17  and  C9_18 
REMARK    6  A    between atoms: C9_18  and  C11_20 
REMARK       I    between atoms: C11_20  and  N5_22 
REMARK    7  A    between atoms: N5_22  and  C12_24 
ROOT
HETATM    1  N1  UNL     1       3.704   0.868   0.444  1.00  0.00    -0.276 N 
HETATM    2  N2  UNL     1       4.614   1.341   1.267  1.00  0.00    -0.307 N 
ATOM      3  H2  UNL     1       5.569   1.573   0.996  1.00  0.00     0.186 HD
HETATM    4  C5  UNL     1       4.128   1.479   2.504  1.00  0.00     0.126 A 
HETATM    5  C6  UNL     1       2.820   1.069   2.477  1.00  0.00     0.070 A 
HETATM    6  C7  UNL     1       1.839   1.001   3.471  1.00  0.00     0.116 A 
HETATM    7  N4  UNL     1       0.638   0.547   3.098  1.00  0.00    -0.322 N 
ATOM      8  H4  UNL     1      -0.100   0.485   3.799  1.00  0.00     0.169 HD
HETATM    9  C8  UNL     1       0.361   0.167   1.832  1.00  0.00     0.148 A 
HETATM   10  N6  UNL     1       1.340   0.248   0.896  1.00  0.00    -0.321 N 
ATOM     11  H6  UNL     1       1.126  -0.040  -0.059  1.00  0.00     0.169 HD
HETATM   12  C15 UNL     1       2.587   0.694   1.172  1.00  0.00     0.139 A 
ENDROOT
BRANCH   9  13
HETATM   13  S1  UNL     1      -1.253  -0.436   1.361  1.00  0.00    -0.080 SA
BRANCH  13  14
HETATM   14  C9  UNL     1      -2.279   0.954   0.828  1.00  0.00     0.143 C 
HETATM   15  C10 UNL     1      -1.756   1.583  -0.446  1.00  0.00     0.031 C 
BRANCH  14  16
HETATM   16  C11 UNL     1      -3.684   0.540   0.599  1.00  0.00     0.233 C 
HETATM   17  O1  UNL     1      -4.613   1.087   1.272  1.00  0.00    -0.272 OA
HETATM   18  N5  UNL     1      -3.964  -0.460  -0.369  1.00  0.00    -0.338 N 
ATOM     19  H5  UNL     1      -3.183  -0.868  -0.883  1.00  0.00     0.164 HD
BRANCH  18  20
HETATM   20  C12 UNL     1      -5.291  -0.926  -0.661  1.00  0.00     0.102 C 
HETATM   21  C13 UNL     1      -6.203   0.176  -1.154  1.00  0.00     0.056 C 
HETATM   22  C14 UNL     1      -5.216  -1.975  -1.745  1.00  0.00     0.056 C 
HETATM   23 CL1  UNL     1      -5.985  -1.709   0.791  1.00  0.00    -0.096 Cl
ENDBRANCH  18  20
ENDBRANCH  14  16
ENDBRANCH  13  14
ENDBRANCH   9  13
BRANCH   6  24
HETATM   24  N3  UNL     1       2.108   1.365   4.681  1.00  0.00    -0.385 N 
ATOM     25  H32 UNL     1       3.024   1.711   4.966  1.00  0.00     0.157 HD
ATOM     26  H31 UNL     1       1.392   1.315   5.406  1.00  0.00     0.157 HD
ENDBRANCH   6  24
BRANCH   1  27
HETATM   27  C4  UNL     1       3.853   0.571  -0.970  1.00  0.00     0.154 C 
BRANCH  27  28
HETATM   28  C2  UNL     1       4.357  -0.815  -1.252  1.00  0.00    -0.003 C 
HETATM   29  C1  UNL     1       4.447  -0.948  -2.757  1.00  0.00     0.011 C 
HETATM   30  C3  UNL     1       3.520  -1.923  -0.716  1.00  0.00     0.011 C 
ENDBRANCH  27  28
ENDBRANCH   1  27
TORSDOF 7
