REMARK  2 active torsions:
REMARK  status: ('A' for Active; 'I' for Inactive)
REMARK    1  A    between atoms: C2_2  and  C4_4 
REMARK    2  A    between atoms: C4_4  and  C6_7 
ROOT
HETATM    1  C4  UNL     1      -0.536  -0.788  -0.527  1.00  0.00     0.126 C 
HETATM    2  C5  UNL     1      -0.763  -2.250  -0.356  1.00  0.00     0.066 C 
HETATM    3  N1  UNL     1      -0.936  -3.384  -0.206  1.00  0.00    -0.197 NA
ENDROOT
BRANCH   1   4
HETATM    4  C2  UNL     1      -1.829  -0.083  -0.376  1.00  0.00    -0.003 C 
HETATM    5  C1  UNL     1      -2.475  -0.289   0.979  1.00  0.00     0.011 C 
HETATM    6  C3  UNL     1      -1.858   1.371  -0.693  1.00  0.00     0.011 C 
ENDBRANCH   1   4
BRANCH   1   7
HETATM    7  C6  UNL     1       0.583  -0.362   0.356  1.00  0.00     0.203 C 
HETATM    8  C7  UNL     1       1.027   1.050   0.240  1.00  0.00     0.036 C 
HETATM    9  C8  UNL     1       2.527   1.021   0.469  1.00  0.00     0.029 C 
HETATM   10  C9  UNL     1       2.908  -0.415   0.306  1.00  0.00     0.233 C 
HETATM   11  N2  UNL     1       1.730  -1.202   0.072  1.00  0.00    -0.070 N 
ATOM     12  H22 UNL     1       1.724  -2.076   0.599  1.00  0.00     0.277 HD
ATOM     13  H21 UNL     1       1.703  -1.610  -0.862  1.00  0.00     0.277 HD
ENDBRANCH   1   7
TORSDOF 2
