REMARK  3 active torsions:
REMARK  status: ('A' for Active; 'I' for Inactive)
REMARK    1  A    between atoms: C2_3  and  N2_4 
REMARK       I    between atoms: N2_4  and  C3_6 
REMARK    2  A    between atoms: C3_6  and  C4_8 
REMARK       I    between atoms: N3_12  and  C8_13 
REMARK    3  A    between atoms: C8_13  and  C9_15 
ROOT
HETATM    1  N1  UNL     1       7.207  -1.413   2.762  1.00  0.00    -0.195 NA
HETATM    2  C1  UNL     1       6.375  -1.181   1.994  1.00  0.00     0.091 C 
HETATM    3  C2  UNL     1       5.304  -0.907   0.998  1.00  0.00     0.122 A 
HETATM    4  C19 UNL     1       5.321  -1.915  -0.145  1.00  0.00     0.050 A 
HETATM    5  C20 UNL     1       5.770  -0.464  -0.318  1.00  0.00     0.050 A 
ENDROOT
BRANCH   3   6
HETATM    6  N2  UNL     1       4.020  -0.624   1.553  1.00  0.00    -0.337 N 
HETATM    7  C3  UNL     1       2.838  -0.330   0.836  1.00  0.00     0.242 C 
HETATM    8  O1  UNL     1       2.890  -0.308  -0.412  1.00  0.00    -0.271 OA
ATOM      9  H2  UNL     1       3.948  -0.635   2.570  1.00  0.00     0.164 HD
BRANCH   7  10
HETATM   10  C4  UNL     1       1.585  -0.057   1.533  1.00  0.00     0.179 C 
HETATM   11  C5  UNL     1       1.652   1.065   2.538  1.00  0.00     0.037 C 
HETATM   12  C6  UNL     1       1.321   2.268   1.694  1.00  0.00     0.022 C 
HETATM   13  C7  UNL     1       0.831   1.709   0.372  1.00  0.00     0.127 C 
HETATM   14  N3  UNL     1       0.488   0.370   0.675  1.00  0.00    -0.338 N 
HETATM   15  C8  UNL     1      -0.588  -0.481   0.317  1.00  0.00     0.229 C 
HETATM   16  O2  UNL     1      -0.545  -1.677   0.791  1.00  0.00    -0.272 OA
BRANCH  15  17
HETATM   17  C9  UNL     1      -1.746  -0.235  -0.501  1.00  0.00     0.042 C 
HETATM   18  C10 UNL     1      -1.520   0.266  -1.884  1.00  0.00     0.024 C 
HETATM   19  C11 UNL     1      -2.842   0.353  -2.614  1.00  0.00    -0.013 C 
HETATM   20  C12 UNL     1      -3.694   1.403  -1.928  1.00  0.00     0.009 C 
HETATM   21  C16 UNL     1      -3.553  -0.954  -2.713  1.00  0.00     0.009 C 
HETATM   22  C13 UNL     1      -3.987   0.921  -0.516  1.00  0.00    -0.013 C 
HETATM   23  C14 UNL     1      -4.763  -0.359  -0.611  1.00  0.00     0.009 C 
HETATM   24  C18 UNL     1      -2.659   0.748   0.201  1.00  0.00     0.024 C 
HETATM   25  C15 UNL     1      -3.867  -1.376  -1.278  1.00  0.00    -0.013 C 
HETATM   26  C17 UNL     1      -2.565  -1.535  -0.580  1.00  0.00     0.024 C 
ENDBRANCH  15  17
ENDBRANCH   7  10
ENDBRANCH   3   6
TORSDOF 3
