REMARK  3 active torsions:
REMARK  status: ('A' for Active; 'I' for Inactive)
REMARK    1  A    between atoms: C2_2  and  C4_4 
REMARK    2  A    between atoms: C4_4  and  C5_5 
REMARK       I    between atoms: N1_13  and  C9_14 
REMARK       I    between atoms: C9_14  and  N2_16 
REMARK    3  A    between atoms: N2_16  and  C10_18 
ROOT
HETATM    1  C5  UNL     1       2.516   0.178   1.365  1.00  0.00     0.130 C 
HETATM    2  C6  UNL     1       3.394   1.350   1.687  1.00  0.00     0.194 C 
HETATM    3  O1  UNL     1       4.103   1.680   0.565  1.00  0.00    -0.388 OA
HETATM    4  C7  UNL     1       3.713   2.927   0.122  1.00  0.00     0.184 C 
HETATM    5  C8  UNL     1       2.641   2.917  -0.894  1.00  0.00     0.190 C 
HETATM    6  S1  UNL     1       1.272   1.894  -0.615  1.00  0.00     0.238 S 
HETATM    7  O2  UNL     1       0.138   2.785  -0.115  1.00  0.00    -0.205 OA
HETATM    8  O3  UNL     1       0.784   1.318  -1.911  1.00  0.00    -0.205 OA
HETATM    9  N1  UNL     1       1.439   0.628   0.509  1.00  0.00    -0.220 N 
HETATM   10  C9  UNL     1       0.266  -0.148   0.662  1.00  0.00     0.333 C 
HETATM   11  O4  UNL     1       0.291  -1.135   1.488  1.00  0.00    -0.246 OA
HETATM   12  N2  UNL     1      -0.970   0.013   0.019  1.00  0.00    -0.321 N 
ATOM     13  H2  UNL     1      -1.067   0.779  -0.648  1.00  0.00     0.166 HD
ENDROOT
BRANCH  12  14
HETATM   14  C10 UNL     1      -2.121  -0.844   0.245  1.00  0.00     0.185 C 
HETATM   15  N3  UNL     1      -2.533  -1.571  -0.909  1.00  0.00    -0.401 N 
HETATM   16  C11 UNL     1      -3.511  -0.926  -1.726  1.00  0.00     0.120 C 
ATOM     17  H3  UNL     1      -2.155  -2.491  -1.136  1.00  0.00     0.155 HD
HETATM   18  C12 UNL     1      -4.837  -0.708  -1.063  1.00  0.00     0.003 C 
HETATM   19  C13 UNL     1      -4.936   0.756  -0.703  1.00  0.00     0.007 C 
HETATM   20  C17 UNL     1      -5.046  -1.540   0.170  1.00  0.00     0.007 C 
HETATM   21  C14 UNL     1      -3.711   1.103   0.125  1.00  0.00     0.009 C 
HETATM   22  C15 UNL     1      -3.209  -0.058   0.916  1.00  0.00     0.028 C 
HETATM   23  C16 UNL     1      -4.345  -0.938   1.368  1.00  0.00     0.009 C 
ENDBRANCH  12  14
BRANCH   1  24
HETATM   24  C4  UNL     1       3.205  -1.068   1.036  1.00  0.00     0.032 C 
BRANCH  24  25
HETATM   25  C2  UNL     1       4.144  -1.134  -0.101  1.00  0.00    -0.021 C 
HETATM   26  C1  UNL     1       4.716  -2.573  -0.176  1.00  0.00     0.009 C 
HETATM   27  C3  UNL     1       3.493  -0.946  -1.451  1.00  0.00     0.009 C 
ENDBRANCH  24  25
ENDBRANCH   1  24
TORSDOF 3
