REMARK  12 active torsions:
REMARK  status: ('A' for Active; 'I' for Inactive)
REMARK    1  A    between atoms: C2_2  and  O1_3 
REMARK    2  A    between atoms: O1_3  and  C3_4 
REMARK    3  A    between atoms: C4_5  and  O2_6 
REMARK    4  A    between atoms: C5_8  and  C6_9 
REMARK    5  A    between atoms: C6_9  and  N1_10 
REMARK    6  A    between atoms: C6_9  and  C7_14 
REMARK    7  A    between atoms: C7_14  and  O3_15 
REMARK    8  A    between atoms: C8_18  and  N2_19 
REMARK    9  A    between atoms: C9_20  and  C10_21 
REMARK       I    between atoms: C10_21  and  N3_23 
REMARK   10  A    between atoms: C11_25  and  C12_26 
REMARK       I    between atoms: C12_26  and  N4_28 
REMARK       I    between atoms: N4_28  and  C13_30 
REMARK       I    between atoms: C13_30  and  N5_31 
REMARK       I    between atoms: C13_30  and  N6_35 
REMARK   11  A    between atoms: C15_42  and  C16_43 
REMARK   12  A    between atoms: C18_55  and  O8_56 
ROOT
HETATM    1  N2  UNL     1      -0.626   0.999   0.271  1.00  0.00    -0.282 N 
HETATM    2  C9  UNL     1       0.619   1.157   0.721  1.00  0.00     0.181 A 
HETATM    3  N7  UNL     1       0.831   2.487   1.025  1.00  0.00    -0.333 N 
ATOM      4  H7  UNL     1       1.698   2.883   1.388  1.00  0.00     0.168 HD
HETATM    5  C14 UNL     1      -0.271   3.158   0.768  1.00  0.00     0.108 A 
HETATM    6  C15 UNL     1      -0.611   4.507   0.890  1.00  0.00     0.099 A 
HETATM    7  N11 UNL     1      -1.842   4.872   0.538  1.00  0.00    -0.318 N 
ATOM      8  H11 UNL     1      -2.096   5.856   0.626  1.00  0.00     0.169 HD
HETATM    9  C18 UNL     1      -2.769   4.018   0.074  1.00  0.00     0.223 A 
HETATM   10  N12 UNL     1      -2.402   2.732  -0.028  1.00  0.00    -0.306 N 
ATOM     11  H12 UNL     1      -3.091   2.066  -0.378  1.00  0.00     0.171 HD
HETATM   12  C19 UNL     1      -1.178   2.261   0.303  1.00  0.00     0.144 A 
ENDROOT
BRANCH   1  13
HETATM   13  C8  UNL     1      -1.358  -0.096  -0.163  1.00  0.00     0.263 C 
HETATM   14  C3  UNL     1      -2.166  -0.890   0.832  1.00  0.00     0.202 C 
HETATM   15  C4  UNL     1      -2.819  -1.876  -0.121  1.00  0.00     0.182 C 
HETATM   16  C5  UNL     1      -1.956  -1.755  -1.335  1.00  0.00     0.188 C 
HETATM   17  O4  UNL     1      -0.803  -1.067  -0.950  1.00  0.00    -0.353 OA
BRANCH  14  18
HETATM   18  O1  UNL     1      -1.569  -1.411   1.891  1.00  0.00    -0.379 OA
BRANCH  18  19
HETATM   19  C2  UNL     1      -1.939  -1.154   3.165  1.00  0.00     0.164 C 
HETATM   20  C1  UNL     1      -1.863   0.298   3.573  1.00  0.00     0.033 C 
ENDBRANCH  18  19
ENDBRANCH  14  18
BRANCH  15  21
HETATM   21  O2  UNL     1      -4.109  -1.433  -0.403  1.00  0.00    -0.390 OA
ATOM     22  H2  UNL     1      -4.517  -2.050  -0.999  1.00  0.00     0.210 HD
ENDBRANCH  15  21
BRANCH  16  23
HETATM   23  C6  UNL     1      -1.662  -3.052  -2.018  1.00  0.00     0.238 C 
BRANCH  23  24
HETATM   24  N1  UNL     1      -0.926  -3.964  -1.182  1.00  0.00    -0.070 N 
ATOM     25  H13 UNL     1      -0.071  -3.532  -0.833  1.00  0.00     0.274 HD
ATOM     26  H12 UNL     1      -1.407  -4.118  -0.296  1.00  0.00     0.274 HD
ATOM     27  H11 UNL     1      -0.725  -4.849  -1.648  1.00  0.00     0.274 HD
ENDBRANCH  23  24
BRANCH  23  28
HETATM   28  C7  UNL     1      -2.903  -3.665  -2.602  1.00  0.00     0.199 C 
BRANCH  28  29
HETATM   29  O3  UNL     1      -3.806  -4.101  -1.646  1.00  0.00    -0.399 OA
ATOM     30  H3  UNL     1      -4.591  -4.489  -2.015  1.00  0.00     0.209 HD
ENDBRANCH  28  29
ENDBRANCH  23  28
ENDBRANCH  16  23
ENDBRANCH   1  13
BRANCH   2  31
HETATM   31  C10 UNL     1       1.685   0.216   0.912  1.00  0.00     0.290 C 
HETATM   32  O5  UNL     1       2.783   0.669   1.402  1.00  0.00    -0.264 OA
HETATM   33  N3  UNL     1       1.670  -1.126   0.632  1.00  0.00    -0.325 N 
HETATM   34  C11 UNL     1       2.426  -1.925   0.046  1.00  0.00     0.165 C 
ATOM     35  H3  UNL     1       0.833  -1.584   0.993  1.00  0.00     0.168 HD
BRANCH  34  36
HETATM   36  C12 UNL     1       3.676  -1.624  -0.578  1.00  0.00     0.259 C 
HETATM   37  O6  UNL     1       4.229  -0.488  -0.649  1.00  0.00    -0.267 OA
HETATM   38  N4  UNL     1       4.433  -2.686  -1.211  1.00  0.00    -0.307 N 
HETATM   39  C13 UNL     1       5.696  -2.456  -1.856  1.00  0.00     0.483 C 
ATOM     40  H4  UNL     1       4.054  -3.633  -1.198  1.00  0.00     0.166 HD
HETATM   41  N5  UNL     1       5.696  -2.844  -3.262  1.00  0.00    -0.033 N 
HETATM   42  N6  UNL     1       6.769  -3.209  -1.212  1.00  0.00    -0.033 N 
ATOM     43  H53 UNL     1       5.402  -3.815  -3.372  1.00  0.00     0.278 HD
ATOM     44  H52 UNL     1       4.940  -2.383  -3.767  1.00  0.00     0.278 HD
ATOM     45  H51 UNL     1       6.593  -2.681  -3.720  1.00  0.00     0.278 HD
ATOM     46  H63 UNL     1       6.818  -3.009  -0.213  1.00  0.00     0.278 HD
ATOM     47  H62 UNL     1       6.550  -4.204  -1.163  1.00  0.00     0.278 HD
ATOM     48  H61 UNL     1       7.666  -3.046  -1.670  1.00  0.00     0.278 HD
ENDBRANCH  34  36
ENDBRANCH   2  31
BRANCH   6  49
HETATM   49  C16 UNL     1       0.391   5.439   1.393  1.00  0.00     0.131 A 
HETATM   50  N8  UNL     1       1.655   5.109   1.759  1.00  0.00    -0.236 N 
HETATM   51  O7  UNL     1       2.280   6.200   2.165  1.00  0.00    -0.155 OA
ATOM     52  H8  UNL     1       2.057   4.172   1.726  1.00  0.00     0.197 HD
HETATM   53  N9  UNL     1       1.464   7.209   2.071  1.00  0.00    -0.224 N 
HETATM   54  C17 UNL     1       0.285   6.792   1.600  1.00  0.00     0.152 A 
ATOM     55  H9  UNL     1       1.690   8.172   2.319  1.00  0.00     0.198 HD
HETATM   56  N10 UNL     1      -0.775   7.475   1.368  1.00  0.00    -0.382 N 
ATOM     57 2H10 UNL     1      -1.675   7.157   1.008  1.00  0.00     0.157 HD
ATOM     58 1H10 UNL     1      -0.854   8.480   1.522  1.00  0.00     0.157 HD
ENDBRANCH   6  49
BRANCH   9  59
HETATM   59  O8  UNL     1      -4.044   4.460  -0.279  1.00  0.00    -0.332 OA
ATOM     60  H8  UNL     1      -4.700   3.856  -0.607  1.00  0.00     0.220 HD
ENDBRANCH   9  59
TORSDOF 12
