REMARK  15 active torsions:
REMARK  status: ('A' for Active; 'I' for Inactive)
REMARK       I    between atoms: C2_2  and  N1_4 
REMARK    1  A    between atoms: C3_5  and  N2_6 
REMARK    2  A    between atoms: N2_6  and  C4_8 
REMARK    3  A    between atoms: C4_8  and  C5_9 
REMARK    4  A    between atoms: C5_9  and  N3_10 
REMARK    5  A    between atoms: N3_10  and  C6_12 
REMARK    6  A    between atoms: N4_15  and  C9_16 
REMARK    7  A    between atoms: C10_18  and  O3_19 
REMARK    8  A    between atoms: C10_18  and  C11_21 
REMARK    9  A    between atoms: C11_21  and  O4_22 
REMARK   10  A    between atoms: N5_24  and  O5_25 
REMARK   11  A    between atoms: C12_27  and  O6_28 
REMARK   12  A    between atoms: N8_35  and  N9_36 
REMARK   13  A    between atoms: N9_36  and  O7_38 
REMARK   14  A    between atoms: O7_38  and  C14_39 
REMARK   15  A    between atoms: C14_39  and  C16_41 
ROOT
HETATM    1  C4  UNL     1      -0.449  -0.914  -0.147  1.00  0.00     0.157 C 
ENDROOT
BRANCH   1   2
HETATM    2  N2  UNL     1       0.531  -0.060   0.452  1.00  0.00    -0.224 N 
ATOM      3  H2  UNL     1       0.287   0.457   1.297  1.00  0.00     0.177 HD
BRANCH   2   4
HETATM    4  C3  UNL     1       1.850   0.091  -0.103  1.00  0.00     0.682 C 
HETATM    5  N1  UNL     1       2.664   1.254   0.153  1.00  0.00    -0.123 N 
HETATM    6  C2  UNL     1       2.014   2.481   0.377  1.00  0.00     0.236 C 
HETATM    7  C17 UNL     1       4.115   1.137   0.169  1.00  0.00     0.143 C 
HETATM    8  C1  UNL     1       2.688   3.749   0.710  1.00  0.00     0.118 C 
HETATM    9  O1  UNL     1       0.738   2.538   0.295  1.00  0.00    -0.273 OA
HETATM   10  N8  UNL     1       4.495  -0.169  -0.291  1.00  0.00    -0.261 N 
HETATM   11  C18 UNL     1       4.601   1.318   1.575  1.00  0.00     0.065 C 
HETATM   12  C19 UNL     1       4.691   2.208  -0.725  1.00  0.00     0.065 C 
HETATM   13  C13 UNL     1       3.697  -0.684  -1.335  1.00  0.00     0.287 C 
HETATM   14  N7  UNL     1       2.354  -0.850  -0.828  1.00  0.00    -0.208 N 
ATOM     15  H7  UNL     1       1.817  -1.691  -1.038  1.00  0.00     0.179 HD
BRANCH  10  16
HETATM   16  N9  UNL     1       5.376  -0.904   0.360  1.00  0.00    -0.205 N 
ATOM     17  H9  UNL     1       5.058  -1.737   0.856  1.00  0.00     0.216 HD
BRANCH  16  18
HETATM   18  O7  UNL     1       6.659  -0.590   0.387  1.00  0.00    -0.249 OA
BRANCH  18  19
HETATM   19  C14 UNL     1       7.407  -1.740   0.140  1.00  0.00     0.250 C 
HETATM   20  C15 UNL     1       8.233  -2.108   1.384  1.00  0.00     0.054 C 
BRANCH  19  21
HETATM   21  C16 UNL     1       8.359  -1.555  -0.970  1.00  0.00     0.205 C 
HETATM   22  O8  UNL     1       8.415  -0.435  -1.563  1.00  0.00    -0.646 OA
HETATM   23  O9  UNL     1       9.211  -2.559  -1.411  1.00  0.00    -0.646 OA
ENDBRANCH  19  21
ENDBRANCH  18  19
ENDBRANCH  16  18
ENDBRANCH  10  16
ENDBRANCH   2   4
ENDBRANCH   1   2
BRANCH   1  24
HETATM   24  C5  UNL     1      -0.996  -0.490  -1.459  1.00  0.00     0.141 C 
BRANCH  24  25
HETATM   25  N3  UNL     1      -1.685   0.762  -1.481  1.00  0.00    -0.374 N 
ATOM     26  H3  UNL     1      -1.178   1.599  -1.768  1.00  0.00     0.161 HD
BRANCH  25  27
HETATM   27  C6  UNL     1      -2.950   0.869  -1.143  1.00  0.00     0.117 A 
HETATM   28  C7  UNL     1      -3.712   2.015  -1.125  1.00  0.00     0.068 A 
HETATM   29  C8  UNL     1      -4.976   1.654  -0.709  1.00  0.00     0.117 A 
HETATM   30  N4  UNL     1      -4.980   0.331  -0.481  1.00  0.00    -0.268 N 
HETATM   31  N6  UNL     1      -3.759  -0.125  -0.745  1.00  0.00    -0.281 N 
ATOM     32  H6  UNL     1      -3.475  -1.101  -0.657  1.00  0.00     0.189 HD
BRANCH  30  33
HETATM   33  C9  UNL     1      -6.053  -0.491  -0.040  1.00  0.00     0.293 C 
HETATM   34  O2  UNL     1      -7.283  -0.201  -0.677  1.00  0.00    -0.308 OA
HETATM   35  C10 UNL     1      -8.108  -1.111  -0.015  1.00  0.00     0.275 C 
HETATM   36  N5  UNL     1      -7.756  -1.010   1.395  1.00  0.00    -0.104 NA
HETATM   37  C12 UNL     1      -6.437  -0.350   1.400  1.00  0.00     0.274 C 
BRANCH  35  38
HETATM   38  O3  UNL     1      -7.776  -2.377  -0.522  1.00  0.00    -0.350 OA
ATOM     39  H3  UNL     1      -8.338  -2.997  -0.071  1.00  0.00     0.214 HD
ENDBRANCH  35  38
BRANCH  35  40
HETATM   40  C11 UNL     1      -9.568  -0.818  -0.151  1.00  0.00     0.253 C 
BRANCH  40  41
HETATM   41  O4  UNL     1      -9.837   0.447   0.309  1.00  0.00    -0.394 OA
ATOM     42  H4  UNL     1     -10.765   0.633   0.223  1.00  0.00     0.209 HD
ENDBRANCH  40  41
ENDBRANCH  35  40
BRANCH  36  43
HETATM   43  O5  UNL     1      -7.539  -2.272   1.875  1.00  0.00    -0.306 OA
ATOM     44  H5  UNL     1      -7.309  -2.206   2.794  1.00  0.00     0.237 HD
ENDBRANCH  36  43
BRANCH  37  45
HETATM   45  O6  UNL     1      -6.687   0.974   1.776  1.00  0.00    -0.374 OA
ATOM     46  H6  UNL     1      -6.931   1.063   2.690  1.00  0.00     0.212 HD
ENDBRANCH  37  45
ENDBRANCH  30  33
ENDBRANCH  25  27
ENDBRANCH  24  25
ENDBRANCH   1  24
TORSDOF 15
