REMARK  4 active torsions:
REMARK  status: ('A' for Active; 'I' for Inactive)
REMARK    1  A    between atoms: N1_1  and  N2_4 
REMARK    2  A    between atoms: C1_6  and  N3_7 
REMARK    3  A    between atoms: N3_7  and  C2_9 
REMARK    4  A    between atoms: C2_9  and  C3_10 
ROOT
HETATM    1  N3  UNL     1      -1.062  -0.361  -0.363  1.00  0.00    -0.379 N 
ATOM      2  H3  UNL     1      -0.807  -1.222   0.120  1.00  0.00     0.160 HD
ENDROOT
BRANCH   1   3
HETATM    3  C1  UNL     1      -2.377  -0.219  -0.879  1.00  0.00     0.192 C 
HETATM    4  N2  UNL     1      -3.427  -0.020  -0.180  1.00  0.00    -0.303 N 
ATOM      5  H2  UNL     1      -4.310   0.062  -0.685  1.00  0.00     0.187 HD
BRANCH   4   6
HETATM    6  N1  UNL     1      -3.479   0.094   1.190  1.00  0.00    -0.344 N 
ATOM      7  H12 UNL     1      -2.587   0.009   1.677  1.00  0.00     0.176 HD
ATOM      8  H11 UNL     1      -4.318   0.253   1.748  1.00  0.00     0.176 HD
ENDBRANCH   4   6
ENDBRANCH   1   3
BRANCH   1   9
HETATM    9  C2  UNL     1      -0.073   0.689  -0.507  1.00  0.00     0.178 C 
BRANCH   9  10
HETATM   10  C3  UNL     1       1.223   0.304   0.115  1.00  0.00     0.043 A 
HETATM   11  C4  UNL     1       2.288  -0.350  -0.469  1.00  0.00     0.115 A 
HETATM   12  N4  UNL     1       3.279  -0.507   0.452  1.00  0.00    -0.360 N 
HETATM   13  C5  UNL     1       2.834   0.044   1.598  1.00  0.00     0.180 A 
ATOM     14  H4  UNL     1       4.183  -0.955   0.303  1.00  0.00     0.166 HD
HETATM   15  N5  UNL     1       1.593   0.532   1.388  1.00  0.00    -0.353 N 
ATOM     16  H5  UNL     1       1.022   1.003   2.089  1.00  0.00     0.166 HD
ENDBRANCH   9  10
ENDBRANCH   1   9
TORSDOF 4
