REMARK  9 active torsions:
REMARK  status: ('A' for Active; 'I' for Inactive)
REMARK    1  A    between atoms: O1_2  and  C2_3 
REMARK       I    between atoms: C2_3  and  N1_5 
REMARK    2  A    between atoms: N1_5  and  N2_7 
REMARK       I    between atoms: N2_7  and  C3_9 
REMARK    3  A    between atoms: C3_9  and  C4_11 
REMARK    4  A    between atoms: C4_11  and  C5_12 
REMARK    5  A    between atoms: C4_11  and  N6_23 
REMARK    6  A    between atoms: C5_12  and  C6_13 
REMARK    7  A    between atoms: C6_13  and  C7_14 
REMARK    8  A    between atoms: C7_14  and  O4_15 
REMARK    9  A    between atoms: O4_15  and  N3_16 
REMARK       I    between atoms: N3_16  and  C8_18 
REMARK       I    between atoms: N6_23  and  C9_25 
ROOT
HETATM    1  C4  UNL     1       0.588  -1.396  -0.057  1.00  0.00     0.181 C 
ENDROOT
BRANCH   1   2
HETATM    2  C3  UNL     1       1.666  -0.497   0.371  1.00  0.00     0.259 C 
HETATM    3  N2  UNL     1       1.853   0.815  -0.070  1.00  0.00    -0.264 N 
ATOM      4  H2  UNL     1       1.169   1.159  -0.744  1.00  0.00     0.190 HD
HETATM    5  O3  UNL     1       2.503  -0.956   1.223  1.00  0.00    -0.269 OA
BRANCH   3   6
HETATM    6  N1  UNL     1       2.839   1.701   0.287  1.00  0.00    -0.243 N 
HETATM    7  C2  UNL     1       4.220   1.526   0.026  1.00  0.00     0.379 C 
HETATM    8  O2  UNL     1       4.555   0.465  -0.584  1.00  0.00    -0.237 OA
ATOM      9  H1  UNL     1       2.556   2.549   0.777  1.00  0.00     0.192 HD
BRANCH   7  10
HETATM   10  O1  UNL     1       5.223   2.397   0.373  1.00  0.00    -0.308 OA
HETATM   11  C1  UNL     1       6.595   2.186   0.093  1.00  0.00     0.215 C 
ENDBRANCH   7  10
ENDBRANCH   3   6
ENDBRANCH   1   2
BRANCH   1  12
HETATM   12  C5  UNL     1      -0.727  -0.695   0.035  1.00  0.00     0.037 C 
BRANCH  12  13
HETATM   13  C6  UNL     1      -1.898  -1.563  -0.388  1.00  0.00     0.031 C 
BRANCH  13  14
HETATM   14  C7  UNL     1      -3.125  -0.663  -0.246  1.00  0.00     0.201 C 
BRANCH  14  15
HETATM   15  O4  UNL     1      -3.242  -0.242   1.071  1.00  0.00    -0.278 OA
BRANCH  15  16
HETATM   16  N3  UNL     1      -4.329   0.557   1.119  1.00  0.00    -0.239 N 
HETATM   17  C8  UNL     1      -4.730   1.310  -0.041  1.00  0.00     0.205 C 
HETATM   18  N4  UNL     1      -5.587   0.884  -0.887  1.00  0.00    -0.372 N 
HETATM   19  N5  UNL     1      -4.104   2.592  -0.201  1.00  0.00    -0.062 NA
ATOM     20  H42 UNL     1      -6.032  -0.027  -0.773  1.00  0.00     0.158 HD
ATOM     21  H41 UNL     1      -5.871   1.417  -1.709  1.00  0.00     0.158 HD
ATOM     22  H3  UNL     1      -4.869   0.628   1.981  1.00  0.00     0.197 HD
ENDBRANCH  15  16
ENDBRANCH  14  15
ENDBRANCH  13  14
ENDBRANCH  12  13
ENDBRANCH   1  12
BRANCH   1  23
HETATM   23  N6  UNL     1       0.630  -2.662   0.599  1.00  0.00    -0.322 N 
HETATM   24  C9  UNL     1       0.763  -3.894  -0.097  1.00  0.00     0.284 C 
HETATM   25  O5  UNL     1       0.852  -3.956  -1.345  1.00  0.00    -0.630 OA
HETATM   26  O6  UNL     1       0.801  -5.108   0.607  1.00  0.00    -0.630 OA
ATOM     27  H6  UNL     1       0.561  -2.684   1.616  1.00  0.00     0.166 HD
ENDBRANCH   1  23
TORSDOF 9
