REMARK  11 active torsions:
REMARK  status: ('A' for Active; 'I' for Inactive)
REMARK    1  A    between atoms: O1_2  and  N1_3 
REMARK    2  A    between atoms: N1_3  and  C2_5 
REMARK    3  A    between atoms: C4_8  and  C5_9 
REMARK    4  A    between atoms: N2_12  and  C6_13 
REMARK    5  A    between atoms: C6_13  and  C7_14 
REMARK    6  A    between atoms: C6_13  and  C15_37 
REMARK    7  A    between atoms: C7_14  and  N3_15 
REMARK    8  A    between atoms: C13_28  and  N7_29 
REMARK       I    between atoms: C15_37  and  N10_39 
REMARK    9  A    between atoms: N10_39  and  C16_41 
REMARK   10  A    between atoms: C18_43  and  O7_44 
REMARK   11  A    between atoms: C19_46  and  C20_47 
ROOT
HETATM    1  C6  UNL     1      -1.044  -1.405  -0.105  1.00  0.00     0.195 C 
ENDROOT
BRANCH   1   2
HETATM    2  N2  UNL     1      -1.212  -2.857  -0.004  1.00  0.00    -0.353 N 
HETATM    3  C2  UNL     1      -1.091  -3.439   1.233  1.00  0.00     0.267 C 
HETATM    4  S1  UNL     1      -2.820  -4.001   1.559  1.00  0.00    -0.119 SA
HETATM    5  C3  UNL     1      -3.210  -4.218  -0.225  1.00  0.00     0.113 C 
HETATM    6  C4  UNL     1      -2.182  -3.367  -0.880  1.00  0.00     0.193 C 
BRANCH   3   7
HETATM    7  N1  UNL     1      -0.246  -4.589   1.402  1.00  0.00    -0.270 N 
ATOM      8  H1  UNL     1       0.507  -4.612   2.089  1.00  0.00     0.191 HD
BRANCH   7   9
HETATM    9  O1  UNL     1      -0.507  -5.616   0.609  1.00  0.00    -0.287 OA
HETATM   10  C1  UNL     1       0.137  -6.744   1.113  1.00  0.00     0.237 C 
ENDBRANCH   7   9
ENDBRANCH   3   7
BRANCH   6  11
HETATM   11  C5  UNL     1      -1.670  -3.963  -2.132  1.00  0.00     0.197 C 
HETATM   12  O2  UNL     1      -0.442  -3.960  -2.346  1.00  0.00    -0.646 OA
HETATM   13  O3  UNL     1      -2.518  -4.518  -3.061  1.00  0.00    -0.646 OA
ENDBRANCH   6  11
ENDBRANCH   1   2
BRANCH   1  14
HETATM   14  C7  UNL     1      -2.097  -0.704   0.702  1.00  0.00     0.186 C 
BRANCH  14  15
HETATM   15  N3  UNL     1      -2.066   0.714   0.707  1.00  0.00    -0.261 N 
HETATM   16  C8  UNL     1      -2.612   1.437  -0.321  1.00  0.00     0.143 A 
HETATM   17  N4  UNL     1      -3.209   1.083  -1.486  1.00  0.00    -0.336 N 
HETATM   18  C11 UNL     1      -2.476   2.759  -0.017  1.00  0.00     0.124 A 
HETATM   19  C9  UNL     1      -3.671   1.999  -2.349  1.00  0.00     0.185 A 
ATOM     20  H4  UNL     1      -3.309   0.093  -1.712  1.00  0.00     0.168 HD
HETATM   21  N5  UNL     1      -3.538   3.286  -2.051  1.00  0.00    -0.319 N 
HETATM   22  C10 UNL     1      -2.951   3.698  -0.906  1.00  0.00     0.264 A 
ATOM     23  H5  UNL     1      -3.889   3.984  -2.706  1.00  0.00     0.169 HD
HETATM   24  O4  UNL     1      -2.812   4.901  -0.599  1.00  0.00    -0.267 OA
HETATM   25  C12 UNL     1      -1.845   2.827   1.204  1.00  0.00     0.167 A 
HETATM   26  N6  UNL     1      -1.480   3.886   1.979  1.00  0.00    -0.174 N 
HETATM   27  N9  UNL     1      -1.600   1.557   1.639  1.00  0.00    -0.183 N 
HETATM   28  C13 UNL     1      -0.884   3.719   3.162  1.00  0.00     0.681 A 
ATOM     29  H6  UNL     1      -1.667   4.832   1.647  1.00  0.00     0.186 HD
HETATM   30  N8  UNL     1      -0.654   2.458   3.569  1.00  0.00    -0.140 N 
HETATM   31  C14 UNL     1      -1.002   1.384   2.829  1.00  0.00     0.361 A 
ATOM     32  H8  UNL     1      -0.200   2.308   4.470  1.00  0.00     0.189 HD
HETATM   33  O5  UNL     1      -0.769   0.227   3.253  1.00  0.00    -0.244 OA
BRANCH  28  34
HETATM   34  N7  UNL     1      -0.552   4.745   3.868  1.00  0.00    -0.234 N 
ATOM     35  H72 UNL     1      -0.726   5.701   3.559  1.00  0.00     0.174 HD
ATOM     36  H71 UNL     1      -0.097   4.617   4.772  1.00  0.00     0.174 HD
ENDBRANCH  28  34
ENDBRANCH  14  15
ENDBRANCH   1  14
BRANCH   1  37
HETATM   37  C15 UNL     1       0.348  -1.080   0.168  1.00  0.00     0.242 C 
HETATM   38  O6  UNL     1       1.079  -2.006   0.697  1.00  0.00    -0.271 OA
HETATM   39  N10 UNL     1       0.990   0.171  -0.100  1.00  0.00    -0.346 N 
ATOM     40  H10 UNL     1       0.441   0.923  -0.517  1.00  0.00     0.163 HD
BRANCH  39  41
HETATM   41  C16 UNL     1       2.372   0.410   0.194  1.00  0.00     0.179 C 
HETATM   42  C17 UNL     1       3.108   0.592  -1.125  1.00  0.00     0.069 C 
HETATM   43  C18 UNL     1       4.163   1.662  -1.033  1.00  0.00     0.152 C 
HETATM   44  C19 UNL     1       3.526   3.017  -0.712  1.00  0.00     0.202 C 
HETATM   45  N12 UNL     1       2.862   2.872   0.559  1.00  0.00    -0.344 N 
HETATM   46  C21 UNL     1       2.612   1.571   1.092  1.00  0.00     0.241 C 
ATOM     47  H12 UNL     1       2.570   3.700   1.079  1.00  0.00     0.163 HD
HETATM   48  O9  UNL     1       2.595   1.409   2.335  1.00  0.00    -0.271 OA
BRANCH  43  49
HETATM   49  O7  UNL     1       4.744   1.783  -2.286  1.00  0.00    -0.393 OA
ATOM     50  H7  UNL     1       5.410   2.458  -2.228  1.00  0.00     0.210 HD
ENDBRANCH  43  49
BRANCH  44  51
HETATM   51  C20 UNL     1       4.635   4.004  -0.653  1.00  0.00     0.256 C 
HETATM   52  N11 UNL     1       5.419   4.296  -1.785  1.00  0.00    -0.060 NA
HETATM   53  O8  UNL     1       4.885   4.599   0.434  1.00  0.00    -0.274 OA
ENDBRANCH  44  51
ENDBRANCH  39  41
ENDBRANCH   1  37
TORSDOF 11
