REMARK  6 active torsions:
REMARK  status: ('A' for Active; 'I' for Inactive)
REMARK    1  A    between atoms: C3_3  and  N1_4 
REMARK    2  A    between atoms: C5_7  and  C6_8 
REMARK    3  A    between atoms: C6_8  and  S1_9 
REMARK    4  A    between atoms: S1_9  and  C7_10 
REMARK    5  A    between atoms: C11_16  and  O2_17 
REMARK    6  A    between atoms: C14_21  and  O3_22 
ROOT
HETATM    1  C1  UNL     1      -4.251  -4.031  -2.212  1.00  0.00     0.014 C 
HETATM    2  C2  UNL     1      -3.675  -3.703  -1.203  1.00  0.00    -0.097 C 
HETATM    3  C3  UNL     1      -2.961  -3.277   0.024  1.00  0.00     0.226 C 
ENDROOT
BRANCH   3   4
HETATM    4  N1  UNL     1      -2.262  -2.042  -0.257  1.00  0.00    -0.288 N 
HETATM    5  C4  UNL     1      -1.013  -2.063  -0.717  1.00  0.00     0.259 A 
HETATM    6  O1  UNL     1      -0.390  -3.160  -0.926  1.00  0.00    -0.267 OA
HETATM    7  C5  UNL     1      -0.270  -0.910  -1.012  1.00  0.00     0.054 A 
HETATM    8  C14 UNL     1      -0.935   0.271  -0.793  1.00  0.00     0.092 A 
HETATM    9  C15 UNL     1      -2.253   0.286  -0.306  1.00  0.00     0.053 A 
HETATM   10  C16 UNL     1      -3.150   1.290   0.003  1.00  0.00     0.007 A 
HETATM   11  C18 UNL     1      -2.914  -0.891  -0.039  1.00  0.00     0.125 A 
HETATM   12  C17 UNL     1      -4.332   0.704   0.450  1.00  0.00     0.044 A 
HETATM   13  C20 UNL     1      -3.403   2.746   0.060  1.00  0.00     0.210 C 
HETATM   14  N2  UNL     1      -4.172  -0.630   0.419  1.00  0.00    -0.342 N 
HETATM   15  C19 UNL     1      -5.266   1.816   0.775  1.00  0.00     0.225 C 
ATOM     16  H2  UNL     1      -4.868  -1.324   0.690  1.00  0.00     0.167 HD
HETATM   17  O4  UNL     1      -4.802   2.866  -0.009  1.00  0.00    -0.381 OA
BRANCH   7  18
HETATM   18  C6  UNL     1       1.067  -1.022  -1.609  1.00  0.00     0.126 C 
BRANCH  18  19
HETATM   19  S1  UNL     1       2.072   0.420  -1.748  1.00  0.00    -0.123 SA
BRANCH  19  20
HETATM   20  C7  UNL     1       3.014   0.770  -0.264  1.00  0.00     0.027 A 
HETATM   21  C8  UNL     1       2.635   1.584   0.751  1.00  0.00     0.046 A 
HETATM   22  C9  UNL     1       3.413   1.819   1.895  1.00  0.00     0.059 A 
HETATM   23 CL1  UNL     1       2.826   2.889   3.146  1.00  0.00    -0.082 Cl
HETATM   24  C10 UNL     1       4.629   1.197   2.008  1.00  0.00     0.090 A 
HETATM   25 CL2  UNL     1       5.613   1.465   3.410  1.00  0.00    -0.079 Cl
HETATM   26  C11 UNL     1       5.030   0.365   0.983  1.00  0.00     0.114 A 
HETATM   27  C13 UNL     1       4.276   0.135  -0.130  1.00  0.00     0.086 A 
HETATM   28 CL3  UNL     1       4.830  -0.920  -1.392  1.00  0.00    -0.080 Cl
BRANCH  26  29
HETATM   29  O2  UNL     1       6.282  -0.256   1.128  1.00  0.00    -0.352 OA
HETATM   30  C12 UNL     1       7.395   0.458   0.611  1.00  0.00     0.210 C 
ENDBRANCH  26  29
ENDBRANCH  19  20
ENDBRANCH  18  19
ENDBRANCH   7  18
BRANCH   8  31
HETATM   31  O3  UNL     1      -0.328   1.479  -1.056  1.00  0.00    -0.359 OA
ATOM     32  H3  UNL     1      -0.788   2.296  -0.904  1.00  0.00     0.217 HD
ENDBRANCH   8  31
ENDBRANCH   3   4
TORSDOF 6
