REMARK  4 active torsions:
REMARK  status: ('A' for Active; 'I' for Inactive)
REMARK    1  A    between atoms: C3_4  and  C4_5 
REMARK    2  A    between atoms: C4_5  and  C5_6 
REMARK    3  A    between atoms: C5_6  and  C6_7 
REMARK    4  A    between atoms: C7_10  and  C8_11 
ROOT
HETATM    1  C6  UNL     1       1.695  -0.401   0.360  1.00  0.00     0.148 A 
HETATM    2  N2  UNL     1       3.005  -0.125   0.182  1.00  0.00    -0.327 N 
ATOM      3  H2  UNL     1       3.406   0.813   0.162  1.00  0.00     0.169 HD
HETATM    4  C7  UNL     1       3.705  -1.262   0.035  1.00  0.00     0.108 A 
HETATM    5  N3  UNL     1       2.778  -2.248   0.129  1.00  0.00    -0.247 N 
ATOM      6  H3  UNL     1       2.967  -3.248   0.061  1.00  0.00     0.196 HD
HETATM    7  O1  UNL     1       1.622  -1.717   0.318  1.00  0.00    -0.223 OA
ENDROOT
BRANCH   1   8
HETATM    8  C5  UNL     1       0.564   0.541   0.562  1.00  0.00     0.087 C 
BRANCH   8   9
HETATM    9  C4  UNL     1      -0.706  -0.239   0.714  1.00  0.00     0.015 C 
BRANCH   9  10
HETATM   10  C3  UNL     1      -1.896   0.660   0.922  1.00  0.00     0.020 C 
HETATM   11  C2  UNL     1      -2.114   1.612  -0.224  1.00  0.00     0.277 C 
HETATM   12  N1  UNL     1      -3.492   2.021  -0.008  1.00  0.00     0.089 N 
HETATM   13  C1  UNL     1      -3.544   3.021   1.033  1.00  0.00     0.310 C 
HETATM   14  C18 UNL     1      -4.221   0.824   0.372  1.00  0.00     0.227 C 
HETATM   15  C13 UNL     1      -3.192  -0.082   0.975  1.00  0.00     0.025 C 
HETATM   16  C17 UNL     1      -4.879   0.281  -0.857  1.00  0.00     0.036 C 
HETATM   17  C14 UNL     1      -3.142  -1.438   0.321  1.00  0.00     0.007 C 
HETATM   18  C15 UNL     1      -4.582  -1.945   0.269  1.00  0.00     0.001 C 
HETATM   19  C16 UNL     1      -5.302  -1.143  -0.759  1.00  0.00     0.002 C 
ENDBRANCH   9  10
ENDBRANCH   8   9
ENDBRANCH   1   8
BRANCH   4  20
HETATM   20  C8  UNL     1       5.166  -1.398  -0.181  1.00  0.00     0.055 C 
HETATM   21  C9  UNL     1       5.960  -0.792   0.947  1.00  0.00     0.012 C 
HETATM   22  C10 UNL     1       6.930   0.162   0.266  1.00  0.00     0.001 C 
HETATM   23  C11 UNL     1       6.046   0.696  -0.866  1.00  0.00     0.001 C 
HETATM   24  C12 UNL     1       5.513  -0.622  -1.431  1.00  0.00     0.012 C 
ENDBRANCH   4  20
TORSDOF 4
