REMARK  9 active torsions:
REMARK  status: ('A' for Active; 'I' for Inactive)
REMARK    1  A    between atoms: C2_2  and  C3_3 
REMARK    2  A    between atoms: C3_3  and  C4_4 
REMARK    3  A    between atoms: C3_3  and  C5_7 
REMARK    4  A    between atoms: C4_4  and  O1_5 
REMARK    5  A    between atoms: C5_7  and  C7_9 
REMARK    6  A    between atoms: C9_11  and  C10_12 
REMARK    7  A    between atoms: C19_23  and  O4_24 
REMARK    8  A    between atoms: C20_26  and  C21_27 
REMARK    9  A    between atoms: C21_27  and  O5_28 
ROOT
HETATM    1  C10 UNL     1       0.404  -0.532  -0.024  1.00  0.00     0.063 C 
HETATM    2  C11 UNL     1       0.396   0.471   1.080  1.00  0.00    -0.008 C 
HETATM    3  C12 UNL     1       1.356   1.374   1.053  1.00  0.00     0.042 C 
HETATM    4  C13 UNL     1       2.323   1.289  -0.052  1.00  0.00     0.292 C 
HETATM    5  O2  UNL     1       2.676   2.456  -0.702  1.00  0.00    -0.274 OA
HETATM    6  C14 UNL     1       3.920   2.166  -1.308  1.00  0.00     0.265 C 
HETATM    7  O3  UNL     1       4.437   2.678  -2.333  1.00  0.00    -0.265 OA
HETATM    8  C15 UNL     1       4.588   1.077  -0.493  1.00  0.00     0.091 C 
HETATM    9  C16 UNL     1       5.911   1.675  -0.038  1.00  0.00     0.021 C 
HETATM   10  C17 UNL     1       3.656   0.965   0.648  1.00  0.00     0.072 C 
HETATM   11  C18 UNL     1       3.526  -0.315   1.358  1.00  0.00     0.045 C 
HETATM   12  C19 UNL     1       2.762  -1.380   0.654  1.00  0.00     0.161 C 
HETATM   13  C20 UNL     1       1.787  -1.021  -0.371  1.00  0.00     0.226 C 
HETATM   14  N1  UNL     1       2.011   0.256  -1.017  1.00  0.00     0.145 N 
HETATM   15  C22 UNL     1       0.595   0.269  -1.314  1.00  0.00     0.298 C 
ENDROOT
BRANCH   1  16
HETATM   16  C9  UNL     1      -0.648  -1.533  -0.002  1.00  0.00    -0.006 C 
HETATM   17  C7  UNL     1      -1.933  -1.337  -0.111  1.00  0.00    -0.082 C 
HETATM   18  C8  UNL     1      -2.811  -2.600  -0.113  1.00  0.00     0.043 C 
BRANCH  17  19
HETATM   19  C5  UNL     1      -2.571  -0.029  -0.275  1.00  0.00     0.016 C 
HETATM   20  C6  UNL     1      -3.296  -0.043  -1.609  1.00  0.00     0.015 C 
BRANCH  19  21
HETATM   21  C3  UNL     1      -3.385   0.482   0.862  1.00  0.00     0.016 C 
BRANCH  21  22
HETATM   22  C2  UNL     1      -3.850   1.898   0.751  1.00  0.00     0.003 C 
HETATM   23  C1  UNL     1      -4.998   2.204  -0.119  1.00  0.00     0.005 C 
ENDBRANCH  21  22
BRANCH  21  24
HETATM   24  C4  UNL     1      -4.496  -0.393   1.359  1.00  0.00     0.169 C 
BRANCH  24  25
HETATM   25  O1  UNL     1      -5.617  -0.428   0.549  1.00  0.00    -0.400 OA
ATOM     26  H1  UNL     1      -6.321  -0.983   0.864  1.00  0.00     0.209 HD
ENDBRANCH  24  25
ENDBRANCH  21  24
ENDBRANCH  19  21
ENDBRANCH  17  19
ENDBRANCH   1  16
BRANCH  13  27
HETATM   27  C21 UNL     1       1.738  -2.090  -1.437  1.00  0.00     0.210 C 
BRANCH  27  28
HETATM   28  O5  UNL     1       1.565  -3.377  -0.949  1.00  0.00    -0.398 OA
ATOM     29  H5  UNL     1       1.534  -4.049  -1.619  1.00  0.00     0.209 HD
ENDBRANCH  27  28
ENDBRANCH  13  27
BRANCH  12  30
HETATM   30  O4  UNL     1       3.774  -2.159   0.004  1.00  0.00    -0.393 OA
ATOM     31  H4  UNL     1       3.286  -2.839  -0.446  1.00  0.00     0.210 HD
ENDBRANCH  12  30
TORSDOF 9
