REMARK  7 active torsions:
REMARK  status: ('A' for Active; 'I' for Inactive)
REMARK    1  A    between atoms: C3_4  and  N1_5 
REMARK       I    between atoms: N1_5  and  C4_7 
REMARK    2  A    between atoms: C4_7  and  C5_9 
REMARK    3  A    between atoms: C5_9  and  O3_10 
REMARK    4  A    between atoms: O3_10  and  C6_11 
REMARK    5  A    between atoms: C6_11  and  C7_13 
REMARK    6  A    between atoms: C7_13  and  N2_14 
REMARK       I    between atoms: N2_14  and  C8_16 
REMARK    7  A    between atoms: C8_16  and  C9_18 
ROOT
HETATM    1  C7  UNL     1       1.286   0.824  -1.666  1.00  0.00     0.233 C 
ENDROOT
BRANCH   1   2
HETATM    2  C6  UNL     1       2.364   1.205  -0.674  1.00  0.00     0.277 C 
HETATM    3  O4  UNL     1       2.627   2.386  -0.518  1.00  0.00    -0.263 OA
BRANCH   2   4
HETATM    4  O3  UNL     1       2.975   0.204  -0.011  1.00  0.00    -0.311 OA
BRANCH   4   5
HETATM    5  C5  UNL     1       4.033   0.193   0.906  1.00  0.00     0.281 C 
BRANCH   5   6
HETATM    6  C4  UNL     1       5.256   0.209   0.013  1.00  0.00     0.243 C 
HETATM    7  N1  UNL     1       6.412  -0.513   0.411  1.00  0.00    -0.339 N 
ATOM      8  H1  UNL     1       6.448  -0.992   1.311  1.00  0.00     0.164 HD
HETATM    9  O2  UNL     1       5.230   0.843  -1.088  1.00  0.00    -0.271 OA
BRANCH   7  10
HETATM   10  C3  UNL     1       7.519  -0.548  -0.483  1.00  0.00     0.207 C 
HETATM   11  C2  UNL     1       8.620   0.372  -0.086  1.00  0.00     0.148 C 
HETATM   12  C1  UNL     1       9.719  -0.544   0.407  1.00  0.00     0.236 C 
HETATM   13  O1  UNL     1      10.890  -0.273   0.678  1.00  0.00    -0.272 OA
HETATM   14  N4  UNL     1       9.081  -1.836   0.498  1.00  0.00    -0.272 N 
HETATM   15  N3  UNL     1       8.103  -1.891  -0.502  1.00  0.00    -0.113 NA
ATOM     16  H4  UNL     1       9.302  -2.573   1.168  1.00  0.00     0.185 HD
ENDBRANCH   7  10
ENDBRANCH   5   6
ENDBRANCH   4   5
ENDBRANCH   2   4
ENDBRANCH   1   2
BRANCH   1  17
HETATM   17  N2  UNL     1       0.113   0.435  -0.960  1.00  0.00    -0.351 N 
HETATM   18  C8  UNL     1      -0.730   1.101  -0.085  1.00  0.00     0.222 C 
HETATM   19  O5  UNL     1      -0.537   2.274   0.177  1.00  0.00    -0.273 OA
ATOM     20  H2  UNL     1      -0.164  -0.531  -1.134  1.00  0.00     0.163 HD
BRANCH  18  21
HETATM   21  C9  UNL     1      -1.922   0.409   0.582  1.00  0.00     0.078 C 
HETATM   22  C10 UNL     1      -2.456  -0.575  -0.344  1.00  0.00     0.018 C 
HETATM   23  C11 UNL     1      -3.068  -0.233  -1.643  1.00  0.00     0.028 C 
HETATM   24  C12 UNL     1      -4.526  -0.309  -1.860  1.00  0.00    -0.027 C 
HETATM   25  C13 UNL     1      -5.374  -1.347  -1.338  1.00  0.00    -0.008 C 
HETATM   26  C14 UNL     1      -6.089  -1.327  -0.053  1.00  0.00    -0.027 C 
HETATM   27  C15 UNL     1      -6.729  -0.137   0.485  1.00  0.00     0.027 C 
HETATM   28  C16 UNL     1      -6.216   0.376   1.865  1.00  0.00     0.004 C 
HETATM   29  C17 UNL     1      -4.836   0.682   1.552  1.00  0.00     0.000 C 
HETATM   30  C18 UNL     1      -3.692   1.058   2.304  1.00  0.00     0.001 C 
HETATM   31  C19 UNL     1      -2.686   1.483   1.228  1.00  0.00     0.014 C 
ENDBRANCH  18  21
ENDBRANCH   1  17
TORSDOF 7
