REMARK  7 active torsions:
REMARK  status: ('A' for Active; 'I' for Inactive)
REMARK    1  A    between atoms: C2_2  and  C4_4 
REMARK    2  A    between atoms: C4_4  and  N1_5 
REMARK    3  A    between atoms: C4_4  and  C7_12 
REMARK       I    between atoms: N1_5  and  C5_7 
REMARK    4  A    between atoms: C5_7  and  C6_9 
REMARK    5  A    between atoms: C6_9  and  O2_10 
REMARK    6  A    between atoms: C7_12  and  C8_18 
REMARK    7  A    between atoms: N2_13  and  N3_15 
ROOT
HETATM    1  C7  UNL     1       2.065   0.524   0.115  1.00  0.00     0.031 C 
HETATM    2  N2  UNL     1       1.919   1.585  -0.552  1.00  0.00    -0.313 N 
ATOM      3  H2  UNL     1       0.952   1.909  -0.521  1.00  0.00     0.185 HD
ENDROOT
BRANCH   1   4
HETATM    4  C4  UNL     1       3.355  -0.139   0.227  1.00  0.00     0.135 C 
BRANCH   4   5
HETATM    5  C2  UNL     1       3.574  -1.537  -0.161  1.00  0.00     0.006 C 
HETATM    6  C1  UNL     1       2.712  -2.556   0.468  1.00  0.00     0.012 C 
HETATM    7  C3  UNL     1       3.647  -1.770  -1.662  1.00  0.00     0.012 C 
ENDBRANCH   4   5
BRANCH   4   8
HETATM    8  N1  UNL     1       4.385   0.616  -0.528  1.00  0.00    -0.349 N 
HETATM    9  C5  UNL     1       5.347   1.339   0.180  1.00  0.00     0.241 C 
HETATM   10  O1  UNL     1       5.369   1.373   1.457  1.00  0.00    -0.271 OA
ATOM     11  H1  UNL     1       4.390   0.607  -1.548  1.00  0.00     0.163 HD
BRANCH   9  12
HETATM   12  C6  UNL     1       6.427   2.132  -0.496  1.00  0.00     0.266 C 
BRANCH  12  13
HETATM   13  O2  UNL     1       7.261   2.765   0.411  1.00  0.00    -0.392 OA
ATOM     14  H2  UNL     1       7.945   3.267  -0.017  1.00  0.00     0.210 HD
ENDBRANCH  12  13
ENDBRANCH   9  12
ENDBRANCH   4   8
ENDBRANCH   1   4
BRANCH   1  15
HETATM   15  C8  UNL     1       0.817   0.025   0.789  1.00  0.00     0.044 C 
HETATM   16  C9  UNL     1      -0.074   1.231   1.194  1.00  0.00     0.017 C 
HETATM   17  C10 UNL     1      -1.047   0.840   0.148  1.00  0.00     0.000 C 
HETATM   18  C11 UNL     1      -2.461   0.599   0.627  1.00  0.00     0.002 C 
HETATM   19  C21 UNL     1      -0.297  -0.435  -0.064  1.00  0.00    -0.025 C 
HETATM   20  C12 UNL     1      -3.254   1.910   0.600  1.00  0.00     0.006 C 
HETATM   21  C18 UNL     1      -3.158  -0.439  -0.225  1.00  0.00     0.067 C 
HETATM   22  C13 UNL     1      -4.575   1.667   1.263  1.00  0.00     0.001 C 
HETATM   23  C14 UNL     1      -4.878   0.203   1.456  1.00  0.00     0.010 C 
HETATM   24  C15 UNL     1      -4.591  -0.605   0.192  1.00  0.00    -0.037 C 
HETATM   25  C16 UNL     1      -4.978  -2.024   0.483  1.00  0.00     0.015 C 
HETATM   26  C17 UNL     1      -5.526  -0.077  -0.875  1.00  0.00     0.015 C 
HETATM   27  C19 UNL     1      -2.369  -1.680  -0.150  1.00  0.00     0.133 C 
HETATM   28  O3  UNL     1      -2.661  -2.744  -0.617  1.00  0.00    -0.298 OA
HETATM   29  C20 UNL     1      -1.056  -1.598   0.593  1.00  0.00     0.089 C 
HETATM   30  C22 UNL     1      -0.045  -0.757  -1.517  1.00  0.00     0.016 C 
ENDBRANCH   1  15
BRANCH   2  31
HETATM   31  N3  UNL     1       2.678   2.401  -1.287  1.00  0.00    -0.345 N 
ATOM     32  H32 UNL     1       3.638   2.056  -1.303  1.00  0.00     0.176 HD
ATOM     33  H31 UNL     1       2.560   3.259  -1.826  1.00  0.00     0.176 HD
ENDBRANCH   2  31
TORSDOF 7
