REMARK  6 active torsions:
REMARK  status: ('A' for Active; 'I' for Inactive)
REMARK    1  A    between atoms: C2_2  and  C4_5 
REMARK    2  A    between atoms: C6_12  and  C7_13 
REMARK    3  A    between atoms: C8_14  and  C9_15 
REMARK    4  A    between atoms: C9_15  and  C10_16 
REMARK    5  A    between atoms: C10_16  and  C11_17 
REMARK    6  A    between atoms: C11_17  and  C12_18 
ROOT
HETATM    1  C4  UNL     1      -2.748  -0.991   0.053  1.00  0.00     0.070 A 
HETATM    2  N1  UNL     1      -3.703  -1.938   0.270  1.00  0.00    -0.332 N 
ATOM      3  H1  UNL     1      -4.606  -1.975  -0.203  1.00  0.00     0.168 HD
HETATM    4  C5  UNL     1      -3.284  -2.817   1.198  1.00  0.00     0.177 A 
HETATM    5  S1  UNL     1      -4.124  -4.103   1.748  1.00  0.00    -0.040 SA
HETATM    6  N2  UNL     1      -2.053  -2.425   1.574  1.00  0.00    -0.324 N 
ATOM      7  H2  UNL     1      -1.473  -2.895   2.269  1.00  0.00     0.169 HD
HETATM    8  C6  UNL     1      -1.702  -1.309   0.888  1.00  0.00     0.113 A 
ENDROOT
BRANCH   8   9
HETATM    9  C7  UNL     1      -0.476  -0.567   0.983  1.00  0.00    -0.047 C 
HETATM   10  C8  UNL     1       0.581   0.048   1.073  1.00  0.00    -0.100 C 
BRANCH  10  11
HETATM   11  C9  UNL     1       1.840   0.788   1.156  1.00  0.00     0.095 C 
BRANCH  11  12
HETATM   12  C10 UNL     1       2.827   0.319   0.103  1.00  0.00     0.021 C 
BRANCH  12  13
HETATM   13  C11 UNL     1       4.123   1.064   0.170  1.00  0.00     0.100 C 
BRANCH  13  14
HETATM   14  C12 UNL     1       5.029   0.555  -0.882  1.00  0.00     0.231 C 
HETATM   15  N3  UNL     1       6.338   1.085  -1.051  1.00  0.00    -0.062 NA
HETATM   16  O1  UNL     1       4.632  -0.361  -1.638  1.00  0.00    -0.277 OA
ENDBRANCH  13  14
ENDBRANCH  12  13
ENDBRANCH  11  12
ENDBRANCH  10  11
ENDBRANCH   8   9
BRANCH   1  17
HETATM   17  C2  UNL     1      -2.772   0.155  -0.865  1.00  0.00     0.075 C 
HETATM   18  C1  UNL     1      -4.127   0.109  -1.587  1.00  0.00     0.039 C 
HETATM   19  C3  UNL     1      -2.718   1.491  -0.158  1.00  0.00     0.039 C 
HETATM   20 CL1  UNL     1      -1.522   0.049  -2.120  1.00  0.00    -0.113 Cl
ENDBRANCH   1  17
TORSDOF 6
