REMARK  10 active torsions:
REMARK  status: ('A' for Active; 'I' for Inactive)
REMARK    1  A    between atoms: C3_5  and  C4_6 
REMARK    2  A    between atoms: C4_6  and  C5_7 
REMARK    3  A    between atoms: C5_7  and  C6_8 
REMARK    4  A    between atoms: C6_8  and  N3_19 
REMARK    5  A    between atoms: N2_9  and  C7_11 
REMARK    6  A    between atoms: C16_21  and  O1_22 
REMARK    7  A    between atoms: O1_22  and  C17_23 
REMARK    8  A    between atoms: C21_27  and  C22_28 
REMARK    9  A    between atoms: C22_28  and  O2_29 
REMARK   10  A    between atoms: N4_31  and  O3_33 
ROOT
HETATM    1  C6  UNL     1       0.665   0.957   0.012  1.00  0.00     0.100 C 
HETATM    2  N2  UNL     1       1.773   0.291   0.049  1.00  0.00    -0.374 N 
ATOM      3  H2  UNL     1       2.652   0.804   0.112  1.00  0.00     0.161 HD
ENDROOT
BRANCH   1   4
HETATM    4  C5  UNL     1       0.758   2.424   0.063  1.00  0.00     0.084 C 
BRANCH   4   5
HETATM    5  C4  UNL     1       2.158   2.924   0.161  1.00  0.00     0.065 C 
BRANCH   5   6
HETATM    6  C3  UNL     1       2.144   4.442   0.207  1.00  0.00     0.016 A 
HETATM    7  N1  UNL     1       3.253   5.118   0.293  1.00  0.00    -0.357 N 
HETATM    8  C2  UNL     1       3.214   6.432   0.330  1.00  0.00     0.046 A 
ATOM      9  H1  UNL     1       4.148   4.631   0.332  1.00  0.00     0.166 HD
HETATM   10  C1  UNL     1       4.325   7.434   0.426  1.00  0.00     0.076 C 
HETATM   11  S1  UNL     1       1.546   6.766   0.242  1.00  0.00    -0.087 SA
HETATM   12  C25 UNL     1       0.973   5.159   0.159  1.00  0.00     0.076 A 
ENDBRANCH   5   6
ENDBRANCH   4   5
ENDBRANCH   1   4
BRANCH   1  13
HETATM   13  N3  UNL     1      -0.605   0.346  -0.075  1.00  0.00    -0.244 N 
HETATM   14  C15 UNL     1      -1.413   0.305   1.143  1.00  0.00     0.190 C 
HETATM   15  C16 UNL     1      -2.886  -0.006   0.701  1.00  0.00     0.154 C 
HETATM   16  C21 UNL     1      -3.272   1.070  -0.294  1.00  0.00     0.095 C 
HETATM   17  C23 UNL     1      -3.160   0.495  -1.672  1.00  0.00     0.044 C 
HETATM   18  C24 UNL     1      -1.684   0.687  -2.067  1.00  0.00     0.202 C 
HETATM   19  O4  UNL     1      -0.920  -0.137  -1.291  1.00  0.00    -0.277 OA
BRANCH  15  20
HETATM   20  O1  UNL     1      -2.805  -1.196   0.076  1.00  0.00    -0.373 OA
BRANCH  20  21
HETATM   21  C17 UNL     1      -3.350  -2.324   0.501  1.00  0.00     0.050 C 
HETATM   22  C18 UNL     1      -4.850  -2.261   0.574  1.00  0.00     0.045 C 
HETATM   23  C19 UNL     1      -2.826  -2.862   1.816  1.00  0.00     0.045 C 
HETATM   24  C20 UNL     1      -3.022  -3.428  -0.527  1.00  0.00     0.045 C 
ENDBRANCH  20  21
ENDBRANCH  15  20
BRANCH  16  25
HETATM   25  C22 UNL     1      -4.613   1.572   0.007  1.00  0.00     0.142 C 
HETATM   26  N4  UNL     1      -5.176   1.343   1.125  1.00  0.00    -0.251 N 
ATOM     27  H4  UNL     1      -4.678   0.796   1.827  1.00  0.00     0.196 HD
BRANCH  25  28
HETATM   28  O2  UNL     1      -5.319   2.332  -0.939  1.00  0.00    -0.348 OA
ATOM     29  H2  UNL     1      -6.190   2.658  -0.744  1.00  0.00     0.219 HD
ENDBRANCH  25  28
BRANCH  26  30
HETATM   30  O3  UNL     1      -6.416   1.804   1.410  1.00  0.00    -0.288 OA
ATOM     31  H3  UNL     1      -6.836   1.633   2.245  1.00  0.00     0.244 HD
ENDBRANCH  26  30
ENDBRANCH  16  25
ENDBRANCH   1  13
BRANCH   2  32
HETATM   32  C7  UNL     1       1.813  -1.157   0.005  1.00  0.00     0.082 C 
HETATM   33  C8  UNL     1       2.280  -1.642  -1.319  1.00  0.00     0.025 C 
HETATM   34  C9  UNL     1       3.769  -1.833  -1.418  1.00  0.00     0.002 C 
HETATM   35  C10 UNL     1       4.144  -3.309  -1.335  1.00  0.00     0.000 C 
HETATM   36  C11 UNL     1       4.887  -3.514  -0.060  1.00  0.00     0.000 C 
HETATM   37  C12 UNL     1       4.060  -3.752   1.138  1.00  0.00     0.000 C 
HETATM   38  C13 UNL     1       2.653  -3.219   1.053  1.00  0.00     0.002 C 
HETATM   39  C14 UNL     1       2.588  -1.727   1.175  1.00  0.00     0.025 C 
ENDBRANCH   2  32
TORSDOF 10
