REMARK  9 active torsions:
REMARK  status: ('A' for Active; 'I' for Inactive)
REMARK    1  A    between atoms: S1_2  and  C2_3 
REMARK    2  A    between atoms: N1_5  and  C4_6 
REMARK    3  A    between atoms: C4_6  and  C5_7 
REMARK    4  A    between atoms: N2_10  and  C8_11 
REMARK    5  A    between atoms: C8_11  and  N3_13 
REMARK    6  A    between atoms: N3_13  and  C9_15 
REMARK    7  A    between atoms: C9_15  and  C10_16 
REMARK    8  A    between atoms: C10_16  and  C11_17 
REMARK    9  A    between atoms: C20_27  and  O1_28 
ROOT
HETATM    1  C5  UNL     1       2.616   1.137  -0.244  1.00  0.00     0.051 C 
HETATM    2  C6  UNL     1       1.987   1.454   1.123  1.00  0.00     0.029 C 
HETATM    3  C7  UNL     1       0.530   1.756   0.992  1.00  0.00     0.126 C 
HETATM    4  N2  UNL     1      -0.208   0.728   0.242  1.00  0.00    -0.356 N 
HETATM    5  C17 UNL     1       0.603  -0.335  -0.293  1.00  0.00     0.162 C 
HETATM    6  C18 UNL     1       1.700   0.395  -1.111  1.00  0.00     0.194 C 
HETATM    7  F1  UNL     1       0.911   1.304  -1.881  1.00  0.00    -0.247 F 
ENDROOT
BRANCH   4   8
HETATM    8  C8  UNL     1      -1.587   0.891   0.125  1.00  0.00     0.169 C 
HETATM    9  S2  UNL     1      -2.298   2.207   0.787  1.00  0.00    -0.041 SA
BRANCH   8  10
HETATM   10  N3  UNL     1      -2.399  -0.037  -0.568  1.00  0.00    -0.367 N 
ATOM     11  H3  UNL     1      -1.933  -0.840  -0.991  1.00  0.00     0.161 HD
BRANCH  10  12
HETATM   12  C9  UNL     1      -3.821   0.054  -0.727  1.00  0.00     0.126 C 
BRANCH  12  13
HETATM   13  C10 UNL     1      -4.530  -0.194   0.596  1.00  0.00     0.053 C 
BRANCH  13  14
HETATM   14  C11 UNL     1      -5.987  -0.060   0.355  1.00  0.00    -0.082 C 
HETATM   15  C12 UNL     1      -6.694   0.847   1.005  1.00  0.00    -0.024 C 
HETATM   16  C13 UNL     1      -8.164   0.870   0.658  1.00  0.00     0.027 C 
HETATM   17  C14 UNL     1      -8.680  -0.540   0.816  1.00  0.00     0.004 C 
HETATM   18  C15 UNL     1      -7.865  -1.575   0.105  1.00  0.00     0.005 C 
HETATM   19  C16 UNL     1      -6.678  -0.932  -0.618  1.00  0.00     0.034 C 
ENDBRANCH  13  14
ENDBRANCH  12  13
ENDBRANCH  10  12
ENDBRANCH   8  10
ENDBRANCH   4   8
BRANCH   1  20
HETATM   20  C4  UNL     1       3.976   0.659   0.052  1.00  0.00     0.280 C 
BRANCH  20  21
HETATM   21  N1  UNL     1       4.836   0.262  -0.998  1.00  0.00     0.092 N 
HETATM   22  C3  UNL     1       6.210   0.342  -0.450  1.00  0.00     0.290 C 
HETATM   23  C2  UNL     1       6.231  -0.745   0.566  1.00  0.00     0.105 C 
HETATM   24  C20 UNL     1       5.532  -1.862  -0.124  1.00  0.00     0.161 C 
HETATM   25  C19 UNL     1       4.815  -1.170  -1.287  1.00  0.00     0.305 C 
BRANCH  23  26
HETATM   26  S1  UNL     1       7.973  -1.145   0.929  1.00  0.00    -0.164 SA
HETATM   27  C1  UNL     1       8.685   0.337   1.741  1.00  0.00     0.090 C 
ENDBRANCH  23  26
BRANCH  24  28
HETATM   28  O1  UNL     1       6.403  -2.838  -0.607  1.00  0.00    -0.393 OA
ATOM     29  H1  UNL     1       5.957  -3.551  -1.048  1.00  0.00     0.210 HD
ENDBRANCH  24  28
ENDBRANCH  20  21
ENDBRANCH   1  20
TORSDOF 9
