REMARK  11 active torsions:
REMARK  status: ('A' for Active; 'I' for Inactive)
REMARK    1  A    between atoms: C2_2  and  C3_3 
REMARK    2  A    between atoms: C3_3  and  C4_4 
REMARK    3  A    between atoms: C4_4  and  O1_5 
REMARK    4  A    between atoms: C4_4  and  C12_18 
REMARK    5  A    between atoms: O1_5  and  C5_6 
REMARK    6  A    between atoms: C5_6  and  C6_7 
REMARK    7  A    between atoms: C6_7  and  O2_8 
REMARK    8  A    between atoms: C6_7  and  C7_10 
REMARK    9  A    between atoms: C7_10  and  N1_11 
REMARK   10  A    between atoms: N1_11  and  C8_14 
REMARK   11  A    between atoms: C8_14  and  C9_15 
ROOT
HETATM    1  C6  UNL     1      -0.758   1.061   1.877  1.00  0.00     0.167 C 
ENDROOT
BRANCH   1   2
HETATM    2  C5  UNL     1       0.704   0.664   1.884  1.00  0.00     0.201 C 
BRANCH   2   3
HETATM    3  O1  UNL     1       1.070   0.439   0.582  1.00  0.00    -0.383 OA
BRANCH   3   4
HETATM    4  C4  UNL     1       2.413   0.058   0.423  1.00  0.00     0.129 C 
BRANCH   4   5
HETATM    5  C3  UNL     1       2.401  -1.358  -0.013  1.00  0.00     0.058 C 
BRANCH   5   6
HETATM    6  C2  UNL     1       3.711  -1.991  -0.240  1.00  0.00    -0.034 C 
HETATM    7  C1  UNL     1       3.982  -2.527  -1.417  1.00  0.00     0.007 C 
ENDBRANCH   5   6
ENDBRANCH   4   5
BRANCH   4   8
HETATM    8  C12 UNL     1       3.198   1.054  -0.315  1.00  0.00     0.015 C 
HETATM    9  C13 UNL     1       4.659   0.988  -0.463  1.00  0.00     0.007 C 
HETATM   10  C14 UNL     1       4.515   1.270  -1.964  1.00  0.00     0.001 C 
HETATM   11  C15 UNL     1       3.025   1.066  -1.825  1.00  0.00     0.007 C 
ENDBRANCH   4   8
ENDBRANCH   3   4
ENDBRANCH   2   3
ENDBRANCH   1   2
BRANCH   1  12
HETATM   12  O2  UNL     1      -1.251   1.316   3.137  1.00  0.00    -0.392 OA
ATOM     13  H2  UNL     1      -2.168   1.565   3.133  1.00  0.00     0.210 HD
ENDBRANCH   1  12
BRANCH   1  14
HETATM   14  C7  UNL     1      -1.518  -0.039   1.164  1.00  0.00     0.265 C 
BRANCH  14  15
HETATM   15  N1  UNL     1      -2.915   0.316   1.011  1.00  0.00    -0.072 N 
ATOM     16  H12 UNL     1      -3.352   0.554   1.901  1.00  0.00     0.277 HD
ATOM     17  H11 UNL     1      -3.036   1.215   0.545  1.00  0.00     0.277 HD
BRANCH  15  18
HETATM   18  C8  UNL     1      -3.605  -0.743   0.334  1.00  0.00     0.236 C 
BRANCH  18  19
HETATM   19  C9  UNL     1      -5.070  -0.333   0.192  1.00  0.00     0.003 C 
HETATM   20  C10 UNL     1      -5.838  -1.426  -0.520  1.00  0.00     0.011 C 
HETATM   21  C11 UNL     1      -5.123   0.937  -0.595  1.00  0.00     0.011 C 
ENDBRANCH  18  19
ENDBRANCH  15  18
ENDBRANCH  14  15
ENDBRANCH   1  14
TORSDOF 11
