REMARK  11 active torsions:
REMARK  status: ('A' for Active; 'I' for Inactive)
REMARK    1  A    between atoms: C3_5  and  C4_6 
REMARK    2  A    between atoms: C4_6  and  S1_7 
REMARK    3  A    between atoms: S1_7  and  C5_8 
REMARK    4  A    between atoms: N5_15  and  C6_16 
REMARK    5  A    between atoms: N7_22  and  C9_23 
REMARK    6  A    between atoms: C9_23  and  C10_24 
REMARK       I    between atoms: C10_24  and  N8_26 
REMARK    7  A    between atoms: N8_26  and  C11_28 
REMARK    8  A    between atoms: C11_28  and  C12_29 
REMARK    9  A    between atoms: C12_29  and  O3_32 
REMARK   10  A    between atoms: C15_34  and  N9_35 
REMARK   11  A    between atoms: C17_41  and  N11_42 
ROOT
HETATM    1  C6  UNL     1       1.633  -0.967   1.908  1.00  0.00     0.709 A 
HETATM    2  N6  UNL     1       0.851  -0.214   1.116  1.00  0.00    -0.182 N 
ATOM      3  H6  UNL     1       1.069   0.773   0.977  1.00  0.00     0.184 HD
HETATM    4  C7  UNL     1      -0.236  -0.765   0.496  1.00  0.00     0.148 A 
HETATM    5  C8  UNL     1      -1.029   0.017  -0.311  1.00  0.00     0.292 A 
HETATM    6  O1  UNL     1      -0.734   1.238  -0.466  1.00  0.00    -0.265 OA
HETATM    7  N7  UNL     1      -2.108  -0.478  -0.941  1.00  0.00    -0.137 N 
HETATM    8  C15 UNL     1      -2.372  -1.774  -0.743  1.00  0.00     0.682 A 
HETATM    9  N10 UNL     1      -1.615  -2.586   0.049  1.00  0.00    -0.186 N 
ATOM     10  H10 UNL     1      -1.867  -3.568   0.163  1.00  0.00     0.184 HD
HETATM   11  C16 UNL     1      -0.554  -2.098   0.668  1.00  0.00     0.126 A 
HETATM   12  C17 UNL     1       0.258  -2.875   1.489  1.00  0.00     0.144 A 
HETATM   13  N12 UNL     1       1.316  -2.260   2.069  1.00  0.00    -0.173 N 
ATOM     14  H12 UNL     1       1.916  -2.822   2.673  1.00  0.00     0.186 HD
ENDROOT
BRANCH   1  15
HETATM   15  N5  UNL     1       2.761  -0.397   2.553  1.00  0.00    -0.046 N 
HETATM   16  C5  UNL     1       3.676   0.397   1.932  1.00  0.00     0.201 A 
HETATM   17  N2  UNL     1       4.606   0.758   2.834  1.00  0.00    -0.262 N 
HETATM   18  N3  UNL     1       4.273   0.202   3.979  1.00  0.00    -0.225 N 
ATOM     19  H2  UNL     1       5.418   1.352   2.663  1.00  0.00     0.190 HD
HETATM   20  N4  UNL     1       3.159  -0.492   3.798  1.00  0.00    -0.205 N 
ATOM     21  H3  UNL     1       4.785   0.290   4.857  1.00  0.00     0.210 HD
ATOM     22  H4  UNL     1       2.680  -1.024   4.524  1.00  0.00     0.211 HD
BRANCH  16  23
HETATM   23  S1  UNL     1       3.600   0.844   0.215  1.00  0.00    -0.084 SA
BRANCH  23  24
HETATM   24  C4  UNL     1       4.928   1.888  -0.357  1.00  0.00     0.139 C 
BRANCH  24  25
HETATM   25  C3  UNL     1       6.232   1.179  -0.350  1.00  0.00     0.023 A 
HETATM   26  N1  UNL     1       6.567   0.353  -1.392  1.00  0.00    -0.349 N 
HETATM   27  C2  UNL     1       7.738  -0.290  -1.444  1.00  0.00     0.078 A 
ATOM     28  H1  UNL     1       5.900   0.225  -2.153  1.00  0.00     0.167 HD
HETATM   29  C1  UNL     1       8.066  -1.179  -2.590  1.00  0.00     0.089 C 
HETATM   30  N14 UNL     1       8.629  -0.133  -0.452  1.00  0.00    -0.333 N 
HETATM   31  C19 UNL     1       8.365   0.663   0.599  1.00  0.00     0.101 A 
ATOM     32  H14 UNL     1       9.521  -0.626  -0.496  1.00  0.00     0.168 HD
HETATM   33  C18 UNL     1       7.147   1.336   0.659  1.00  0.00     0.073 A 
HETATM   34  N13 UNL     1       9.220   0.817   1.558  1.00  0.00    -0.385 N 
ATOM     35 2H13 UNL     1       9.020   1.421   2.355  1.00  0.00     0.157 HD
ATOM     36 1H13 UNL     1      10.112   0.324   1.514  1.00  0.00     0.157 HD
ENDBRANCH  24  25
ENDBRANCH  23  24
ENDBRANCH  16  23
ENDBRANCH   1  15
BRANCH  12  37
HETATM   37  N11 UNL     1       0.013  -4.108   1.684  1.00  0.00    -0.383 N 
ATOM     38 2H11 UNL     1      -0.784  -4.571   1.247  1.00  0.00     0.157 HD
ATOM     39 1H11 UNL     1       0.608  -4.677   2.286  1.00  0.00     0.157 HD
ENDBRANCH  12  37
BRANCH   7  40
HETATM   40  C9  UNL     1      -2.923   0.396  -1.794  1.00  0.00     0.253 C 
BRANCH  40  41
HETATM   41  C10 UNL     1      -3.991   1.081  -1.055  1.00  0.00     0.236 C 
HETATM   42  O2  UNL     1      -3.690   2.186  -0.483  1.00  0.00    -0.272 OA
HETATM   43  N8  UNL     1      -5.324   0.631  -0.916  1.00  0.00    -0.357 N 
ATOM     44  H8  UNL     1      -5.609  -0.244  -1.355  1.00  0.00     0.162 HD
BRANCH  43  45
HETATM   45  C11 UNL     1      -6.304   1.411  -0.145  1.00  0.00     0.159 C 
BRANCH  45  46
HETATM   46  C12 UNL     1      -7.638   0.688  -0.172  1.00  0.00     0.066 C 
HETATM   47  C13 UNL     1      -8.130   0.496  -1.587  1.00  0.00     0.047 C 
HETATM   48  C14 UNL     1      -8.634   1.463   0.641  1.00  0.00     0.047 C 
BRANCH  46  49
HETATM   49  O3  UNL     1      -7.526  -0.589   0.391  1.00  0.00    -0.389 OA
ATOM     50  H3  UNL     1      -8.361  -1.042   0.374  1.00  0.00     0.210 HD
ENDBRANCH  46  49
ENDBRANCH  45  46
ENDBRANCH  43  45
ENDBRANCH  40  41
ENDBRANCH   7  40
BRANCH   8  51
HETATM   51  N9  UNL     1      -3.381  -2.346  -1.314  1.00  0.00    -0.234 N 
ATOM     52  H92 UNL     1      -3.947  -1.739  -1.906  1.00  0.00     0.174 HD
ATOM     53  H91 UNL     1      -3.582  -3.334  -1.163  1.00  0.00     0.174 HD
ENDBRANCH   8  51
TORSDOF 11
