REMARK  8 active torsions:
REMARK  status: ('A' for Active; 'I' for Inactive)
REMARK    1  A    between atoms: C2_2  and  C3_3 
REMARK    2  A    between atoms: C3_3  and  C4_4 
REMARK    3  A    between atoms: C4_4  and  O1_5 
REMARK    4  A    between atoms: C5_8  and  C6_9 
REMARK    5  A    between atoms: C6_9  and  O3_10 
REMARK    6  A    between atoms: C6_9  and  C7_12 
REMARK    7  A    between atoms: C9_15  and  C10_16 
REMARK    8  A    between atoms: C10_16  and  O5_17 
ROOT
HETATM    1  C4  UNL     1      -0.841  -0.708   0.307  1.00  0.00     0.193 C 
HETATM    2  O2  UNL     1       0.094   0.332   0.451  1.00  0.00    -0.320 OA
HETATM    3  C5  UNL     1       1.336  -0.243   0.505  1.00  0.00     0.292 C 
HETATM    4  O4  UNL     1       1.222  -1.582   0.170  1.00  0.00    -0.346 OA
HETATM    5  C9  UNL     1      -0.019  -1.719  -0.448  1.00  0.00     0.210 C 
ENDROOT
BRANCH   1   6
HETATM    6  C3  UNL     1      -2.002  -0.175  -0.496  1.00  0.00     0.071 C 
BRANCH   6   7
HETATM    7  C2  UNL     1      -2.631   0.938   0.352  1.00  0.00     0.001 C 
HETATM    8  C1  UNL     1      -3.808   1.535  -0.376  1.00  0.00     0.005 C 
ENDBRANCH   6   7
ENDBRANCH   1   6
BRANCH   1   9
HETATM    9  O1  UNL     1      -1.233  -1.219   1.529  1.00  0.00    -0.363 OA
ATOM     10  H1  UNL     1      -0.502  -1.555   2.035  1.00  0.00     0.213 HD
ENDBRANCH   1   9
BRANCH   5  11
HETATM   11  C10 UNL     1      -0.490  -3.135  -0.234  1.00  0.00     0.201 C 
BRANCH  11  12
HETATM   12  O5  UNL     1       0.463  -3.975  -0.813  1.00  0.00    -0.398 OA
ATOM     13  H5  UNL     1       0.166  -4.867  -0.678  1.00  0.00     0.209 HD
ENDBRANCH  11  12
ENDBRANCH   5  11
BRANCH   3  14
HETATM   14  C6  UNL     1       2.289   0.398  -0.471  1.00  0.00     0.173 C 
BRANCH  14  15
HETATM   15  O3  UNL     1       1.766   0.237  -1.747  1.00  0.00    -0.391 OA
ATOM     16  H3  UNL     1       2.367   0.641  -2.362  1.00  0.00     0.210 HD
ENDBRANCH  14  15
BRANCH  14  17
HETATM   17  C7  UNL     1       2.477   1.873  -0.207  1.00  0.00     0.032 C 
HETATM   18  C8  UNL     1       3.030   2.042   1.181  1.00  0.00     0.007 C 
ENDBRANCH  14  17
ENDBRANCH   3  14
TORSDOF 8
