REMARK  2 active torsions:
REMARK  status: ('A' for Active; 'I' for Inactive)
REMARK    1  A    between atoms: C6_7  and  N1_8 
REMARK    2  A    between atoms: N1_8  and  C7_10 
ROOT
HETATM    1  C1  UNL     1      -5.194   0.623   0.877  1.00  0.00     0.017 C 
HETATM    2  C2  UNL     1      -3.715   0.921   1.063  1.00  0.00     0.044 C 
HETATM    3  C3  UNL     1      -3.016   0.840  -0.263  1.00  0.00     0.021 C 
HETATM    4  C4  UNL     1      -1.584   0.971  -0.032  1.00  0.00     0.055 C 
HETATM    5  C5  UNL     1      -1.075  -0.350   0.385  1.00  0.00     0.201 C 
HETATM    6  O1  UNL     1       0.042   0.051   0.969  1.00  0.00    -0.350 OA
HETATM    7  C6  UNL     1       1.273  -0.223   0.520  1.00  0.00     0.277 C 
HETATM    8  C13 UNL     1       0.894  -0.647  -0.909  1.00  0.00     0.315 C 
HETATM    9  O2  UNL     1       0.678  -2.000  -0.755  1.00  0.00    -0.296 OA
HETATM   10  C14 UNL     1      -0.185  -2.576   0.059  1.00  0.00     0.312 C 
HETATM   11  C15 UNL     1       0.336  -4.031   0.232  1.00  0.00     0.118 C 
HETATM   12  O3  UNL     1      -1.488  -2.805  -0.448  1.00  0.00    -0.168 OA
HETATM   13  O4  UNL     1      -2.346  -2.453   0.508  1.00  0.00    -0.188 OA
HETATM   14  C16 UNL     1      -1.647  -1.416   1.174  1.00  0.00     0.250 C 
HETATM   15  C17 UNL     1      -2.330  -0.889   2.308  1.00  0.00     0.084 C 
HETATM   16  C18 UNL     1      -3.212   0.129   2.158  1.00  0.00     0.099 C 
HETATM   17  F1  UNL     1      -3.757   0.483   3.371  1.00  0.00    -0.211 F 
HETATM   18  O5  UNL     1      -0.477  -2.206   1.356  1.00  0.00    -0.285 OA
HETATM   19  O6  UNL     1       0.155   0.174  -1.592  1.00  0.00    -0.346 OA
HETATM   20  C19 UNL     1      -0.666   1.206  -1.263  1.00  0.00     0.063 C 
HETATM   21  C20 UNL     1      -0.083   2.576  -1.280  1.00  0.00     0.046 C 
HETATM   22  C21 UNL     1      -1.703   1.226  -2.420  1.00  0.00     0.046 C 
ENDROOT
BRANCH   7  23
HETATM   23  N1  UNL     1       2.245   0.803   0.599  1.00  0.00    -0.360 N 
ATOM     24  H1  UNL     1       1.940   1.721   0.922  1.00  0.00     0.162 HD
BRANCH  23  25
HETATM   25  C7  UNL     1       3.608   0.643   0.262  1.00  0.00     0.029 A 
HETATM   26  C8  UNL     1       4.180  -0.579  -0.024  1.00  0.00     0.029 A 
HETATM   27  C9  UNL     1       5.508  -0.739  -0.361  1.00  0.00     0.002 A 
HETATM   28  C10 UNL     1       6.337   0.361  -0.424  1.00  0.00     0.000 A 
HETATM   29  C11 UNL     1       5.799   1.596  -0.144  1.00  0.00     0.002 A 
HETATM   30  C12 UNL     1       4.471   1.738   0.190  1.00  0.00     0.029 A 
ENDBRANCH  23  25
ENDBRANCH   7  23
TORSDOF 2
