REMARK  5 active torsions:
REMARK  status: ('A' for Active; 'I' for Inactive)
REMARK    1  A    between atoms: C4_6  and  C6_8 
REMARK       I    between atoms: N2_12  and  C9_13 
REMARK       I    between atoms: C9_13  and  N3_15 
REMARK    2  A    between atoms: N3_15  and  C10_17 
REMARK    3  A    between atoms: C11_22  and  S1_23 
REMARK    4  A    between atoms: S1_23  and  C12_24 
REMARK    5  A    between atoms: C12_24  and  C13_25 
ROOT
HETATM    1  C1  UNL     1      -3.683   2.521  -1.793  1.00  0.00     0.089 C 
HETATM    2  C2  UNL     1      -3.817   1.667  -0.557  1.00  0.00     0.080 C 
HETATM    3  N1  UNL     1      -4.740   1.806   0.321  1.00  0.00    -0.377 N 
ATOM      4  H1  UNL     1      -5.482   2.505   0.282  1.00  0.00     0.160 HD
HETATM    5  C3  UNL     1      -4.579   0.831   1.374  1.00  0.00     0.155 C 
HETATM    6  C4  UNL     1      -3.643  -0.185   0.733  1.00  0.00     0.090 C 
HETATM    7  C5  UNL     1      -2.715  -0.679   1.816  1.00  0.00     0.044 C 
HETATM    8  N2  UNL     1      -2.925   0.604  -0.228  1.00  0.00    -0.275 N 
HETATM    9  C9  UNL     1      -1.635   0.477  -0.801  1.00  0.00     0.330 C 
HETATM   10  O1  UNL     1      -1.190   1.295  -1.644  1.00  0.00    -0.246 OA
HETATM   11  N3  UNL     1      -0.741  -0.590  -0.464  1.00  0.00    -0.287 N 
ATOM     12  H3  UNL     1      -0.978  -1.570  -0.621  1.00  0.00     0.172 HD
ENDROOT
BRANCH  11  13
HETATM   13  C10 UNL     1       0.407  -0.219   0.062  1.00  0.00     0.169 A 
HETATM   14  N4  UNL     1       1.409  -1.000   0.462  1.00  0.00    -0.278 N 
HETATM   15  N5  UNL     1       2.453  -0.447   0.953  1.00  0.00    -0.286 N 
ATOM     16  H4  UNL     1       1.346  -2.015   0.379  1.00  0.00     0.189 HD
HETATM   17  C11 UNL     1       2.522   0.867   1.055  1.00  0.00     0.130 A 
ATOM     18  H5  UNL     1       3.234  -1.023   1.266  1.00  0.00     0.188 HD
HETATM   19  S2  UNL     1       1.012   1.343   0.415  1.00  0.00    -0.026 SA
BRANCH  17  20
HETATM   20  S1  UNL     1       3.879   1.875   1.708  1.00  0.00    -0.097 SA
BRANCH  20  21
HETATM   21  C12 UNL     1       5.002   2.268   0.336  1.00  0.00     0.146 C 
BRANCH  21  22
HETATM   22  C13 UNL     1       5.679   1.053  -0.188  1.00  0.00     0.063 A 
HETATM   23  C14 UNL     1       5.230   0.232  -1.192  1.00  0.00     0.036 A 
HETATM   24  C15 UNL     1       6.164  -0.755  -1.343  1.00  0.00     0.035 A 
HETATM   25  C16 UNL     1       7.148  -0.505  -0.430  1.00  0.00     0.049 A 
HETATM   26  C17 UNL     1       8.383  -1.328  -0.228  1.00  0.00     0.076 C 
HETATM   27  O2  UNL     1       6.812   0.576   0.228  1.00  0.00    -0.319 OA
ENDBRANCH  21  22
ENDBRANCH  20  21
ENDBRANCH  17  20
ENDBRANCH  11  13
BRANCH   6  28
HETATM   28  C6  UNL     1      -4.409  -1.330   0.167  1.00  0.00     0.123 C 
HETATM   29  C7  UNL     1      -3.594  -2.386  -0.486  1.00  0.00     0.054 C 
HETATM   30  C8  UNL     1      -5.490  -0.890  -0.801  1.00  0.00     0.054 C 
HETATM   31  F1  UNL     1      -5.084  -1.931   1.239  1.00  0.00    -0.241 F 
ENDBRANCH   6  28
TORSDOF 5
