REMARK  17 active torsions:
REMARK  status: ('A' for Active; 'I' for Inactive)
REMARK    1  A    between atoms: C2_2  and  C3_3 
REMARK    2  A    between atoms: C3_3  and  C5_5 
REMARK    3  A    between atoms: C5_5  and  C6_6 
REMARK    4  A    between atoms: C5_5  and  N1_9 
REMARK    5  A    between atoms: C6_6  and  O1_7 
REMARK       I    between atoms: N1_9  and  C7_11 
REMARK    6  A    between atoms: C7_11  and  C8_13 
REMARK    7  A    between atoms: C8_13  and  C9_14 
REMARK    8  A    between atoms: C8_13  and  C12_18 
REMARK    9  A    between atoms: C9_14  and  C10_15 
REMARK   10  A    between atoms: C10_15  and  S1_16 
REMARK   11  A    between atoms: C12_18  and  N2_19 
REMARK   12  A    between atoms: C12_18  and  C31_44 
REMARK       I    between atoms: N2_19  and  C13_21 
REMARK   13  A    between atoms: C13_21  and  C14_23 
REMARK   14  A    between atoms: C14_23  and  N3_25 
REMARK       I    between atoms: N3_25  and  C16_27 
REMARK   15  A    between atoms: C16_27  and  O5_29 
REMARK   16  A    between atoms: O5_29  and  C17_30 
REMARK   17  A    between atoms: C31_44  and  O7_46 
ROOT
HETATM    1  N2  UNL     1       1.451  -0.348  -1.155  1.00  0.00    -0.345 N 
ATOM      2  H2  UNL     1       1.774  -0.614  -2.085  1.00  0.00     0.163 HD
HETATM    3  C13 UNL     1       0.098  -0.057  -0.984  1.00  0.00     0.240 C 
HETATM    4  O3  UNL     1      -0.298   0.277   0.185  1.00  0.00    -0.271 OA
ENDROOT
BRANCH   1   5
HETATM    5  C12 UNL     1       2.439  -0.291  -0.062  1.00  0.00     0.197 C 
BRANCH   5   6
HETATM    6  C8  UNL     1       3.276   0.932  -0.252  1.00  0.00     0.111 C 
BRANCH   6   7
HETATM    7  C7  UNL     1       4.323   1.161   0.757  1.00  0.00     0.224 C 
HETATM    8  N1  UNL     1       5.651   0.730   0.704  1.00  0.00    -0.354 N 
ATOM      9  H1  UNL     1       5.957   0.200  -0.112  1.00  0.00     0.163 HD
HETATM   10  O2  UNL     1       3.999   1.827   1.807  1.00  0.00    -0.273 OA
BRANCH   8  11
HETATM   11  C5  UNL     1       6.625   1.002   1.762  1.00  0.00     0.111 C 
BRANCH  11  12
HETATM   12  C3  UNL     1       7.276  -0.254   2.185  1.00  0.00     0.006 C 
HETATM   13  C4  UNL     1       7.978  -1.018   1.081  1.00  0.00     0.012 C 
BRANCH  12  14
HETATM   14  C2  UNL     1       8.148  -0.177   3.406  1.00  0.00     0.002 C 
HETATM   15  C1  UNL     1       9.470   0.478   3.215  1.00  0.00     0.005 C 
ENDBRANCH  12  14
ENDBRANCH  11  12
BRANCH  11  16
HETATM   16  C6  UNL     1       7.525   2.143   1.401  1.00  0.00     0.189 C 
BRANCH  16  17
HETATM   17  O1  UNL     1       6.670   3.264   1.191  1.00  0.00    -0.399 OA
ATOM     18  H1  UNL     1       7.241   3.988   0.962  1.00  0.00     0.209 HD
ENDBRANCH  16  17
ENDBRANCH  11  16
ENDBRANCH   8  11
ENDBRANCH   6   7
BRANCH   6  19
HETATM   19  C9  UNL     1       3.781   1.116  -1.675  1.00  0.00     0.027 C 
BRANCH  19  20
HETATM   20  C10 UNL     1       4.282   2.543  -1.823  1.00  0.00     0.074 C 
BRANCH  20  21
HETATM   21  S1  UNL     1       4.870   2.728  -3.538  1.00  0.00    -0.173 SA
HETATM   22  C11 UNL     1       6.321   1.693  -3.836  1.00  0.00     0.089 C 
ENDBRANCH  20  21
ENDBRANCH  19  20
ENDBRANCH   6  19
ENDBRANCH   5   6
BRANCH   5  23
HETATM   23  C31 UNL     1       3.160  -1.565   0.039  1.00  0.00     0.282 C 
HETATM   24  O6  UNL     1       2.900  -2.506  -0.789  1.00  0.00    -0.263 OA
BRANCH  23  25
HETATM   25  O7  UNL     1       4.125  -1.852   0.979  1.00  0.00    -0.325 OA
HETATM   26  C32 UNL     1       4.763  -3.145   0.988  1.00  0.00     0.213 C 
ENDBRANCH  23  25
ENDBRANCH   5  23
ENDBRANCH   1   5
BRANCH   3  27
HETATM   27  C14 UNL     1      -0.920  -0.103  -2.050  1.00  0.00     0.174 C 
HETATM   28  C15 UNL     1      -0.576   0.743  -3.236  1.00  0.00     0.042 C 
BRANCH  27  29
HETATM   29  N3  UNL     1      -2.229   0.285  -1.575  1.00  0.00    -0.324 N 
HETATM   30  C16 UNL     1      -3.324  -0.617  -1.582  1.00  0.00     0.361 C 
HETATM   31  O4  UNL     1      -3.139  -1.784  -2.012  1.00  0.00    -0.238 OA
ATOM     32  H3  UNL     1      -2.369   1.233  -1.225  1.00  0.00     0.165 HD
BRANCH  30  33
HETATM   33  O5  UNL     1      -4.581  -0.278  -1.139  1.00  0.00    -0.298 OA
BRANCH  33  34
HETATM   34  C17 UNL     1      -5.661  -1.154  -1.139  1.00  0.00     0.142 C 
HETATM   35  C18 UNL     1      -6.754  -0.730  -2.112  1.00  0.00     0.016 C 
HETATM   36  C19 UNL     1      -7.652  -1.948  -2.294  1.00  0.00     0.012 C 
HETATM   37  C23 UNL     1      -7.572   0.416  -1.615  1.00  0.00     0.012 C 
HETATM   38  C20 UNL     1      -8.226  -2.327  -0.949  1.00  0.00    -0.013 C 
HETATM   39  C21 UNL     1      -9.053  -1.139  -0.479  1.00  0.00     0.010 C 
HETATM   40  C30 UNL     1      -7.185  -2.607   0.083  1.00  0.00     0.012 C 
HETATM   41  C22 UNL     1      -8.190   0.064  -0.274  1.00  0.00    -0.005 C 
HETATM   42  C24 UNL     1      -7.083  -0.238   0.702  1.00  0.00    -0.031 C 
HETATM   43  C25 UNL     1      -7.614  -0.528   2.074  1.00  0.00     0.010 C 
HETATM   44  C28 UNL     1      -6.192   0.938   0.939  1.00  0.00     0.010 C 
HETATM   45  C29 UNL     1      -6.253  -1.399   0.215  1.00  0.00     0.025 C 
HETATM   46  C26 UNL     1      -7.566   0.796   2.833  1.00  0.00     0.001 C 
HETATM   47  C27 UNL     1      -7.055   1.814   1.827  1.00  0.00     0.001 C 
ENDBRANCH  33  34
ENDBRANCH  30  33
ENDBRANCH  27  29
ENDBRANCH   3  27
TORSDOF 17
