REMARK  18 active torsions:
REMARK  status: ('A' for Active; 'I' for Inactive)
REMARK    1  A    between atoms: C2_2  and  C3_3 
REMARK    2  A    between atoms: C3_3  and  N1_4 
REMARK    3  A    between atoms: N1_4  and  C4_6 
REMARK    4  A    between atoms: C4_6  and  C5_7 
REMARK    5  A    between atoms: C5_7  and  C6_8 
REMARK    6  A    between atoms: C5_7  and  N4_32 
REMARK    7  A    between atoms: C6_8  and  C7_9 
REMARK    8  A    between atoms: C9_12  and  C10_13 
REMARK    9  A    between atoms: C13_16  and  N2_17 
REMARK   10  A    between atoms: N2_17  and  C14_19 
REMARK   11  A    between atoms: C14_19  and  C16_21 
REMARK   12  A    between atoms: C16_21  and  N3_23 
REMARK       I    between atoms: N3_23  and  C18_24 
REMARK   13  A    between atoms: C18_24  and  O3_26 
REMARK   14  A    between atoms: N4_32  and  C23_34 
REMARK   15  A    between atoms: C23_34  and  C24_35 
REMARK   16  A    between atoms: C24_35  and  C25_37 
REMARK   17  A    between atoms: C25_37  and  O6_38 
REMARK   18  A    between atoms: C31_46  and  C32_47 
ROOT
HETATM    1  C5  UNL     1      -2.109  -1.248  -1.078  1.00  0.00     0.103 C 
ENDROOT
BRANCH   1   2
HETATM    2  C4  UNL     1      -2.419  -2.600  -0.574  1.00  0.00     0.144 C 
BRANCH   2   3
HETATM    3  N1  UNL     1      -2.015  -2.930   0.747  1.00  0.00    -0.397 N 
ATOM      4  H1  UNL     1      -1.620  -2.222   1.365  1.00  0.00     0.158 HD
BRANCH   3   5
HETATM    5  C3  UNL     1      -2.175  -4.264   1.182  1.00  0.00     0.082 C 
BRANCH   5   6
HETATM    6  C2  UNL     1      -3.504  -4.786   1.423  1.00  0.00     0.006 C 
HETATM    7  C1  UNL     1      -4.646  -4.216   1.348  1.00  0.00     0.012 C 
ENDBRANCH   5   6
ENDBRANCH   3   5
ENDBRANCH   2   3
ENDBRANCH   1   2
BRANCH   1   8
HETATM    8  C6  UNL     1      -0.688  -0.863  -1.262  1.00  0.00     0.087 C 
BRANCH   8   9
HETATM    9  C7  UNL     1       0.261  -0.818  -0.143  1.00  0.00     0.262 C 
HETATM   10  O1  UNL     1       0.525  -1.939   0.591  1.00  0.00    -0.359 OA
HETATM   11  C8  UNL     1       1.719  -1.649   1.271  1.00  0.00     0.203 C 
HETATM   12  C9  UNL     1       2.433  -0.769   0.275  1.00  0.00     0.152 C 
HETATM   13  O4  UNL     1       1.536  -0.539  -0.732  1.00  0.00    -0.353 OA
BRANCH  12  14
HETATM   14  C10 UNL     1       3.691  -1.449  -0.240  1.00  0.00     0.017 C 
HETATM   15  C11 UNL     1       4.299  -0.608  -1.312  1.00  0.00     0.009 C 
HETATM   16  C12 UNL     1       5.812  -0.664  -1.328  1.00  0.00     0.025 C 
HETATM   17  C13 UNL     1       6.444  -0.209  -0.047  1.00  0.00     0.080 C 
HETATM   18  C20 UNL     1       5.269  -0.096   0.973  1.00  0.00     0.004 C 
HETATM   19  C21 UNL     1       5.728   0.362   2.302  1.00  0.00     0.012 C 
HETATM   20  C22 UNL     1       4.628  -1.462   0.991  1.00  0.00     0.013 C 
BRANCH  17  21
HETATM   21  N2  UNL     1       7.135   0.955   0.021  1.00  0.00    -0.410 N 
ATOM     22  H2  UNL     1       6.695   1.626   0.651  1.00  0.00     0.154 HD
BRANCH  21  23
HETATM   23  C14 UNL     1       8.262   1.448  -0.538  1.00  0.00     0.108 C 
HETATM   24  C15 UNL     1       8.530   2.891  -0.055  1.00  0.00     0.035 C 
BRANCH  23  25
HETATM   25  C16 UNL     1       9.570   0.638  -0.375  1.00  0.00     0.187 C 
HETATM   26  C17 UNL     1       9.554  -0.676  -1.056  1.00  0.00     0.050 C 
BRANCH  25  27
HETATM   27  N3  UNL     1      10.641   1.477  -0.584  1.00  0.00    -0.383 NA
HETATM   28  C18 UNL     1      11.694   2.303  -0.788  1.00  0.00     0.434 C 
HETATM   29  O2  UNL     1      12.148   2.811  -1.823  1.00  0.00    -0.221 OA
BRANCH  28  30
HETATM   30  O3  UNL     1      12.439   2.670   0.386  1.00  0.00    -0.298 OA
HETATM   31  C19 UNL     1      13.549   3.493   0.338  1.00  0.00     0.216 C 
ENDBRANCH  28  30
ENDBRANCH  25  27
ENDBRANCH  23  25
ENDBRANCH  21  23
ENDBRANCH  17  21
ENDBRANCH  12  14
ENDBRANCH   8   9
ENDBRANCH   1   8
BRANCH   1  32
HETATM   32  N4  UNL     1      -2.877  -0.832  -2.189  1.00  0.00    -0.389 N 
ATOM     33  H4  UNL     1      -2.698  -1.292  -3.082  1.00  0.00     0.159 HD
BRANCH  32  34
HETATM   34  C23 UNL     1      -3.841   0.138  -2.162  1.00  0.00     0.143 C 
BRANCH  34  35
HETATM   35  C24 UNL     1      -5.120  -0.114  -1.412  1.00  0.00     0.237 C 
HETATM   36  O5  UNL     1      -5.210  -1.137  -0.743  1.00  0.00    -0.282 OA
BRANCH  35  37
HETATM   37  C25 UNL     1      -6.188   0.846  -1.505  1.00  0.00     0.191 C 
HETATM   38  N5  UNL     1      -7.398   1.130  -0.941  1.00  0.00    -0.349 N 
HETATM   39  C26 UNL     1      -8.114   2.274  -1.637  1.00  0.00     0.130 C 
HETATM   40  C31 UNL     1      -8.122   0.647   0.171  1.00  0.00     0.034 C 
HETATM   41  C27 UNL     1      -9.274   2.798  -0.928  1.00  0.00     0.004 C 
HETATM   42  C28 UNL     1     -10.563   2.019  -1.124  1.00  0.00     0.006 C 
HETATM   43  C35 UNL     1      -9.031   2.974   0.549  1.00  0.00     0.009 C 
HETATM   44  C29 UNL     1     -10.633   0.860  -0.145  1.00  0.00     0.003 C 
HETATM   45  C30 UNL     1      -9.428   0.018  -0.356  1.00  0.00     0.031 C 
HETATM   46  C34 UNL     1      -8.451   1.757   1.172  1.00  0.00     0.031 C 
BRANCH  37  47
HETATM   47  O6  UNL     1      -5.877   1.765  -2.470  1.00  0.00    -0.343 OA
ATOM     48  H6  UNL     1      -6.582   2.399  -2.531  1.00  0.00     0.219 HD
ENDBRANCH  37  47
BRANCH  40  49
HETATM   49  C32 UNL     1      -7.493  -0.428   1.015  1.00  0.00     0.027 C 
HETATM   50  C33 UNL     1      -8.431  -0.732   2.215  1.00  0.00     0.007 C 
ENDBRANCH  40  49
ENDBRANCH  35  37
ENDBRANCH  34  35
ENDBRANCH  32  34
ENDBRANCH   1  32
TORSDOF 18
