REMARK  7 active torsions:
REMARK  status: ('A' for Active; 'I' for Inactive)
REMARK    1  A    between atoms: C1_2  and  C2_3 
REMARK       I    between atoms: C1_2  and  N6_23 
REMARK    2  A    between atoms: N1_4  and  N2_6 
REMARK    3  A    between atoms: N2_6  and  C3_8 
REMARK    4  A    between atoms: N6_23  and  C9_25 
REMARK    5  A    between atoms: C11_28  and  C12_29 
REMARK    6  A    between atoms: C12_29  and  O3_30 
REMARK    7  A    between atoms: C14_33  and  O4_34 
ROOT
HETATM    1  C2  UNL     1      -0.264   1.184  -0.321  1.00  0.00     0.181 C 
HETATM    2  N1  UNL     1       0.864   1.322   0.239  1.00  0.00    -0.305 N 
ATOM      3  H1  UNL     1       0.979   0.957   1.184  1.00  0.00     0.186 HD
ENDROOT
BRANCH   2   4
HETATM    4  N2  UNL     1       1.951   1.941  -0.360  1.00  0.00    -0.280 N 
ATOM      5  H2  UNL     1       1.841   2.836  -0.836  1.00  0.00     0.189 HD
BRANCH   4   6
HETATM    6  C3  UNL     1       3.212   1.309  -0.298  1.00  0.00     0.156 C 
HETATM    7  N3  UNL     1       3.747   0.886   0.795  1.00  0.00    -0.340 N 
HETATM    8  C4  UNL     1       5.033   0.253   0.775  1.00  0.00     0.317 C 
ATOM      9  H3  UNL     1       3.253   1.002   1.680  1.00  0.00     0.163 HD
HETATM   10  N4  UNL     1       4.916  -1.035   0.130  1.00  0.00    -0.051 N 
HETATM   11  C7  UNL     1       6.102   1.114   0.199  1.00  0.00     0.245 C 
HETATM   12  C5  UNL     1       6.199  -1.568  -0.278  1.00  0.00     0.262 C 
ATOM     13  H42 UNL     1       4.414  -1.698   0.721  1.00  0.00     0.279 HD
ATOM     14  H41 UNL     1       4.268  -0.994  -0.657  1.00  0.00     0.279 HD
HETATM   15  C6  UNL     1       7.315  -0.934   0.524  1.00  0.00     0.260 C 
HETATM   16  N5  UNL     1       7.398   0.498   0.344  1.00  0.00    -0.065 N 
ATOM     17  H52 UNL     1       7.928   0.932   1.100  1.00  0.00     0.277 HD
ATOM     18  H51 UNL     1       8.006   0.734  -0.440  1.00  0.00     0.277 HD
HETATM   19  C8  UNL     1       5.909   1.422  -1.264  1.00  0.00     0.119 C 
HETATM   20  S1  UNL     1       4.200   1.040  -1.789  1.00  0.00    -0.091 SA
ENDBRANCH   4   6
ENDBRANCH   2   4
BRANCH   1  21
HETATM   21  C1  UNL     1      -1.346   0.525   0.376  1.00  0.00     0.260 C 
HETATM   22  O1  UNL     1      -1.143   0.090   1.551  1.00  0.00    -0.267 OA
HETATM   23  N6  UNL     1      -2.604   0.378  -0.266  1.00  0.00    -0.328 N 
ATOM     24  H6  UNL     1      -2.744   0.735  -1.211  1.00  0.00     0.165 HD
BRANCH  23  25
HETATM   25  C9  UNL     1      -3.680  -0.279   0.429  1.00  0.00     0.252 C 
HETATM   26  O2  UNL     1      -4.138  -1.404  -0.273  1.00  0.00    -0.364 OA
HETATM   27  C10 UNL     1      -5.319  -1.826   0.329  1.00  0.00     0.177 C 
HETATM   28  C11 UNL     1      -6.416  -0.926  -0.199  1.00  0.00     0.036 C 
HETATM   29  C13 UNL     1      -5.865   0.480  -0.387  1.00  0.00     0.045 C 
HETATM   30  C14 UNL     1      -4.801   0.723   0.636  1.00  0.00     0.167 C 
BRANCH  28  31
HETATM   31  C12 UNL     1      -6.901  -1.492  -1.519  1.00  0.00     0.170 C 
BRANCH  31  32
HETATM   32  O3  UNL     1      -7.924  -0.673  -2.032  1.00  0.00    -0.400 OA
ATOM     33  H3  UNL     1      -8.228  -1.028  -2.859  1.00  0.00     0.209 HD
ENDBRANCH  31  32
ENDBRANCH  28  31
BRANCH  30  34
HETATM   34  O4  UNL     1      -5.327   0.629   1.923  1.00  0.00    -0.391 OA
ATOM     35  H4  UNL     1      -6.029   1.256   2.053  1.00  0.00     0.210 HD
ENDBRANCH  30  34
ENDBRANCH  23  25
ENDBRANCH   1  21
TORSDOF 7
