REMARK  9 active torsions:
REMARK  status: ('A' for Active; 'I' for Inactive)
REMARK    1  A    between atoms: C2_2  and  C3_3 
REMARK    2  A    between atoms: C3_3  and  N1_4 
REMARK    3  A    between atoms: C6_7  and  N2_8 
REMARK    4  A    between atoms: N2_8  and  C7_9 
REMARK    5  A    between atoms: N3_11  and  C8_12 
REMARK    6  A    between atoms: C8_12  and  C9_13 
REMARK    7  A    between atoms: C13_18  and  N5_19 
REMARK    8  A    between atoms: C15_21  and  C16_22 
REMARK    9  A    between atoms: C22_31  and  C23_32 
ROOT
HETATM    1  C9  UNL     1       1.844  -1.508   2.163  1.00  0.00     0.155 C 
HETATM    2  C10 UNL     1       1.567  -2.925   2.159  1.00  0.00     0.061 C 
HETATM    3  N4  UNL     1       1.362  -4.069   2.154  1.00  0.00    -0.197 NA
ENDROOT
BRANCH   1   4
HETATM    4  C8  UNL     1       1.675  -0.875   0.786  1.00  0.00     0.056 C 
HETATM    5  C11 UNL     1       2.512  -1.529  -0.247  1.00  0.00     0.035 C 
HETATM    6  C12 UNL     1       3.943  -1.094  -0.143  1.00  0.00     0.028 C 
HETATM    7  C13 UNL     1       3.966   0.392  -0.424  1.00  0.00     0.084 C 
HETATM    8  C19 UNL     1       3.234   1.096   0.679  1.00  0.00     0.028 C 
HETATM    9  C20 UNL     1       1.837   0.604   0.892  1.00  0.00     0.035 C 
BRANCH   4  10
HETATM   10  N3  UNL     1       0.264  -1.121   0.426  1.00  0.00    -0.314 N 
HETATM   11  S1  UNL     1      -1.097  -0.314   0.958  1.00  0.00     0.022 SA
HETATM   12  C7  UNL     1      -2.329  -1.193   0.091  1.00  0.00     0.174 A 
HETATM   13  C22 UNL     1      -1.525  -2.115  -0.596  1.00  0.00     0.094 A 
HETATM   14  C21 UNL     1      -0.219  -2.045  -0.400  1.00  0.00     0.120 A 
BRANCH  12  15
HETATM   15  N2  UNL     1      -3.544  -1.064   0.080  1.00  0.00    -0.431 NA
BRANCH  15  16
HETATM   16  C6  UNL     1      -4.844  -0.930   0.064  1.00  0.00     0.194 C 
HETATM   17  C5  UNL     1      -5.461  -0.201  -1.146  1.00  0.00     0.071 C 
HETATM   18  C4  UNL     1      -6.867   0.035  -0.624  1.00  0.00     0.276 C 
HETATM   19  N1  UNL     1      -6.757   0.265   0.778  1.00  0.00     0.095 N 
HETATM   20  C24 UNL     1      -5.504  -0.211   1.255  1.00  0.00     0.312 C 
BRANCH  19  21
HETATM   21  C3  UNL     1      -6.908   1.665   1.070  1.00  0.00     0.299 C 
BRANCH  21  22
HETATM   22  C2  UNL     1      -8.315   2.041   0.781  1.00  0.00    -0.007 C 
HETATM   23  C1  UNL     1      -8.649   2.962  -0.114  1.00  0.00     0.008 C 
ENDBRANCH  21  22
ENDBRANCH  19  21
ENDBRANCH  15  16
ENDBRANCH  12  15
BRANCH  13  24
HETATM   24  C23 UNL     1      -2.173  -3.112  -1.496  1.00  0.00     0.270 C 
HETATM   25  N6  UNL     1      -1.408  -4.075  -2.207  1.00  0.00    -0.057 NA
HETATM   26  O1  UNL     1      -3.401  -3.135  -1.654  1.00  0.00    -0.271 OA
ENDBRANCH  13  24
ENDBRANCH   4  10
BRANCH   7  27
HETATM   27  N5  UNL     1       5.308   0.907  -0.492  1.00  0.00    -0.385 N 
HETATM   28  C14 UNL     1       5.628   2.270  -0.716  1.00  0.00     0.097 C 
HETATM   29  C15 UNL     1       6.937   2.451  -0.630  1.00  0.00     0.042 C 
HETATM   30  C17 UNL     1       7.635   1.169  -0.328  1.00  0.00     0.064 C 
HETATM   31  C18 UNL     1       6.535   0.138  -0.347  1.00  0.00     0.127 C 
BRANCH  29  32
HETATM   32  C16 UNL     1       7.661   3.732  -0.801  1.00  0.00     0.415 C 
HETATM   33  F1  UNL     1       8.328   3.970   0.398  1.00  0.00    -0.166 F 
HETATM   34  F2  UNL     1       8.624   3.582  -1.784  1.00  0.00    -0.166 F 
HETATM   35  F3  UNL     1       6.840   4.768  -1.138  1.00  0.00    -0.166 F 
ENDBRANCH  29  32
ENDBRANCH   7  27
ENDBRANCH   1   4
TORSDOF 9
