REMARK  10 active torsions:
REMARK  status: ('A' for Active; 'I' for Inactive)
REMARK    1  A    between atoms: C2_2  and  C3_3 
REMARK    2  A    between atoms: C4_4  and  C5_5 
REMARK    3  A    between atoms: C8_8  and  C9_9 
REMARK    4  A    between atoms: C9_9  and  C10_10 
REMARK    5  A    between atoms: C10_10  and  C12_12 
REMARK    6  A    between atoms: C12_12  and  C14_14 
REMARK       I    between atoms: C14_14  and  N1_16 
REMARK    7  A    between atoms: N1_16  and  C15_18 
REMARK    8  A    between atoms: C15_18  and  C16_19 
REMARK    9  A    between atoms: C15_18  and  C20_23 
REMARK   10  A    between atoms: C16_19  and  C17_20 
ROOT
HETATM    1  C10 UNL     1       0.248  -2.280   0.698  1.00  0.00    -0.002 C 
HETATM    2  C11 UNL     1      -0.111  -1.890  -0.705  1.00  0.00     0.011 C 
ENDROOT
BRANCH   1   3
HETATM    3  C9  UNL     1       0.799  -1.061   1.402  1.00  0.00     0.045 C 
BRANCH   3   4
HETATM    4  C8  UNL     1       2.011  -0.499   0.749  1.00  0.00    -0.036 A 
HETATM    5  C7  UNL     1       1.962   0.651  -0.016  1.00  0.00     0.010 A 
HETATM    6  C6  UNL     1       3.089   1.171  -0.616  1.00  0.00     0.021 A 
HETATM    7  C5  UNL     1       4.327   0.576  -0.488  1.00  0.00     0.019 A 
HETATM    8  C22 UNL     1       4.375  -0.571   0.275  1.00  0.00     0.045 A 
HETATM    9  C21 UNL     1       3.248  -1.092   0.876  1.00  0.00     0.041 A 
HETATM   10 CL1  UNL     1       3.346  -2.548   1.838  1.00  0.00    -0.084 Cl
BRANCH   7  11
HETATM   11  C4  UNL     1       5.505   1.124  -1.116  1.00  0.00    -0.067 C 
HETATM   12  C3  UNL     1       6.495   1.588  -1.627  1.00  0.00    -0.101 C 
BRANCH  12  13
HETATM   13  C2  UNL     1       7.704   2.150  -2.228  1.00  0.00     0.090 C 
HETATM   14  C1  UNL     1       8.473   2.856  -1.142  1.00  0.00     0.018 C 
ENDBRANCH  12  13
ENDBRANCH   7  11
ENDBRANCH   3   4
ENDBRANCH   1   3
BRANCH   1  15
HETATM   15  C12 UNL     1      -0.998  -2.675   1.445  1.00  0.00     0.078 C 
HETATM   16  C13 UNL     1      -0.699  -3.014   2.895  1.00  0.00     0.020 C 
BRANCH  15  17
HETATM   17  C14 UNL     1      -2.072  -1.670   1.389  1.00  0.00     0.222 C 
HETATM   18  O1  UNL     1      -2.197  -0.916   2.396  1.00  0.00    -0.273 OA
HETATM   19  N1  UNL     1      -2.933  -1.513   0.306  1.00  0.00    -0.346 N 
ATOM     20  H1  UNL     1      -2.847  -2.118  -0.511  1.00  0.00     0.163 HD
BRANCH  19  21
HETATM   21  C15 UNL     1      -3.961  -0.474   0.350  1.00  0.00     0.185 C 
BRANCH  21  22
HETATM   22  C16 UNL     1      -3.752   0.424  -0.834  1.00  0.00     0.040 C 
BRANCH  22  23
HETATM   23  C17 UNL     1      -4.733   1.552  -0.919  1.00  0.00    -0.020 C 
HETATM   24  C18 UNL     1      -4.671   2.455   0.299  1.00  0.00     0.009 C 
HETATM   25  C19 UNL     1      -4.407   2.348  -2.186  1.00  0.00     0.009 C 
ENDBRANCH  22  23
ENDBRANCH  21  22
BRANCH  21  26
HETATM   26  C20 UNL     1      -5.259  -1.147   0.403  1.00  0.00     0.196 C 
HETATM   27  O2  UNL     1      -5.319  -2.411   0.370  1.00  0.00    -0.646 OA
HETATM   28  O3  UNL     1      -6.491  -0.509   0.491  1.00  0.00    -0.646 OA
ENDBRANCH  21  26
ENDBRANCH  19  21
ENDBRANCH  15  17
ENDBRANCH   1  15
TORSDOF 10
