REMARK  5 active torsions:
REMARK  status: ('A' for Active; 'I' for Inactive)
REMARK    1  A    between atoms: C1_2  and  N1_3 
REMARK    2  A    between atoms: C1_2  and  N3_13 
REMARK    3  A    between atoms: N1_3  and  N2_5 
REMARK    4  A    between atoms: N2_5  and  C2_7 
REMARK    5  A    between atoms: N3_13  and  C6_15 
ROOT
HETATM    1  S1  UNL     1       1.028   0.012   2.782  1.00  0.00    -0.040 SA
HETATM    2  C1  UNL     1       0.461   0.002   1.260  1.00  0.00     0.186 C 
ENDROOT
BRANCH   2   3
HETATM    3  N1  UNL     1       1.191  -0.671   0.259  1.00  0.00    -0.274 N 
ATOM      4  H1  UNL     1       0.839  -0.676  -0.698  1.00  0.00     0.189 HD
BRANCH   3   5
HETATM    5  N2  UNL     1       2.408  -1.342   0.557  1.00  0.00    -0.278 N 
ATOM      6  H2  UNL     1       2.390  -2.250   1.022  1.00  0.00     0.189 HD
BRANCH   5   7
HETATM    7  C2  UNL     1       3.649  -0.747   0.206  1.00  0.00     0.163 A 
HETATM    8  C3  UNL     1       4.907  -1.284   0.435  1.00  0.00     0.061 A 
HETATM    9  C4  UNL     1       5.835  -0.393  -0.058  1.00  0.00     0.049 A 
HETATM   10  C5  UNL     1       5.105   0.657  -0.569  1.00  0.00     0.124 A 
HETATM   11 BR1  UNL     1       5.816   2.228  -1.402  1.00  0.00    -0.023 Br
HETATM   12  O1  UNL     1       3.824   0.396  -0.387  1.00  0.00    -0.285 OA
ENDBRANCH   5   7
ENDBRANCH   3   5
ENDBRANCH   2   3
BRANCH   2  13
HETATM   13  N3  UNL     1      -0.737   0.657   0.958  1.00  0.00    -0.361 N 
ATOM     14  H3  UNL     1      -1.226   1.135   1.715  1.00  0.00     0.162 HD
BRANCH  13  15
HETATM   15  C6  UNL     1      -1.323   0.697  -0.363  1.00  0.00     0.083 C 
HETATM   16  C7  UNL     1      -1.706  -0.673  -0.823  1.00  0.00     0.025 C 
HETATM   17  C8  UNL     1      -3.183  -0.870  -0.908  1.00  0.00     0.002 C 
HETATM   18  C9  UNL     1      -3.794  -0.267   0.335  1.00  0.00     0.000 C 
HETATM   19  C10 UNL     1      -3.718   1.232   0.191  1.00  0.00     0.002 C 
HETATM   20  C11 UNL     1      -2.442   1.698  -0.449  1.00  0.00     0.025 C 
ENDBRANCH  13  15
ENDBRANCH   2  13
TORSDOF 5
