REMARK  7 active torsions:
REMARK  status: ('A' for Active; 'I' for Inactive)
REMARK    1  A    between atoms: O1_2  and  C2_3 
REMARK    2  A    between atoms: C2_3  and  C3_4 
REMARK    3  A    between atoms: C3_4  and  C5_6 
REMARK    4  A    between atoms: C8_9  and  C10_11 
REMARK    5  A    between atoms: C10_11  and  C12_13 
REMARK    6  A    between atoms: C15_16  and  O2_17 
REMARK    7  A    between atoms: C16_19  and  O3_20 
ROOT
HETATM    1  C5  UNL     1       1.974  -1.209   0.462  1.00  0.00     0.192 C 
HETATM    2  C6  UNL     1       2.410  -1.478  -0.985  1.00  0.00     0.036 C 
HETATM    3  C7  UNL     1       1.012  -1.717  -1.579  1.00  0.00     0.041 C 
HETATM    4  C8  UNL     1       0.236  -0.585  -0.951  1.00  0.00     0.126 C 
HETATM    5  C9  UNL     1       0.449   0.631  -1.865  1.00  0.00     0.046 C 
HETATM    6  N1  UNL     1       0.887  -0.280   0.282  1.00  0.00    -0.062 N 
ATOM      7  H11 UNL     1       1.189   0.693   0.337  1.00  0.00     0.278 HD
ATOM      8  H12 UNL     1       0.244  -0.270   1.074  1.00  0.00     0.278 HD
ENDROOT
BRANCH   4   9
HETATM    9  C10 UNL     1      -1.208  -0.937  -0.907  1.00  0.00     0.021 C 
HETATM   10  C11 UNL     1      -1.505  -2.167  -0.089  1.00  0.00     0.013 C 
BRANCH   9  11
HETATM   11  C12 UNL     1      -2.174   0.135  -0.596  1.00  0.00    -0.006 C 
HETATM   12  C13 UNL     1      -2.014   0.800   0.751  1.00  0.00     0.007 C 
HETATM   13  C14 UNL     1      -3.032   1.915   0.872  1.00  0.00     0.035 C 
HETATM   14  C15 UNL     1      -4.433   1.518   0.568  1.00  0.00     0.147 C 
HETATM   15  C16 UNL     1      -4.576   0.717  -0.711  1.00  0.00     0.147 C 
HETATM   16  C17 UNL     1      -3.585  -0.433  -0.595  1.00  0.00     0.039 C 
BRANCH  14  17
HETATM   17  O2  UNL     1      -5.187   2.677   0.402  1.00  0.00    -0.393 OA
ATOM     18  H2  UNL     1      -6.082   2.423   0.208  1.00  0.00     0.210 HD
ENDBRANCH  14  17
BRANCH  15  19
HETATM   19  O3  UNL     1      -5.855   0.171  -0.713  1.00  0.00    -0.393 OA
ATOM     20  H3  UNL     1      -5.945  -0.331  -1.515  1.00  0.00     0.210 HD
ENDBRANCH  15  19
ENDBRANCH   9  11
ENDBRANCH   4   9
BRANCH   1  21
HETATM   21  C3  UNL     1       3.113  -0.731   1.273  1.00  0.00     0.036 C 
HETATM   22  C4  UNL     1       4.171  -1.802   1.421  1.00  0.00     0.014 C 
BRANCH  21  23
HETATM   23  C2  UNL     1       3.749   0.530   0.803  1.00  0.00     0.173 C 
BRANCH  23  24
HETATM   24  O1  UNL     1       4.719   0.982   1.710  1.00  0.00    -0.396 OA
HETATM   25  C1  UNL     1       5.253   2.161   1.184  1.00  0.00     0.201 C 
ENDBRANCH  23  24
ENDBRANCH  21  23
ENDBRANCH   1  21
TORSDOF 7
