REMARK  6 active torsions:
REMARK  status: ('A' for Active; 'I' for Inactive)
REMARK    1  A    between atoms: C3_3  and  C4_4 
REMARK    2  A    between atoms: C4_4  and  C5_5 
REMARK    3  A    between atoms: C5_5  and  N1_6 
REMARK    4  A    between atoms: N1_6  and  C6_8 
REMARK    5  A    between atoms: C14_20  and  N4_21 
REMARK    6  A    between atoms: N4_21  and  C15_23 
ROOT
HETATM    1  C1  UNL     1       6.473   5.010  -1.543  1.00  0.00     0.012 C 
HETATM    2  C2  UNL     1       5.784   4.071  -1.264  1.00  0.00    -0.117 C 
HETATM    3  C3  UNL     1       4.958   2.908  -0.935  1.00  0.00     0.094 C 
ENDROOT
BRANCH   3   4
HETATM    4  C4  UNL     1       3.527   3.411  -0.814  1.00  0.00     0.032 C 
BRANCH   4   5
HETATM    5  C5  UNL     1       2.677   2.200  -0.473  1.00  0.00     0.139 C 
BRANCH   5   6
HETATM    6  N1  UNL     1       1.290   2.535  -0.329  1.00  0.00    -0.225 N 
ATOM      7  H1  UNL     1       0.982   3.505  -0.392  1.00  0.00     0.177 HD
BRANCH   6   8
HETATM    8  C6  UNL     1       0.443   1.593  -0.119  1.00  0.00     0.694 A 
HETATM    9  N2  UNL     1       0.820   0.309  -0.031  1.00  0.00    -0.175 N 
HETATM   10  C7  UNL     1      -0.072  -0.647   0.187  1.00  0.00     0.146 A 
ATOM     11  H2  UNL     1       1.805   0.065  -0.133  1.00  0.00     0.186 HD
HETATM   12  C8  UNL     1       0.280  -2.038   0.289  1.00  0.00     0.009 A 
HETATM   13  N3  UNL     1      -1.373  -0.282   0.317  1.00  0.00    -0.175 N 
HETATM   14  C9  UNL     1       1.564  -2.509   0.172  1.00  0.00     0.015 A 
HETATM   15  C13 UNL     1      -0.705  -3.005   0.522  1.00  0.00     0.015 A 
HETATM   16  C10 UNL     1       1.845  -3.863   0.280  1.00  0.00     0.001 A 
HETATM   17  C11 UNL     1       0.864  -4.802   0.508  1.00  0.00     0.000 A 
HETATM   18  C12 UNL     1      -0.430  -4.346   0.629  1.00  0.00     0.001 A 
HETATM   19  C14 UNL     1      -1.767   0.989   0.232  1.00  0.00     0.698 A 
ATOM     20  H3  UNL     1      -2.073  -1.005   0.485  1.00  0.00     0.186 HD
HETATM   21  N5  UNL     1      -0.860   1.961   0.011  1.00  0.00    -0.022 N 
ATOM     22  H5  UNL     1      -1.141   2.939  -0.056  1.00  0.00     0.203 HD
BRANCH  19  23
HETATM   23  N4  UNL     1      -2.999   1.274   0.362  1.00  0.00    -0.191 N 
ATOM     24  H4  UNL     1      -3.294   2.248   0.297  1.00  0.00     0.184 HD
BRANCH  23  25
HETATM   25  C15 UNL     1      -3.976   0.269   0.596  1.00  0.00     0.049 A 
HETATM   26  C16 UNL     1      -4.186  -0.313   1.829  1.00  0.00     0.030 A 
HETATM   27  C17 UNL     1      -5.148  -1.286   2.008  1.00  0.00     0.002 A 
HETATM   28  C18 UNL     1      -5.941  -1.722   0.966  1.00  0.00     0.000 A 
HETATM   29  C19 UNL     1      -5.730  -1.139  -0.266  1.00  0.00     0.002 A 
HETATM   30  C20 UNL     1      -4.774  -0.166  -0.465  1.00  0.00     0.030 A 
ENDBRANCH  23  25
ENDBRANCH  19  23
ENDBRANCH   6   8
ENDBRANCH   5   6
ENDBRANCH   4   5
ENDBRANCH   3   4
TORSDOF 6
