REMARK  4 active torsions:
REMARK  status: ('A' for Active; 'I' for Inactive)
REMARK    1  A    between atoms: C6_10  and  S1_11 
REMARK    2  A    between atoms: S1_11  and  N4_14 
REMARK    3  A    between atoms: N4_14  and  C7_16 
REMARK    4  A    between atoms: C10_19  and  N5_20 
ROOT
HETATM    1  N1  UNL     1      -2.839  -2.475  -2.422  1.00  0.00    -0.190 NA
HETATM    2  C1  UNL     1      -2.881  -1.535  -1.732  1.00  0.00     0.119 C 
HETATM    3  C2  UNL     1      -2.954  -0.390  -0.884  1.00  0.00     0.138 A 
HETATM    4  N2  UNL     1      -3.726  -0.421   0.228  1.00  0.00    -0.335 N 
ATOM      5  H2  UNL     1      -4.243  -1.276   0.434  1.00  0.00     0.168 HD
HETATM    6  C3  UNL     1      -3.846   0.621   1.077  1.00  0.00     0.117 A 
HETATM    7  N3  UNL     1      -4.663   0.563   2.237  1.00  0.00    -0.083 NA
HETATM    8  C4  UNL     1      -3.127   1.766   0.763  1.00  0.00     0.047 A 
HETATM    9  C5  UNL     1      -2.334   1.806  -0.373  1.00  0.00     0.032 A 
HETATM   10  C6  UNL     1      -2.228   0.728  -1.226  1.00  0.00     0.117 A 
ENDROOT
BRANCH  10  11
HETATM   11  S1  UNL     1      -1.212   0.818  -2.658  1.00  0.00     0.266 S 
HETATM   12  O1  UNL     1      -2.069   0.612  -3.906  1.00  0.00    -0.200 OA
HETATM   13  O2  UNL     1      -0.616   2.172  -2.806  1.00  0.00    -0.200 OA
BRANCH  11  14
HETATM   14  N4  UNL     1       0.018  -0.359  -2.638  1.00  0.00    -0.281 N 
ATOM     15  H4  UNL     1       0.058  -1.069  -3.369  1.00  0.00     0.179 HD
BRANCH  14  16
HETATM   16  C7  UNL     1       0.995  -0.349  -1.593  1.00  0.00     0.042 A 
HETATM   17  C8  UNL     1       1.329  -1.538  -0.937  1.00  0.00     0.032 A 
HETATM   18  C9  UNL     1       2.259  -1.572   0.075  1.00  0.00     0.033 A 
HETATM   19  C10 UNL     1       2.908  -0.431   0.492  1.00  0.00     0.055 A 
HETATM   20  C12 UNL     1       2.591   0.744  -0.142  1.00  0.00     0.033 A 
HETATM   21  C13 UNL     1       1.650   0.786  -1.168  1.00  0.00     0.032 A 
BRANCH  19  22
HETATM   22  N5  UNL     1       3.863  -0.462   1.530  1.00  0.00    -0.236 N 
HETATM   23  C11 UNL     1       4.505  -1.568   1.935  1.00  0.00     0.218 A 
HETATM   24  N6  UNL     1       5.354  -1.254   2.949  1.00  0.00    -0.280 N 
HETATM   25  N7  UNL     1       5.215   0.047   3.148  1.00  0.00    -0.007 NA
ATOM     26  H6  UNL     1       5.971  -1.890   3.453  1.00  0.00     0.184 HD
HETATM   27  N8  UNL     1       4.308   0.528   2.285  1.00  0.00    -0.000 NA
ENDBRANCH  19  22
ENDBRANCH  14  16
ENDBRANCH  11  14
ENDBRANCH  10  11
TORSDOF 4
