REMARK  12 active torsions:
REMARK  status: ('A' for Active; 'I' for Inactive)
REMARK    1  A    between atoms: C2_2  and  C3_3 
REMARK    2  A    between atoms: C3_3  and  C4_4 
REMARK    3  A    between atoms: C4_4  and  C5_5 
REMARK    4  A    between atoms: C5_5  and  C6_6 
REMARK    5  A    between atoms: C6_6  and  C7_7 
REMARK    6  A    between atoms: C7_7  and  C8_8 
REMARK    7  A    between atoms: C8_8  and  O2_10 
REMARK    8  A    between atoms: O2_10  and  C9_11 
REMARK    9  A    between atoms: C15_18  and  C16_19 
REMARK   10  A    between atoms: C16_19  and  C17_20 
REMARK   11  A    between atoms: C32_36  and  O5_38 
REMARK   12  A    between atoms: C34_40  and  O6_41 
ROOT
HETATM    1  C9  UNL     1       1.620   0.031   0.732  1.00  0.00     0.193 C 
HETATM    2  C10 UNL     1       1.497   0.538  -0.605  1.00  0.00    -0.047 C 
HETATM    3  C11 UNL     1       2.654   1.118  -1.410  1.00  0.00     0.046 C 
HETATM    4  C12 UNL     1       0.275   0.456  -1.082  1.00  0.00    -0.039 C 
HETATM    5  C13 UNL     1      -0.085   0.944  -2.497  1.00  0.00     0.047 C 
HETATM    6  C14 UNL     1      -0.642  -0.160  -0.083  1.00  0.00     0.145 C 
HETATM    7  O3  UNL     1      -1.812   0.415  -0.181  1.00  0.00    -0.349 OA
HETATM    8  C15 UNL     1      -2.730   0.891   0.573  1.00  0.00     0.140 C 
HETATM    9  C21 UNL     1      -2.442   2.270   1.163  1.00  0.00     0.190 C 
HETATM   10  O4  UNL     1      -1.540   3.079   0.879  1.00  0.00    -0.289 OA
HETATM   11  C22 UNL     1      -3.487   2.431   2.149  1.00  0.00    -0.016 C 
HETATM   12  C23 UNL     1      -3.936   3.759   2.710  1.00  0.00     0.052 C 
HETATM   13  C24 UNL     1      -3.998   1.280   2.500  1.00  0.00    -0.004 C 
HETATM   14  C25 UNL     1      -3.304   0.197   1.743  1.00  0.00     0.074 C 
HETATM   15  C26 UNL     1      -4.301  -0.868   1.470  1.00  0.00    -0.012 C 
HETATM   16  C27 UNL     1      -4.247  -1.893   0.686  1.00  0.00    -0.086 C 
HETATM   17  C28 UNL     1      -5.487  -2.786   0.666  1.00  0.00     0.043 C 
HETATM   18  C29 UNL     1      -3.177  -2.353  -0.209  1.00  0.00     0.040 C 
HETATM   19  C30 UNL     1      -1.798  -2.380   0.341  1.00  0.00     0.023 C 
HETATM   20  C31 UNL     1      -1.407  -3.874   0.402  1.00  0.00     0.013 C 
HETATM   21  C32 UNL     1      -0.810  -1.629  -0.559  1.00  0.00     0.096 C 
HETATM   22  C33 UNL     1      -1.233  -1.783  -1.964  1.00  0.00     0.050 C 
HETATM   23  C34 UNL     1       0.184  -0.269   1.115  1.00  0.00     0.194 C 
ENDROOT
BRANCH  21  24
HETATM   24  O5  UNL     1       0.404  -2.310  -0.451  1.00  0.00    -0.386 OA
ATOM     25  H5  UNL     1       0.301  -3.208  -0.742  1.00  0.00     0.210 HD
ENDBRANCH  21  24
BRANCH  23  26
HETATM   26  O6  UNL     1      -0.037   0.503   2.220  1.00  0.00    -0.389 OA
ATOM     27  H6  UNL     1      -0.937   0.315   2.460  1.00  0.00     0.210 HD
ENDBRANCH  23  26
BRANCH   8  28
HETATM   28  C16 UNL     1      -3.971   1.277  -0.275  1.00  0.00     0.075 C 
BRANCH  28  29
HETATM   29  C17 UNL     1      -3.734   2.303  -1.286  1.00  0.00    -0.021 C 
HETATM   30  C18 UNL     1      -4.003   2.184  -2.575  1.00  0.00    -0.091 C 
HETATM   31  C19 UNL     1      -3.716   3.302  -3.509  1.00  0.00     0.042 C 
HETATM   32  C20 UNL     1      -4.597   0.942  -3.132  1.00  0.00     0.042 C 
ENDBRANCH  28  29
ENDBRANCH   8  28
BRANCH   1  33
HETATM   33  O2  UNL     1       2.518  -1.014   0.939  1.00  0.00    -0.309 OA
BRANCH  33  34
HETATM   34  C8  UNL     1       3.635  -0.906   1.749  1.00  0.00     0.259 C 
HETATM   35  O1  UNL     1       3.809   0.221   2.312  1.00  0.00    -0.265 OA
BRANCH  34  36
HETATM   36  C7  UNL     1       4.594  -1.982   1.986  1.00  0.00     0.111 C 
BRANCH  36  37
HETATM   37  C6  UNL     1       5.707  -1.943   0.982  1.00  0.00     0.010 C 
BRANCH  37  38
HETATM   38  C5  UNL     1       6.481  -0.632   1.041  1.00  0.00     0.001 C 
BRANCH  38  39
HETATM   39  C4  UNL     1       7.571  -0.724   0.002  1.00  0.00     0.004 C 
BRANCH  39  40
HETATM   40  C3  UNL     1       8.438   0.476  -0.113  1.00  0.00     0.026 C 
BRANCH  40  41
HETATM   41  C2  UNL     1       7.752   1.688  -0.576  1.00  0.00    -0.037 C 
HETATM   42  C1  UNL     1       6.548   1.725  -1.073  1.00  0.00     0.007 C 
ENDBRANCH  40  41
ENDBRANCH  39  40
ENDBRANCH  38  39
ENDBRANCH  37  38
ENDBRANCH  36  37
ENDBRANCH  34  36
ENDBRANCH  33  34
ENDBRANCH   1  33
TORSDOF 12
