REMARK  3 active torsions:
REMARK  status: ('A' for Active; 'I' for Inactive)
REMARK    1  A    between atoms: C12_12  and  C13_13 
REMARK    2  A    between atoms: C15_15  and  N1_16 
REMARK    3  A    between atoms: C17_23  and  O3_24 
ROOT
HETATM    1  C1  UNL     1       3.375  -2.252  -0.245  1.00  0.00     0.015 C 
HETATM    2  C2  UNL     1       3.299  -0.857   0.298  1.00  0.00    -0.040 C 
HETATM    3  C3  UNL     1       4.659  -0.222   0.207  1.00  0.00     0.009 C 
HETATM    4  C4  UNL     1       4.744   0.206  -1.254  1.00  0.00     0.001 C 
HETATM    5  C5  UNL     1       3.356   0.203  -1.806  1.00  0.00     0.006 C 
HETATM    6  C6  UNL     1       2.507   0.087  -0.587  1.00  0.00    -0.002 C 
HETATM    7  C7  UNL     1       1.174  -0.557  -0.845  1.00  0.00    -0.005 C 
HETATM    8  C8  UNL     1       0.342   0.159  -1.843  1.00  0.00     0.006 C 
HETATM    9  C9  UNL     1      -1.140   0.279  -1.389  1.00  0.00     0.013 C 
HETATM   10  C10 UNL     1      -1.159   1.167  -0.224  1.00  0.00    -0.009 C 
HETATM   11  C11 UNL     1      -0.591   2.468  -0.637  1.00  0.00     0.018 C 
HETATM   12  C12 UNL     1      -2.447   1.458   0.507  1.00  0.00     0.167 C 
HETATM   13  O4  UNL     1      -2.258   1.823   1.783  1.00  0.00    -0.380 OA
HETATM   14  C18 UNL     1      -1.073   2.299   2.217  1.00  0.00     0.169 C 
HETATM   15  C19 UNL     1       0.132   1.460   1.796  1.00  0.00     0.032 C 
HETATM   16  C20 UNL     1      -0.385   0.439   0.864  1.00  0.00     0.003 C 
HETATM   17  C21 UNL     1       0.432  -0.707   0.447  1.00  0.00    -0.005 C 
HETATM   18  C22 UNL     1       1.254  -1.265   1.583  1.00  0.00     0.006 C 
HETATM   19  C23 UNL     1       2.661  -0.762   1.662  1.00  0.00     0.010 C 
ENDROOT
BRANCH  12  20
HETATM   20  C13 UNL     1      -3.425   0.311   0.485  1.00  0.00     0.025 A 
HETATM   21  C14 UNL     1      -3.861  -0.319  -0.631  1.00  0.00     0.055 A 
HETATM   22  C15 UNL     1      -4.787  -1.354  -0.537  1.00  0.00     0.159 A 
HETATM   23  C16 UNL     1      -5.264  -1.743   0.673  1.00  0.00     0.223 A 
HETATM   24  F1  UNL     1      -6.154  -2.785   0.791  1.00  0.00    -0.183 F 
HETATM   25  N2  UNL     1      -4.858  -1.133   1.803  1.00  0.00    -0.311 N 
HETATM   26  C17 UNL     1      -3.967  -0.141   1.690  1.00  0.00     0.151 A 
ATOM     27  H2  UNL     1      -5.218  -1.418   2.714  1.00  0.00     0.170 HD
BRANCH  22  28
HETATM   28  N1  UNL     1      -5.237  -1.977  -1.737  1.00  0.00    -0.111 N 
HETATM   29  O1  UNL     1      -5.496  -3.178  -1.768  1.00  0.00    -0.532 OA
HETATM   30  O2  UNL     1      -5.369  -1.236  -2.904  1.00  0.00    -0.532 OA
ENDBRANCH  22  28
BRANCH  26  31
HETATM   31  O3  UNL     1      -3.578   0.468   2.903  1.00  0.00    -0.346 OA
ATOM     32  H3  UNL     1      -3.947   0.161   3.723  1.00  0.00     0.219 HD
ENDBRANCH  26  31
ENDBRANCH  12  20
TORSDOF 3
