REMARK  2 active torsions:
REMARK  status: ('A' for Active; 'I' for Inactive)
REMARK    1  A    between atoms: O1_1  and  C1_3 
REMARK    2  A    between atoms: C1_3  and  C2_4 
ROOT
HETATM    1  C2  UNL     1      -1.113   0.073   0.123  1.00  0.00     0.009 C 
HETATM    2  C3  UNL     1      -0.548  -1.096  -0.636  1.00  0.00     0.007 C 
HETATM    3  C4  UNL     1       0.489  -1.980  -0.092  1.00  0.00     0.012 C 
HETATM    4  C5  UNL     1       1.950  -1.420  -0.096  1.00  0.00     0.080 C 
HETATM    5  C6  UNL     1       1.789  -0.055   0.179  1.00  0.00    -0.183 C 
HETATM    6  C7  UNL     1       2.058   1.312   0.361  1.00  0.00     0.080 C 
HETATM    7  C8  UNL     1       0.645   1.947   0.576  1.00  0.00     0.012 C 
HETATM    8  C9  UNL     1      -0.448   1.387  -0.221  1.00  0.00     0.007 C 
ENDROOT
BRANCH   1   9
HETATM    9  C1  UNL     1      -2.568   0.215  -0.314  1.00  0.00     0.168 C 
BRANCH   9  10
HETATM   10  O1  UNL     1      -3.296  -0.933  -0.029  1.00  0.00    -0.400 OA
ATOM     11  H1  UNL     1      -4.202  -0.845  -0.301  1.00  0.00     0.209 HD
ENDBRANCH   9  10
ENDBRANCH   1   9
TORSDOF 2
