REMARK  3 active torsions:
REMARK  status: ('A' for Active; 'I' for Inactive)
REMARK    1  A    between atoms: O1_1  and  C1_3 
REMARK    2  A    between atoms: C4_7  and  O2_8 
REMARK    3  A    between atoms: C5_10  and  O3_11 
ROOT
HETATM    1  C1  UNL     1       0.392  -0.777  -0.521  1.00  0.00     0.150 C 
HETATM    2  C2  UNL     1       1.319  -0.496   0.638  1.00  0.00     0.045 C 
HETATM    3  C3  UNL     1       1.671   0.995   0.541  1.00  0.00     0.079 C 
HETATM    4  S1  UNL     1       0.092   1.868   0.850  1.00  0.00    -0.135 SA
HETATM    5  C4  UNL     1      -1.250   0.984   0.043  1.00  0.00     0.210 C 
HETATM    6  C5  UNL     1      -1.019  -0.486  -0.074  1.00  0.00     0.185 C 
ENDROOT
BRANCH   1   7
HETATM    7  O1  UNL     1       0.498  -2.062  -1.007  1.00  0.00    -0.393 OA
ATOM      8  H1  UNL     1      -0.085  -2.239  -1.736  1.00  0.00     0.210 HD
ENDBRANCH   1   7
BRANCH   6   9
HETATM    9  O3  UNL     1      -1.351  -1.194   1.081  1.00  0.00    -0.390 OA
ATOM     10  H3  UNL     1      -2.240  -1.011   1.363  1.00  0.00     0.210 HD
ENDBRANCH   6   9
BRANCH   5  11
HETATM   11  O2  UNL     1      -1.389   1.497  -1.253  1.00  0.00    -0.383 OA
ATOM     12  H2  UNL     1      -2.098   1.030  -1.679  1.00  0.00     0.211 HD
ENDBRANCH   5  11
TORSDOF 3
