REMARK  8 active torsions:
REMARK  status: ('A' for Active; 'I' for Inactive)
REMARK    1  A    between atoms: C2_2  and  N1_3 
REMARK    2  A    between atoms: N1_3  and  C3_6 
REMARK    3  A    between atoms: C3_6  and  C4_7 
REMARK    4  A    between atoms: C4_7  and  N2_8 
REMARK    5  A    between atoms: C4_7  and  C5_12 
REMARK    6  A    between atoms: C5_12  and  C6_13 
REMARK    7  A    between atoms: C8_15  and  N3_16 
REMARK    8  A    between atoms: C10_21  and  N4_22 
ROOT
HETATM    1  C6  UNL     1      -1.008   0.198  -0.157  1.00  0.00     0.020 C 
HETATM    2  C7  UNL     1      -2.137   0.935  -0.890  1.00  0.00     0.039 C 
HETATM    3  C8  UNL     1      -2.994   1.342   0.282  1.00  0.00     0.185 C 
HETATM    4  C9  UNL     1      -3.067   0.043   1.067  1.00  0.00     0.066 C 
HETATM    5  C10 UNL     1      -1.763  -0.669   0.787  1.00  0.00     0.189 C 
ENDROOT
BRANCH   1   6
HETATM    6  C5  UNL     1      -0.211  -0.575  -1.177  1.00  0.00     0.041 C 
BRANCH   6   7
HETATM    7  C4  UNL     1       0.912  -1.325  -0.545  1.00  0.00     0.209 C 
BRANCH   7   8
HETATM    8  C3  UNL     1       1.877  -0.406   0.163  1.00  0.00     0.264 C 
BRANCH   8   9
HETATM    9  N1  UNL     1       2.502   0.508  -0.787  1.00  0.00    -0.073 N 
ATOM     10  H12 UNL     1       1.824   1.042  -1.330  1.00  0.00     0.277 HD
ATOM     11  H11 UNL     1       2.948   0.027  -1.568  1.00  0.00     0.277 HD
BRANCH   9  12
HETATM   12  C2  UNL     1       3.427   1.356  -0.036  1.00  0.00     0.228 C 
HETATM   13  C1  UNL     1       4.595   0.514   0.467  1.00  0.00     0.034 C 
ENDBRANCH   9  12
ENDBRANCH   8   9
ENDBRANCH   7   8
BRANCH   7  14
HETATM   14  N2  UNL     1       1.647  -2.097  -1.547  1.00  0.00    -0.073 N 
ATOM     15  H23 UNL     1       2.165  -1.503  -2.194  1.00  0.00     0.274 HD
ATOM     16  H22 UNL     1       2.441  -2.598  -1.148  1.00  0.00     0.274 HD
ATOM     17  H21 UNL     1       0.995  -2.718  -2.026  1.00  0.00     0.274 HD
ENDBRANCH   7  14
ENDBRANCH   6   7
ENDBRANCH   1   6
BRANCH   5  18
HETATM   18  N4  UNL     1      -2.061  -1.989   0.216  1.00  0.00    -0.075 N 
ATOM     19  H43 UNL     1      -2.549  -1.903  -0.675  1.00  0.00     0.274 HD
ATOM     20  H42 UNL     1      -1.211  -2.450  -0.108  1.00  0.00     0.274 HD
ATOM     21  H41 UNL     1      -2.579  -2.583   0.863  1.00  0.00     0.274 HD
ENDBRANCH   5  18
BRANCH   3  22
HETATM   22  N3  UNL     1      -4.329   1.718  -0.105  1.00  0.00    -0.075 N 
ATOM     23  H33 UNL     1      -4.311   2.450  -0.815  1.00  0.00     0.274 HD
ATOM     24  H32 UNL     1      -4.776   0.976  -0.643  1.00  0.00     0.274 HD
ATOM     25  H31 UNL     1      -4.909   1.993   0.688  1.00  0.00     0.274 HD
ENDBRANCH   3  22
TORSDOF 8
