REMARK  3 active torsions:
REMARK  status: ('A' for Active; 'I' for Inactive)
REMARK       I    between atoms: C1_4  and  N2_5 
REMARK       I    between atoms: C1_4  and  N3_12 
REMARK    1  A    between atoms: N2_5  and  C2_7 
REMARK    2  A    between atoms: C2_7  and  C3_8 
REMARK    3  A    between atoms: N3_12  and  C6_14 
ROOT
HETATM    1  N1  UNL     1       0.243  -1.305  -1.367  1.00  0.00    -0.235 N 
ATOM      2  H11 UNL     1      -0.726  -1.600  -1.487  1.00  0.00     0.174 HD
ATOM      3  H12 UNL     1       1.011  -1.877  -1.719  1.00  0.00     0.174 HD
HETATM    4  C1  UNL     1       0.458  -0.195  -0.762  1.00  0.00     0.667 C 
HETATM    5  N2  UNL     1       1.812   0.217  -0.595  1.00  0.00    -0.224 N 
ATOM      6  H2  UNL     1       2.065   1.171  -0.853  1.00  0.00     0.177 HD
HETATM    7  N3  UNL     1      -0.618   0.606  -0.268  1.00  0.00    -0.222 N 
ATOM      8  H3  UNL     1      -0.445   1.600  -0.118  1.00  0.00     0.178 HD
ENDROOT
BRANCH   5   9
HETATM    9  C2  UNL     1       2.838  -0.648  -0.080  1.00  0.00     0.170 C 
BRANCH   9  10
HETATM   10  C3  UNL     1       4.165   0.031  -0.007  1.00  0.00     0.141 C 
HETATM   11  C4  UNL     1       5.100  -0.672   0.949  1.00  0.00     0.060 C 
HETATM   12  C5  UNL     1       5.576   0.778   1.080  1.00  0.00     0.170 C 
HETATM   13  O1  UNL     1       4.246   1.153   0.786  1.00  0.00    -0.384 OA
ENDBRANCH   9  10
ENDBRANCH   5   9
BRANCH   7  14
HETATM   14  C6  UNL     1      -1.914   0.103   0.027  1.00  0.00     0.099 C 
HETATM   15  C7  UNL     1      -2.611  -0.517  -1.162  1.00  0.00     0.026 C 
HETATM   16  C8  UNL     1      -4.102  -0.351  -0.949  1.00  0.00     0.002 C 
HETATM   17  C9  UNL     1      -4.489  -0.493   0.507  1.00  0.00     0.000 C 
HETATM   18  C10 UNL     1      -4.015   0.729   1.230  1.00  0.00     0.002 C 
HETATM   19  C11 UNL     1      -2.785   1.244   0.502  1.00  0.00     0.026 C 
ENDBRANCH   7  14
TORSDOF 3
