REMARK  4 active torsions:
REMARK  status: ('A' for Active; 'I' for Inactive)
REMARK    1  A    between atoms: N1_1  and  N2_4 
REMARK       I    between atoms: N2_4  and  C1_6 
REMARK    2  A    between atoms: C1_6  and  C2_8 
REMARK    3  A    between atoms: C3_15  and  C4_16 
REMARK       I    between atoms: C4_16  and  N6_18 
REMARK    4  A    between atoms: N6_18  and  N7_20 
ROOT
HETATM    1  C2  UNL     1       0.687   0.620   0.049  1.00  0.00     0.152 A 
HETATM    2  N3  UNL     1       1.097   1.871  -0.364  1.00  0.00    -0.279 N 
ATOM      3  H3  UNL     1       2.068   2.183  -0.382  1.00  0.00     0.189 HD
HETATM    4  N4  UNL     1       0.082   2.600  -0.728  1.00  0.00    -0.241 N 
ATOM      5  H4  UNL     1       0.116   3.560  -1.072  1.00  0.00     0.208 HD
HETATM    6  N5  UNL     1      -0.987   1.869  -0.569  1.00  0.00    -0.279 N 
ATOM      7  H5  UNL     1      -1.936   2.180  -0.776  1.00  0.00     0.189 HD
HETATM    8  C3  UNL     1      -0.664   0.625  -0.086  1.00  0.00     0.152 A 
ENDROOT
BRANCH   1   9
HETATM    9  C1  UNL     1       1.576  -0.425   0.516  1.00  0.00     0.290 C 
HETATM   10  N2  UNL     1       2.980  -0.148   0.554  1.00  0.00    -0.271 N 
ATOM     11  H2  UNL     1       3.312   0.769   0.255  1.00  0.00     0.189 HD
HETATM   12  O1  UNL     1       1.246  -1.556   0.894  1.00  0.00    -0.264 OA
BRANCH  10  13
HETATM   13  N1  UNL     1       3.903  -1.092   0.987  1.00  0.00    -0.342 N 
ATOM     14  H12 UNL     1       3.554  -2.003   1.283  1.00  0.00     0.176 HD
ATOM     15  H11 UNL     1       4.903  -0.895   1.014  1.00  0.00     0.176 HD
ENDBRANCH  10  13
ENDBRANCH   1   9
BRANCH   8  16
HETATM   16  C4  UNL     1      -1.653  -0.398   0.187  1.00  0.00     0.290 C 
HETATM   17  O2  UNL     1      -1.370  -1.520   0.621  1.00  0.00    -0.264 OA
HETATM   18  N6  UNL     1      -3.048  -0.144  -0.043  1.00  0.00    -0.271 N 
ATOM     19  H6  UNL     1      -3.358   0.759  -0.401  1.00  0.00     0.189 HD
BRANCH  18  20
HETATM   20  N7  UNL     1      -3.965  -1.147   0.229  1.00  0.00    -0.342 N 
ATOM     21  H72 UNL     1      -3.638  -2.045   0.586  1.00  0.00     0.176 HD
ATOM     22  H71 UNL     1      -4.956  -0.967   0.066  1.00  0.00     0.176 HD
ENDBRANCH  18  20
ENDBRANCH   8  16
TORSDOF 4
