REMARK  11 active torsions:
REMARK  status: ('A' for Active; 'I' for Inactive)
REMARK    1  A    between atoms: O1_2  and  C2_3 
REMARK    2  A    between atoms: C2_3  and  C3_5 
REMARK    3  A    between atoms: C5_7  and  C6_8 
REMARK    4  A    between atoms: C7_9  and  O3_10 
REMARK    5  A    between atoms: C8_12  and  O4_13 
REMARK    6  A    between atoms: C10_16  and  O5_17 
REMARK    7  A    between atoms: C10_16  and  C11_19 
REMARK       I    between atoms: C11_19  and  N1_21 
REMARK    8  A    between atoms: N1_21  and  N2_23 
REMARK    9  A    between atoms: C16_33  and  C17_34 
REMARK   10  A    between atoms: C17_34  and  O8_35 
REMARK   11  A    between atoms: C17_34  and  O9_37 
ROOT
HETATM    1  N2  UNL     1       6.067   2.624  -1.146  1.00  0.00    -0.292 N 
ATOM      2  H2  UNL     1       6.380   2.735  -2.110  1.00  0.00     0.187 HD
HETATM    3  C12 UNL     1       6.878   2.189  -0.249  1.00  0.00     0.101 C 
HETATM    4  C13 UNL     1       6.405   2.034   1.151  1.00  0.00     0.082 C 
HETATM    5  C14 UNL     1       8.240   1.849  -0.586  1.00  0.00     0.114 C 
HETATM    6  N3  UNL     1       9.326   1.559  -0.850  1.00  0.00    -0.190 NA
ENDROOT
BRANCH   1   7
HETATM    7  N1  UNL     1       4.769   2.941  -0.797  1.00  0.00    -0.263 N 
HETATM    8  C11 UNL     1       3.766   1.881  -0.832  1.00  0.00     0.295 C 
HETATM    9  O6  UNL     1       4.206   0.789  -1.179  1.00  0.00    -0.264 OA
ATOM     10  H1  UNL     1       4.518   3.891  -0.522  1.00  0.00     0.190 HD
BRANCH   8  11
HETATM   11  C10 UNL     1       2.419   2.175  -0.478  1.00  0.00     0.165 C 
HETATM   12  C9  UNL     1       1.257   1.358  -0.424  1.00  0.00     0.110 A 
HETATM   13  C8  UNL     1       1.146   0.025  -0.716  1.00  0.00     0.130 A 
HETATM   14  N4  UNL     1       0.091   1.974  -0.031  1.00  0.00    -0.318 N 
HETATM   15  C7  UNL     1      -0.064  -0.660  -0.620  1.00  0.00     0.118 A 
HETATM   16  C6  UNL     1      -1.197   0.005  -0.222  1.00  0.00     0.081 A 
HETATM   17  C15 UNL     1      -1.064   1.343   0.066  1.00  0.00     0.260 A 
HETATM   18  O7  UNL     1      -2.094   1.968   0.433  1.00  0.00    -0.267 OA
ATOM     19  H4  UNL     1       0.121   2.968   0.197  1.00  0.00     0.169 HD
BRANCH  13  20
HETATM   20  O4  UNL     1       2.253  -0.677  -1.118  1.00  0.00    -0.356 OA
ATOM     21  H4  UNL     1       3.078  -0.210  -1.183  1.00  0.00     0.218 HD
ENDBRANCH  13  20
BRANCH  15  22
HETATM   22  O3  UNL     1      -0.182  -2.002  -0.910  1.00  0.00    -0.357 OA
ATOM     23  H3  UNL     1       0.602  -2.462  -1.185  1.00  0.00     0.217 HD
ENDBRANCH  15  22
BRANCH  16  24
HETATM   24  C5  UNL     1      -2.493  -0.656  -0.118  1.00  0.00     0.020 A 
HETATM   25  C4  UNL     1      -3.025  -1.335   0.964  1.00  0.00     0.058 A 
HETATM   26  C3  UNL     1      -4.271  -1.817   0.626  1.00  0.00     0.151 A 
HETATM   27  O10 UNL     1      -4.479  -1.443  -0.610  1.00  0.00    -0.303 OA
HETATM   28  C16 UNL     1      -3.463  -0.755  -1.096  1.00  0.00     0.119 A 
BRANCH  26  29
HETATM   29  C2  UNL     1      -5.179  -2.596   1.485  1.00  0.00     0.317 C 
HETATM   30  O2  UNL     1      -6.289  -2.968   1.036  1.00  0.00    -0.257 OA
BRANCH  29  31
HETATM   31  O1  UNL     1      -4.849  -2.934   2.775  1.00  0.00    -0.321 OA
HETATM   32  C1  UNL     1      -5.711  -3.686   3.623  1.00  0.00     0.213 C 
ENDBRANCH  29  31
ENDBRANCH  26  29
BRANCH  28  33
HETATM   33  C17 UNL     1      -3.439  -0.209  -2.473  1.00  0.00     0.313 C 
BRANCH  33  34
HETATM   34  O8  UNL     1      -2.229  -0.449  -3.072  1.00  0.00    -0.365 OA
ATOM     35  H8  UNL     1      -2.214  -0.099  -3.955  1.00  0.00     0.213 HD
ENDBRANCH  33  34
BRANCH  33  36
HETATM   36  O9  UNL     1      -4.439  -0.818  -3.237  1.00  0.00    -0.365 OA
ATOM     37  H9  UNL     1      -4.424  -0.468  -4.120  1.00  0.00     0.213 HD
ENDBRANCH  33  36
ENDBRANCH  28  33
ENDBRANCH  16  24
BRANCH  11  38
HETATM   38  O5  UNL     1       2.247   3.429  -0.146  1.00  0.00    -0.354 OA
ATOM     39  H5  UNL     1       3.024   3.975  -0.182  1.00  0.00     0.218 HD
ENDBRANCH  11  38
ENDBRANCH   8  11
ENDBRANCH   1   7
TORSDOF 11
