REMARK  15 active torsions:
REMARK  status: ('A' for Active; 'I' for Inactive)
REMARK    1  A    between atoms: C2_2  and  C3_3 
REMARK    2  A    between atoms: C3_3  and  O1_4 
REMARK    3  A    between atoms: O1_4  and  C4_5 
REMARK    4  A    between atoms: C7_8  and  C8_9 
REMARK    5  A    between atoms: C8_9  and  C9_10 
REMARK    6  A    between atoms: C10_11  and  O2_12 
REMARK    7  A    between atoms: C11_14  and  N1_15 
REMARK    8  A    between atoms: N1_15  and  C12_17 
REMARK    9  A    between atoms: C12_17  and  C14_19 
REMARK   10  A    between atoms: N2_22  and  C17_23 
REMARK   11  A    between atoms: C17_23  and  C18_24 
REMARK   12  A    between atoms: C18_24  and  C19_25 
REMARK   13  A    between atoms: C18_24  and  C21_27 
REMARK   14  A    between atoms: C21_27  and  C22_28 
REMARK   15  A    between atoms: C25_31  and  O3_32 
ROOT
HETATM    1  C9  UNL     1      -0.602  -0.222  -0.178  1.00  0.00     0.257 C 
HETATM    2  C10 UNL     1      -0.612   1.086   0.589  1.00  0.00     0.175 C 
HETATM    3  C11 UNL     1      -1.379   1.991  -0.355  1.00  0.00     0.136 C 
HETATM    4  C16 UNL     1      -2.225   1.045  -1.120  1.00  0.00     0.300 C 
HETATM    5  N2  UNL     1      -1.961  -0.282  -0.599  1.00  0.00     0.098 N 
ENDROOT
BRANCH   1   6
HETATM    6  C8  UNL     1       0.365  -0.290  -1.302  1.00  0.00     0.077 C 
BRANCH   6   7
HETATM    7  C7  UNL     1       1.779  -0.126  -0.918  1.00  0.00    -0.053 A 
HETATM    8  C6  UNL     1       2.338   1.128  -0.929  1.00  0.00     0.010 A 
HETATM    9  C5  UNL     1       3.659   1.265  -0.564  1.00  0.00     0.040 A 
HETATM   10  C4  UNL     1       4.405   0.165  -0.196  1.00  0.00     0.102 A 
HETATM   11  C25 UNL     1       3.885  -1.109  -0.172  1.00  0.00     0.102 A 
HETATM   12  C24 UNL     1       2.562  -1.218  -0.541  1.00  0.00     0.046 A 
BRANCH  10  13
HETATM   13  O1  UNL     1       5.736   0.311   0.172  1.00  0.00    -0.345 OA
BRANCH  13  14
HETATM   14  C3  UNL     1       6.359   1.573   0.175  1.00  0.00     0.202 C 
BRANCH  14  15
HETATM   15  C2  UNL     1       7.766   1.437   0.625  1.00  0.00    -0.011 C 
HETATM   16  C1  UNL     1       8.291   0.247   0.963  1.00  0.00     0.009 C 
ENDBRANCH  14  15
ENDBRANCH  13  14
ENDBRANCH  10  13
BRANCH  11  17
HETATM   17  O3  UNL     1       4.643  -2.215   0.201  1.00  0.00    -0.353 OA
HETATM   18  C26 UNL     1       4.116  -3.508   0.226  1.00  0.00     0.210 C 
ENDBRANCH  11  17
ENDBRANCH   6   7
ENDBRANCH   1   6
BRANCH   2  19
HETATM   19  O2  UNL     1      -1.400   0.845   1.730  1.00  0.00    -0.391 OA
ATOM     20  H2  UNL     1      -1.406   1.664   2.211  1.00  0.00     0.210 HD
ENDBRANCH   2  19
BRANCH   5  21
HETATM   21  C17 UNL     1      -2.283  -1.320  -1.521  1.00  0.00     0.281 C 
BRANCH  21  22
HETATM   22  C18 UNL     1      -2.189  -2.658  -0.837  1.00  0.00     0.036 C 
BRANCH  22  23
HETATM   23  C19 UNL     1      -2.535  -3.718  -1.820  1.00  0.00    -0.030 C 
HETATM   24  C20 UNL     1      -2.898  -3.405  -3.050  1.00  0.00     0.007 C 
ENDBRANCH  22  23
BRANCH  22  25
HETATM   25  C21 UNL     1      -3.123  -2.731   0.355  1.00  0.00     0.010 C 
BRANCH  25  26
HETATM   26  C22 UNL     1      -3.053  -4.041   1.068  1.00  0.00    -0.004 C 
HETATM   27  C23 UNL     1      -1.673  -4.357   1.615  1.00  0.00     0.005 C 
ENDBRANCH  25  26
ENDBRANCH  22  25
ENDBRANCH  21  22
ENDBRANCH   5  21
BRANCH   3  28
HETATM   28  N1  UNL     1      -1.864   3.184   0.130  1.00  0.00    -0.409 N 
ATOM     29  H1  UNL     1      -1.492   4.033  -0.295  1.00  0.00     0.154 HD
BRANCH  28  30
HETATM   30  C12 UNL     1      -2.806   3.356   1.136  1.00  0.00     0.072 C 
HETATM   31  C13 UNL     1      -4.164   2.809   0.854  1.00  0.00     0.031 C 
BRANCH  30  32
HETATM   32  C14 UNL     1      -2.877   4.870   1.429  1.00  0.00     0.020 C 
HETATM   33  C15 UNL     1      -3.267   5.676   0.237  1.00  0.00     0.007 C 
ENDBRANCH  30  32
ENDBRANCH  28  30
ENDBRANCH   3  28
TORSDOF 15
