REMARK  14 active torsions:
REMARK  status: ('A' for Active; 'I' for Inactive)
REMARK    1  A    between atoms: C2_2  and  C3_3 
REMARK    2  A    between atoms: C3_3  and  C10_10 
REMARK    3  A    between atoms: C4_4  and  C5_5 
REMARK    4  A    between atoms: C5_5  and  C6_6 
REMARK    5  A    between atoms: C6_6  and  C7_7 
REMARK    6  A    between atoms: C10_10  and  C11_11 
REMARK    7  A    between atoms: C11_11  and  C12_12 
REMARK    8  A    between atoms: C12_12  and  C13_14 
REMARK    9  A    between atoms: C14_15  and  C15_16 
REMARK   10  A    between atoms: N1_21  and  C20_22 
REMARK   11  A    between atoms: C20_22  and  C21_23 
REMARK   12  A    between atoms: C21_23  and  C22_24 
REMARK   13  A    between atoms: C22_24  and  C23_25 
REMARK   14  A    between atoms: C23_25  and  C24_26 
ROOT
HETATM    1  C15 UNL     1       1.463  -1.593  -0.787  1.00  0.00     0.246 C 
HETATM    2  C16 UNL     1       2.414  -1.810  -1.953  1.00  0.00     0.040 C 
HETATM    3  C17 UNL     1       2.521  -3.320  -2.096  1.00  0.00     0.004 C 
HETATM    4  C18 UNL     1       3.081  -3.881  -0.837  1.00  0.00     0.030 C 
HETATM    5  C19 UNL     1       2.510  -3.385   0.435  1.00  0.00     0.273 C 
HETATM    6  N1  UNL     1       2.080  -2.018   0.460  1.00  0.00     0.096 N 
ENDROOT
BRANCH   1   7
HETATM    7  C14 UNL     1       0.306  -2.494  -1.011  1.00  0.00     0.012 C 
HETATM    8  C13 UNL     1      -0.803  -2.256  -1.609  1.00  0.00     0.048 C 
BRANCH   8   9
HETATM    9  C12 UNL     1      -1.252  -1.019  -2.248  1.00  0.00     0.149 C 
HETATM   10  O1  UNL     1      -0.495  -0.037  -2.242  1.00  0.00    -0.293 OA
BRANCH   9  11
HETATM   11  C11 UNL     1      -2.554  -0.905  -2.891  1.00  0.00     0.087 C 
BRANCH  11  12
HETATM   12  C10 UNL     1      -3.431   0.236  -2.586  1.00  0.00     0.041 C 
BRANCH  12  13
HETATM   13  C3  UNL     1      -3.931   0.393  -1.202  1.00  0.00    -0.084 C 
HETATM   14  C4  UNL     1      -5.262   0.256  -1.037  1.00  0.00    -0.024 C 
BRANCH  13  15
HETATM   15  C2  UNL     1      -3.050   0.701  -0.069  1.00  0.00     0.029 C 
HETATM   16  C1  UNL     1      -2.409   2.070  -0.316  1.00  0.00     0.010 C 
ENDBRANCH  13  15
BRANCH  14  17
HETATM   17  C5  UNL     1      -6.009   0.380   0.206  1.00  0.00     0.028 C 
BRANCH  17  18
HETATM   18  C6  UNL     1      -7.035   1.496   0.068  1.00  0.00     0.007 C 
BRANCH  18  19
HETATM   19  C7  UNL     1      -7.820   1.645   1.358  1.00  0.00    -0.023 C 
HETATM   20  C8  UNL     1      -8.541   0.343   1.678  1.00  0.00     0.009 C 
HETATM   21  C9  UNL     1      -6.962   2.098   2.497  1.00  0.00     0.009 C 
ENDBRANCH  18  19
ENDBRANCH  17  18
ENDBRANCH  14  17
ENDBRANCH  12  13
ENDBRANCH  11  12
ENDBRANCH   9  11
ENDBRANCH   8   9
ENDBRANCH   1   7
BRANCH   6  22
HETATM   22  C20 UNL     1       3.127  -1.123   0.899  1.00  0.00     0.273 C 
BRANCH  22  23
HETATM   23  C21 UNL     1       2.663   0.223   1.319  1.00  0.00     0.030 C 
BRANCH  23  24
HETATM   24  C22 UNL     1       3.836   1.060   1.776  1.00  0.00     0.004 C 
BRANCH  24  25
HETATM   25  C23 UNL     1       4.871   1.265   0.729  1.00  0.00     0.027 C 
BRANCH  25  26
HETATM   26  C24 UNL     1       5.997   2.117   1.278  1.00  0.00     0.102 A 
HETATM   27  C25 UNL     1       6.675   1.485   2.464  1.00  0.00     0.147 A 
HETATM   28  N2  UNL     1       8.087   1.397   2.129  1.00  0.00    -0.363 N 
HETATM   29  C26 UNL     1       8.294   1.810   0.929  1.00  0.00     0.184 A 
ATOM     30  H2  UNL     1       8.813   1.055   2.759  1.00  0.00     0.162 HD
HETATM   31  N3  UNL     1       9.614   1.819   0.366  1.00  0.00    -0.064 NA
HETATM   32  N4  UNL     1       7.081   2.217   0.324  1.00  0.00    -0.358 N 
ATOM     33  H4  UNL     1       6.985   2.534  -0.641  1.00  0.00     0.162 HD
ENDBRANCH  25  26
ENDBRANCH  24  25
ENDBRANCH  23  24
ENDBRANCH  22  23
ENDBRANCH   6  22
TORSDOF 14
