REMARK  14 active torsions:
REMARK  status: ('A' for Active; 'I' for Inactive)
REMARK    1  A    between atoms: C2_2  and  C3_3 
REMARK    2  A    between atoms: C2_2  and  C21_26 
REMARK    3  A    between atoms: C4_4  and  C5_5 
REMARK    4  A    between atoms: C11_12  and  C12_13 
REMARK    5  A    between atoms: C12_13  and  C13_14 
REMARK    6  A    between atoms: C14_15  and  C15_16 
REMARK    7  A    between atoms: C15_16  and  C16_17 
REMARK    8  A    between atoms: C16_17  and  C17_18 
REMARK    9  A    between atoms: C17_18  and  C18_19 
REMARK       I    between atoms: C18_19  and  N1_21 
REMARK   10  A    between atoms: N1_21  and  C19_23 
REMARK   11  A    between atoms: C21_26  and  C22_27 
REMARK   12  A    between atoms: C22_27  and  C23_28 
REMARK   13  A    between atoms: C23_28  and  O3_29 
REMARK   14  A    between atoms: C23_28  and  C24_31 
ROOT
HETATM    1  C19 UNL     1       8.450  -2.761  -1.057  1.00  0.00     0.247 C 
HETATM    2  C20 UNL     1       8.895  -3.379  -2.294  1.00  0.00     0.078 C 
HETATM    3  N2  UNL     1       9.256  -3.866  -3.287  1.00  0.00    -0.196 NA
ENDROOT
BRANCH   1   4
HETATM    4  N1  UNL     1       7.636  -1.593  -1.312  1.00  0.00    -0.349 N 
HETATM    5  C18 UNL     1       7.129  -0.884  -0.165  1.00  0.00     0.218 C 
HETATM    6  O2  UNL     1       7.403  -1.292   0.993  1.00  0.00    -0.274 OA
ATOM      7  H1  UNL     1       7.430  -1.285  -2.262  1.00  0.00     0.163 HD
BRANCH   5   8
HETATM    8  C17 UNL     1       6.301   0.304  -0.452  1.00  0.00     0.103 C 
BRANCH   8   9
HETATM    9  C16 UNL     1       5.654   0.823   0.788  1.00  0.00     0.013 C 
BRANCH   9  10
HETATM   10  C15 UNL     1       4.678  -0.237   1.320  1.00  0.00     0.027 C 
BRANCH  10  11
HETATM   11  C14 UNL     1       4.020   0.263   2.551  1.00  0.00    -0.031 C 
HETATM   12  C13 UNL     1       2.740   0.402   2.672  1.00  0.00    -0.030 C 
BRANCH  12  13
HETATM   13  C12 UNL     1       1.745   0.087   1.623  1.00  0.00     0.034 C 
BRANCH  13  14
HETATM   14  C11 UNL     1       1.014   1.369   1.303  1.00  0.00     0.026 C 
HETATM   15  C5  UNL     1      -0.058   1.134   0.190  1.00  0.00     0.021 C 
HETATM   16  C6  UNL     1      -0.651   2.488   0.054  1.00  0.00     0.019 C 
HETATM   17  C7  UNL     1      -1.215   2.980   1.393  1.00  0.00     0.013 C 
HETATM   18  C8  UNL     1       0.518   3.440  -0.209  1.00  0.00     0.128 C 
HETATM   19  C9  UNL     1       1.785   2.817  -0.632  1.00  0.00     0.064 C 
HETATM   20  O1  UNL     1       1.156   3.686   1.043  1.00  0.00    -0.380 OA
HETATM   21  C10 UNL     1       1.874   2.481   0.823  1.00  0.00     0.129 C 
BRANCH  15  22
HETATM   22  C4  UNL     1      -0.876  -0.029   0.437  1.00  0.00    -0.025 C 
HETATM   23  C3  UNL     1      -2.089  -0.383   0.537  1.00  0.00    -0.026 C 
BRANCH  23  24
HETATM   24  C2  UNL     1      -3.327   0.358   0.415  1.00  0.00     0.004 C 
HETATM   25  C1  UNL     1      -4.061   0.342   1.739  1.00  0.00     0.014 C 
BRANCH  24  26
HETATM   26  C21 UNL     1      -4.262  -0.212  -0.695  1.00  0.00     0.010 C 
BRANCH  26  27
HETATM   27  C22 UNL     1      -4.687  -1.590  -0.420  1.00  0.00     0.033 C 
BRANCH  27  28
HETATM   28  C23 UNL     1      -5.540  -2.220  -1.459  1.00  0.00     0.121 C 
BRANCH  28  29
HETATM   29  O3  UNL     1      -5.823  -3.545  -0.988  1.00  0.00    -0.395 OA
ATOM     30  H3  UNL     1      -6.369  -3.948  -1.653  1.00  0.00     0.210 HD
ENDBRANCH  28  29
BRANCH  28  31
HETATM   31  C24 UNL     1      -6.806  -1.577  -1.840  1.00  0.00     0.006 C 
HETATM   32  C25 UNL     1      -6.777  -0.224  -2.442  1.00  0.00     0.012 C 
HETATM   33  C26 UNL     1      -7.549  -2.547  -2.788  1.00  0.00     0.012 C 
ENDBRANCH  28  31
ENDBRANCH  27  28
ENDBRANCH  26  27
ENDBRANCH  24  26
ENDBRANCH  23  24
ENDBRANCH  15  22
ENDBRANCH  13  14
ENDBRANCH  12  13
ENDBRANCH  10  11
ENDBRANCH   9  10
ENDBRANCH   8   9
ENDBRANCH   5   8
ENDBRANCH   1   4
TORSDOF 14
