REMARK  9 active torsions:
REMARK  status: ('A' for Active; 'I' for Inactive)
REMARK    1  A    between atoms: C2_2  and  C3_3 
REMARK    2  A    between atoms: C3_3  and  C4_4 
REMARK    3  A    between atoms: C4_4  and  N1_5 
REMARK    4  A    between atoms: C4_4  and  C12_14 
REMARK    5  A    between atoms: N1_5  and  C5_7 
REMARK    6  A    between atoms: C12_14  and  N2_15 
REMARK    7  A    between atoms: C12_14  and  C13_19 
REMARK    8  A    between atoms: C13_19  and  N3_20 
REMARK    9  A    between atoms: C13_19  and  C16_27 
REMARK       I    between atoms: N3_20  and  C14_22 
REMARK       I    between atoms: C14_22  and  N4_24 
ROOT
HETATM    1  C12 UNL     1       0.822   0.649  -0.133  1.00  0.00     0.261 C 
ENDROOT
BRANCH   1   2
HETATM    2  C4  UNL     1      -0.301   0.911   0.776  1.00  0.00     0.019 C 
BRANCH   2   3
HETATM    3  C3  UNL     1      -0.368   0.175   2.069  1.00  0.00     0.080 C 
BRANCH   3   4
HETATM    4  C2  UNL     1       0.894   0.067   2.835  1.00  0.00    -0.031 C 
HETATM    5  C1  UNL     1       1.371  -1.110   3.188  1.00  0.00     0.007 C 
ENDBRANCH   3   4
ENDBRANCH   2   3
BRANCH   2   6
HETATM    6  N1  UNL     1      -1.564   0.986   0.138  1.00  0.00    -0.389 N 
ATOM      7  H1  UNL     1      -1.940   1.923  -0.005  1.00  0.00     0.159 HD
BRANCH   6   8
HETATM    8  C5  UNL     1      -2.333  -0.041  -0.306  1.00  0.00     0.085 C 
HETATM    9  C6  UNL     1      -2.967  -1.019   0.649  1.00  0.00     0.030 C 
HETATM   10  C7  UNL     1      -4.439  -1.104   0.183  1.00  0.00    -0.012 C 
HETATM   11  C8  UNL     1      -4.548  -1.606  -1.209  1.00  0.00     0.005 C 
HETATM   12  C11 UNL     1      -4.625   0.413  -0.031  1.00  0.00     0.011 C 
HETATM   13  C9  UNL     1      -4.028  -0.468  -2.080  1.00  0.00     0.007 C 
HETATM   14  C10 UNL     1      -3.529   0.548  -1.070  1.00  0.00     0.009 C 
ENDBRANCH   6   8
ENDBRANCH   2   6
ENDBRANCH   1   2
BRANCH   1  15
HETATM   15  N2  UNL     1       0.888  -0.776  -0.501  1.00  0.00    -0.067 N 
ATOM     16  H23 UNL     1       0.925  -1.375   0.324  1.00  0.00     0.275 HD
ATOM     17  H22 UNL     1       0.005  -1.104  -0.892  1.00  0.00     0.275 HD
ATOM     18  H21 UNL     1       1.668  -0.958  -1.132  1.00  0.00     0.275 HD
ENDBRANCH   1  15
BRANCH   1  19
HETATM   19  C13 UNL     1       2.202   1.084   0.197  1.00  0.00     0.223 C 
BRANCH  19  20
HETATM   20  N3  UNL     1       3.056   0.643  -0.955  1.00  0.00    -0.326 N 
HETATM   21  C14 UNL     1       4.223  -0.115  -0.747  1.00  0.00     0.316 C 
HETATM   22  O1  UNL     1       4.562  -0.431   0.411  1.00  0.00    -0.247 OA
HETATM   23  N4  UNL     1       4.996  -0.507  -1.865  1.00  0.00    -0.347 N 
HETATM   24  C15 UNL     1       6.201  -1.286  -1.654  1.00  0.00     0.151 C 
ATOM     25  H4  UNL     1       4.709  -0.245  -2.808  1.00  0.00     0.163 HD
ATOM     26  H3  UNL     1       2.786   0.897  -1.905  1.00  0.00     0.165 HD
ENDBRANCH  19  20
BRANCH  19  27
HETATM   27  C16 UNL     1       2.417   2.552   0.241  1.00  0.00     0.199 C 
HETATM   28  O2  UNL     1       3.108   3.197  -0.588  1.00  0.00    -0.646 OA
HETATM   29  O3  UNL     1       1.831   3.273   1.253  1.00  0.00    -0.646 OA
ENDBRANCH  19  27
ENDBRANCH   1  19
TORSDOF 9
