REMARK  9 active torsions:
REMARK  status: ('A' for Active; 'I' for Inactive)
REMARK    1  A    between atoms: O1_2  and  C2_3 
REMARK    2  A    between atoms: C4_5  and  O2_6 
REMARK    3  A    between atoms: C7_9  and  N1_10 
REMARK    4  A    between atoms: N1_10  and  C8_12 
REMARK    5  A    between atoms: C10_14  and  O3_15 
REMARK    6  A    between atoms: C12_17  and  C13_18 
REMARK    7  A    between atoms: C13_18  and  N2_19 
REMARK    8  A    between atoms: C17_23  and  O4_24 
REMARK    9  A    between atoms: O4_24  and  C18_25 
ROOT
HETATM    1  N1  UNL     1       0.874  -0.084  -0.589  1.00  0.00    -0.353 N 
ATOM      2  H1  UNL     1       1.206  -0.797  -1.238  1.00  0.00     0.166 HD
ENDROOT
BRANCH   1   3
HETATM    3  C7  UNL     1       1.729   0.695  -0.055  1.00  0.00     0.049 A 
HETATM    4  C6  UNL     1       3.061   0.550  -0.373  1.00  0.00     0.051 A 
HETATM    5  C4  UNL     1       3.471  -0.407  -1.267  1.00  0.00     0.085 A 
HETATM    6  C23 UNL     1       3.972   1.396   0.209  1.00  0.00     0.050 A 
HETATM    7  C3  UNL     1       4.830  -0.486  -1.559  1.00  0.00     0.074 A 
HETATM    8  C2  UNL     1       5.741   0.362  -0.976  1.00  0.00     0.073 A 
HETATM    9  C24 UNL     1       5.305   1.309  -0.084  1.00  0.00     0.067 A 
HETATM   10  N3  UNL     1       3.576   2.359   1.081  1.00  0.00    -0.365 N 
HETATM   11  C22 UNL     1       2.259   2.488   1.380  1.00  0.00     0.090 A 
ATOM     12  H3  UNL     1       4.263   2.980   1.508  1.00  0.00     0.165 HD
HETATM   13  C21 UNL     1       1.295   1.673   0.833  1.00  0.00     0.047 A 
BRANCH   5  14
HETATM   14  O2  UNL     1       2.543  -1.241  -1.841  1.00  0.00    -0.355 OA
HETATM   15  C5  UNL     1       3.033  -2.224  -2.761  1.00  0.00     0.210 C 
ENDBRANCH   5  14
BRANCH   8  16
HETATM   16  O1  UNL     1       7.076   0.229  -1.316  1.00  0.00    -0.356 OA
HETATM   17  C1  UNL     1       8.086   1.057  -0.771  1.00  0.00     0.210 C 
ENDBRANCH   8  16
ENDBRANCH   1   3
BRANCH   1  18
HETATM   18  C8  UNL     1      -0.541  -0.006  -0.320  1.00  0.00     0.069 A 
HETATM   19  C9  UNL     1      -1.281   0.959  -0.963  1.00  0.00     0.069 A 
HETATM   20  C10 UNL     1      -2.668   1.086  -0.759  1.00  0.00     0.078 A 
HETATM   21  C12 UNL     1      -3.350   0.258   0.090  1.00  0.00     0.006 A 
HETATM   22  C16 UNL     1      -2.555  -0.721   0.733  1.00  0.00     0.050 A 
HETATM   23  C17 UNL     1      -1.205  -0.850   0.538  1.00  0.00     0.096 A 
BRANCH  20  24
HETATM   24  O3  UNL     1      -3.349   2.067  -1.439  1.00  0.00    -0.355 OA
HETATM   25  C11 UNL     1      -2.637   2.918  -2.318  1.00  0.00     0.210 C 
ENDBRANCH  20  24
BRANCH  21  26
HETATM   26  C13 UNL     1      -4.777   0.346   0.421  1.00  0.00     0.312 C 
BRANCH  26  27
HETATM   27  N2  UNL     1      -5.721   0.421  -0.678  1.00  0.00     0.084 N 
HETATM   28  C14 UNL     1      -6.928  -0.288  -0.188  1.00  0.00     0.309 C 
HETATM   29  C15 UNL     1      -6.217   1.851  -0.711  1.00  0.00     0.309 C 
ENDBRANCH  26  27
ENDBRANCH  21  26
BRANCH  23  30
HETATM   30  O4  UNL     1      -0.441  -1.806   1.172  1.00  0.00    -0.344 OA
BRANCH  30  31
HETATM   31  C18 UNL     1      -0.852  -2.749   2.106  1.00  0.00     0.120 C 
HETATM   32  C19 UNL     1      -0.919  -4.147   1.515  1.00  0.00     0.040 C 
HETATM   33  C20 UNL     1       0.069  -2.799   3.310  1.00  0.00     0.040 C 
ENDBRANCH  30  31
ENDBRANCH  23  30
ENDBRANCH   1  18
TORSDOF 9
