REMARK  10 active torsions:
REMARK  status: ('A' for Active; 'I' for Inactive)
REMARK    1  A    between atoms: C2_2  and  C3_3 
REMARK    2  A    between atoms: C3_3  and  N1_4 
REMARK    3  A    between atoms: N1_4  and  C4_5 
REMARK    4  A    between atoms: N1_4  and  C6_9 
REMARK    5  A    between atoms: C4_5  and  C5_6 
REMARK    6  A    between atoms: C5_6  and  O1_7 
REMARK    7  A    between atoms: C6_9  and  C7_10 
REMARK    8  A    between atoms: C7_10  and  N2_11 
REMARK    9  A    between atoms: N2_11  and  C8_14 
REMARK   10  A    between atoms: C8_14  and  O2_15 
ROOT
HETATM    1  N1  UNL     1      -0.972   0.339   0.131  1.00  0.00    -0.390 N 
ENDROOT
BRANCH   1   2
HETATM    2  C3  UNL     1      -2.015  -0.432   0.700  1.00  0.00     0.121 C 
BRANCH   2   3
HETATM    3  C2  UNL     1      -1.960  -1.904   0.649  1.00  0.00     0.015 C 
HETATM    4  C1  UNL     1      -2.025  -2.554  -0.707  1.00  0.00     0.006 C 
ENDBRANCH   2   3
ENDBRANCH   1   2
BRANCH   1   5
HETATM    5  C4  UNL     1      -1.032   1.710   0.351  1.00  0.00     0.084 C 
BRANCH   5   6
HETATM    6  C5  UNL     1      -1.169   2.465  -0.947  1.00  0.00     0.208 C 
BRANCH   6   7
HETATM    7  O1  UNL     1      -1.247   3.843  -0.655  1.00  0.00    -0.396 OA
ATOM      8  H1  UNL     1      -1.333   4.319  -1.473  1.00  0.00     0.209 HD
ENDBRANCH   6   7
ENDBRANCH   5   6
ENDBRANCH   1   5
BRANCH   1   9
HETATM    9  C6  UNL     1       0.173  -0.327  -0.293  1.00  0.00     0.149 C 
BRANCH   9  10
HETATM   10  C7  UNL     1       1.487   0.407   0.055  1.00  0.00     0.254 C 
BRANCH  10  11
HETATM   11  N2  UNL     1       2.504  -0.598  -0.394  1.00  0.00    -0.053 N 
ATOM     12  H22 UNL     1       2.226  -1.564  -0.220  1.00  0.00     0.279 HD
ATOM     13  H21 UNL     1       2.582  -0.673  -1.408  1.00  0.00     0.279 HD
BRANCH  11  14
HETATM   14  C8  UNL     1       3.741  -0.228   0.254  1.00  0.00     0.396 C 
BRANCH  14  15
HETATM   15  O2  UNL     1       4.140  -1.376   0.994  1.00  0.00    -0.375 OA
ATOM     16  H2  UNL     1       4.953  -1.133   1.420  1.00  0.00     0.211 HD
ENDBRANCH  14  15
ENDBRANCH  11  14
ENDBRANCH  10  11
ENDBRANCH   9  10
ENDBRANCH   1   9
TORSDOF 10
