REMARK  10 active torsions:
REMARK  status: ('A' for Active; 'I' for Inactive)
REMARK    1  A    between atoms: C2_2  and  C3_3 
REMARK    2  A    between atoms: C2_2  and  C9_11 
REMARK    3  A    between atoms: C3_3  and  C4_4 
REMARK    4  A    between atoms: C4_4  and  C5_5 
REMARK    5  A    between atoms: C5_5  and  C6_6 
REMARK    6  A    between atoms: C6_6  and  O1_9 
REMARK    7  A    between atoms: C20_25  and  O3_26 
REMARK    8  A    between atoms: O3_26  and  C21_27 
REMARK    9  A    between atoms: C23_30  and  C24_31 
REMARK   10  A    between atoms: C24_31  and  O5_32 
ROOT
HETATM    1  C9  UNL     1       1.574   0.368   0.856  1.00  0.00     0.022 C 
HETATM    2  C10 UNL     1       1.922  -0.188   2.267  1.00  0.00     0.010 C 
HETATM    3  C11 UNL     1       0.914  -1.321   2.222  1.00  0.00     0.011 C 
HETATM    4  C12 UNL     1      -0.409  -0.651   1.750  1.00  0.00    -0.032 C 
HETATM    5  C13 UNL     1      -0.979  -0.248   3.099  1.00  0.00     0.016 C 
HETATM    6  C14 UNL     1      -1.211  -1.650   1.051  1.00  0.00     0.002 C 
HETATM    7  C15 UNL     1      -2.580  -1.949   1.689  1.00  0.00     0.039 C 
HETATM    8  C16 UNL     1      -3.474  -1.112   0.880  1.00  0.00     0.144 C 
HETATM    9  O2  UNL     1      -4.816  -1.341   0.914  1.00  0.00    -0.355 OA
HETATM   10  C17 UNL     1      -5.399  -0.181   0.356  1.00  0.00     0.128 C 
HETATM   11  C18 UNL     1      -5.428   0.928   1.401  1.00  0.00     0.070 C 
HETATM   12  C19 UNL     1      -6.839  -0.474  -0.005  1.00  0.00     0.070 C 
HETATM   13  N1  UNL     1      -4.688   0.307  -0.769  1.00  0.00    -0.342 N 
ATOM     14  H1  UNL     1      -5.092   1.112  -1.247  1.00  0.00     0.164 HD
HETATM   15  C20 UNL     1      -3.570  -0.162  -1.262  1.00  0.00     0.139 C 
HETATM   16  C23 UNL     1      -3.020  -1.307  -0.564  1.00  0.00     0.076 C 
HETATM   17  C25 UNL     1      -1.568  -1.475  -0.390  1.00  0.00     0.012 C 
HETATM   18  C26 UNL     1      -0.658  -0.484  -1.053  1.00  0.00     0.007 C 
HETATM   19  C27 UNL     1      -0.617   0.772  -0.299  1.00  0.00     0.011 C 
HETATM   20  C28 UNL     1       0.117   0.558   1.027  1.00  0.00    -0.029 C 
HETATM   21  C29 UNL     1      -0.103   1.847   1.783  1.00  0.00     0.016 C 
ENDROOT
BRANCH   1  22
HETATM   22  C2  UNL     1       2.502   1.350   0.425  1.00  0.00    -0.084 C 
HETATM   23  C1  UNL     1       2.279   2.577   0.054  1.00  0.00     0.014 C 
BRANCH  22  24
HETATM   24  C3  UNL     1       3.975   0.941   0.421  1.00  0.00     0.034 C 
BRANCH  24  25
HETATM   25  C4  UNL     1       4.227  -0.198  -0.530  1.00  0.00     0.007 C 
BRANCH  25  26
HETATM   26  C5  UNL     1       5.625  -0.674  -0.611  1.00  0.00     0.037 C 
BRANCH  26  27
HETATM   27  C6  UNL     1       6.675   0.269  -1.037  1.00  0.00     0.051 C 
HETATM   28  C7  UNL     1       8.059  -0.410  -1.079  1.00  0.00     0.045 C 
HETATM   29  C8  UNL     1       6.451   0.945  -2.340  1.00  0.00     0.045 C 
BRANCH  27  30
HETATM   30  O1  UNL     1       6.843   1.275  -0.054  1.00  0.00    -0.391 OA
ATOM     31  H1  UNL     1       7.520   1.883  -0.329  1.00  0.00     0.210 HD
ENDBRANCH  27  30
ENDBRANCH  26  27
ENDBRANCH  25  26
ENDBRANCH  24  25
ENDBRANCH  22  24
ENDBRANCH   1  22
BRANCH  16  32
HETATM   32  C24 UNL     1      -3.684  -2.527  -1.206  1.00  0.00     0.185 C 
BRANCH  32  33
HETATM   33  O5  UNL     1      -3.430  -3.710  -0.585  1.00  0.00    -0.400 OA
ATOM     34  H5  UNL     1      -3.842  -4.467  -0.984  1.00  0.00     0.209 HD
ENDBRANCH  32  33
ENDBRANCH  16  32
BRANCH  15  35
HETATM   35  O3  UNL     1      -3.115   0.513  -2.356  1.00  0.00    -0.265 OA
BRANCH  35  36
HETATM   36  C21 UNL     1      -3.720   1.593  -2.940  1.00  0.00     0.261 C 
HETATM   37  C22 UNL     1      -3.192   2.303  -4.133  1.00  0.00     0.126 C 
HETATM   38  O4  UNL     1      -4.793   2.021  -2.442  1.00  0.00    -0.265 OA
ENDBRANCH  35  36
ENDBRANCH  15  35
TORSDOF 10
