MODEL 1
REMARK VINA RESULT: -7.309440258      0.000      0.000
REMARK  15 active torsions:
REMARK  status: ('A' for Active; 'I' for Inactive)
REMARK    1  A    between atoms: N1_1  and  C1_5 
REMARK    2  A    between atoms: C1_5  and  C2_6 
REMARK    3  A    between atoms: C2_6  and  C3_7 
REMARK    4  A    between atoms: C3_7  and  C4_8 
REMARK    5  A    between atoms: C4_8  and  C5_9 
REMARK    6  A    between atoms: C4_8  and  N8_36 
REMARK       I    between atoms: C5_9  and  N2_11 
REMARK    7  A    between atoms: N2_11  and  C6_13 
REMARK    8  A    between atoms: C6_13  and  C7_14 
REMARK    9  A    between atoms: C6_13  and  C12_23 
REMARK   10  A    between atoms: C7_14  and  C8_15 
REMARK   11  A    between atoms: C8_15  and  C9_16 
REMARK   12  A    between atoms: C9_16  and  C10_17 
REMARK   13  A    between atoms: C10_17  and  N3_18 
REMARK       I    between atoms: C12_23  and  N6_25 
REMARK   14  A    between atoms: C15_28  and  C16_29 
REMARK   15  A    between atoms: C16_29  and  N7_30 
ROOT
HETATM    1  C6  UNL     1      10.919   5.502  25.243  1.00  0.00     0.176 C 
ENDROOT
BRANCH   1   2
HETATM    2  N2  UNL     1       9.884   5.548  26.227  1.00  0.00    -0.346 N 
HETATM    3  C5  UNL     1       9.988   5.185  27.577  1.00  0.00     0.252 C 
HETATM    4  O1  UNL     1      11.124   4.770  27.974  1.00  0.00    -0.271 OA
ATOM      5  H2  UNL     1       8.972   5.880  25.913  1.00  0.00     0.163 HD
BRANCH   3   6
HETATM    6  C4  UNL     1       8.863   5.261  28.546  1.00  0.00     0.314 C 
BRANCH   6   7
HETATM    7  C3  UNL     1       7.965   6.360  28.167  1.00  0.00     0.047 C 
BRANCH   7   8
HETATM    8  C2  UNL     1       8.190   7.718  28.716  1.00  0.00     0.030 C 
BRANCH   8   9
HETATM    9  C1  UNL     1       8.484   7.518  30.223  1.00  0.00     0.230 C 
BRANCH   9  10
HETATM   10  N1  UNL     1       9.694   8.189  30.592  1.00  0.00    -0.079 N 
ATOM     11  H13 UNL     1      10.075   8.737  29.820  1.00  0.00     0.274 HD
ATOM     12  H12 UNL     1       9.520   8.951  31.247  1.00  0.00     0.274 HD
ATOM     13  H11 UNL     1      10.375   7.524  30.957  1.00  0.00     0.274 HD
ENDBRANCH   9  10
ENDBRANCH   8   9
ENDBRANCH   7   8
ENDBRANCH   6   7
BRANCH   6  14
HETATM   14  N8  UNL     1       8.338   3.968  28.784  1.00  0.00     0.102 N 
HETATM   15  C19 UNL     1       7.097   3.919  29.524  1.00  0.00     0.273 C 
HETATM   16  C20 UNL     1       7.214   2.960  30.716  1.00  0.00     0.030 C 
HETATM   17  C21 UNL     1       7.405   1.538  30.230  1.00  0.00     0.002 C 
HETATM   18  C22 UNL     1       8.681   1.497  29.462  1.00  0.00     0.002 C 
HETATM   19  C23 UNL     1       8.566   1.728  27.995  1.00  0.00     0.030 C 
HETATM   20  C24 UNL     1       8.251   3.143  27.594  1.00  0.00     0.273 C 
ENDBRANCH   6  14
ENDBRANCH   3   6
ENDBRANCH   1   2
BRANCH   1  21
HETATM   21  C7  UNL     1      10.654   4.368  24.311  1.00  0.00     0.035 C 
BRANCH  21  22
HETATM   22  C8  UNL     1      11.599   3.192  24.606  1.00  0.00     0.004 C 
BRANCH  22  23
HETATM   23  C9  UNL     1      10.860   1.935  24.212  1.00  0.00     0.020 C 
BRANCH  23  24
HETATM   24  C10 UNL     1      10.808   1.833  22.687  1.00  0.00     0.122 C 
BRANCH  24  25
HETATM   25  N3  UNL     1      11.263   0.486  22.369  1.00  0.00    -0.367 N 
HETATM   26  C11 UNL     1      12.386   0.370  21.753  1.00  0.00     0.196 C 
HETATM   27  N4  UNL     1      13.201   1.444  21.365  1.00  0.00    -0.067 NA
HETATM   28  N5  UNL     1      12.840  -0.953  21.436  1.00  0.00    -0.067 NA
ATOM     29  H3  UNL     1      10.713  -0.334  22.626  1.00  0.00     0.161 HD
ENDBRANCH  24  25
ENDBRANCH  23  24
ENDBRANCH  22  23
ENDBRANCH  21  22
ENDBRANCH   1  21
BRANCH   1  30
HETATM   30  C12 UNL     1      11.177   6.805  24.606  1.00  0.00     0.242 C 
HETATM   31  O2  UNL     1      10.380   7.166  23.665  1.00  0.00    -0.271 OA
HETATM   32  N6  UNL     1      12.204   7.709  24.916  1.00  0.00    -0.350 N 
HETATM   33  C13 UNL     1      12.317   8.951  24.178  1.00  0.00     0.126 C 
HETATM   34  C18 UNL     1      13.187   7.506  25.954  1.00  0.00     0.126 C 
HETATM   35  C14 UNL     1      13.757   9.370  24.051  1.00  0.00     0.026 C 
HETATM   36  C15 UNL     1      14.382   9.631  25.393  1.00  0.00     0.014 C 
HETATM   37  C17 UNL     1      13.613   8.892  26.464  1.00  0.00     0.026 C 
BRANCH  36  38
HETATM   38  C16 UNL     1      15.848   9.200  25.357  1.00  0.00     0.234 C 
BRANCH  38  39
HETATM   39  N7  UNL     1      16.188   8.964  23.966  1.00  0.00    -0.079 N 
ATOM     40  H73 UNL     1      15.407   8.599  23.419  1.00  0.00     0.274 HD
ATOM     41  H72 UNL     1      16.326   9.825  23.436  1.00  0.00     0.274 HD
ATOM     42  H71 UNL     1      17.004   8.353  23.958  1.00  0.00     0.274 HD
ENDBRANCH  38  39
ENDBRANCH  36  38
ENDBRANCH   1  30
TORSDOF 15
ENDMDL
MODEL 2
REMARK VINA RESULT: -7.113596779      3.186      6.968
REMARK  15 active torsions:
REMARK  status: ('A' for Active; 'I' for Inactive)
REMARK    1  A    between atoms: N1_1  and  C1_5 
REMARK    2  A    between atoms: C1_5  and  C2_6 
REMARK    3  A    between atoms: C2_6  and  C3_7 
REMARK    4  A    between atoms: C3_7  and  C4_8 
REMARK    5  A    between atoms: C4_8  and  C5_9 
REMARK    6  A    between atoms: C4_8  and  N8_36 
REMARK       I    between atoms: C5_9  and  N2_11 
REMARK    7  A    between atoms: N2_11  and  C6_13 
REMARK    8  A    between atoms: C6_13  and  C7_14 
REMARK    9  A    between atoms: C6_13  and  C12_23 
REMARK   10  A    between atoms: C7_14  and  C8_15 
REMARK   11  A    between atoms: C8_15  and  C9_16 
REMARK   12  A    between atoms: C9_16  and  C10_17 
REMARK   13  A    between atoms: C10_17  and  N3_18 
REMARK       I    between atoms: C12_23  and  N6_25 
REMARK   14  A    between atoms: C15_28  and  C16_29 
REMARK   15  A    between atoms: C16_29  and  N7_30 
ROOT
HETATM    1  C6  UNL     1      11.193   8.385  23.760  1.00  0.00     0.176 C 
ENDROOT
BRANCH   1   2
HETATM    2  N2  UNL     1      11.059   7.021  24.165  1.00  0.00    -0.346 N 
HETATM    3  C5  UNL     1       9.866   6.338  24.442  1.00  0.00     0.252 C 
HETATM    4  O1  UNL     1       8.784   6.999  24.322  1.00  0.00    -0.271 OA
ATOM      5  H2  UNL     1      11.922   6.487  24.262  1.00  0.00     0.163 HD
BRANCH   3   6
HETATM    6  C4  UNL     1       9.802   4.913  24.858  1.00  0.00     0.314 C 
BRANCH   6   7
HETATM    7  C3  UNL     1      10.889   4.166  24.210  1.00  0.00     0.047 C 
BRANCH   7   8
HETATM    8  C2  UNL     1      10.584   2.932  23.450  1.00  0.00     0.030 C 
BRANCH   8   9
HETATM    9  C1  UNL     1      10.947   1.759  24.392  1.00  0.00     0.230 C 
BRANCH   9  10
HETATM   10  N1  UNL     1      10.199   0.586  24.047  1.00  0.00    -0.079 N 
ATOM     11  H13 UNL     1       9.711   0.196  24.854  1.00  0.00     0.274 HD
ATOM     12  H12 UNL     1       9.387   0.810  23.472  1.00  0.00     0.274 HD
ATOM     13  H11 UNL     1      10.802  -0.103  23.598  1.00  0.00     0.274 HD
ENDBRANCH   9  10
ENDBRANCH   8   9
ENDBRANCH   7   8
ENDBRANCH   6   7
BRANCH   6  14
HETATM   14  N8  UNL     1       9.619   4.822  26.259  1.00  0.00     0.102 N 
HETATM   15  C19 UNL     1       8.773   3.741  26.715  1.00  0.00     0.273 C 
HETATM   16  C20 UNL     1       7.676   4.268  27.648  1.00  0.00     0.030 C 
HETATM   17  C21 UNL     1       8.287   4.815  28.922  1.00  0.00     0.002 C 
HETATM   18  C22 UNL     1       9.170   5.952  28.540  1.00  0.00     0.002 C 
HETATM   19  C23 UNL     1      10.597   5.612  28.286  1.00  0.00     0.030 C 
HETATM   20  C24 UNL     1      10.857   4.851  27.015  1.00  0.00     0.273 C 
ENDBRANCH   6  14
ENDBRANCH   3   6
ENDBRANCH   1   2
BRANCH   1  21
HETATM   21  C7  UNL     1      12.468   8.931  24.311  1.00  0.00     0.035 C 
BRANCH  21  22
HETATM   22  C8  UNL     1      12.799   8.277  25.662  1.00  0.00     0.004 C 
BRANCH  22  23
HETATM   23  C9  UNL     1      14.295   8.385  25.838  1.00  0.00     0.020 C 
BRANCH  23  24
HETATM   24  C10 UNL     1      14.708   9.857  25.791  1.00  0.00     0.122 C 
BRANCH  24  25
HETATM   25  N3  UNL     1      15.477  10.087  27.006  1.00  0.00    -0.367 N 
HETATM   26  C11 UNL     1      15.421  11.260  27.530  1.00  0.00     0.196 C 
HETATM   27  N4  UNL     1      14.675  12.331  27.017  1.00  0.00    -0.067 NA
HETATM   28  N5  UNL     1      16.177  11.493  28.726  1.00  0.00    -0.067 NA
ATOM     29  H3  UNL     1      16.039   9.346  27.426  1.00  0.00     0.161 HD
ENDBRANCH  24  25
ENDBRANCH  23  24
ENDBRANCH  22  23
ENDBRANCH  21  22
ENDBRANCH   1  21
BRANCH   1  30
HETATM   30  C12 UNL     1      10.981   8.590  22.317  1.00  0.00     0.242 C 
HETATM   31  O2  UNL     1      11.319   7.629  21.533  1.00  0.00    -0.271 OA
HETATM   32  N6  UNL     1      10.442   9.725  21.694  1.00  0.00    -0.350 N 
HETATM   33  C13 UNL     1      10.311   9.760  20.252  1.00  0.00     0.126 C 
HETATM   34  C18 UNL     1       9.978  10.899  22.395  1.00  0.00     0.126 C 
HETATM   35  C14 UNL     1      10.490  11.162  19.732  1.00  0.00     0.026 C 
HETATM   36  C15 UNL     1       9.436  12.093  20.263  1.00  0.00     0.014 C 
HETATM   37  C17 UNL     1       8.864  11.533  21.547  1.00  0.00     0.026 C 
BRANCH  36  38
HETATM   38  C16 UNL     1      10.050  13.476  20.480  1.00  0.00     0.234 C 
BRANCH  38  39
HETATM   39  N7  UNL     1      11.312  13.497  19.765  1.00  0.00    -0.079 N 
ATOM     40  H73 UNL     1      11.941  12.742  20.041  1.00  0.00     0.274 HD
ATOM     41  H72 UNL     1      11.221  13.237  18.783  1.00  0.00     0.274 HD
ATOM     42  H71 UNL     1      11.715  14.424  19.899  1.00  0.00     0.274 HD
ENDBRANCH  38  39
ENDBRANCH  36  38
ENDBRANCH   1  30
TORSDOF 15
ENDMDL
MODEL 3
REMARK VINA RESULT: -7.106354852      3.267      8.318
REMARK  15 active torsions:
REMARK  status: ('A' for Active; 'I' for Inactive)
REMARK    1  A    between atoms: N1_1  and  C1_5 
REMARK    2  A    between atoms: C1_5  and  C2_6 
REMARK    3  A    between atoms: C2_6  and  C3_7 
REMARK    4  A    between atoms: C3_7  and  C4_8 
REMARK    5  A    between atoms: C4_8  and  C5_9 
REMARK    6  A    between atoms: C4_8  and  N8_36 
REMARK       I    between atoms: C5_9  and  N2_11 
REMARK    7  A    between atoms: N2_11  and  C6_13 
REMARK    8  A    between atoms: C6_13  and  C7_14 
REMARK    9  A    between atoms: C6_13  and  C12_23 
REMARK   10  A    between atoms: C7_14  and  C8_15 
REMARK   11  A    between atoms: C8_15  and  C9_16 
REMARK   12  A    between atoms: C9_16  and  C10_17 
REMARK   13  A    between atoms: C10_17  and  N3_18 
REMARK       I    between atoms: C12_23  and  N6_25 
REMARK   14  A    between atoms: C15_28  and  C16_29 
REMARK   15  A    between atoms: C16_29  and  N7_30 
ROOT
HETATM    1  C6  UNL     1      11.825   7.966  25.279  1.00  0.00     0.176 C 
ENDROOT
BRANCH   1   2
HETATM    2  N2  UNL     1      11.124   9.025  24.622  1.00  0.00    -0.346 N 
HETATM    3  C5  UNL     1      11.065   9.267  23.243  1.00  0.00     0.252 C 
HETATM    4  O1  UNL     1      11.701   8.460  22.490  1.00  0.00    -0.271 OA
ATOM      5  H2  UNL     1      10.613   9.673  25.221  1.00  0.00     0.163 HD
BRANCH   3   6
HETATM    6  C4  UNL     1      10.312  10.392  22.629  1.00  0.00     0.314 C 
BRANCH   6   7
HETATM    7  C3  UNL     1      11.165  11.587  22.591  1.00  0.00     0.047 C 
BRANCH   7   8
HETATM    8  C2  UNL     1      10.888  12.719  23.506  1.00  0.00     0.030 C 
BRANCH   8   9
HETATM    9  C1  UNL     1       9.352  12.735  23.699  1.00  0.00     0.230 C 
BRANCH   9  10
HETATM   10  N1  UNL     1       9.019  13.101  25.044  1.00  0.00    -0.079 N 
ATOM     11  H13 UNL     1       8.226  13.743  25.077  1.00  0.00     0.274 HD
ATOM     12  H12 UNL     1       8.605  12.323  25.558  1.00  0.00     0.274 HD
ATOM     13  H11 UNL     1       9.834  13.481  25.524  1.00  0.00     0.274 HD
ENDBRANCH   9  10
ENDBRANCH   8   9
ENDBRANCH   7   8
ENDBRANCH   6   7
BRANCH   6  14
HETATM   14  N8  UNL     1       9.655   9.954  21.453  1.00  0.00     0.102 N 
HETATM   15  C19 UNL     1       8.218   9.826  21.546  1.00  0.00     0.273 C 
HETATM   16  C20 UNL     1       7.765   8.440  21.072  1.00  0.00     0.030 C 
HETATM   17  C21 UNL     1       8.052   8.269  19.594  1.00  0.00     0.002 C 
HETATM   18  C22 UNL     1       9.526   8.374  19.411  1.00  0.00     0.002 C 
HETATM   19  C23 UNL     1      10.050   9.735  19.111  1.00  0.00     0.030 C 
HETATM   20  C24 UNL     1      10.022  10.700  20.265  1.00  0.00     0.273 C 
ENDBRANCH   6  14
ENDBRANCH   3   6
ENDBRANCH   1   2
BRANCH   1  21
HETATM   21  C7  UNL     1      12.874   8.553  26.163  1.00  0.00     0.035 C 
BRANCH  21  22
HETATM   22  C8  UNL     1      14.236   8.568  25.451  1.00  0.00     0.004 C 
BRANCH  22  23
HETATM   23  C9  UNL     1      14.334   9.894  24.735  1.00  0.00     0.020 C 
BRANCH  23  24
HETATM   24  C10 UNL     1      14.937   9.679  23.346  1.00  0.00     0.122 C 
BRANCH  24  25
HETATM   25  N3  UNL     1      16.367   9.506  23.563  1.00  0.00    -0.367 N 
HETATM   26  C11 UNL     1      17.124   9.475  22.524  1.00  0.00     0.196 C 
HETATM   27  N4  UNL     1      16.674   9.594  21.200  1.00  0.00    -0.067 NA
HETATM   28  N5  UNL     1      18.533   9.303  22.730  1.00  0.00    -0.067 NA
ATOM     29  H3  UNL     1      16.753   9.413  24.503  1.00  0.00     0.161 HD
ENDBRANCH  24  25
ENDBRANCH  23  24
ENDBRANCH  22  23
ENDBRANCH  21  22
ENDBRANCH   1  21
BRANCH   1  30
HETATM   30  C12 UNL     1      10.932   6.981  25.914  1.00  0.00     0.242 C 
HETATM   31  O2  UNL     1      10.380   7.321  27.024  1.00  0.00    -0.271 OA
HETATM   32  N6  UNL     1      10.609   5.702  25.438  1.00  0.00    -0.350 N 
HETATM   33  C13 UNL     1       9.713   4.856  26.200  1.00  0.00     0.126 C 
HETATM   34  C18 UNL     1      11.101   5.141  24.202  1.00  0.00     0.126 C 
HETATM   35  C14 UNL     1      10.077   3.404  26.034  1.00  0.00     0.026 C 
HETATM   36  C15 UNL     1       9.948   2.957  24.604  1.00  0.00     0.014 C 
HETATM   37  C17 UNL     1      10.040   4.156  23.686  1.00  0.00     0.026 C 
BRANCH  36  38
HETATM   38  C16 UNL     1      11.040   1.933  24.298  1.00  0.00     0.234 C 
BRANCH  38  39
HETATM   39  N7  UNL     1      10.375   0.725  23.848  1.00  0.00    -0.079 N 
ATOM     40  H73 UNL     1      10.800  -0.127  24.214  1.00  0.00     0.274 HD
ATOM     41  H72 UNL     1       9.451   0.597  24.263  1.00  0.00     0.274 HD
ATOM     42  H71 UNL     1      10.355   0.756  22.829  1.00  0.00     0.274 HD
ENDBRANCH  38  39
ENDBRANCH  36  38
ENDBRANCH   1  30
TORSDOF 15
ENDMDL
MODEL 4
REMARK VINA RESULT: -7.104300301      2.960      6.375
REMARK  15 active torsions:
REMARK  status: ('A' for Active; 'I' for Inactive)
REMARK    1  A    between atoms: N1_1  and  C1_5 
REMARK    2  A    between atoms: C1_5  and  C2_6 
REMARK    3  A    between atoms: C2_6  and  C3_7 
REMARK    4  A    between atoms: C3_7  and  C4_8 
REMARK    5  A    between atoms: C4_8  and  C5_9 
REMARK    6  A    between atoms: C4_8  and  N8_36 
REMARK       I    between atoms: C5_9  and  N2_11 
REMARK    7  A    between atoms: N2_11  and  C6_13 
REMARK    8  A    between atoms: C6_13  and  C7_14 
REMARK    9  A    between atoms: C6_13  and  C12_23 
REMARK   10  A    between atoms: C7_14  and  C8_15 
REMARK   11  A    between atoms: C8_15  and  C9_16 
REMARK   12  A    between atoms: C9_16  and  C10_17 
REMARK   13  A    between atoms: C10_17  and  N3_18 
REMARK       I    between atoms: C12_23  and  N6_25 
REMARK   14  A    between atoms: C15_28  and  C16_29 
REMARK   15  A    between atoms: C16_29  and  N7_30 
ROOT
HETATM    1  C6  UNL     1      11.078   8.443  23.720  1.00  0.00     0.176 C 
ENDROOT
BRANCH   1   2
HETATM    2  N2  UNL     1      10.987   7.080  24.140  1.00  0.00    -0.346 N 
HETATM    3  C5  UNL     1       9.818   6.369  24.446  1.00  0.00     0.252 C 
HETATM    4  O1  UNL     1       8.717   7.000  24.340  1.00  0.00    -0.271 OA
ATOM      5  H2  UNL     1      11.866   6.570  24.226  1.00  0.00     0.163 HD
BRANCH   3   6
HETATM    6  C4  UNL     1       9.800   4.947  24.877  1.00  0.00     0.314 C 
BRANCH   6   7
HETATM    7  C3  UNL     1      10.921   4.233  24.251  1.00  0.00     0.047 C 
BRANCH   7   8
HETATM    8  C2  UNL     1      10.665   3.001  23.469  1.00  0.00     0.030 C 
BRANCH   8   9
HETATM    9  C1  UNL     1      10.931   1.825  24.440  1.00  0.00     0.230 C 
BRANCH   9  10
HETATM   10  N1  UNL     1      10.207   0.659  24.028  1.00  0.00    -0.079 N 
ATOM     11  H13 UNL     1       9.468   0.419  24.689  1.00  0.00     0.274 HD
ATOM     12  H12 UNL     1       9.626   0.843  23.210  1.00  0.00     0.274 HD
ATOM     13  H11 UNL     1      10.845  -0.121  23.872  1.00  0.00     0.274 HD
ENDBRANCH   9  10
ENDBRANCH   8   9
ENDBRANCH   7   8
ENDBRANCH   6   7
BRANCH   6  14
HETATM   14  N8  UNL     1       9.601   4.865  26.277  1.00  0.00     0.102 N 
HETATM   15  C19 UNL     1       8.699   3.828  26.725  1.00  0.00     0.273 C 
HETATM   16  C20 UNL     1       7.623   4.409  27.651  1.00  0.00     0.030 C 
HETATM   17  C21 UNL     1       8.251   4.923  28.930  1.00  0.00     0.002 C 
HETATM   18  C22 UNL     1       9.194   6.014  28.556  1.00  0.00     0.002 C 
HETATM   19  C23 UNL     1      10.604   5.601  28.312  1.00  0.00     0.030 C 
HETATM   20  C24 UNL     1      10.834   4.829  27.042  1.00  0.00     0.273 C 
ENDBRANCH   6  14
ENDBRANCH   3   6
ENDBRANCH   1   2
BRANCH   1  21
HETATM   21  C7  UNL     1      12.299   9.055  24.319  1.00  0.00     0.035 C 
BRANCH  21  22
HETATM   22  C8  UNL     1      12.793   8.223  25.513  1.00  0.00     0.004 C 
BRANCH  22  23
HETATM   23  C9  UNL     1      14.233   8.613  25.745  1.00  0.00     0.020 C 
BRANCH  23  24
HETATM   24  C10 UNL     1      14.625   9.717  24.762  1.00  0.00     0.122 C 
BRANCH  24  25
HETATM   25  N3  UNL     1      15.945   9.351  24.267  1.00  0.00    -0.367 N 
HETATM   26  C11 UNL     1      16.122   9.354  22.994  1.00  0.00     0.196 C 
HETATM   27  N4  UNL     1      15.139   9.681  22.048  1.00  0.00    -0.067 NA
HETATM   28  N5  UNL     1      17.419   8.993  22.500  1.00  0.00    -0.067 NA
ATOM     29  H3  UNL     1      16.700   9.104  24.907  1.00  0.00     0.161 HD
ENDBRANCH  24  25
ENDBRANCH  23  24
ENDBRANCH  22  23
ENDBRANCH  21  22
ENDBRANCH   1  21
BRANCH   1  30
HETATM   30  C12 UNL     1      10.924   8.617  22.265  1.00  0.00     0.242 C 
HETATM   31  O2  UNL     1      11.297   7.641  21.515  1.00  0.00    -0.271 OA
HETATM   32  N6  UNL     1      10.409   9.737  21.597  1.00  0.00    -0.350 N 
HETATM   33  C13 UNL     1      10.337   9.742  20.150  1.00  0.00     0.126 C 
HETATM   34  C18 UNL     1       9.913  10.924  22.253  1.00  0.00     0.126 C 
HETATM   35  C14 UNL     1      10.534  11.133  19.609  1.00  0.00     0.026 C 
HETATM   36  C15 UNL     1       9.457  12.071  20.076  1.00  0.00     0.014 C 
HETATM   37  C17 UNL     1       8.833  11.536  21.346  1.00  0.00     0.026 C 
BRANCH  36  38
HETATM   38  C16 UNL     1      10.057  13.460  20.289  1.00  0.00     0.234 C 
BRANCH  38  39
HETATM   39  N7  UNL     1      11.368  13.456  19.668  1.00  0.00    -0.079 N 
ATOM     40  H73 UNL     1      11.525  12.645  19.068  1.00  0.00     0.274 HD
ATOM     41  H72 UNL     1      11.472  14.171  18.948  1.00  0.00     0.274 HD
ATOM     42  H71 UNL     1      12.054  13.538  20.417  1.00  0.00     0.274 HD
ENDBRANCH  38  39
ENDBRANCH  36  38
ENDBRANCH   1  30
TORSDOF 15
ENDMDL
MODEL 5
REMARK VINA RESULT: -7.048376572      3.118      6.834
REMARK  15 active torsions:
REMARK  status: ('A' for Active; 'I' for Inactive)
REMARK    1  A    between atoms: N1_1  and  C1_5 
REMARK    2  A    between atoms: C1_5  and  C2_6 
REMARK    3  A    between atoms: C2_6  and  C3_7 
REMARK    4  A    between atoms: C3_7  and  C4_8 
REMARK    5  A    between atoms: C4_8  and  C5_9 
REMARK    6  A    between atoms: C4_8  and  N8_36 
REMARK       I    between atoms: C5_9  and  N2_11 
REMARK    7  A    between atoms: N2_11  and  C6_13 
REMARK    8  A    between atoms: C6_13  and  C7_14 
REMARK    9  A    between atoms: C6_13  and  C12_23 
REMARK   10  A    between atoms: C7_14  and  C8_15 
REMARK   11  A    between atoms: C8_15  and  C9_16 
REMARK   12  A    between atoms: C9_16  and  C10_17 
REMARK   13  A    between atoms: C10_17  and  N3_18 
REMARK       I    between atoms: C12_23  and  N6_25 
REMARK   14  A    between atoms: C15_28  and  C16_29 
REMARK   15  A    between atoms: C16_29  and  N7_30 
ROOT
HETATM    1  C6  UNL     1      11.800   8.710  24.149  1.00  0.00     0.176 C 
ENDROOT
BRANCH   1   2
HETATM    2  N2  UNL     1      11.569   7.502  24.878  1.00  0.00    -0.346 N 
HETATM    3  C5  UNL     1      10.386   7.122  25.525  1.00  0.00     0.252 C 
HETATM    4  O1  UNL     1       9.408   7.935  25.460  1.00  0.00    -0.271 OA
ATOM      5  H2  UNL     1      12.349   6.847  24.932  1.00  0.00     0.163 HD
BRANCH   3   6
HETATM    6  C4  UNL     1      10.218   5.844  26.266  1.00  0.00     0.314 C 
BRANCH   6   7
HETATM    7  C3  UNL     1      11.408   5.006  26.070  1.00  0.00     0.047 C 
BRANCH   7   8
HETATM    8  C2  UNL     1      11.411   3.964  25.017  1.00  0.00     0.030 C 
BRANCH   8   9
HETATM    9  C1  UNL     1      10.158   3.095  25.284  1.00  0.00     0.230 C 
BRANCH   9  10
HETATM   10  N1  UNL     1      10.539   1.791  25.739  1.00  0.00    -0.079 N 
ATOM     11  H13 UNL     1      10.066   1.539  26.607  1.00  0.00     0.274 HD
ATOM     12  H12 UNL     1      10.161   1.056  25.141  1.00  0.00     0.274 HD
ATOM     13  H11 UNL     1      11.553   1.725  25.826  1.00  0.00     0.274 HD
ENDBRANCH   9  10
ENDBRANCH   8   9
ENDBRANCH   7   8
ENDBRANCH   6   7
BRANCH   6  14
HETATM   14  N8  UNL     1       9.739   6.099  27.574  1.00  0.00     0.102 N 
HETATM   15  C19 UNL     1       8.909   5.066  28.152  1.00  0.00     0.273 C 
HETATM   16  C20 UNL     1       7.593   5.658  28.674  1.00  0.00     0.030 C 
HETATM   17  C21 UNL     1       7.861   6.600  29.829  1.00  0.00     0.002 C 
HETATM   18  C22 UNL     1       8.707   7.711  29.311  1.00  0.00     0.002 C 
HETATM   19  C23 UNL     1      10.179   7.522  29.437  1.00  0.00     0.030 C 
HETATM   20  C24 UNL     1      10.774   6.499  28.509  1.00  0.00     0.273 C 
ENDBRANCH   6  14
ENDBRANCH   3   6
ENDBRANCH   1   2
BRANCH   1  21
HETATM   21  C7  UNL     1      13.215   9.136  24.351  1.00  0.00     0.035 C 
BRANCH  21  22
HETATM   22  C8  UNL     1      13.745   8.637  25.704  1.00  0.00     0.004 C 
BRANCH  22  23
HETATM   23  C9  UNL     1      15.220   8.371  25.519  1.00  0.00     0.020 C 
BRANCH  23  24
HETATM   24  C10 UNL     1      16.006   9.074  26.627  1.00  0.00     0.122 C 
BRANCH  24  25
HETATM   25  N3  UNL     1      15.558  10.460  26.606  1.00  0.00    -0.367 N 
HETATM   26  C11 UNL     1      15.645  11.127  27.702  1.00  0.00     0.196 C 
HETATM   27  N4  UNL     1      16.137  10.619  28.913  1.00  0.00    -0.067 NA
HETATM   28  N5  UNL     1      15.205  12.492  27.688  1.00  0.00    -0.067 NA
ATOM     29  H3  UNL     1      15.191  10.885  25.754  1.00  0.00     0.161 HD
ENDBRANCH  24  25
ENDBRANCH  23  24
ENDBRANCH  22  23
ENDBRANCH  21  22
ENDBRANCH   1  21
BRANCH   1  30
HETATM   30  C12 UNL     1      11.345   8.643  22.750  1.00  0.00     0.242 C 
HETATM   31  O2  UNL     1      11.340   7.486  22.190  1.00  0.00    -0.271 OA
HETATM   32  N6  UNL     1      10.909   9.710  21.950  1.00  0.00    -0.350 N 
HETATM   33  C13 UNL     1      10.503   9.464  20.581  1.00  0.00     0.126 C 
HETATM   34  C18 UNL     1      10.815  11.080  22.395  1.00  0.00     0.126 C 
HETATM   35  C14 UNL     1      10.827  10.645  19.706  1.00  0.00     0.026 C 
HETATM   36  C15 UNL     1      10.087  11.880  20.138  1.00  0.00     0.014 C 
HETATM   37  C17 UNL     1       9.689  11.751  21.592  1.00  0.00     0.026 C 
BRANCH  36  38
HETATM   38  C16 UNL     1      10.973  13.103  19.907  1.00  0.00     0.234 C 
BRANCH  38  39
HETATM   39  N7  UNL     1      12.109  12.662  19.120  1.00  0.00    -0.079 N 
ATOM     40  H73 UNL     1      11.851  12.346  18.185  1.00  0.00     0.274 HD
ATOM     41  H72 UNL     1      12.719  13.428  18.834  1.00  0.00     0.274 HD
ATOM     42  H71 UNL     1      12.591  11.948  19.665  1.00  0.00     0.274 HD
ENDBRANCH  38  39
ENDBRANCH  36  38
ENDBRANCH   1  30
TORSDOF 15
ENDMDL
