MODEL 1
REMARK VINA RESULT: -6.212940654      0.000      0.000
REMARK  2 active torsions:
REMARK  status: ('A' for Active; 'I' for Inactive)
REMARK    1  A    between atoms: C3_3  and  C4_4 
REMARK    2  A    between atoms: C8_8  and  C9_9 
ROOT
HETATM    1  C1  UNL     1      26.010   9.983   2.268  1.00  0.00     0.013 C 
HETATM    2  C2  UNL     1      26.597   9.128   2.880  1.00  0.00    -0.102 C 
HETATM    3  C3  UNL     1      27.299   8.061   3.629  1.00  0.00     0.046 C 
HETATM    4  C6  UNL     1      27.880   8.626   4.900  1.00  0.00     0.028 C 
HETATM    5  C7  UNL     1      27.300   7.445   5.639  1.00  0.00     0.012 C 
HETATM    6  C8  UNL     1      26.343   7.240   4.463  1.00  0.00     0.032 C 
ENDROOT
BRANCH   3   7
HETATM    7  C4  UNL     1      28.252   7.305   2.805  1.00  0.00    -0.014 C 
HETATM    8  C5  UNL     1      28.462   7.573   1.527  1.00  0.00     0.008 C 
ENDBRANCH   3   7
BRANCH   6   9
HETATM    9  C9  UNL     1      26.227   5.821   4.114  1.00  0.00    -0.030 C 
HETATM   10  C10 UNL     1      25.137   5.142   4.419  1.00  0.00     0.007 C 
ENDBRANCH   6   9
TORSDOF 2
ENDMDL
MODEL 2
REMARK VINA RESULT: -5.579624344      1.526      1.898
REMARK  2 active torsions:
REMARK  status: ('A' for Active; 'I' for Inactive)
REMARK    1  A    between atoms: C3_3  and  C4_4 
REMARK    2  A    between atoms: C8_8  and  C9_9 
ROOT
HETATM    1  C1  UNL     1      25.132  10.134   2.627  1.00  0.00     0.013 C 
HETATM    2  C2  UNL     1      26.191   9.564   2.556  1.00  0.00    -0.102 C 
HETATM    3  C3  UNL     1      27.481   8.841   2.469  1.00  0.00     0.046 C 
HETATM    4  C6  UNL     1      28.442   9.384   3.495  1.00  0.00     0.028 C 
HETATM    5  C7  UNL     1      28.761   7.961   3.884  1.00  0.00     0.012 C 
HETATM    6  C8  UNL     1      27.444   7.537   3.232  1.00  0.00     0.032 C 
ENDROOT
BRANCH   3   7
HETATM    7  C4  UNL     1      28.018   8.778   1.102  1.00  0.00    -0.014 C 
HETATM    8  C5  UNL     1      27.250   8.853   0.028  1.00  0.00     0.008 C 
ENDBRANCH   3   7
BRANCH   6   9
HETATM    9  C9  UNL     1      27.613   6.315   2.440  1.00  0.00    -0.030 C 
HETATM   10  C10 UNL     1      26.880   5.246   2.691  1.00  0.00     0.007 C 
ENDBRANCH   6   9
TORSDOF 2
ENDMDL
MODEL 3
REMARK VINA RESULT: -5.551385053      1.398      3.604
REMARK  2 active torsions:
REMARK  status: ('A' for Active; 'I' for Inactive)
REMARK    1  A    between atoms: C3_3  and  C4_4 
REMARK    2  A    between atoms: C8_8  and  C9_9 
ROOT
HETATM    1  C1  UNL     1      27.174   5.122   2.493  1.00  0.00     0.013 C 
HETATM    2  C2  UNL     1      27.243   6.169   3.084  1.00  0.00    -0.102 C 
HETATM    3  C3  UNL     1      27.311   7.467   3.794  1.00  0.00     0.046 C 
HETATM    4  C6  UNL     1      28.751   7.852   4.019  1.00  0.00     0.028 C 
HETATM    5  C7  UNL     1      28.415   9.232   3.509  1.00  0.00     0.012 C 
HETATM    6  C8  UNL     1      27.175   8.634   2.844  1.00  0.00     0.032 C 
ENDROOT
BRANCH   3   7
HETATM    7  C4  UNL     1      26.472   7.512   5.000  1.00  0.00    -0.014 C 
HETATM    8  C5  UNL     1      26.488   6.561   5.919  1.00  0.00     0.008 C 
ENDBRANCH   3   7
BRANCH   6   9
HETATM    9  C9  UNL     1      26.003   9.494   3.032  1.00  0.00    -0.030 C 
HETATM   10  C10 UNL     1      25.561  10.251   2.046  1.00  0.00     0.007 C 
ENDBRANCH   6   9
TORSDOF 2
ENDMDL
MODEL 4
REMARK VINA RESULT: -5.403602806      0.928      2.466
REMARK  2 active torsions:
REMARK  status: ('A' for Active; 'I' for Inactive)
REMARK    1  A    between atoms: C3_3  and  C4_4 
REMARK    2  A    between atoms: C8_8  and  C9_9 
ROOT
HETATM    1  C1  UNL     1      28.830   9.675   4.996  1.00  0.00     0.013 C 
HETATM    2  C2  UNL     1      28.164   8.976   4.274  1.00  0.00    -0.102 C 
HETATM    3  C3  UNL     1      27.336   8.106   3.408  1.00  0.00     0.046 C 
HETATM    4  C6  UNL     1      28.178   7.551   2.288  1.00  0.00     0.028 C 
HETATM    5  C7  UNL     1      27.599   6.190   2.586  1.00  0.00     0.012 C 
HETATM    6  C8  UNL     1      27.213   6.709   3.972  1.00  0.00     0.032 C 
ENDROOT
BRANCH   3   7
HETATM    7  C4  UNL     1      26.085   8.742   2.974  1.00  0.00    -0.014 C 
HETATM    8  C5  UNL     1      26.057   9.880   2.301  1.00  0.00     0.008 C 
ENDBRANCH   3   7
BRANCH   6   9
HETATM    9  C9  UNL     1      25.863   6.275   4.346  1.00  0.00    -0.030 C 
HETATM   10  C10 UNL     1      25.655   5.639   5.483  1.00  0.00     0.007 C 
ENDBRANCH   6   9
TORSDOF 2
ENDMDL
MODEL 5
REMARK VINA RESULT: -5.313740552      1.501      3.873
REMARK  2 active torsions:
REMARK  status: ('A' for Active; 'I' for Inactive)
REMARK    1  A    between atoms: C3_3  and  C4_4 
REMARK    2  A    between atoms: C8_8  and  C9_9 
ROOT
HETATM    1  C1  UNL     1      26.997   5.271   2.589  1.00  0.00     0.013 C 
HETATM    2  C2  UNL     1      27.475   6.358   2.382  1.00  0.00    -0.102 C 
HETATM    3  C3  UNL     1      28.039   7.704   2.132  1.00  0.00     0.046 C 
HETATM    4  C6  UNL     1      28.817   7.701   0.841  1.00  0.00     0.028 C 
HETATM    5  C7  UNL     1      28.103   8.974   0.459  1.00  0.00     0.012 C 
HETATM    6  C8  UNL     1      27.028   8.626   1.490  1.00  0.00     0.032 C 
ENDROOT
BRANCH   3   7
HETATM    7  C4  UNL     1      28.771   8.248   3.285  1.00  0.00    -0.014 C 
HETATM    8  C5  UNL     1      28.333   8.135   4.528  1.00  0.00     0.008 C 
ENDBRANCH   3   7
BRANCH   6   9
HETATM    9  C9  UNL     1      26.635   9.804   2.267  1.00  0.00    -0.030 C 
HETATM   10  C10 UNL     1      25.407   9.918   2.738  1.00  0.00     0.007 C 
ENDBRANCH   6   9
TORSDOF 2
ENDMDL
