MODEL 1
REMARK VINA RESULT: -3.533412562      0.000      0.000
REMARK  0 active torsions:
REMARK  status: ('A' for Active; 'I' for Inactive)
ROOT
HETATM    1  C1  UNL     1      26.538   6.672   5.673  1.00  0.00     0.016 C 
HETATM    2  C2  UNL     1      26.142   5.241   6.065  1.00  0.00     0.016 C 
HETATM    3  C3  UNL     1      25.821   4.690   4.714  1.00  0.00     0.049 C 
HETATM    4  C4  UNL     1      24.831   5.759   4.223  1.00  0.00     0.030 C 
HETATM    5  C5  UNL     1      26.000   6.709   4.279  1.00  0.00     0.049 C 
HETATM    6  S1  UNL     1      26.980   5.366   3.526  1.00  0.00    -0.159 SA
ENDROOT
TORSDOF 0
ENDMDL
MODEL 2
REMARK VINA RESULT: -3.496524230      2.327      3.295
REMARK  0 active torsions:
REMARK  status: ('A' for Active; 'I' for Inactive)
ROOT
HETATM    1  C1  UNL     1      27.685   6.710   3.326  1.00  0.00     0.016 C 
HETATM    2  C2  UNL     1      28.689   7.809   3.708  1.00  0.00     0.016 C 
HETATM    3  C3  UNL     1      27.927   8.474   4.808  1.00  0.00     0.049 C 
HETATM    4  C4  UNL     1      26.594   8.732   4.086  1.00  0.00     0.030 C 
HETATM    5  C5  UNL     1      26.467   7.231   4.020  1.00  0.00     0.049 C 
HETATM    6  S1  UNL     1      27.057   7.220   5.747  1.00  0.00    -0.159 SA
ENDROOT
TORSDOF 0
ENDMDL
MODEL 3
REMARK VINA RESULT: -3.470819584      2.609      3.558
REMARK  0 active torsions:
REMARK  status: ('A' for Active; 'I' for Inactive)
ROOT
HETATM    1  C1  UNL     1      27.739   6.740   3.370  1.00  0.00     0.016 C 
HETATM    2  C2  UNL     1      26.529   7.196   4.200  1.00  0.00     0.016 C 
HETATM    3  C3  UNL     1      26.826   8.657   4.297  1.00  0.00     0.049 C 
HETATM    4  C4  UNL     1      28.268   8.596   4.830  1.00  0.00     0.030 C 
HETATM    5  C5  UNL     1      28.610   7.948   3.512  1.00  0.00     0.049 C 
HETATM    6  S1  UNL     1      27.533   9.206   2.744  1.00  0.00    -0.159 SA
ENDROOT
TORSDOF 0
ENDMDL
MODEL 4
REMARK VINA RESULT: -3.427819832      2.319      2.989
REMARK  0 active torsions:
REMARK  status: ('A' for Active; 'I' for Inactive)
ROOT
HETATM    1  C1  UNL     1      28.387   8.809   5.036  1.00  0.00     0.016 C 
HETATM    2  C2  UNL     1      27.280   7.838   5.472  1.00  0.00     0.016 C 
HETATM    3  C3  UNL     1      26.737   7.458   4.132  1.00  0.00     0.049 C 
HETATM    4  C4  UNL     1      26.481   8.857   3.547  1.00  0.00     0.030 C 
HETATM    5  C5  UNL     1      27.976   9.039   3.617  1.00  0.00     0.049 C 
HETATM    6  S1  UNL     1      28.098   7.335   2.973  1.00  0.00    -0.159 SA
ENDROOT
TORSDOF 0
ENDMDL
MODEL 5
REMARK VINA RESULT: -3.410984210      2.672      3.594
REMARK  0 active torsions:
REMARK  status: ('A' for Active; 'I' for Inactive)
ROOT
HETATM    1  C1  UNL     1      26.650   7.194   4.183  1.00  0.00     0.016 C 
HETATM    2  C2  UNL     1      27.215   8.117   5.273  1.00  0.00     0.016 C 
HETATM    3  C3  UNL     1      28.177   8.914   4.454  1.00  0.00     0.049 C 
HETATM    4  C4  UNL     1      28.967   7.772   3.793  1.00  0.00     0.030 C 
HETATM    5  C5  UNL     1      27.669   7.418   3.112  1.00  0.00     0.049 C 
HETATM    6  S1  UNL     1      27.454   9.210   2.841  1.00  0.00    -0.159 SA
ENDROOT
TORSDOF 0
ENDMDL
