MODEL 1
REMARK VINA RESULT: -6.287067612      0.000      0.000
REMARK  0 active torsions:
REMARK  status: ('A' for Active; 'I' for Inactive)
ROOT
HETATM    1  C1  UNL     1      25.669   5.522   5.983  1.00  0.00     0.006 C 
HETATM    2  C2  UNL     1      26.282   6.869   6.385  1.00  0.00     0.006 C 
HETATM    3  C3  UNL     1      27.235   7.111   5.256  1.00  0.00    -0.005 A 
HETATM    4  C4  UNL     1      26.666   8.013   4.162  1.00  0.00     0.015 A 
HETATM    5  C5  UNL     1      26.590   6.599   4.060  1.00  0.00    -0.033 A 
HETATM    6  C6  UNL     1      27.151   5.674   3.080  1.00  0.00     0.011 C 
HETATM    7  C7  UNL     1      26.317   4.566   3.746  1.00  0.00     0.006 C 
HETATM    8  C8  UNL     1      25.549   5.672   4.487  1.00  0.00    -0.006 C 
ENDROOT
TORSDOF 0
ENDMDL
MODEL 2
REMARK VINA RESULT: -6.100576396      0.673      3.051
REMARK  0 active torsions:
REMARK  status: ('A' for Active; 'I' for Inactive)
ROOT
HETATM    1  C1  UNL     1      27.659   6.570   3.215  1.00  0.00     0.006 C 
HETATM    2  C2  UNL     1      26.935   5.281   2.808  1.00  0.00     0.006 C 
HETATM    3  C3  UNL     1      26.316   4.864   4.107  1.00  0.00    -0.005 A 
HETATM    4  C4  UNL     1      24.861   5.304   4.256  1.00  0.00     0.015 A 
HETATM    5  C5  UNL     1      25.922   6.087   4.782  1.00  0.00    -0.033 A 
HETATM    6  C6  UNL     1      26.239   6.482   6.152  1.00  0.00     0.011 C 
HETATM    7  C7  UNL     1      27.319   7.408   5.565  1.00  0.00     0.006 C 
HETATM    8  C8  UNL     1      26.679   7.181   4.186  1.00  0.00    -0.006 C 
ENDROOT
TORSDOF 0
ENDMDL
MODEL 3
REMARK VINA RESULT: -5.921699398      0.643      2.417
REMARK  0 active torsions:
REMARK  status: ('A' for Active; 'I' for Inactive)
ROOT
HETATM    1  C1  UNL     1      25.972   6.266   6.324  1.00  0.00     0.006 C 
HETATM    2  C2  UNL     1      25.468   5.178   5.367  1.00  0.00     0.006 C 
HETATM    3  C3  UNL     1      25.607   5.860   4.041  1.00  0.00    -0.005 A 
HETATM    4  C4  UNL     1      26.902   5.511   3.310  1.00  0.00     0.015 A 
HETATM    5  C5  UNL     1      26.808   6.671   4.123  1.00  0.00    -0.033 A 
HETATM    6  C6  UNL     1      26.942   8.088   3.796  1.00  0.00     0.011 C 
HETATM    7  C7  UNL     1      26.904   8.373   5.308  1.00  0.00     0.006 C 
HETATM    8  C8  UNL     1      27.110   6.867   5.536  1.00  0.00    -0.006 C 
ENDROOT
TORSDOF 0
ENDMDL
MODEL 4
REMARK VINA RESULT: -5.854638277      0.875      1.319
REMARK  0 active torsions:
REMARK  status: ('A' for Active; 'I' for Inactive)
ROOT
HETATM    1  C1  UNL     1      25.728   4.827   4.786  1.00  0.00     0.006 C 
HETATM    2  C2  UNL     1      25.869   5.451   6.180  1.00  0.00     0.006 C 
HETATM    3  C3  UNL     1      26.990   6.420   5.961  1.00  0.00    -0.005 A 
HETATM    4  C4  UNL     1      26.517   7.844   5.676  1.00  0.00     0.015 A 
HETATM    5  C5  UNL     1      26.818   6.946   4.619  1.00  0.00    -0.033 A 
HETATM    6  C6  UNL     1      27.820   7.010   3.559  1.00  0.00     0.011 C 
HETATM    7  C7  UNL     1      27.141   5.779   2.933  1.00  0.00     0.006 C 
HETATM    8  C8  UNL     1      25.962   6.018   3.890  1.00  0.00    -0.006 C 
ENDROOT
TORSDOF 0
ENDMDL
MODEL 5
REMARK VINA RESULT: -5.670277323      0.781      2.874
REMARK  0 active torsions:
REMARK  status: ('A' for Active; 'I' for Inactive)
ROOT
HETATM    1  C1  UNL     1      26.878   5.561   3.217  1.00  0.00     0.006 C 
HETATM    2  C2  UNL     1      26.262   4.363   3.949  1.00  0.00     0.006 C 
HETATM    3  C3  UNL     1      26.422   4.773   5.381  1.00  0.00    -0.005 A 
HETATM    4  C4  UNL     1      25.170   5.421   5.971  1.00  0.00     0.015 A 
HETATM    5  C5  UNL     1      26.214   6.210   5.419  1.00  0.00    -0.033 A 
HETATM    6  C6  UNL     1      27.085   7.213   6.024  1.00  0.00     0.011 C 
HETATM    7  C7  UNL     1      27.586   7.538   4.606  1.00  0.00     0.006 C 
HETATM    8  C8  UNL     1      26.405   6.716   4.065  1.00  0.00    -0.006 C 
ENDROOT
TORSDOF 0
ENDMDL
