MODEL 1
REMARK VINA RESULT: -6.529851479      0.000      0.000
REMARK  12 active torsions:
REMARK  status: ('A' for Active; 'I' for Inactive)
REMARK    1  A    between atoms: O1_1  and  C1_3 
REMARK    2  A    between atoms: C9_11  and  C10_12 
REMARK    3  A    between atoms: C10_12  and  C11_13 
REMARK    4  A    between atoms: C11_13  and  C12_14 
REMARK    5  A    between atoms: C12_14  and  C13_15 
REMARK    6  A    between atoms: C13_15  and  C14_16 
REMARK    7  A    between atoms: C14_16  and  C15_17 
REMARK    8  A    between atoms: C15_17  and  C16_18 
REMARK    9  A    between atoms: C16_18  and  C17_19 
REMARK   10  A    between atoms: C17_19  and  C18_20 
REMARK   11  A    between atoms: C18_20  and  N1_21 
REMARK   12  A    between atoms: N1_21  and  C19_23 
ROOT
HETATM    1  C14 UNL     1      12.378  18.932  57.357  1.00  0.00     0.000 C 
ENDROOT
BRANCH   1   2
HETATM    2  C13 UNL     1      11.709  17.625  57.004  1.00  0.00     0.000 C 
BRANCH   2   3
HETATM    3  C12 UNL     1      10.877  17.079  58.121  1.00  0.00     0.000 C 
BRANCH   3   4
HETATM    4  C11 UNL     1      10.421  18.146  59.088  1.00  0.00     0.000 C 
BRANCH   4   5
HETATM    5  C10 UNL     1      10.087  17.591  60.430  1.00  0.00     0.007 C 
BRANCH   5   6
HETATM    6  C9  UNL     1      10.741  18.414  61.526  1.00  0.00     0.015 C 
HETATM    7  C1  UNL     1       9.734  18.748  62.556  1.00  0.00     0.122 C 
HETATM    8  C2  UNL     1       9.980  19.883  63.448  1.00  0.00     0.036 C 
HETATM    9  C3  UNL     1      11.357  20.362  63.661  1.00  0.00    -0.012 C 
HETATM   10  C4  UNL     1      12.411  19.344  63.890  1.00  0.00     0.005 C 
HETATM   11  C7  UNL     1      11.871  21.271  62.535  1.00  0.00     0.009 C 
HETATM   12  C5  UNL     1      13.182  19.324  62.613  1.00  0.00     0.005 C 
HETATM   13  C6  UNL     1      12.494  20.208  61.620  1.00  0.00    -0.014 C 
HETATM   14  C8  UNL     1      11.386  19.583  60.862  1.00  0.00     0.012 C 
BRANCH   7  15
HETATM   15  O1  UNL     1       8.513  18.999  61.878  1.00  0.00    -0.395 OA
ATOM     16  H1  UNL     1       8.281  18.205  61.410  1.00  0.00     0.210 HD
ENDBRANCH   7  15
ENDBRANCH   5   6
ENDBRANCH   4   5
ENDBRANCH   3   4
ENDBRANCH   2   3
ENDBRANCH   1   2
BRANCH   1  17
HETATM   17  C15 UNL     1      13.662  18.680  58.106  1.00  0.00     0.000 C 
BRANCH  17  18
HETATM   18  C16 UNL     1      14.352  19.957  58.520  1.00  0.00     0.002 C 
BRANCH  18  19
HETATM   19  C17 UNL     1      13.493  21.143  58.088  1.00  0.00     0.020 C 
BRANCH  19  20
HETATM   20  C18 UNL     1      14.350  22.242  57.507  1.00  0.00     0.138 C 
BRANCH  20  21
HETATM   21  N1  UNL     1      15.559  21.720  56.946  1.00  0.00    -0.223 N 
ATOM     22  H1  UNL     1      16.288  21.357  57.562  1.00  0.00     0.177 HD
BRANCH  21  23
HETATM   23  C19 UNL     1      15.735  21.705  55.666  1.00  0.00     0.709 A 
HETATM   24  N2  UNL     1      14.972  20.972  54.828  1.00  0.00    -0.115 N 
HETATM   25  N3  UNL     1      15.377  21.147  53.573  1.00  0.00    -0.213 N 
ATOM     26  H2  UNL     1      14.200  20.372  55.114  1.00  0.00     0.207 HD
HETATM   27  N4  UNL     1      16.382  21.986  53.646  1.00  0.00    -0.213 N 
ATOM     28  H3  UNL     1      14.988  20.721  52.732  1.00  0.00     0.210 HD
HETATM   29  N5  UNL     1      16.623  22.342  54.901  1.00  0.00    -0.115 N 
ATOM     30  H4  UNL     1      16.911  22.321  52.841  1.00  0.00     0.210 HD
ATOM     31  H5  UNL     1      17.351  22.982  55.221  1.00  0.00     0.207 HD
ENDBRANCH  21  23
ENDBRANCH  20  21
ENDBRANCH  19  20
ENDBRANCH  18  19
ENDBRANCH  17  18
ENDBRANCH   1  17
TORSDOF 12
ENDMDL
MODEL 2
REMARK VINA RESULT: -6.327477262      2.024      3.033
REMARK  12 active torsions:
REMARK  status: ('A' for Active; 'I' for Inactive)
REMARK    1  A    between atoms: O1_1  and  C1_3 
REMARK    2  A    between atoms: C9_11  and  C10_12 
REMARK    3  A    between atoms: C10_12  and  C11_13 
REMARK    4  A    between atoms: C11_13  and  C12_14 
REMARK    5  A    between atoms: C12_14  and  C13_15 
REMARK    6  A    between atoms: C13_15  and  C14_16 
REMARK    7  A    between atoms: C14_16  and  C15_17 
REMARK    8  A    between atoms: C15_17  and  C16_18 
REMARK    9  A    between atoms: C16_18  and  C17_19 
REMARK   10  A    between atoms: C17_19  and  C18_20 
REMARK   11  A    between atoms: C18_20  and  N1_21 
REMARK   12  A    between atoms: N1_21  and  C19_23 
ROOT
HETATM    1  C14 UNL     1      12.172  17.462  57.175  1.00  0.00     0.000 C 
ENDROOT
BRANCH   1   2
HETATM    2  C13 UNL     1      11.009  17.082  58.060  1.00  0.00     0.000 C 
BRANCH   2   3
HETATM    3  C12 UNL     1      10.772  18.067  59.161  1.00  0.00     0.000 C 
BRANCH   3   4
HETATM    4  C11 UNL     1       9.862  17.533  60.242  1.00  0.00     0.000 C 
BRANCH   4   5
HETATM    5  C10 UNL     1      10.137  18.148  61.571  1.00  0.00     0.007 C 
BRANCH   5   6
HETATM    6  C9  UNL     1       9.570  17.285  62.685  1.00  0.00     0.015 C 
HETATM    7  C1  UNL     1       8.189  17.718  62.986  1.00  0.00     0.122 C 
HETATM    8  C2  UNL     1       7.604  17.375  64.284  1.00  0.00     0.036 C 
HETATM    9  C3  UNL     1       8.147  16.244  65.056  1.00  0.00    -0.012 C 
HETATM   10  C4  UNL     1       8.437  14.988  64.324  1.00  0.00     0.005 C 
HETATM   11  C7  UNL     1       9.421  16.593  65.840  1.00  0.00     0.009 C 
HETATM   12  C5  UNL     1       9.927  14.954  64.236  1.00  0.00     0.005 C 
HETATM   13  C6  UNL     1      10.472  16.237  64.780  1.00  0.00    -0.014 C 
HETATM   14  C8  UNL     1      10.527  17.369  63.826  1.00  0.00     0.012 C 
BRANCH   7  15
HETATM   15  O1  UNL     1       8.160  19.131  62.867  1.00  0.00    -0.395 OA
ATOM     16  H1  UNL     1       8.893  19.385  62.319  1.00  0.00     0.210 HD
ENDBRANCH   7  15
ENDBRANCH   5   6
ENDBRANCH   4   5
ENDBRANCH   3   4
ENDBRANCH   2   3
ENDBRANCH   1   2
BRANCH   1  17
HETATM   17  C15 UNL     1      12.576  18.894  57.426  1.00  0.00     0.000 C 
BRANCH  17  18
HETATM   18  C16 UNL     1      13.900  19.005  58.141  1.00  0.00     0.002 C 
BRANCH  18  19
HETATM   19  C17 UNL     1      14.004  20.392  58.771  1.00  0.00     0.020 C 
BRANCH  19  20
HETATM   20  C18 UNL     1      13.808  21.469  57.731  1.00  0.00     0.138 C 
BRANCH  20  21
HETATM   21  N1  UNL     1      15.061  21.947  57.231  1.00  0.00    -0.223 N 
ATOM     22  H1  UNL     1      15.693  22.454  57.851  1.00  0.00     0.177 HD
BRANCH  21  23
HETATM   23  C19 UNL     1      15.396  21.742  56.000  1.00  0.00     0.709 A 
HETATM   24  N2  UNL     1      16.450  22.347  55.414  1.00  0.00    -0.115 N 
HETATM   25  N3  UNL     1      16.558  21.952  54.149  1.00  0.00    -0.213 N 
ATOM     26  H2  UNL     1      17.073  23.010  55.874  1.00  0.00     0.207 HD
HETATM   27  N4  UNL     1      15.572  21.107  53.964  1.00  0.00    -0.213 N 
ATOM     28  H3  UNL     1      17.258  22.243  53.467  1.00  0.00     0.210 HD
HETATM   29  N5  UNL     1      14.850  20.959  55.067  1.00  0.00    -0.115 N 
ATOM     30  H4  UNL     1      15.385  20.626  53.085  1.00  0.00     0.210 HD
ATOM     31  H5  UNL     1      14.033  20.359  55.181  1.00  0.00     0.207 HD
ENDBRANCH  21  23
ENDBRANCH  20  21
ENDBRANCH  19  20
ENDBRANCH  18  19
ENDBRANCH  17  18
ENDBRANCH   1  17
TORSDOF 12
ENDMDL
MODEL 3
REMARK VINA RESULT: -6.264214367      1.567      2.672
REMARK  12 active torsions:
REMARK  status: ('A' for Active; 'I' for Inactive)
REMARK    1  A    between atoms: O1_1  and  C1_3 
REMARK    2  A    between atoms: C9_11  and  C10_12 
REMARK    3  A    between atoms: C10_12  and  C11_13 
REMARK    4  A    between atoms: C11_13  and  C12_14 
REMARK    5  A    between atoms: C12_14  and  C13_15 
REMARK    6  A    between atoms: C13_15  and  C14_16 
REMARK    7  A    between atoms: C14_16  and  C15_17 
REMARK    8  A    between atoms: C15_17  and  C16_18 
REMARK    9  A    between atoms: C16_18  and  C17_19 
REMARK   10  A    between atoms: C17_19  and  C18_20 
REMARK   11  A    between atoms: C18_20  and  N1_21 
REMARK   12  A    between atoms: N1_21  and  C19_23 
ROOT
HETATM    1  C14 UNL     1      10.971  17.071  57.899  1.00  0.00     0.000 C 
ENDROOT
BRANCH   1   2
HETATM    2  C13 UNL     1      10.487  18.118  58.872  1.00  0.00     0.000 C 
BRANCH   2   3
HETATM    3  C12 UNL     1      10.212  17.562  60.234  1.00  0.00     0.000 C 
BRANCH   3   4
HETATM    4  C11 UNL     1      10.538  18.534  61.342  1.00  0.00     0.000 C 
BRANCH   4   5
HETATM    5  C10 UNL     1      11.800  19.284  61.088  1.00  0.00     0.007 C 
BRANCH   5   6
HETATM    6  C9  UNL     1      12.161  20.143  62.288  1.00  0.00     0.015 C 
HETATM    7  C1  UNL     1      12.419  21.528  61.839  1.00  0.00     0.122 C 
HETATM    8  C2  UNL     1      13.211  22.415  62.693  1.00  0.00     0.036 C 
HETATM    9  C3  UNL     1      13.324  22.135  64.135  1.00  0.00    -0.012 C 
HETATM   10  C4  UNL     1      12.087  21.761  64.861  1.00  0.00     0.005 C 
HETATM   11  C7  UNL     1      14.366  21.058  64.469  1.00  0.00     0.009 C 
HETATM   12  C5  UNL     1      12.237  20.296  65.105  1.00  0.00     0.005 C 
HETATM   13  C6  UNL     1      13.468  19.814  64.405  1.00  0.00    -0.014 C 
HETATM   14  C8  UNL     1      13.302  19.472  62.973  1.00  0.00     0.012 C 
BRANCH   7  15
HETATM   15  O1  UNL     1      13.082  21.443  60.587  1.00  0.00    -0.395 OA
ATOM     16  H1  UNL     1      12.414  21.341  59.919  1.00  0.00     0.210 HD
ENDBRANCH   7  15
ENDBRANCH   5   6
ENDBRANCH   4   5
ENDBRANCH   3   4
ENDBRANCH   2   3
ENDBRANCH   1   2
BRANCH   1  17
HETATM   17  C15 UNL     1      12.253  17.516  57.242  1.00  0.00     0.000 C 
BRANCH  17  18
HETATM   18  C16 UNL     1      12.553  18.975  57.488  1.00  0.00     0.002 C 
BRANCH  18  19
HETATM   19  C17 UNL     1      13.952  19.096  58.088  1.00  0.00     0.020 C 
BRANCH  19  20
HETATM   20  C18 UNL     1      14.590  20.408  57.700  1.00  0.00     0.138 C 
BRANCH  20  21
HETATM   21  N1  UNL     1      14.337  20.726  56.327  1.00  0.00    -0.223 N 
ATOM     22  H1  UNL     1      13.409  20.569  55.934  1.00  0.00     0.177 HD
BRANCH  21  23
HETATM   23  C19 UNL     1      15.276  21.210  55.583  1.00  0.00     0.709 A 
HETATM   24  N2  UNL     1      16.319  21.909  56.077  1.00  0.00    -0.115 N 
HETATM   25  N3  UNL     1      17.126  22.284  55.088  1.00  0.00    -0.213 N 
ATOM     26  H2  UNL     1      16.468  22.118  57.064  1.00  0.00     0.207 HD
HETATM   27  N4  UNL     1      16.576  21.815  53.995  1.00  0.00    -0.213 N 
ATOM     28  H3  UNL     1      17.990  22.822  55.164  1.00  0.00     0.210 HD
HETATM   29  N5  UNL     1      15.454  21.159  54.262  1.00  0.00    -0.115 N 
ATOM     30  H4  UNL     1      16.962  21.937  53.059  1.00  0.00     0.210 HD
ATOM     31  H5  UNL     1      14.842  20.702  53.585  1.00  0.00     0.207 HD
ENDBRANCH  21  23
ENDBRANCH  20  21
ENDBRANCH  19  20
ENDBRANCH  18  19
ENDBRANCH  17  18
ENDBRANCH   1  17
TORSDOF 12
ENDMDL
MODEL 4
REMARK VINA RESULT: -6.238923839      1.126      1.664
REMARK  12 active torsions:
REMARK  status: ('A' for Active; 'I' for Inactive)
REMARK    1  A    between atoms: O1_1  and  C1_3 
REMARK    2  A    between atoms: C9_11  and  C10_12 
REMARK    3  A    between atoms: C10_12  and  C11_13 
REMARK    4  A    between atoms: C11_13  and  C12_14 
REMARK    5  A    between atoms: C12_14  and  C13_15 
REMARK    6  A    between atoms: C13_15  and  C14_16 
REMARK    7  A    between atoms: C14_16  and  C15_17 
REMARK    8  A    between atoms: C15_17  and  C16_18 
REMARK    9  A    between atoms: C16_18  and  C17_19 
REMARK   10  A    between atoms: C17_19  and  C18_20 
REMARK   11  A    between atoms: C18_20  and  N1_21 
REMARK   12  A    between atoms: N1_21  and  C19_23 
ROOT
HETATM    1  C14 UNL     1      11.287  17.610  57.611  1.00  0.00     0.000 C 
ENDROOT
BRANCH   1   2
HETATM    2  C13 UNL     1      10.675  17.360  58.969  1.00  0.00     0.000 C 
BRANCH   2   3
HETATM    3  C12 UNL     1       9.388  18.096  59.169  1.00  0.00     0.000 C 
BRANCH   3   4
HETATM    4  C11 UNL     1       9.157  18.495  60.607  1.00  0.00     0.000 C 
BRANCH   4   5
HETATM    5  C10 UNL     1       9.755  17.528  61.569  1.00  0.00     0.007 C 
BRANCH   5   6
HETATM    6  C9  UNL     1      10.736  18.230  62.492  1.00  0.00     0.015 C 
HETATM    7  C1  UNL     1      10.516  17.772  63.881  1.00  0.00     0.122 C 
HETATM    8  C2  UNL     1      10.992  18.606  64.987  1.00  0.00     0.036 C 
HETATM    9  C3  UNL     1      12.068  19.585  64.755  1.00  0.00    -0.012 C 
HETATM   10  C4  UNL     1      13.237  19.146  63.957  1.00  0.00     0.005 C 
HETATM   11  C7  UNL     1      11.577  20.895  64.119  1.00  0.00     0.009 C 
HETATM   12  C5  UNL     1      13.058  19.828  62.642  1.00  0.00     0.005 C 
HETATM   13  C6  UNL     1      11.735  20.528  62.637  1.00  0.00    -0.014 C 
HETATM   14  C8  UNL     1      10.567  19.694  62.269  1.00  0.00     0.012 C 
BRANCH   7  15
HETATM   15  O1  UNL     1       9.117  17.606  64.047  1.00  0.00    -0.395 OA
ATOM     16  H1  UNL     1       8.971  16.719  64.355  1.00  0.00     0.210 HD
ENDBRANCH   7  15
ENDBRANCH   5   6
ENDBRANCH   4   5
ENDBRANCH   3   4
ENDBRANCH   2   3
ENDBRANCH   1   2
BRANCH   1  17
HETATM   17  C15 UNL     1      12.703  18.109  57.756  1.00  0.00     0.000 C 
BRANCH  17  18
HETATM   18  C16 UNL     1      12.923  18.859  59.048  1.00  0.00     0.002 C 
BRANCH  18  19
HETATM   19  C17 UNL     1      13.879  20.021  58.785  1.00  0.00     0.020 C 
BRANCH  19  20
HETATM   20  C18 UNL     1      13.885  20.388  57.321  1.00  0.00     0.138 C 
BRANCH  20  21
HETATM   21  N1  UNL     1      14.841  21.417  57.045  1.00  0.00    -0.223 N 
ATOM     22  H1  UNL     1      15.074  22.099  57.767  1.00  0.00     0.177 HD
BRANCH  21  23
HETATM   23  C19 UNL     1      15.411  21.488  55.887  1.00  0.00     0.709 A 
HETATM   24  N2  UNL     1      16.617  22.063  55.695  1.00  0.00    -0.115 N 
HETATM   25  N3  UNL     1      16.955  21.995  54.410  1.00  0.00    -0.213 N 
ATOM     26  H2  UNL     1      17.185  22.488  56.427  1.00  0.00     0.207 HD
HETATM   27  N4  UNL     1      15.959  21.379  53.821  1.00  0.00    -0.213 N 
ATOM     28  H3  UNL     1      17.808  22.346  53.975  1.00  0.00     0.210 HD
HETATM   29  N5  UNL     1      15.008  21.059  54.689  1.00  0.00    -0.115 N 
ATOM     30  H4  UNL     1      15.920  21.172  52.823  1.00  0.00     0.210 HD
ATOM     31  H5  UNL     1      14.133  20.576  54.481  1.00  0.00     0.207 HD
ENDBRANCH  21  23
ENDBRANCH  20  21
ENDBRANCH  19  20
ENDBRANCH  18  19
ENDBRANCH  17  18
ENDBRANCH   1  17
TORSDOF 12
ENDMDL
MODEL 5
REMARK VINA RESULT: -6.179799015      1.318      1.894
REMARK  12 active torsions:
REMARK  status: ('A' for Active; 'I' for Inactive)
REMARK    1  A    between atoms: O1_1  and  C1_3 
REMARK    2  A    between atoms: C9_11  and  C10_12 
REMARK    3  A    between atoms: C10_12  and  C11_13 
REMARK    4  A    between atoms: C11_13  and  C12_14 
REMARK    5  A    between atoms: C12_14  and  C13_15 
REMARK    6  A    between atoms: C13_15  and  C14_16 
REMARK    7  A    between atoms: C14_16  and  C15_17 
REMARK    8  A    between atoms: C15_17  and  C16_18 
REMARK    9  A    between atoms: C16_18  and  C17_19 
REMARK   10  A    between atoms: C17_19  and  C18_20 
REMARK   11  A    between atoms: C18_20  and  N1_21 
REMARK   12  A    between atoms: N1_21  and  C19_23 
ROOT
HETATM    1  C14 UNL     1      12.531  18.795  57.385  1.00  0.00     0.000 C 
ENDROOT
BRANCH   1   2
HETATM    2  C13 UNL     1      12.141  17.382  57.022  1.00  0.00     0.000 C 
BRANCH   2   3
HETATM    3  C12 UNL     1      10.860  16.952  57.663  1.00  0.00     0.000 C 
BRANCH   3   4
HETATM    4  C11 UNL     1      10.743  17.397  59.101  1.00  0.00     0.000 C 
BRANCH   4   5
HETATM    5  C10 UNL     1       9.433  18.044  59.392  1.00  0.00     0.007 C 
BRANCH   5   6
HETATM    6  C9  UNL     1       9.170  18.067  60.888  1.00  0.00     0.015 C 
HETATM    7  C1  UNL     1       7.857  18.697  61.145  1.00  0.00     0.122 C 
HETATM    8  C2  UNL     1       7.581  19.246  62.474  1.00  0.00     0.036 C 
HETATM    9  C3  UNL     1       8.345  18.766  63.638  1.00  0.00    -0.012 C 
HETATM   10  C4  UNL     1       8.556  17.304  63.766  1.00  0.00     0.005 C 
HETATM   11  C7  UNL     1       9.730  19.417  63.772  1.00  0.00     0.009 C 
HETATM   12  C5  UNL     1       9.993  17.111  63.412  1.00  0.00     0.005 C 
HETATM   13  C6  UNL     1      10.556  18.417  62.950  1.00  0.00    -0.014 C 
HETATM   14  C8  UNL     1      10.337  18.744  61.522  1.00  0.00     0.012 C 
BRANCH   7  15
HETATM   15  O1  UNL     1       7.713  19.755  60.210  1.00  0.00    -0.395 OA
ATOM     16  H1  UNL     1       6.928  19.581  59.704  1.00  0.00     0.210 HD
ENDBRANCH   7  15
ENDBRANCH   5   6
ENDBRANCH   4   5
ENDBRANCH   3   4
ENDBRANCH   2   3
ENDBRANCH   1   2
BRANCH   1  17
HETATM   17  C15 UNL     1      13.557  18.790  58.491  1.00  0.00     0.000 C 
BRANCH  17  18
HETATM   18  C16 UNL     1      14.368  20.062  58.535  1.00  0.00     0.002 C 
BRANCH  18  19
HETATM   19  C17 UNL     1      13.472  21.232  58.133  1.00  0.00     0.020 C 
BRANCH  19  20
HETATM   20  C18 UNL     1      14.286  22.339  57.508  1.00  0.00     0.138 C 
BRANCH  20  21
HETATM   21  N1  UNL     1      15.524  21.846  56.984  1.00  0.00    -0.223 N 
ATOM     22  H1  UNL     1      16.265  21.557  57.622  1.00  0.00     0.177 HD
BRANCH  21  23
HETATM   23  C19 UNL     1      15.707  21.764  55.707  1.00  0.00     0.709 A 
HETATM   24  N2  UNL     1      14.949  20.990  54.903  1.00  0.00    -0.115 N 
HETATM   25  N3  UNL     1      15.362  21.099  53.643  1.00  0.00    -0.213 N 
ATOM     26  H2  UNL     1      14.172  20.408  55.215  1.00  0.00     0.207 HD
HETATM   27  N4  UNL     1      16.370  21.937  53.680  1.00  0.00    -0.213 N 
ATOM     28  H3  UNL     1      14.977  20.631  52.823  1.00  0.00     0.210 HD
HETATM   29  N5  UNL     1      16.603  22.358  54.916  1.00  0.00    -0.115 N 
ATOM     30  H4  UNL     1      16.905  22.229  52.862  1.00  0.00     0.210 HD
ATOM     31  H5  UNL     1      17.330  23.012  55.207  1.00  0.00     0.207 HD
ENDBRANCH  21  23
ENDBRANCH  20  21
ENDBRANCH  19  20
ENDBRANCH  18  19
ENDBRANCH  17  18
ENDBRANCH   1  17
TORSDOF 12
ENDMDL
