MODEL 1
REMARK VINA RESULT: -8.087823032      0.000      0.000
REMARK  2 active torsions:
REMARK  status: ('A' for Active; 'I' for Inactive)
REMARK    1  A    between atoms: N1_1  and  C1_4 
REMARK    2  A    between atoms: C2_7  and  N3_8 
REMARK       I    between atoms: N6_22  and  C10_23 
ROOT
HETATM    1  C1  UNL     1     -19.323  69.391  67.343  1.00  0.00     0.134 A 
HETATM    2  N2  UNL     1     -18.622  69.254  68.482  1.00  0.00    -0.176 N 
ATOM      3  H2  UNL     1     -18.794  68.444  69.079  1.00  0.00     0.186 HD
HETATM    4  C2  UNL     1     -17.690  70.170  68.859  1.00  0.00     0.683 A 
HETATM    5  N5  UNL     1     -17.451  71.246  68.085  1.00  0.00    -0.175 N 
ATOM      6  H5  UNL     1     -16.750  71.927  68.377  1.00  0.00     0.186 HD
HETATM    7  C7  UNL     1     -18.120  71.438  66.936  1.00  0.00     0.154 A 
HETATM    8  C8  UNL     1     -19.061  70.493  66.574  1.00  0.00     0.122 A 
HETATM    9  C9  UNL     1     -19.323  71.283  65.384  1.00  0.00     0.275 A 
HETATM   10  O1  UNL     1     -20.085  71.198  64.387  1.00  0.00    -0.266 OA
HETATM   11  N6  UNL     1     -18.332  72.252  65.790  1.00  0.00    -0.215 N 
HETATM   12  C10 UNL     1     -17.835  73.465  65.241  1.00  0.00     0.343 C 
HETATM   13  N7  UNL     1     -16.825  74.185  65.933  1.00  0.00    -0.039 NA
HETATM   14  O2  UNL     1     -18.264  73.909  64.172  1.00  0.00    -0.250 OA
ENDROOT
BRANCH   4  15
HETATM   15  N3  UNL     1     -16.981  69.972  70.075  1.00  0.00    -0.214 N 
HETATM   16  C3  UNL     1     -16.990  68.710  70.771  1.00  0.00     0.168 C 
HETATM   17  C4  UNL     1     -16.099  68.841  71.985  1.00  0.00     0.252 C 
HETATM   18  N4  UNL     1     -16.493  69.936  72.845  1.00  0.00    -0.072 N 
HETATM   19  C5  UNL     1     -16.610  71.191  72.142  1.00  0.00     0.252 C 
ATOM     20  H42 UNL     1     -17.356  69.716  73.343  1.00  0.00     0.277 HD
ATOM     21  H41 UNL     1     -15.859  70.021  73.639  1.00  0.00     0.277 HD
HETATM   22  C6  UNL     1     -16.212  71.049  70.668  1.00  0.00     0.168 C 
ENDBRANCH   4  15
BRANCH   1  23
HETATM   23  N1  UNL     1     -20.196  68.503  67.021  1.00  0.00    -0.384 N 
ATOM     24  H12 UNL     1     -20.918  68.174  67.662  1.00  0.00     0.157 HD
ATOM     25  H11 UNL     1     -20.181  68.097  66.085  1.00  0.00     0.157 HD
ENDBRANCH   1  23
TORSDOF 2
ENDMDL
MODEL 2
REMARK VINA RESULT: -7.729351740      0.550      1.225
REMARK  2 active torsions:
REMARK  status: ('A' for Active; 'I' for Inactive)
REMARK    1  A    between atoms: N1_1  and  C1_4 
REMARK    2  A    between atoms: C2_7  and  N3_8 
REMARK       I    between atoms: N6_22  and  C10_23 
ROOT
HETATM    1  C1  UNL     1     -19.465  69.634  67.064  1.00  0.00     0.134 A 
HETATM    2  N2  UNL     1     -18.936  69.512  68.294  1.00  0.00    -0.176 N 
ATOM      3  H2  UNL     1     -19.187  68.706  68.867  1.00  0.00     0.186 HD
HETATM    4  C2  UNL     1     -18.075  70.439  68.793  1.00  0.00     0.683 A 
HETATM    5  N5  UNL     1     -17.735  71.511  68.052  1.00  0.00    -0.175 N 
ATOM      6  H5  UNL     1     -17.088  72.200  68.435  1.00  0.00     0.186 HD
HETATM    7  C7  UNL     1     -18.231  71.688  66.815  1.00  0.00     0.154 A 
HETATM    8  C8  UNL     1     -19.103  70.732  66.331  1.00  0.00     0.122 A 
HETATM    9  C9  UNL     1     -19.196  71.509  65.108  1.00  0.00     0.275 A 
HETATM   10  O1  UNL     1     -19.805  71.409  64.012  1.00  0.00    -0.266 OA
HETATM   11  N6  UNL     1     -18.282  72.490  65.644  1.00  0.00    -0.215 N 
HETATM   12  C10 UNL     1     -17.719  73.702  65.161  1.00  0.00     0.343 C 
HETATM   13  N7  UNL     1     -16.825  74.437  65.984  1.00  0.00    -0.039 NA
HETATM   14  O2  UNL     1     -17.992  74.133  64.037  1.00  0.00    -0.250 OA
ENDROOT
BRANCH   4  15
HETATM   15  N3  UNL     1     -17.548  70.257  70.101  1.00  0.00    -0.214 N 
HETATM   16  C3  UNL     1     -16.663  71.216  70.711  1.00  0.00     0.168 C 
HETATM   17  C4  UNL     1     -16.344  70.733  72.107  1.00  0.00     0.252 C 
HETATM   18  N4  UNL     1     -15.784  69.399  72.116  1.00  0.00    -0.072 N 
HETATM   19  C5  UNL     1     -16.596  68.442  71.402  1.00  0.00     0.252 C 
ATOM     20  H42 UNL     1     -14.828  69.403  71.760  1.00  0.00     0.277 HD
ATOM     21  H41 UNL     1     -15.606  69.086  73.070  1.00  0.00     0.277 HD
HETATM   22  C6  UNL     1     -17.888  69.081  70.878  1.00  0.00     0.168 C 
ENDBRANCH   4  15
BRANCH   1  23
HETATM   23  N1  UNL     1     -20.276  68.735  66.628  1.00  0.00    -0.384 N 
ATOM     24  H12 UNL     1     -20.107  68.199  65.776  1.00  0.00     0.157 HD
ATOM     25  H11 UNL     1     -21.133  68.536  67.144  1.00  0.00     0.157 HD
ENDBRANCH   1  23
TORSDOF 2
ENDMDL
MODEL 3
REMARK VINA RESULT: -7.570799879      3.885      7.096
REMARK  2 active torsions:
REMARK  status: ('A' for Active; 'I' for Inactive)
REMARK    1  A    between atoms: N1_1  and  C1_4 
REMARK    2  A    between atoms: C2_7  and  N3_8 
REMARK       I    between atoms: N6_22  and  C10_23 
ROOT
HETATM    1  C1  UNL     1     -16.477  71.441  71.199  1.00  0.00     0.134 A 
HETATM    2  N2  UNL     1     -16.891  71.508  69.922  1.00  0.00    -0.176 N 
ATOM      3  H2  UNL     1     -16.748  72.371  69.396  1.00  0.00     0.186 HD
HETATM    4  C2  UNL     1     -17.497  70.452  69.314  1.00  0.00     0.683 A 
HETATM    5  N5  UNL     1     -17.695  69.306  69.993  1.00  0.00    -0.175 N 
ATOM      6  H5  UNL     1     -18.151  68.521  69.528  1.00  0.00     0.186 HD
HETATM    7  C7  UNL     1     -17.304  69.179  71.272  1.00  0.00     0.154 A 
HETATM    8  C8  UNL     1     -16.690  70.264  71.867  1.00  0.00     0.122 A 
HETATM    9  C9  UNL     1     -16.573  69.471  73.077  1.00  0.00     0.275 A 
HETATM   10  O1  UNL     1     -16.110  69.642  74.235  1.00  0.00    -0.266 OA
HETATM   11  N6  UNL     1     -17.217  68.355  72.427  1.00  0.00    -0.215 N 
HETATM   12  C10 UNL     1     -17.577  67.038  72.822  1.00  0.00     0.343 C 
HETATM   13  N7  UNL     1     -18.220  66.179  71.892  1.00  0.00    -0.039 NA
HETATM   14  O2  UNL     1     -17.342  66.623  73.960  1.00  0.00    -0.250 OA
ENDROOT
BRANCH   4  15
HETATM   15  N3  UNL     1     -17.914  70.583  67.961  1.00  0.00    -0.214 N 
HETATM   16  C3  UNL     1     -17.667  71.777  67.194  1.00  0.00     0.168 C 
HETATM   17  C4  UNL     1     -18.194  71.550  65.796  1.00  0.00     0.252 C 
HETATM   18  N4  UNL     1     -19.593  71.181  65.786  1.00  0.00    -0.072 N 
HETATM   19  C5  UNL     1     -19.887  70.059  66.646  1.00  0.00     0.252 C 
ATOM     20  H42 UNL     1     -20.182  71.981  66.017  1.00  0.00     0.277 HD
ATOM     21  H41 UNL     1     -19.916  71.005  64.834  1.00  0.00     0.277 HD
HETATM   22  C6  UNL     1     -18.615  69.501  67.296  1.00  0.00     0.168 C 
ENDBRANCH   4  15
BRANCH   1  23
HETATM   23  N1  UNL     1     -15.908  72.461  71.739  1.00  0.00    -0.384 N 
ATOM     24  H12 UNL     1     -14.960  72.757  71.506  1.00  0.00     0.157 HD
ATOM     25  H11 UNL     1     -16.412  73.011  72.434  1.00  0.00     0.157 HD
ENDBRANCH   1  23
TORSDOF 2
ENDMDL
MODEL 4
REMARK VINA RESULT: -6.851885418      3.404      5.642
REMARK  2 active torsions:
REMARK  status: ('A' for Active; 'I' for Inactive)
REMARK    1  A    between atoms: N1_1  and  C1_4 
REMARK    2  A    between atoms: C2_7  and  N3_8 
REMARK       I    between atoms: N6_22  and  C10_23 
ROOT
HETATM    1  C1  UNL     1     -19.022  74.219  64.172  1.00  0.00     0.134 A 
HETATM    2  N2  UNL     1     -18.771  73.136  64.930  1.00  0.00    -0.176 N 
ATOM      3  H2  UNL     1     -17.862  73.045  65.383  1.00  0.00     0.186 HD
HETATM    4  C2  UNL     1     -19.702  72.160  65.105  1.00  0.00     0.683 A 
HETATM    5  N5  UNL     1     -20.907  72.263  64.512  1.00  0.00    -0.175 N 
ATOM      6  H5  UNL     1     -21.598  71.525  64.651  1.00  0.00     0.186 HD
HETATM    7  C7  UNL     1     -21.216  73.320  63.743  1.00  0.00     0.154 A 
HETATM    8  C8  UNL     1     -20.255  74.299  63.581  1.00  0.00     0.122 A 
HETATM    9  C9  UNL     1     -21.197  75.014  62.739  1.00  0.00     0.275 A 
HETATM   10  O1  UNL     1     -21.200  76.093  62.091  1.00  0.00    -0.266 OA
HETATM   11  N6  UNL     1     -22.180  73.974  62.928  1.00  0.00    -0.215 N 
HETATM   12  C10 UNL     1     -23.508  73.757  62.473  1.00  0.00     0.343 C 
HETATM   13  N7  UNL     1     -24.203  72.584  62.870  1.00  0.00    -0.039 NA
HETATM   14  O2  UNL     1     -24.075  74.570  61.737  1.00  0.00    -0.250 OA
ENDROOT
BRANCH   4  15
HETATM   15  N3  UNL     1     -19.380  71.038  65.917  1.00  0.00    -0.214 N 
HETATM   16  C3  UNL     1     -20.368  70.066  66.308  1.00  0.00     0.168 C 
HETATM   17  C4  UNL     1     -19.672  68.994  67.116  1.00  0.00     0.252 C 
HETATM   18  N4  UNL     1     -18.963  69.534  68.256  1.00  0.00    -0.072 N 
HETATM   19  C5  UNL     1     -18.054  70.598  67.903  1.00  0.00     0.252 C 
ATOM     20  H42 UNL     1     -19.616  69.837  68.980  1.00  0.00     0.277 HD
ATOM     21  H41 UNL     1     -18.480  68.795  68.767  1.00  0.00     0.277 HD
HETATM   22  C6  UNL     1     -18.024  70.832  66.388  1.00  0.00     0.168 C 
ENDBRANCH   4  15
BRANCH   1  23
HETATM   23  N1  UNL     1     -18.116  75.121  64.030  1.00  0.00    -0.384 N 
ATOM     24  H12 UNL     1     -17.188  74.923  63.656  1.00  0.00     0.157 HD
ATOM     25  H11 UNL     1     -18.317  76.084  64.300  1.00  0.00     0.157 HD
ENDBRANCH   1  23
TORSDOF 2
ENDMDL
MODEL 5
REMARK VINA RESULT: -6.794109866      4.118      7.981
REMARK  2 active torsions:
REMARK  status: ('A' for Active; 'I' for Inactive)
REMARK    1  A    between atoms: N1_1  and  C1_4 
REMARK    2  A    between atoms: C2_7  and  N3_8 
REMARK       I    between atoms: N6_22  and  C10_23 
ROOT
HETATM    1  C1  UNL     1     -19.797  74.116  63.962  1.00  0.00     0.134 A 
HETATM    2  N2  UNL     1     -21.086  74.066  63.585  1.00  0.00    -0.176 N 
ATOM      3  H2  UNL     1     -21.471  74.825  63.023  1.00  0.00     0.186 HD
HETATM    4  C2  UNL     1     -21.890  73.026  63.936  1.00  0.00     0.683 A 
HETATM    5  N5  UNL     1     -21.400  72.016  64.679  1.00  0.00    -0.175 N 
ATOM      6  H5  UNL     1     -22.011  71.241  64.936  1.00  0.00     0.186 HD
HETATM    7  C7  UNL     1     -20.119  72.010  65.086  1.00  0.00     0.154 A 
HETATM    8  C8  UNL     1     -19.323  73.076  64.717  1.00  0.00     0.122 A 
HETATM    9  C9  UNL     1     -18.229  72.442  65.431  1.00  0.00     0.275 A 
HETATM   10  O1  UNL     1     -17.020  72.705  65.660  1.00  0.00    -0.266 OA
HETATM   11  N6  UNL     1     -19.088  71.342  65.800  1.00  0.00    -0.215 N 
HETATM   12  C10 UNL     1     -18.916  70.147  66.550  1.00  0.00     0.343 C 
HETATM   13  N7  UNL     1     -20.014  69.262  66.718  1.00  0.00    -0.039 NA
HETATM   14  O2  UNL     1     -17.830  69.859  67.060  1.00  0.00    -0.250 OA
ENDROOT
BRANCH   4  15
HETATM   15  N3  UNL     1     -23.246  73.028  63.508  1.00  0.00    -0.214 N 
HETATM   16  C3  UNL     1     -24.343  72.932  64.436  1.00  0.00     0.168 C 
HETATM   17  C4  UNL     1     -25.630  73.016  63.647  1.00  0.00     0.252 C 
HETATM   18  N4  UNL     1     -25.709  72.010  62.611  1.00  0.00    -0.072 N 
HETATM   19  C5  UNL     1     -24.559  72.006  61.739  1.00  0.00     0.252 C 
ATOM     20  H42 UNL     1     -25.865  71.085  63.012  1.00  0.00     0.277 HD
ATOM     21  H41 UNL     1     -26.572  72.107  62.075  1.00  0.00     0.277 HD
HETATM   22  C6  UNL     1     -23.577  73.127  62.099  1.00  0.00     0.168 C 
ENDBRANCH   4  15
BRANCH   1  23
HETATM   23  N1  UNL     1     -19.069  75.117  63.610  1.00  0.00    -0.384 N 
ATOM     24  H12 UNL     1     -19.353  75.788  62.897  1.00  0.00     0.157 HD
ATOM     25  H11 UNL     1     -18.162  75.261  64.053  1.00  0.00     0.157 HD
ENDBRANCH   1  23
TORSDOF 2
ENDMDL
