MODEL 1
REMARK VINA RESULT: -7.622788725      0.000      0.000
REMARK  8 active torsions:
REMARK  status: ('A' for Active; 'I' for Inactive)
REMARK    1  A    between atoms: O1_2  and  C2_3 
REMARK    2  A    between atoms: C2_3  and  C3_5 
REMARK    3  A    between atoms: C3_5  and  C5_7 
REMARK       I    between atoms: C5_7  and  N1_9 
REMARK    4  A    between atoms: N1_9  and  C6_11 
REMARK    5  A    between atoms: C7_14  and  C8_15 
REMARK    6  A    between atoms: C8_15  and  N3_16 
REMARK    7  A    between atoms: C8_15  and  O4_20 
REMARK    8  A    between atoms: C9_24  and  N5_25 
ROOT
HETATM    1  C6  UNL     1     -18.040  71.419  66.533  1.00  0.00     0.701 A 
HETATM    2  N2  UNL     1     -17.209  71.152  67.558  1.00  0.00    -0.175 N 
ATOM      3  H2  UNL     1     -16.402  71.761  67.697  1.00  0.00     0.185 HD
HETATM    4  C7  UNL     1     -17.386  70.125  68.408  1.00  0.00     0.169 A 
HETATM    5  N4  UNL     1     -18.458  69.336  68.205  1.00  0.00    -0.175 N 
ATOM      6  H4  UNL     1     -18.628  68.547  68.829  1.00  0.00     0.185 HD
HETATM    7  C9  UNL     1     -19.306  69.575  67.190  1.00  0.00     0.691 A 
HETATM    8  N6  UNL     1     -19.097  70.606  66.365  1.00  0.00    -0.022 N 
ATOM      9  H6  UNL     1     -19.748  70.778  65.598  1.00  0.00     0.203 HD
ENDROOT
BRANCH   1  10
HETATM   10  N1  UNL     1     -17.769  72.418  65.794  1.00  0.00    -0.158 N 
HETATM   11  C5  UNL     1     -18.531  72.870  64.701  1.00  0.00     0.249 C 
HETATM   12  O3  UNL     1     -18.901  72.152  63.738  1.00  0.00    -0.272 OA
ATOM     13  H1  UNL     1     -16.921  72.941  66.015  1.00  0.00     0.187 HD
BRANCH  11  14
HETATM   14  C3  UNL     1     -18.932  74.300  64.673  1.00  0.00     0.174 C 
HETATM   15  C4  UNL     1     -17.674  75.121  64.470  1.00  0.00     0.030 C 
BRANCH  14  16
HETATM   16  C2  UNL     1     -19.940  74.568  63.642  1.00  0.00     0.271 C 
HETATM   17  O2  UNL     1     -19.669  74.865  62.450  1.00  0.00    -0.264 OA
BRANCH  16  18
HETATM   18  O1  UNL     1     -21.275  74.493  63.987  1.00  0.00    -0.326 OA
HETATM   19  C1  UNL     1     -22.086  73.401  63.596  1.00  0.00     0.213 C 
ENDBRANCH  16  18
ENDBRANCH  14  16
ENDBRANCH  11  14
ENDBRANCH   1  10
BRANCH   4  20
HETATM   20  C8  UNL     1     -16.424  69.875  69.537  1.00  0.00     0.386 C 
BRANCH  20  21
HETATM   21  N3  UNL     1     -16.884  68.682  70.217  1.00  0.00    -0.046 N 
ATOM     22  H33 UNL     1     -17.767  68.814  70.710  1.00  0.00     0.277 HD
ATOM     23  H32 UNL     1     -17.202  67.952  69.579  1.00  0.00     0.277 HD
ATOM     24  H31 UNL     1     -16.124  68.381  70.826  1.00  0.00     0.277 HD
ENDBRANCH  20  21
BRANCH  20  25
HETATM   25  O4  UNL     1     -16.508  71.000  70.377  1.00  0.00    -0.364 OA
ATOM     26  H4  UNL     1     -16.665  71.743  69.806  1.00  0.00     0.212 HD
ENDBRANCH  20  25
ENDBRANCH   4  20
BRANCH   7  27
HETATM   27  N5  UNL     1     -20.326  68.805  67.017  1.00  0.00    -0.234 N 
ATOM     28  H52 UNL     1     -21.016  68.695  67.760  1.00  0.00     0.174 HD
ATOM     29  H51 UNL     1     -20.436  68.307  66.133  1.00  0.00     0.174 HD
ENDBRANCH   7  27
TORSDOF 8
ENDMDL
MODEL 2
REMARK VINA RESULT: -7.608182216      2.487      7.175
REMARK  8 active torsions:
REMARK  status: ('A' for Active; 'I' for Inactive)
REMARK    1  A    between atoms: O1_2  and  C2_3 
REMARK    2  A    between atoms: C2_3  and  C3_5 
REMARK    3  A    between atoms: C3_5  and  C5_7 
REMARK       I    between atoms: C5_7  and  N1_9 
REMARK    4  A    between atoms: N1_9  and  C6_11 
REMARK    5  A    between atoms: C7_14  and  C8_15 
REMARK    6  A    between atoms: C8_15  and  N3_16 
REMARK    7  A    between atoms: C8_15  and  O4_20 
REMARK    8  A    between atoms: C9_24  and  N5_25 
ROOT
HETATM    1  C6  UNL     1     -17.235  70.291  68.620  1.00  0.00     0.701 A 
HETATM    2  N2  UNL     1     -17.215  71.306  67.736  1.00  0.00    -0.175 N 
ATOM      3  H2  UNL     1     -16.483  72.011  67.826  1.00  0.00     0.185 HD
HETATM    4  C7  UNL     1     -18.109  71.439  66.739  1.00  0.00     0.169 A 
HETATM    5  N4  UNL     1     -19.065  70.496  66.640  1.00  0.00    -0.175 N 
ATOM      6  H4  UNL     1     -19.761  70.560  65.897  1.00  0.00     0.185 HD
HETATM    7  C9  UNL     1     -19.112  69.470  67.508  1.00  0.00     0.691 A 
HETATM    8  N6  UNL     1     -18.206  69.371  68.486  1.00  0.00    -0.022 N 
ATOM      9  H6  UNL     1     -18.252  68.588  69.139  1.00  0.00     0.203 HD
ENDROOT
BRANCH   1  10
HETATM   10  N1  UNL     1     -16.337  70.270  69.520  1.00  0.00    -0.158 N 
HETATM   11  C5  UNL     1     -16.526  70.558  70.885  1.00  0.00     0.249 C 
HETATM   12  O3  UNL     1     -17.068  71.602  71.330  1.00  0.00    -0.272 OA
ATOM     13  H1  UNL     1     -15.392  70.023  69.227  1.00  0.00     0.187 HD
BRANCH  11  14
HETATM   14  C3  UNL     1     -16.053  69.563  71.881  1.00  0.00     0.174 C 
HETATM   15  C4  UNL     1     -16.342  70.125  73.258  1.00  0.00     0.030 C 
BRANCH  14  16
HETATM   16  C2  UNL     1     -16.671  68.248  71.679  1.00  0.00     0.271 C 
HETATM   17  O2  UNL     1     -16.347  67.449  70.762  1.00  0.00    -0.264 OA
BRANCH  16  18
HETATM   18  O1  UNL     1     -17.673  67.847  72.540  1.00  0.00    -0.326 OA
HETATM   19  C1  UNL     1     -17.496  66.769  73.440  1.00  0.00     0.213 C 
ENDBRANCH  16  18
ENDBRANCH  14  16
ENDBRANCH  11  14
ENDBRANCH   1  10
BRANCH   4  20
HETATM   20  C8  UNL     1     -18.037  72.595  65.780  1.00  0.00     0.386 C 
BRANCH  20  21
HETATM   21  N3  UNL     1     -18.477  72.093  64.494  1.00  0.00    -0.046 N 
ATOM     22  H33 UNL     1     -19.246  71.426  64.562  1.00  0.00     0.277 HD
ATOM     23  H32 UNL     1     -18.964  72.793  63.934  1.00  0.00     0.277 HD
ATOM     24  H31 UNL     1     -17.652  71.711  64.032  1.00  0.00     0.277 HD
ENDBRANCH  20  21
BRANCH  20  25
HETATM   25  O4  UNL     1     -16.686  72.982  65.737  1.00  0.00    -0.364 OA
ATOM     26  H4  UNL     1     -16.196  72.271  66.131  1.00  0.00     0.212 HD
ENDBRANCH  20  25
ENDBRANCH   4  20
BRANCH   7  27
HETATM   27  N5  UNL     1     -20.037  68.579  67.391  1.00  0.00    -0.234 N 
ATOM     28  H52 UNL     1     -19.806  67.589  67.470  1.00  0.00     0.174 HD
ATOM     29  H51 UNL     1     -20.999  68.872  67.220  1.00  0.00     0.174 HD
ENDBRANCH   7  27
TORSDOF 8
ENDMDL
MODEL 3
REMARK VINA RESULT: -7.485116758      2.126      6.792
REMARK  8 active torsions:
REMARK  status: ('A' for Active; 'I' for Inactive)
REMARK    1  A    between atoms: O1_2  and  C2_3 
REMARK    2  A    between atoms: C2_3  and  C3_5 
REMARK    3  A    between atoms: C3_5  and  C5_7 
REMARK       I    between atoms: C5_7  and  N1_9 
REMARK    4  A    between atoms: N1_9  and  C6_11 
REMARK    5  A    between atoms: C7_14  and  C8_15 
REMARK    6  A    between atoms: C8_15  and  N3_16 
REMARK    7  A    between atoms: C8_15  and  O4_20 
REMARK    8  A    between atoms: C9_24  and  N5_25 
ROOT
HETATM    1  C6  UNL     1     -18.026  70.727  67.696  1.00  0.00     0.701 A 
HETATM    2  N2  UNL     1     -18.228  71.503  66.614  1.00  0.00    -0.175 N 
ATOM      3  H2  UNL     1     -17.637  72.326  66.493  1.00  0.00     0.185 HD
HETATM    4  C7  UNL     1     -19.167  71.250  65.685  1.00  0.00     0.169 A 
HETATM    5  N4  UNL     1     -19.934  70.158  65.866  1.00  0.00    -0.175 N 
ATOM      6  H4  UNL     1     -20.657  69.931  65.183  1.00  0.00     0.185 HD
HETATM    7  C9  UNL     1     -19.758  69.363  66.936  1.00  0.00     0.691 A 
HETATM    8  N6  UNL     1     -18.814  69.648  67.840  1.00  0.00    -0.022 N 
ATOM      9  H6  UNL     1     -18.690  69.037  68.648  1.00  0.00     0.203 HD
ENDROOT
BRANCH   1  10
HETATM   10  N1  UNL     1     -17.108  71.067  68.507  1.00  0.00    -0.158 N 
HETATM   11  C5  UNL     1     -17.251  71.233  69.897  1.00  0.00     0.249 C 
HETATM   12  O3  UNL     1     -18.121  71.952  70.450  1.00  0.00    -0.272 OA
ATOM     13  H1  UNL     1     -16.182  71.237  68.114  1.00  0.00     0.187 HD
BRANCH  11  14
HETATM   14  C3  UNL     1     -16.307  70.508  70.787  1.00  0.00     0.174 C 
HETATM   15  C4  UNL     1     -16.352  71.184  72.143  1.00  0.00     0.030 C 
BRANCH  14  16
HETATM   16  C2  UNL     1     -16.620  69.077  70.871  1.00  0.00     0.271 C 
HETATM   17  O2  UNL     1     -17.429  68.486  70.109  1.00  0.00    -0.264 OA
BRANCH  16  18
HETATM   18  O1  UNL     1     -15.996  68.319  71.841  1.00  0.00    -0.326 OA
HETATM   19  C1  UNL     1     -16.655  67.244  72.486  1.00  0.00     0.213 C 
ENDBRANCH  16  18
ENDBRANCH  14  16
ENDBRANCH  11  14
ENDBRANCH   1  10
BRANCH   4  20
HETATM   20  C8  UNL     1     -19.347  72.153  64.496  1.00  0.00     0.386 C 
BRANCH  20  21
HETATM   21  N3  UNL     1     -20.762  72.151  64.185  1.00  0.00    -0.046 N 
ATOM     22  H33 UNL     1     -20.958  71.994  63.195  1.00  0.00     0.277 HD
ATOM     23  H32 UNL     1     -21.253  71.331  64.543  1.00  0.00     0.277 HD
ATOM     24  H31 UNL     1     -21.140  73.031  64.535  1.00  0.00     0.277 HD
ENDBRANCH  20  21
BRANCH  20  25
HETATM   25  O4  UNL     1     -18.599  71.577  63.453  1.00  0.00    -0.364 OA
ATOM     26  H4  UNL     1     -18.096  72.284  63.069  1.00  0.00     0.212 HD
ENDBRANCH  20  25
ENDBRANCH   4  20
BRANCH   7  27
HETATM   27  N5  UNL     1     -20.505  68.323  67.088  1.00  0.00    -0.234 N 
ATOM     28  H52 UNL     1     -21.397  68.401  67.576  1.00  0.00     0.174 HD
ATOM     29  H51 UNL     1     -20.198  67.424  66.716  1.00  0.00     0.174 HD
ENDBRANCH   7  27
TORSDOF 8
ENDMDL
MODEL 4
REMARK VINA RESULT: -7.331815348      2.679      4.777
REMARK  8 active torsions:
REMARK  status: ('A' for Active; 'I' for Inactive)
REMARK    1  A    between atoms: O1_2  and  C2_3 
REMARK    2  A    between atoms: C2_3  and  C3_5 
REMARK    3  A    between atoms: C3_5  and  C5_7 
REMARK       I    between atoms: C5_7  and  N1_9 
REMARK    4  A    between atoms: N1_9  and  C6_11 
REMARK    5  A    between atoms: C7_14  and  C8_15 
REMARK    6  A    between atoms: C8_15  and  N3_16 
REMARK    7  A    between atoms: C8_15  and  O4_20 
REMARK    8  A    between atoms: C9_24  and  N5_25 
ROOT
HETATM    1  C6  UNL     1     -17.084  69.574  69.571  1.00  0.00     0.701 A 
HETATM    2  N2  UNL     1     -17.287  68.557  70.429  1.00  0.00    -0.175 N 
ATOM      3  H2  UNL     1     -17.623  67.669  70.055  1.00  0.00     0.185 HD
HETATM    4  C7  UNL     1     -17.070  68.649  71.753  1.00  0.00     0.169 A 
HETATM    5  N4  UNL     1     -16.626  69.831  72.223  1.00  0.00    -0.175 N 
ATOM      6  H4  UNL     1     -16.448  69.941  73.222  1.00  0.00     0.185 HD
HETATM    7  C9  UNL     1     -16.414  70.866  71.392  1.00  0.00     0.691 A 
HETATM    8  N6  UNL     1     -16.641  70.736  70.081  1.00  0.00    -0.022 N 
ATOM      9  H6  UNL     1     -16.477  71.529  69.460  1.00  0.00     0.203 HD
ENDROOT
BRANCH   1  10
HETATM   10  N1  UNL     1     -17.324  69.368  68.339  1.00  0.00    -0.158 N 
HETATM   11  C5  UNL     1     -18.560  69.557  67.694  1.00  0.00     0.249 C 
HETATM   12  O3  UNL     1     -19.653  69.066  68.076  1.00  0.00    -0.272 OA
ATOM     13  H1  UNL     1     -16.550  69.034  67.765  1.00  0.00     0.187 HD
BRANCH  11  14
HETATM   14  C3  UNL     1     -18.587  70.399  66.470  1.00  0.00     0.174 C 
HETATM   15  C4  UNL     1     -20.029  70.489  66.013  1.00  0.00     0.030 C 
BRANCH  14  16
HETATM   16  C2  UNL     1     -17.994  71.720  66.698  1.00  0.00     0.271 C 
HETATM   17  O2  UNL     1     -17.545  72.110  67.806  1.00  0.00    -0.264 OA
BRANCH  16  18
HETATM   18  O1  UNL     1     -17.916  72.603  65.638  1.00  0.00    -0.326 OA
HETATM   19  C1  UNL     1     -17.202  73.821  65.733  1.00  0.00     0.213 C 
ENDBRANCH  16  18
ENDBRANCH  14  16
ENDBRANCH  11  14
ENDBRANCH   1  10
BRANCH   4  20
HETATM   20  C8  UNL     1     -17.314  67.479  72.665  1.00  0.00     0.386 C 
BRANCH  20  21
HETATM   21  N3  UNL     1     -16.184  66.586  72.506  1.00  0.00    -0.046 N 
ATOM     22  H33 UNL     1     -15.602  66.519  73.342  1.00  0.00     0.277 HD
ATOM     23  H32 UNL     1     -16.450  65.603  72.457  1.00  0.00     0.277 HD
ATOM     24  H31 UNL     1     -15.672  66.907  71.684  1.00  0.00     0.277 HD
ENDBRANCH  20  21
BRANCH  20  25
HETATM   25  O4  UNL     1     -18.502  66.876  72.214  1.00  0.00    -0.364 OA
ATOM     26  H4  UNL     1     -18.940  66.547  72.990  1.00  0.00     0.212 HD
ENDBRANCH  20  25
ENDBRANCH   4  20
BRANCH   7  27
HETATM   27  N5  UNL     1     -15.988  71.987  71.866  1.00  0.00    -0.234 N 
ATOM     28  H52 UNL     1     -15.400  71.999  72.700  1.00  0.00     0.174 HD
ATOM     29  H51 UNL     1     -16.244  72.859  71.403  1.00  0.00     0.174 HD
ENDBRANCH   7  27
TORSDOF 8
ENDMDL
MODEL 5
REMARK VINA RESULT: -7.290380864      2.683      6.162
REMARK  8 active torsions:
REMARK  status: ('A' for Active; 'I' for Inactive)
REMARK    1  A    between atoms: O1_2  and  C2_3 
REMARK    2  A    between atoms: C2_3  and  C3_5 
REMARK    3  A    between atoms: C3_5  and  C5_7 
REMARK       I    between atoms: C5_7  and  N1_9 
REMARK    4  A    between atoms: N1_9  and  C6_11 
REMARK    5  A    between atoms: C7_14  and  C8_15 
REMARK    6  A    between atoms: C8_15  and  N3_16 
REMARK    7  A    between atoms: C8_15  and  O4_20 
REMARK    8  A    between atoms: C9_24  and  N5_25 
ROOT
HETATM    1  C6  UNL     1     -19.509  71.714  64.872  1.00  0.00     0.701 A 
HETATM    2  N2  UNL     1     -18.851  72.764  64.346  1.00  0.00    -0.175 N 
ATOM      3  H2  UNL     1     -17.836  72.793  64.437  1.00  0.00     0.185 HD
HETATM    4  C7  UNL     1     -19.463  73.777  63.705  1.00  0.00     0.169 A 
HETATM    5  N4  UNL     1     -20.804  73.716  63.596  1.00  0.00    -0.175 N 
ATOM      6  H4  UNL     1     -21.305  74.464  63.117  1.00  0.00     0.185 HD
HETATM    7  C9  UNL     1     -21.490  72.681  64.112  1.00  0.00     0.691 A 
HETATM    8  N6  UNL     1     -20.847  71.692  64.742  1.00  0.00    -0.022 N 
ATOM      9  H6  UNL     1     -21.378  70.912  65.129  1.00  0.00     0.203 HD
ENDROOT
BRANCH   1  10
HETATM   10  N1  UNL     1     -18.823  70.816  65.455  1.00  0.00    -0.158 N 
HETATM   11  C5  UNL     1     -18.326  70.878  66.771  1.00  0.00     0.249 C 
HETATM   12  O3  UNL     1     -17.640  71.823  67.236  1.00  0.00    -0.272 OA
ATOM     13  H1  UNL     1     -18.613  69.973  64.921  1.00  0.00     0.187 HD
BRANCH  11  14
HETATM   14  C3  UNL     1     -18.629  69.746  67.685  1.00  0.00     0.174 C 
HETATM   15  C4  UNL     1     -17.637  69.809  68.828  1.00  0.00     0.030 C 
BRANCH  14  16
HETATM   16  C2  UNL     1     -20.019  69.776  68.154  1.00  0.00     0.271 C 
HETATM   17  O2  UNL     1     -21.001  70.084  67.432  1.00  0.00    -0.264 OA
BRANCH  16  18
HETATM   18  O1  UNL     1     -20.280  69.447  69.469  1.00  0.00    -0.326 OA
HETATM   19  C1  UNL     1     -20.761  70.404  70.396  1.00  0.00     0.213 C 
ENDBRANCH  16  18
ENDBRANCH  14  16
ENDBRANCH  11  14
ENDBRANCH   1  10
BRANCH   4  20
HETATM   20  C8  UNL     1     -18.676  74.925  63.137  1.00  0.00     0.386 C 
BRANCH  20  21
HETATM   21  N3  UNL     1     -17.802  75.392  64.193  1.00  0.00    -0.046 N 
ATOM     22  H33 UNL     1     -17.455  74.641  64.791  1.00  0.00     0.277 HD
ATOM     23  H32 UNL     1     -16.895  75.714  63.854  1.00  0.00     0.277 HD
ATOM     24  H31 UNL     1     -18.317  76.108  64.705  1.00  0.00     0.277 HD
ENDBRANCH  20  21
BRANCH  20  25
HETATM   25  O4  UNL     1     -19.619  75.909  62.789  1.00  0.00    -0.364 OA
ATOM     26  H4  UNL     1     -19.181  76.744  62.900  1.00  0.00     0.212 HD
ENDBRANCH  20  25
ENDBRANCH   4  20
BRANCH   7  27
HETATM   27  N5  UNL     1     -22.773  72.645  63.994  1.00  0.00    -0.234 N 
ATOM     28  H52 UNL     1     -23.304  73.513  63.926  1.00  0.00     0.174 HD
ATOM     29  H51 UNL     1     -23.252  71.745  63.971  1.00  0.00     0.174 HD
ENDBRANCH   7  27
TORSDOF 8
ENDMDL
