MODEL 1
REMARK VINA RESULT: -8.674085132      0.000      0.000
REMARK  21 active torsions:
REMARK  status: ('A' for Active; 'I' for Inactive)
REMARK    1  A    between atoms: C2_2  and  C3_3 
REMARK    2  A    between atoms: C4_4  and  C5_5 
REMARK    3  A    between atoms: C5_5  and  N1_6 
REMARK    4  A    between atoms: N1_6  and  S1_8 
REMARK    5  A    between atoms: S1_8  and  N2_11 
REMARK    6  A    between atoms: N2_11  and  C6_13 
REMARK    7  A    between atoms: C6_13  and  C7_14 
REMARK    8  A    between atoms: C7_14  and  C8_15 
REMARK    9  A    between atoms: C8_15  and  C9_16 
REMARK   10  A    between atoms: C9_16  and  C10_17 
REMARK   11  A    between atoms: C10_17  and  N3_18 
REMARK   12  A    between atoms: N3_18  and  C11_20 
REMARK   13  A    between atoms: C12_23  and  N5_24 
REMARK   14  A    between atoms: N5_24  and  C13_26 
REMARK   15  A    between atoms: C13_26  and  C14_27 
REMARK   16  A    between atoms: C14_27  and  C15_28 
REMARK   17  A    between atoms: C15_28  and  N6_29 
REMARK   18  A    between atoms: C18_34  and  N8_35 
REMARK   19  A    between atoms: N8_35  and  C19_37 
REMARK   20  A    between atoms: C24_42  and  C25_43 
REMARK   21  A    between atoms: C25_43  and  N9_44 
ROOT
HETATM    1  C11 UNL     1      -9.279  16.593   1.733  1.00  0.00     0.707 A 
HETATM    2  N4  UNL     1     -10.598  16.426   1.997  1.00  0.00    -0.022 N 
ATOM      3  H4  UNL     1     -10.877  16.043   2.901  1.00  0.00     0.203 HD
HETATM    4  C12 UNL     1     -11.546  16.749   1.104  1.00  0.00     0.707 A 
HETATM    5  N7  UNL     1     -11.144  17.252  -0.077  1.00  0.00    -0.021 N 
ATOM      6  H7  UNL     1     -11.854  17.502  -0.765  1.00  0.00     0.203 HD
HETATM    7  C18 UNL     1      -9.857  17.439  -0.393  1.00  0.00     0.711 A 
HETATM    8  N12 UNL     1      -8.935  17.094   0.550  1.00  0.00    -0.021 N 
ATOM      9  H12 UNL     1      -7.946  17.225   0.340  1.00  0.00     0.203 HD
ENDROOT
BRANCH   1  10
HETATM   10  N3  UNL     1      -8.419  16.278   2.610  1.00  0.00    -0.225 N 
ATOM     11  H3  UNL     1      -7.479  16.107   2.252  1.00  0.00     0.177 HD
BRANCH  10  12
HETATM   12  C10 UNL     1      -8.566  16.126   4.014  1.00  0.00     0.138 C 
BRANCH  12  13
HETATM   13  C9  UNL     1      -8.875  17.497   4.589  1.00  0.00     0.020 C 
BRANCH  13  14
HETATM   14  C8  UNL     1      -8.498  17.480   6.054  1.00  0.00     0.003 C 
BRANCH  14  15
HETATM   15  C7  UNL     1      -8.099  16.114   6.502  1.00  0.00     0.020 C 
BRANCH  15  16
HETATM   16  C6  UNL     1      -9.074  15.639   7.562  1.00  0.00     0.133 C 
BRANCH  16  17
HETATM   17  N2  UNL     1     -10.262  15.033   7.001  1.00  0.00    -0.303 N 
ATOM     18  H2  UNL     1     -10.280  14.308   6.284  1.00  0.00     0.173 HD
BRANCH  17  19
HETATM   19  S1  UNL     1     -11.647  15.744   7.753  1.00  0.00     0.315 S 
HETATM   20  O1  UNL     1     -11.198  17.037   8.406  1.00  0.00    -0.183 OA
HETATM   21  O2  UNL     1     -12.650  16.129   6.700  1.00  0.00    -0.183 OA
BRANCH  19  22
HETATM   22  N1  UNL     1     -12.341  14.763   8.957  1.00  0.00    -0.292 N 
ATOM     23  H1  UNL     1     -12.554  15.112   9.892  1.00  0.00     0.174 HD
BRANCH  22  24
HETATM   24  C5  UNL     1     -12.604  13.409   8.564  1.00  0.00     0.227 C 
BRANCH  24  25
HETATM   25  C4  UNL     1     -12.401  12.483   9.707  1.00  0.00    -0.086 C 
HETATM   26  C3  UNL     1     -12.226  11.746  10.644  1.00  0.00    -0.105 C 
BRANCH  26  27
HETATM   27  C2  UNL     1     -11.991  10.837  11.781  1.00  0.00     0.089 C 
HETATM   28  C1  UNL     1     -12.025  11.685  13.034  1.00  0.00     0.018 C 
ENDBRANCH  26  27
ENDBRANCH  24  25
ENDBRANCH  22  24
ENDBRANCH  19  22
ENDBRANCH  17  19
ENDBRANCH  16  17
ENDBRANCH  15  16
ENDBRANCH  14  15
ENDBRANCH  13  14
ENDBRANCH  12  13
ENDBRANCH  10  12
ENDBRANCH   1  10
BRANCH   4  29
HETATM   29  N5  UNL     1     -12.801  16.576   1.381  1.00  0.00    -0.225 N 
ATOM     30  H5  UNL     1     -13.380  17.374   1.642  1.00  0.00     0.177 HD
BRANCH  29  31
HETATM   31  C13 UNL     1     -13.376  15.261   1.320  1.00  0.00     0.140 C 
BRANCH  31  32
HETATM   32  C14 UNL     1     -13.794  14.770   2.702  1.00  0.00     0.050 C 
BRANCH  32  33
HETATM   33  C15 UNL     1     -12.788  13.742   3.135  1.00  0.00     0.273 C 
BRANCH  33  34
HETATM   34  N6  UNL     1     -13.060  13.234   4.467  1.00  0.00     0.080 N 
HETATM   35  C16 UNL     1     -14.406  13.619   4.917  1.00  0.00     0.309 C 
HETATM   36  C17 UNL     1     -13.139  11.772   4.314  1.00  0.00     0.309 C 
ENDBRANCH  33  34
ENDBRANCH  32  33
ENDBRANCH  31  32
ENDBRANCH  29  31
ENDBRANCH   4  29
BRANCH   7  37
HETATM   37  N8  UNL     1      -9.431  17.926  -1.507  1.00  0.00    -0.190 N 
ATOM     38  H8  UNL     1      -9.137  18.900  -1.580  1.00  0.00     0.184 HD
BRANCH  37  39
HETATM   39  C19 UNL     1      -9.385  17.049  -2.636  1.00  0.00     0.057 A 
HETATM   40  C20 UNL     1     -10.322  16.032  -2.756  1.00  0.00     0.030 A 
HETATM   41  C21 UNL     1     -10.245  15.213  -3.855  1.00  0.00     0.002 A 
HETATM   42  C22 UNL     1      -9.264  15.388  -4.824  1.00  0.00     0.001 A 
HETATM   43  C23 UNL     1      -8.339  16.402  -4.694  1.00  0.00     0.011 A 
HETATM   44  C24 UNL     1      -8.408  17.229  -3.594  1.00  0.00    -0.013 A 
BRANCH  44  45
HETATM   45  C25 UNL     1      -7.429  18.346  -3.409  1.00  0.00     0.162 C 
BRANCH  45  46
HETATM   46  N9  UNL     1      -6.162  17.763  -3.015  1.00  0.00    -0.363 N 
HETATM   47  C26 UNL     1      -5.722  17.900  -1.812  1.00  0.00     0.197 C 
HETATM   48  N10 UNL     1      -6.409  18.608  -0.800  1.00  0.00    -0.067 NA
HETATM   49  N11 UNL     1      -4.469  17.300  -1.497  1.00  0.00    -0.067 NA
ATOM     50  H9  UNL     1      -5.614  17.238  -3.697  1.00  0.00     0.162 HD
ENDBRANCH  45  46
ENDBRANCH  44  45
ENDBRANCH  37  39
ENDBRANCH   7  37
TORSDOF 21
ENDMDL
MODEL 2
REMARK VINA RESULT: -8.496466280      4.811     11.691
REMARK  21 active torsions:
REMARK  status: ('A' for Active; 'I' for Inactive)
REMARK    1  A    between atoms: C2_2  and  C3_3 
REMARK    2  A    between atoms: C4_4  and  C5_5 
REMARK    3  A    between atoms: C5_5  and  N1_6 
REMARK    4  A    between atoms: N1_6  and  S1_8 
REMARK    5  A    between atoms: S1_8  and  N2_11 
REMARK    6  A    between atoms: N2_11  and  C6_13 
REMARK    7  A    between atoms: C6_13  and  C7_14 
REMARK    8  A    between atoms: C7_14  and  C8_15 
REMARK    9  A    between atoms: C8_15  and  C9_16 
REMARK   10  A    between atoms: C9_16  and  C10_17 
REMARK   11  A    between atoms: C10_17  and  N3_18 
REMARK   12  A    between atoms: N3_18  and  C11_20 
REMARK   13  A    between atoms: C12_23  and  N5_24 
REMARK   14  A    between atoms: N5_24  and  C13_26 
REMARK   15  A    between atoms: C13_26  and  C14_27 
REMARK   16  A    between atoms: C14_27  and  C15_28 
REMARK   17  A    between atoms: C15_28  and  N6_29 
REMARK   18  A    between atoms: C18_34  and  N8_35 
REMARK   19  A    between atoms: N8_35  and  C19_37 
REMARK   20  A    between atoms: C24_42  and  C25_43 
REMARK   21  A    between atoms: C25_43  and  N9_44 
ROOT
HETATM    1  C11 UNL     1      -9.710  18.078  -0.168  1.00  0.00     0.707 A 
HETATM    2  N4  UNL     1      -8.389  18.377  -0.210  1.00  0.00    -0.022 N 
ATOM      3  H4  UNL     1      -7.946  18.535  -1.116  1.00  0.00     0.203 HD
HETATM    4  C12 UNL     1      -7.647  18.471   0.904  1.00  0.00     0.707 A 
HETATM    5  N7  UNL     1      -8.261  18.257   2.081  1.00  0.00    -0.021 N 
ATOM      6  H7  UNL     1      -7.709  18.326   2.936  1.00  0.00     0.203 HD
HETATM    7  C18 UNL     1      -9.561  17.959   2.185  1.00  0.00     0.711 A 
HETATM    8  N12 UNL     1     -10.269  17.876   1.023  1.00  0.00    -0.021 N 
ATOM      9  H12 UNL     1     -11.262  17.650   1.067  1.00  0.00     0.203 HD
ENDROOT
BRANCH   1  10
HETATM   10  N3  UNL     1     -10.371  18.005  -1.247  1.00  0.00    -0.225 N 
ATOM     11  H3  UNL     1     -10.631  18.902  -1.657  1.00  0.00     0.177 HD
BRANCH  10  12
HETATM   12  C10 UNL     1     -10.806  16.864  -1.971  1.00  0.00     0.138 C 
BRANCH  12  13
HETATM   13  C9  UNL     1      -9.889  15.712  -1.596  1.00  0.00     0.020 C 
BRANCH  13  14
HETATM   14  C8  UNL     1      -9.054  15.371  -2.810  1.00  0.00     0.003 C 
BRANCH  14  15
HETATM   15  C7  UNL     1      -9.894  15.240  -4.035  1.00  0.00     0.020 C 
BRANCH  15  16
HETATM   16  C6  UNL     1      -9.205  15.952  -5.184  1.00  0.00     0.133 C 
BRANCH  16  17
HETATM   17  N2  UNL     1      -7.925  16.513  -4.810  1.00  0.00    -0.303 N 
ATOM     18  H2  UNL     1      -7.251  16.088  -4.174  1.00  0.00     0.173 HD
BRANCH  17  19
HETATM   19  S1  UNL     1      -7.730  18.025  -5.625  1.00  0.00     0.315 S 
HETATM   20  O1  UNL     1      -9.030  18.325  -6.347  1.00  0.00    -0.183 OA
HETATM   21  O2  UNL     1      -7.545  19.123  -4.614  1.00  0.00    -0.183 OA
BRANCH  19  22
HETATM   22  N1  UNL     1      -6.481  18.013  -6.781  1.00  0.00    -0.292 N 
ATOM     23  H1  UNL     1      -6.639  18.255  -7.760  1.00  0.00     0.174 HD
BRANCH  22  24
HETATM   24  C5  UNL     1      -5.190  17.638  -6.280  1.00  0.00     0.227 C 
BRANCH  24  25
HETATM   25  C4  UNL     1      -4.416  16.916  -7.321  1.00  0.00    -0.086 C 
HETATM   26  C3  UNL     1      -3.780  16.347  -8.172  1.00  0.00    -0.105 C 
BRANCH  26  27
HETATM   27  C2  UNL     1      -3.021  15.653  -9.229  1.00  0.00     0.089 C 
HETATM   28  C1  UNL     1      -1.958  14.830  -8.536  1.00  0.00     0.018 C 
ENDBRANCH  26  27
ENDBRANCH  24  25
ENDBRANCH  22  24
ENDBRANCH  19  22
ENDBRANCH  17  19
ENDBRANCH  16  17
ENDBRANCH  15  16
ENDBRANCH  14  15
ENDBRANCH  13  14
ENDBRANCH  12  13
ENDBRANCH  10  12
ENDBRANCH   1  10
BRANCH   4  29
HETATM   29  N5  UNL     1      -6.383  18.756   0.835  1.00  0.00    -0.225 N 
ATOM     30  H5  UNL     1      -6.059  19.696   1.062  1.00  0.00     0.177 HD
BRANCH  29  31
HETATM   31  C13 UNL     1      -5.440  17.748   0.439  1.00  0.00     0.140 C 
BRANCH  31  32
HETATM   32  C14 UNL     1      -4.434  18.291  -0.571  1.00  0.00     0.050 C 
BRANCH  32  33
HETATM   33  C15 UNL     1      -5.100  18.281  -1.917  1.00  0.00     0.273 C 
BRANCH  33  34
HETATM   34  N6  UNL     1      -4.753  19.446  -2.711  1.00  0.00     0.080 N 
HETATM   35  C16 UNL     1      -4.951  20.687  -1.946  1.00  0.00     0.309 C 
HETATM   36  C17 UNL     1      -3.294  19.367  -2.892  1.00  0.00     0.309 C 
ENDBRANCH  33  34
ENDBRANCH  32  33
ENDBRANCH  31  32
ENDBRANCH  29  31
ENDBRANCH   4  29
BRANCH   7  37
HETATM   37  N8  UNL     1     -10.190  17.757   3.291  1.00  0.00    -0.190 N 
ATOM     38  H8  UNL     1     -11.147  18.083   3.423  1.00  0.00     0.184 HD
BRANCH  37  39
HETATM   39  C19 UNL     1      -9.494  17.059   4.328  1.00  0.00     0.057 A 
HETATM   40  C20 UNL     1      -8.904  17.773   5.362  1.00  0.00     0.030 A 
HETATM   41  C21 UNL     1      -8.247  17.067   6.339  1.00  0.00     0.002 A 
HETATM   42  C22 UNL     1      -8.169  15.679   6.303  1.00  0.00     0.001 A 
HETATM   43  C23 UNL     1      -8.759  14.981   5.271  1.00  0.00     0.011 A 
HETATM   44  C24 UNL     1      -9.421  15.682   4.286  1.00  0.00    -0.013 A 
BRANCH  44  45
HETATM   45  C25 UNL     1     -10.079  14.969   3.147  1.00  0.00     0.162 C 
BRANCH  45  46
HETATM   46  N9  UNL     1     -11.420  14.612   3.563  1.00  0.00    -0.363 N 
HETATM   47  C26 UNL     1     -12.442  14.972   2.867  1.00  0.00     0.197 C 
HETATM   48  N10 UNL     1     -12.354  15.723   1.672  1.00  0.00    -0.067 NA
HETATM   49  N11 UNL     1     -13.730  14.586   3.339  1.00  0.00    -0.067 NA
ATOM     50  H9  UNL     1     -11.556  14.070   4.417  1.00  0.00     0.162 HD
ENDBRANCH  45  46
ENDBRANCH  44  45
ENDBRANCH  37  39
ENDBRANCH   7  37
TORSDOF 21
ENDMDL
MODEL 3
REMARK VINA RESULT: -8.314965016      1.387      2.490
REMARK  21 active torsions:
REMARK  status: ('A' for Active; 'I' for Inactive)
REMARK    1  A    between atoms: C2_2  and  C3_3 
REMARK    2  A    between atoms: C4_4  and  C5_5 
REMARK    3  A    between atoms: C5_5  and  N1_6 
REMARK    4  A    between atoms: N1_6  and  S1_8 
REMARK    5  A    between atoms: S1_8  and  N2_11 
REMARK    6  A    between atoms: N2_11  and  C6_13 
REMARK    7  A    between atoms: C6_13  and  C7_14 
REMARK    8  A    between atoms: C7_14  and  C8_15 
REMARK    9  A    between atoms: C8_15  and  C9_16 
REMARK   10  A    between atoms: C9_16  and  C10_17 
REMARK   11  A    between atoms: C10_17  and  N3_18 
REMARK   12  A    between atoms: N3_18  and  C11_20 
REMARK   13  A    between atoms: C12_23  and  N5_24 
REMARK   14  A    between atoms: N5_24  and  C13_26 
REMARK   15  A    between atoms: C13_26  and  C14_27 
REMARK   16  A    between atoms: C14_27  and  C15_28 
REMARK   17  A    between atoms: C15_28  and  N6_29 
REMARK   18  A    between atoms: C18_34  and  N8_35 
REMARK   19  A    between atoms: N8_35  and  C19_37 
REMARK   20  A    between atoms: C24_42  and  C25_43 
REMARK   21  A    between atoms: C25_43  and  N9_44 
ROOT
HETATM    1  C11 UNL     1     -10.642  17.544   2.520  1.00  0.00     0.707 A 
HETATM    2  N4  UNL     1     -11.554  16.562   2.320  1.00  0.00    -0.022 N 
ATOM      3  H4  UNL     1     -12.079  16.202   3.118  1.00  0.00     0.203 HD
HETATM    4  C12 UNL     1     -11.787  16.049   1.101  1.00  0.00     0.707 A 
HETATM    5  N7  UNL     1     -11.080  16.544   0.071  1.00  0.00    -0.021 N 
ATOM      6  H7  UNL     1     -11.247  16.164  -0.861  1.00  0.00     0.203 HD
HETATM    7  C18 UNL     1     -10.168  17.513   0.208  1.00  0.00     0.711 A 
HETATM    8  N12 UNL     1      -9.969  17.999   1.467  1.00  0.00    -0.021 N 
ATOM      9  H12 UNL     1      -9.281  18.738   1.605  1.00  0.00     0.203 HD
ENDROOT
BRANCH   1  10
HETATM   10  N3  UNL     1     -10.460  18.001   3.689  1.00  0.00    -0.225 N 
ATOM     11  H3  UNL     1     -11.194  18.621   4.030  1.00  0.00     0.177 HD
BRANCH  10  12
HETATM   12  C10 UNL     1      -9.388  17.781   4.593  1.00  0.00     0.138 C 
BRANCH  12  13
HETATM   13  C9  UNL     1      -8.603  16.585   4.085  1.00  0.00     0.020 C 
BRANCH  13  14
HETATM   14  C8  UNL     1      -8.618  15.527   5.166  1.00  0.00     0.003 C 
BRANCH  14  15
HETATM   15  C7  UNL     1      -8.079  16.051   6.454  1.00  0.00     0.020 C 
BRANCH  15  16
HETATM   16  C6  UNL     1      -9.072  15.756   7.561  1.00  0.00     0.133 C 
BRANCH  16  17
HETATM   17  N2  UNL     1     -10.221  15.007   7.100  1.00  0.00    -0.303 N 
ATOM     18  H2  UNL     1     -10.194  14.189   6.493  1.00  0.00     0.173 HD
BRANCH  17  19
HETATM   19  S1  UNL     1     -11.647  15.733   7.754  1.00  0.00     0.315 S 
HETATM   20  O1  UNL     1     -11.235  17.033   8.417  1.00  0.00    -0.183 OA
HETATM   21  O2  UNL     1     -12.581  16.107   6.635  1.00  0.00    -0.183 OA
BRANCH  19  22
HETATM   22  N1  UNL     1     -12.419  14.771   8.926  1.00  0.00    -0.292 N 
ATOM     23  H1  UNL     1     -12.670  15.128   9.848  1.00  0.00     0.174 HD
BRANCH  22  24
HETATM   24  C5  UNL     1     -12.691  13.421   8.523  1.00  0.00     0.227 C 
BRANCH  24  25
HETATM   25  C4  UNL     1     -12.449  12.482   9.647  1.00  0.00    -0.086 C 
HETATM   26  C3  UNL     1     -12.234  11.725  10.560  1.00  0.00    -0.105 C 
BRANCH  26  27
HETATM   27  C2  UNL     1     -11.964  10.783  11.662  1.00  0.00     0.089 C 
HETATM   28  C1  UNL     1     -11.969  11.592  12.941  1.00  0.00     0.018 C 
ENDBRANCH  26  27
ENDBRANCH  24  25
ENDBRANCH  22  24
ENDBRANCH  19  22
ENDBRANCH  17  19
ENDBRANCH  16  17
ENDBRANCH  15  16
ENDBRANCH  14  15
ENDBRANCH  13  14
ENDBRANCH  12  13
ENDBRANCH  10  12
ENDBRANCH   1  10
BRANCH   4  29
HETATM   29  N5  UNL     1     -12.664  15.107   0.938  1.00  0.00    -0.225 N 
ATOM     30  H5  UNL     1     -13.503  15.282   0.384  1.00  0.00     0.177 HD
BRANCH  29  31
HETATM   31  C13 UNL     1     -12.454  13.818   1.535  1.00  0.00     0.140 C 
BRANCH  31  32
HETATM   32  C14 UNL     1     -13.462  13.548   2.649  1.00  0.00     0.050 C 
BRANCH  32  33
HETATM   33  C15 UNL     1     -12.702  13.522   3.943  1.00  0.00     0.273 C 
BRANCH  33  34
HETATM   34  N6  UNL     1     -13.286  12.605   4.905  1.00  0.00     0.080 N 
HETATM   35  C16 UNL     1     -14.747  12.764   4.970  1.00  0.00     0.309 C 
HETATM   36  C17 UNL     1     -13.098  11.266   4.324  1.00  0.00     0.309 C 
ENDBRANCH  33  34
ENDBRANCH  32  33
ENDBRANCH  31  32
ENDBRANCH  29  31
ENDBRANCH   4  29
BRANCH   7  37
HETATM   37  N8  UNL     1      -9.476  18.022  -0.752  1.00  0.00    -0.190 N 
ATOM     38  H8  UNL     1      -9.925  18.529  -1.516  1.00  0.00     0.184 HD
BRANCH  37  39
HETATM   39  C19 UNL     1      -8.057  17.850  -0.709  1.00  0.00     0.057 A 
HETATM   40  C20 UNL     1      -7.414  17.748   0.517  1.00  0.00     0.030 A 
HETATM   41  C21 UNL     1      -6.051  17.581   0.517  1.00  0.00     0.002 A 
HETATM   42  C22 UNL     1      -5.328  17.516  -0.669  1.00  0.00     0.001 A 
HETATM   43  C23 UNL     1      -5.979  17.618  -1.880  1.00  0.00     0.011 A 
HETATM   44  C24 UNL     1      -7.346  17.786  -1.889  1.00  0.00    -0.013 A 
BRANCH  44  45
HETATM   45  C25 UNL     1      -8.097  17.899  -3.179  1.00  0.00     0.162 C 
BRANCH  45  46
HETATM   46  N9  UNL     1      -8.110  16.591  -3.800  1.00  0.00    -0.363 N 
HETATM   47  C26 UNL     1      -9.169  15.858  -3.768  1.00  0.00     0.197 C 
HETATM   48  N10 UNL     1     -10.376  16.250  -3.145  1.00  0.00    -0.067 NA
HETATM   49  N11 UNL     1      -9.108  14.583  -4.400  1.00  0.00    -0.067 NA
ATOM     50  H9  UNL     1      -7.272  16.246  -4.269  1.00  0.00     0.162 HD
ENDBRANCH  45  46
ENDBRANCH  44  45
ENDBRANCH  37  39
ENDBRANCH   7  37
TORSDOF 21
ENDMDL
MODEL 4
REMARK VINA RESULT: -8.312918103      2.966      6.976
REMARK  21 active torsions:
REMARK  status: ('A' for Active; 'I' for Inactive)
REMARK    1  A    between atoms: C2_2  and  C3_3 
REMARK    2  A    between atoms: C4_4  and  C5_5 
REMARK    3  A    between atoms: C5_5  and  N1_6 
REMARK    4  A    between atoms: N1_6  and  S1_8 
REMARK    5  A    between atoms: S1_8  and  N2_11 
REMARK    6  A    between atoms: N2_11  and  C6_13 
REMARK    7  A    between atoms: C6_13  and  C7_14 
REMARK    8  A    between atoms: C7_14  and  C8_15 
REMARK    9  A    between atoms: C8_15  and  C9_16 
REMARK   10  A    between atoms: C9_16  and  C10_17 
REMARK   11  A    between atoms: C10_17  and  N3_18 
REMARK   12  A    between atoms: N3_18  and  C11_20 
REMARK   13  A    between atoms: C12_23  and  N5_24 
REMARK   14  A    between atoms: N5_24  and  C13_26 
REMARK   15  A    between atoms: C13_26  and  C14_27 
REMARK   16  A    between atoms: C14_27  and  C15_28 
REMARK   17  A    between atoms: C15_28  and  N6_29 
REMARK   18  A    between atoms: C18_34  and  N8_35 
REMARK   19  A    between atoms: N8_35  and  C19_37 
REMARK   20  A    between atoms: C24_42  and  C25_43 
REMARK   21  A    between atoms: C25_43  and  N9_44 
ROOT
HETATM    1  C11 UNL     1      -6.723  17.644   0.235  1.00  0.00     0.707 A 
HETATM    2  N4  UNL     1      -5.407  17.444  -0.015  1.00  0.00    -0.022 N 
ATOM      3  H4  UNL     1      -4.787  17.202   0.759  1.00  0.00     0.203 HD
HETATM    4  C12 UNL     1      -4.895  17.555  -1.251  1.00  0.00     0.707 A 
HETATM    5  N7  UNL     1      -5.738  17.875  -2.248  1.00  0.00    -0.021 N 
ATOM      6  H7  UNL     1      -5.362  17.963  -3.192  1.00  0.00     0.203 HD
HETATM    7  C18 UNL     1      -7.046  18.084  -2.061  1.00  0.00     0.711 A 
HETATM    8  N12 UNL     1      -7.515  17.959  -0.787  1.00  0.00    -0.021 N 
ATOM      9  H12 UNL     1      -8.507  18.112  -0.612  1.00  0.00     0.203 HD
ENDROOT
BRANCH   1  10
HETATM   10  N3  UNL     1      -7.163  17.523   1.418  1.00  0.00    -0.225 N 
ATOM     11  H3  UNL     1      -6.453  17.331   2.125  1.00  0.00     0.177 HD
BRANCH  10  12
HETATM   12  C10 UNL     1      -8.491  17.615   1.908  1.00  0.00     0.138 C 
BRANCH  12  13
HETATM   13  C9  UNL     1      -8.569  16.773   3.170  1.00  0.00     0.020 C 
BRANCH  13  14
HETATM   14  C8  UNL     1      -8.925  17.692   4.318  1.00  0.00     0.003 C 
BRANCH  14  15
HETATM   15  C7  UNL     1      -8.533  17.105   5.632  1.00  0.00     0.020 C 
BRANCH  15  16
HETATM   16  C6  UNL     1      -9.037  15.676   5.704  1.00  0.00     0.133 C 
BRANCH  16  17
HETATM   17  N2  UNL     1      -9.462  15.296   7.033  1.00  0.00    -0.303 N 
ATOM     18  H2  UNL     1      -8.880  14.845   7.738  1.00  0.00     0.173 HD
BRANCH  17  19
HETATM   19  S1  UNL     1     -11.123  15.736   7.225  1.00  0.00     0.315 S 
HETATM   20  O1  UNL     1     -11.840  14.553   7.846  1.00  0.00    -0.183 OA
HETATM   21  O2  UNL     1     -11.235  16.865   8.212  1.00  0.00    -0.183 OA
BRANCH  19  22
HETATM   22  N1  UNL     1     -11.898  16.103   5.755  1.00  0.00    -0.292 N 
ATOM     23  H1  UNL     1     -11.898  17.043   5.356  1.00  0.00     0.174 HD
BRANCH  22  24
HETATM   24  C5  UNL     1     -12.551  14.997   5.117  1.00  0.00     0.227 C 
BRANCH  24  25
HETATM   25  C4  UNL     1     -12.041  14.816   3.734  1.00  0.00    -0.086 C 
HETATM   26  C3  UNL     1     -11.612  14.679   2.616  1.00  0.00    -0.105 C 
BRANCH  26  27
HETATM   27  C2  UNL     1     -11.095  14.532   1.244  1.00  0.00     0.089 C 
HETATM   28  C1  UNL     1     -11.409  15.821   0.516  1.00  0.00     0.018 C 
ENDBRANCH  26  27
ENDBRANCH  24  25
ENDBRANCH  22  24
ENDBRANCH  19  22
ENDBRANCH  17  19
ENDBRANCH  16  17
ENDBRANCH  15  16
ENDBRANCH  14  15
ENDBRANCH  13  14
ENDBRANCH  12  13
ENDBRANCH  10  12
ENDBRANCH   1  10
BRANCH   4  29
HETATM   29  N5  UNL     1      -3.630  17.361  -1.462  1.00  0.00    -0.225 N 
ATOM     30  H5  UNL     1      -3.219  16.443  -1.291  1.00  0.00     0.177 HD
BRANCH  29  31
HETATM   31  C13 UNL     1      -2.807  18.438  -1.936  1.00  0.00     0.140 C 
BRANCH  31  32
HETATM   32  C14 UNL     1      -1.693  17.931  -2.848  1.00  0.00     0.050 C 
BRANCH  32  33
HETATM   33  C15 UNL     1      -2.106  16.576  -3.347  1.00  0.00     0.273 C 
BRANCH  33  34
HETATM   34  N6  UNL     1      -0.981  15.666  -3.461  1.00  0.00     0.080 N 
HETATM   35  C16 UNL     1       0.291  16.361  -3.206  1.00  0.00     0.309 C 
HETATM   36  C17 UNL     1      -1.117  14.742  -2.323  1.00  0.00     0.309 C 
ENDBRANCH  33  34
ENDBRANCH  32  33
ENDBRANCH  31  32
ENDBRANCH  29  31
ENDBRANCH   4  29
BRANCH   7  37
HETATM   37  N8  UNL     1      -7.889  18.382  -2.989  1.00  0.00    -0.190 N 
ATOM     38  H8  UNL     1      -8.020  19.347  -3.294  1.00  0.00     0.184 HD
BRANCH  37  39
HETATM   39  C19 UNL     1      -8.635  17.311  -3.574  1.00  0.00     0.057 A 
HETATM   40  C20 UNL     1      -9.340  16.438  -2.757  1.00  0.00     0.030 A 
HETATM   41  C21 UNL     1     -10.044  15.423  -3.357  1.00  0.00     0.002 A 
HETATM   42  C22 UNL     1     -10.057  15.266  -4.738  1.00  0.00     0.001 A 
HETATM   43  C23 UNL     1      -9.352  16.139  -5.538  1.00  0.00     0.011 A 
HETATM   44  C24 UNL     1      -8.643  17.161  -4.945  1.00  0.00    -0.013 A 
BRANCH  44  45
HETATM   45  C25 UNL     1      -7.864  18.136  -5.772  1.00  0.00     0.162 C 
BRANCH  45  46
HETATM   46  N9  UNL     1      -6.840  17.397  -6.481  1.00  0.00    -0.363 N 
HETATM   47  C26 UNL     1      -5.603  17.488  -6.134  1.00  0.00     0.197 C 
HETATM   48  N10 UNL     1      -5.145  18.290  -5.063  1.00  0.00    -0.067 NA
HETATM   49  N11 UNL     1      -4.652  16.733  -6.878  1.00  0.00    -0.067 NA
ATOM     50  H9  UNL     1      -7.102  16.797  -7.265  1.00  0.00     0.162 HD
ENDBRANCH  45  46
ENDBRANCH  44  45
ENDBRANCH  37  39
ENDBRANCH   7  37
TORSDOF 21
ENDMDL
MODEL 5
REMARK VINA RESULT: -8.302993459      4.276      9.977
REMARK  21 active torsions:
REMARK  status: ('A' for Active; 'I' for Inactive)
REMARK    1  A    between atoms: C2_2  and  C3_3 
REMARK    2  A    between atoms: C4_4  and  C5_5 
REMARK    3  A    between atoms: C5_5  and  N1_6 
REMARK    4  A    between atoms: N1_6  and  S1_8 
REMARK    5  A    between atoms: S1_8  and  N2_11 
REMARK    6  A    between atoms: N2_11  and  C6_13 
REMARK    7  A    between atoms: C6_13  and  C7_14 
REMARK    8  A    between atoms: C7_14  and  C8_15 
REMARK    9  A    between atoms: C8_15  and  C9_16 
REMARK   10  A    between atoms: C9_16  and  C10_17 
REMARK   11  A    between atoms: C10_17  and  N3_18 
REMARK   12  A    between atoms: N3_18  and  C11_20 
REMARK   13  A    between atoms: C12_23  and  N5_24 
REMARK   14  A    between atoms: N5_24  and  C13_26 
REMARK   15  A    between atoms: C13_26  and  C14_27 
REMARK   16  A    between atoms: C14_27  and  C15_28 
REMARK   17  A    between atoms: C15_28  and  N6_29 
REMARK   18  A    between atoms: C18_34  and  N8_35 
REMARK   19  A    between atoms: N8_35  and  C19_37 
REMARK   20  A    between atoms: C24_42  and  C25_43 
REMARK   21  A    between atoms: C25_43  and  N9_44 
ROOT
HETATM    1  C11 UNL     1     -11.840  14.603   1.924  1.00  0.00     0.707 A 
HETATM    2  N4  UNL     1     -12.296  13.368   2.243  1.00  0.00    -0.022 N 
ATOM      3  H4  UNL     1     -12.389  12.668   1.506  1.00  0.00     0.203 HD
HETATM    4  C12 UNL     1     -12.629  13.039   3.501  1.00  0.00     0.707 A 
HETATM    5  N7  UNL     1     -12.496  13.983   4.449  1.00  0.00    -0.021 N 
ATOM      6  H7  UNL     1     -12.745  13.746   5.409  1.00  0.00     0.203 HD
HETATM    7  C18 UNL     1     -12.051  15.219   4.192  1.00  0.00     0.711 A 
HETATM    8  N12 UNL     1     -11.726  15.501   2.899  1.00  0.00    -0.021 N 
ATOM      9  H12 UNL     1     -11.384  16.434   2.671  1.00  0.00     0.203 HD
ENDROOT
BRANCH   1  10
HETATM   10  N3  UNL     1     -11.533  14.867   0.722  1.00  0.00    -0.225 N 
ATOM     11  H3  UNL     1     -12.319  14.900   0.072  1.00  0.00     0.177 HD
BRANCH  10  12
HETATM   12  C10 UNL     1     -10.263  15.124   0.144  1.00  0.00     0.138 C 
BRANCH  12  13
HETATM   13  C9  UNL     1     -10.448  16.217  -0.894  1.00  0.00     0.020 C 
BRANCH  13  14
HETATM   14  C8  UNL     1      -9.766  15.767  -2.168  1.00  0.00     0.003 C 
BRANCH  14  15
HETATM   15  C7  UNL     1     -10.549  16.154  -3.376  1.00  0.00     0.020 C 
BRANCH  15  16
HETATM   16  C6  UNL     1      -9.747  15.806  -4.616  1.00  0.00     0.133 C 
BRANCH  16  17
HETATM   17  N2  UNL     1      -8.327  16.025  -4.446  1.00  0.00    -0.303 N 
ATOM     18  H2  UNL     1      -7.662  15.351  -4.068  1.00  0.00     0.173 HD
BRANCH  17  19
HETATM   19  S1  UNL     1      -7.949  17.621  -4.992  1.00  0.00     0.315 S 
HETATM   20  O1  UNL     1      -6.688  17.530  -5.829  1.00  0.00    -0.183 OA
HETATM   21  O2  UNL     1      -9.034  18.109  -5.913  1.00  0.00    -0.183 OA
BRANCH  19  22
HETATM   22  N1  UNL     1      -7.657  18.717  -3.724  1.00  0.00    -0.292 N 
ATOM     23  H1  UNL     1      -8.318  19.453  -3.473  1.00  0.00     0.174 HD
BRANCH  22  24
HETATM   24  C5  UNL     1      -6.413  18.531  -3.032  1.00  0.00     0.227 C 
BRANCH  24  25
HETATM   25  C4  UNL     1      -6.645  17.933  -1.693  1.00  0.00    -0.086 C 
HETATM   26  C3  UNL     1      -6.824  17.462  -0.598  1.00  0.00    -0.105 C 
BRANCH  26  27
HETATM   27  C2  UNL     1      -7.022  16.875   0.740  1.00  0.00     0.089 C 
HETATM   28  C1  UNL     1      -7.836  17.869   1.539  1.00  0.00     0.018 C 
ENDBRANCH  26  27
ENDBRANCH  24  25
ENDBRANCH  22  24
ENDBRANCH  19  22
ENDBRANCH  17  19
ENDBRANCH  16  17
ENDBRANCH  15  16
ENDBRANCH  14  15
ENDBRANCH  13  14
ENDBRANCH  12  13
ENDBRANCH  10  12
ENDBRANCH   1  10
BRANCH   4  29
HETATM   29  N5  UNL     1     -13.066  11.849   3.779  1.00  0.00    -0.225 N 
ATOM     30  H5  UNL     1     -12.435  11.049   3.727  1.00  0.00     0.177 HD
BRANCH  29  31
HETATM   31  C13 UNL     1     -14.438  11.658   4.158  1.00  0.00     0.140 C 
BRANCH  31  32
HETATM   32  C14 UNL     1     -14.627  10.357   4.932  1.00  0.00     0.050 C 
BRANCH  32  33
HETATM   33  C15 UNL     1     -13.393  10.144   5.760  1.00  0.00     0.273 C 
BRANCH  33  34
HETATM   34  N6  UNL     1     -13.035   8.741   5.862  1.00  0.00     0.080 N 
HETATM   35  C16 UNL     1     -14.232   7.887   5.874  1.00  0.00     0.309 C 
HETATM   36  C17 UNL     1     -12.377   8.417   4.586  1.00  0.00     0.309 C 
ENDBRANCH  33  34
ENDBRANCH  32  33
ENDBRANCH  31  32
ENDBRANCH  29  31
ENDBRANCH   4  29
BRANCH   7  37
HETATM   37  N8  UNL     1     -11.898  16.149   5.071  1.00  0.00    -0.190 N 
ATOM     38  H8  UNL     1     -12.648  16.808   5.278  1.00  0.00     0.184 HD
BRANCH  37  39
HETATM   39  C19 UNL     1     -10.638  16.221   5.744  1.00  0.00     0.057 A 
HETATM   40  C20 UNL     1      -9.483  16.472   5.016  1.00  0.00     0.030 A 
HETATM   41  C21 UNL     1      -8.294  16.536   5.699  1.00  0.00     0.002 A 
HETATM   42  C22 UNL     1      -8.237  16.356   7.077  1.00  0.00     0.001 A 
HETATM   43  C23 UNL     1      -9.392  16.108   7.788  1.00  0.00     0.011 A 
HETATM   44  C24 UNL     1     -10.590  16.042   7.111  1.00  0.00    -0.013 A 
BRANCH  44  45
HETATM   45  C25 UNL     1     -11.870  15.778   7.840  1.00  0.00     0.162 C 
BRANCH  45  46
HETATM   46  N9  UNL     1     -11.692  14.574   8.625  1.00  0.00    -0.363 N 
HETATM   47  C26 UNL     1     -12.360  13.506   8.353  1.00  0.00     0.197 C 
HETATM   48  N10 UNL     1     -13.296  13.413   7.298  1.00  0.00    -0.067 NA
HETATM   49  N11 UNL     1     -12.133  12.361   9.169  1.00  0.00    -0.067 NA
ATOM     50  H9  UNL     1     -11.031  14.571   9.403  1.00  0.00     0.162 HD
ENDBRANCH  45  46
ENDBRANCH  44  45
ENDBRANCH  37  39
ENDBRANCH   7  37
TORSDOF 21
ENDMDL
