MODEL 1
REMARK VINA RESULT: -6.200064445      0.000      0.000
REMARK  3 active torsions:
REMARK  status: ('A' for Active; 'I' for Inactive)
REMARK    1  A    between atoms: O1_2  and  C2_3 
REMARK    2  A    between atoms: C11_18  and  N5_19 
REMARK    3  A    between atoms: N5_19  and  N6_21 
ROOT
HETATM    1  C2  UNL     1       7.774  14.047  41.862  1.00  0.00     0.114 A 
HETATM    2  C3  UNL     1       8.480  14.621  42.898  1.00  0.00     0.149 A 
HETATM    3  C4  UNL     1       7.802  15.644  43.671  1.00  0.00     0.120 C 
HETATM    4  N1  UNL     1       7.269  16.455  44.304  1.00  0.00    -0.190 NA
HETATM    5  N2  UNL     1       9.742  14.250  43.184  1.00  0.00    -0.330 N 
ATOM      6  H2  UNL     1      10.252  14.683  43.955  1.00  0.00     0.168 HD
HETATM    7  C5  UNL     1      10.323  13.282  42.418  1.00  0.00     0.132 A 
HETATM    8  C6  UNL     1       9.656  12.682  41.374  1.00  0.00     0.085 A 
HETATM    9  C7  UNL     1       8.352  13.064  41.077  1.00  0.00     0.005 A 
HETATM   10  C8  UNL     1       7.639  12.428  39.969  1.00  0.00     0.054 C 
HETATM   11  N3  UNL     1      10.484  11.718  40.753  1.00  0.00    -0.348 N 
HETATM   12  C9  UNL     1      10.166  10.629  39.823  1.00  0.00     0.145 C 
HETATM   13  C10 UNL     1      11.457   9.885  39.523  1.00  0.00     0.141 C 
HETATM   14  N4  UNL     1      12.248   9.692  40.715  1.00  0.00    -0.374 N 
ATOM     15  H4  UNL     1      12.653   8.776  40.909  1.00  0.00     0.161 HD
HETATM   16  C11 UNL     1      12.448  10.662  41.534  1.00  0.00     0.135 C 
HETATM   17  C12 UNL     1      11.837  11.967  41.202  1.00  0.00     0.256 C 
HETATM   18  N7  UNL     1      11.612  12.678  42.454  1.00  0.00    -0.347 N 
ATOM     19  H7  UNL     1      12.272  12.734  43.230  1.00  0.00     0.163 HD
ENDROOT
BRANCH   1  20
HETATM   20  O1  UNL     1       6.455  14.455  41.586  1.00  0.00    -0.352 OA
HETATM   21  C1  UNL     1       6.320  15.425  40.556  1.00  0.00     0.210 C 
ENDBRANCH   1  20
BRANCH  16  22
HETATM   22  N5  UNL     1      13.221  10.483  42.704  1.00  0.00    -0.293 N 
ATOM     23  H5  UNL     1      12.725  10.314  43.579  1.00  0.00     0.187 HD
BRANCH  22  24
HETATM   24  N6  UNL     1      14.603  10.521  42.746  1.00  0.00    -0.344 N 
ATOM     25  H62 UNL     1      15.095  10.227  41.902  1.00  0.00     0.176 HD
ATOM     26  H61 UNL     1      15.151  10.819  43.554  1.00  0.00     0.176 HD
ENDBRANCH  22  24
ENDBRANCH  16  22
TORSDOF 3
ENDMDL
MODEL 2
REMARK VINA RESULT: -6.015771001      4.688      6.641
REMARK  3 active torsions:
REMARK  status: ('A' for Active; 'I' for Inactive)
REMARK    1  A    between atoms: O1_2  and  C2_3 
REMARK    2  A    between atoms: C11_18  and  N5_19 
REMARK    3  A    between atoms: N5_19  and  N6_21 
ROOT
HETATM    1  C2  UNL     1       6.775  14.222  41.689  1.00  0.00     0.114 A 
HETATM    2  C3  UNL     1       6.663  14.515  43.031  1.00  0.00     0.149 A 
HETATM    3  C4  UNL     1       7.466  15.613  43.536  1.00  0.00     0.120 C 
HETATM    4  N1  UNL     1       8.093  16.494  43.951  1.00  0.00    -0.190 NA
HETATM    5  N2  UNL     1       5.845  13.817  43.842  1.00  0.00    -0.330 N 
ATOM      6  H2  UNL     1       5.772  14.046  44.833  1.00  0.00     0.168 HD
HETATM    7  C5  UNL     1       5.117  12.796  43.304  1.00  0.00     0.132 A 
HETATM    8  C6  UNL     1       5.197  12.468  41.970  1.00  0.00     0.085 A 
HETATM    9  C7  UNL     1       6.042  13.189  41.131  1.00  0.00     0.005 A 
HETATM   10  C8  UNL     1       6.129  12.844  39.712  1.00  0.00     0.054 C 
HETATM   11  N3  UNL     1       4.341  11.380  41.680  1.00  0.00    -0.348 N 
HETATM   12  C9  UNL     1       3.845  10.856  40.403  1.00  0.00     0.145 C 
HETATM   13  C10 UNL     1       2.918   9.692  40.709  1.00  0.00     0.141 C 
HETATM   14  N4  UNL     1       2.051   9.983  41.826  1.00  0.00    -0.374 N 
ATOM     15  H4  UNL     1       1.054   9.775  41.760  1.00  0.00     0.161 HD
HETATM   16  C11 UNL     1       2.523  10.500  42.904  1.00  0.00     0.135 C 
HETATM   17  C12 UNL     1       3.974  10.780  42.945  1.00  0.00     0.256 C 
HETATM   18  N7  UNL     1       4.183  11.883  43.873  1.00  0.00    -0.347 N 
ATOM     19  H7  UNL     1       3.733  11.986  44.783  1.00  0.00     0.163 HD
ENDROOT
BRANCH   1  20
HETATM   20  O1  UNL     1       7.639  14.970  40.866  1.00  0.00    -0.352 OA
HETATM   21  C1  UNL     1       8.975  14.491  40.792  1.00  0.00     0.210 C 
ENDBRANCH   1  20
BRANCH  16  22
HETATM   22  N5  UNL     1       1.682  10.788  44.005  1.00  0.00    -0.293 N 
ATOM     23  H5  UNL     1       1.138  11.651  43.972  1.00  0.00     0.187 HD
BRANCH  22  24
HETATM   24  N6  UNL     1       1.547   9.984  45.122  1.00  0.00    -0.344 N 
ATOM     25  H62 UNL     1       1.086   9.085  44.985  1.00  0.00     0.176 HD
ATOM     26  H61 UNL     1       1.873  10.231  46.057  1.00  0.00     0.176 HD
ENDBRANCH  22  24
ENDBRANCH  16  22
TORSDOF 3
ENDMDL
MODEL 3
REMARK VINA RESULT: -5.900582564      3.030      4.221
REMARK  3 active torsions:
REMARK  status: ('A' for Active; 'I' for Inactive)
REMARK    1  A    between atoms: O1_2  and  C2_3 
REMARK    2  A    between atoms: C11_18  and  N5_19 
REMARK    3  A    between atoms: N5_19  and  N6_21 
ROOT
HETATM    1  C2  UNL     1       7.222  15.746  38.261  1.00  0.00     0.114 A 
HETATM    2  C3  UNL     1       6.935  16.533  39.356  1.00  0.00     0.149 A 
HETATM    3  C4  UNL     1       6.372  17.844  39.096  1.00  0.00     0.120 C 
HETATM    4  N1  UNL     1       5.911  18.890  38.904  1.00  0.00    -0.190 NA
HETATM    5  N2  UNL     1       7.165  16.108  40.612  1.00  0.00    -0.330 N 
ATOM      6  H2  UNL     1       6.946  16.701  41.413  1.00  0.00     0.168 HD
HETATM    7  C5  UNL     1       7.697  14.863  40.789  1.00  0.00     0.132 A 
HETATM    8  C6  UNL     1       7.999  14.044  39.725  1.00  0.00     0.085 A 
HETATM    9  C7  UNL     1       7.763  14.482  38.426  1.00  0.00     0.005 A 
HETATM   10  C8  UNL     1       8.082  13.613  37.293  1.00  0.00     0.054 C 
HETATM   11  N3  UNL     1       8.533  12.818  40.187  1.00  0.00    -0.348 N 
HETATM   12  C9  UNL     1       8.729  11.534  39.507  1.00  0.00     0.145 C 
HETATM   13  C10 UNL     1       9.305  10.557  40.518  1.00  0.00     0.141 C 
HETATM   14  N4  UNL     1       8.651  10.672  41.800  1.00  0.00    -0.374 N 
ATOM     15  H4  UNL     1       8.350   9.830  42.291  1.00  0.00     0.161 HD
HETATM   16  C11 UNL     1       8.445  11.825  42.329  1.00  0.00     0.135 C 
HETATM   17  C12 UNL     1       8.902  13.011  41.573  1.00  0.00     0.256 C 
HETATM   18  N7  UNL     1       8.054  14.132  41.957  1.00  0.00    -0.347 N 
ATOM     19  H7  UNL     1       7.763  14.355  42.909  1.00  0.00     0.163 HD
ENDROOT
BRANCH   1  20
HETATM   20  O1  UNL     1       6.972  16.218  36.958  1.00  0.00    -0.352 OA
HETATM   21  C1  UNL     1       7.986  17.047  36.406  1.00  0.00     0.210 C 
ENDBRANCH   1  20
BRANCH  16  22
HETATM   22  N5  UNL     1       7.805  11.950  43.584  1.00  0.00    -0.293 N 
ATOM     23  H5  UNL     1       7.362  12.842  43.804  1.00  0.00     0.187 HD
BRANCH  22  24
HETATM   24  N6  UNL     1       7.739  10.947  44.535  1.00  0.00    -0.344 N 
ATOM     25  H62 UNL     1       8.263  11.099  45.396  1.00  0.00     0.176 HD
ATOM     26  H61 UNL     1       7.206  10.083  44.430  1.00  0.00     0.176 HD
ENDBRANCH  22  24
ENDBRANCH  16  22
TORSDOF 3
ENDMDL
MODEL 4
REMARK VINA RESULT: -5.881621340      2.985      5.659
REMARK  3 active torsions:
REMARK  status: ('A' for Active; 'I' for Inactive)
REMARK    1  A    between atoms: O1_2  and  C2_3 
REMARK    2  A    between atoms: C11_18  and  N5_19 
REMARK    3  A    between atoms: N5_19  and  N6_21 
ROOT
HETATM    1  C2  UNL     1      10.330  11.609  43.653  1.00  0.00     0.114 A 
HETATM    2  C3  UNL     1      11.388  11.772  42.782  1.00  0.00     0.149 A 
HETATM    3  C4  UNL     1      12.703  11.398  43.265  1.00  0.00     0.120 C 
HETATM    4  N1  UNL     1      13.758  11.093  43.634  1.00  0.00    -0.190 NA
HETATM    5  N2  UNL     1      11.211  12.256  41.538  1.00  0.00    -0.330 N 
ATOM      6  H2  UNL     1      12.003  12.370  40.905  1.00  0.00     0.168 HD
HETATM    7  C5  UNL     1       9.948  12.589  41.145  1.00  0.00     0.132 A 
HETATM    8  C6  UNL     1       8.863  12.444  41.980  1.00  0.00     0.085 A 
HETATM    9  C7  UNL     1       9.044  11.944  43.266  1.00  0.00     0.005 A 
HETATM   10  C8  UNL     1       7.893  11.787  44.157  1.00  0.00     0.054 C 
HETATM   11  N3  UNL     1       7.681  12.859  41.325  1.00  0.00    -0.348 N 
HETATM   12  C9  UNL     1       6.268  12.635  41.650  1.00  0.00     0.145 C 
HETATM   13  C10 UNL     1       5.433  13.284  40.558  1.00  0.00     0.141 C 
HETATM   14  N4  UNL     1       5.985  13.033  39.248  1.00  0.00    -0.374 N 
ATOM     15  H4  UNL     1       5.371  12.733  38.490  1.00  0.00     0.161 HD
HETATM   16  C11 UNL     1       7.242  13.183  39.026  1.00  0.00     0.135 C 
HETATM   17  C12 UNL     1       8.084  13.618  40.161  1.00  0.00     0.256 C 
HETATM   18  N7  UNL     1       9.432  13.116  39.927  1.00  0.00    -0.347 N 
ATOM     19  H7  UNL     1       9.926  13.138  39.034  1.00  0.00     0.163 HD
ENDROOT
BRANCH   1  20
HETATM   20  O1  UNL     1      10.546  11.101  44.948  1.00  0.00    -0.352 OA
HETATM   21  C1  UNL     1      10.410   9.693  45.080  1.00  0.00     0.210 C 
ENDBRANCH   1  20
BRANCH  16  22
HETATM   22  N5  UNL     1       7.793  12.940  37.747  1.00  0.00    -0.293 N 
ATOM     23  H5  UNL     1       7.855  11.971  37.434  1.00  0.00     0.187 HD
BRANCH  22  24
HETATM   24  N6  UNL     1       8.254  13.923  36.889  1.00  0.00    -0.344 N 
ATOM     25  H62 UNL     1       7.558  14.374  36.295  1.00  0.00     0.176 HD
ATOM     26  H61 UNL     1       9.227  14.219  36.817  1.00  0.00     0.176 HD
ENDBRANCH  22  24
ENDBRANCH  16  22
TORSDOF 3
ENDMDL
MODEL 5
REMARK VINA RESULT: -5.869311529      3.510      5.043
REMARK  3 active torsions:
REMARK  status: ('A' for Active; 'I' for Inactive)
REMARK    1  A    between atoms: O1_2  and  C2_3 
REMARK    2  A    between atoms: C11_18  and  N5_19 
REMARK    3  A    between atoms: N5_19  and  N6_21 
ROOT
HETATM    1  C2  UNL     1       6.842  16.970  37.799  1.00  0.00     0.114 A 
HETATM    2  C3  UNL     1       6.271  17.521  38.927  1.00  0.00     0.149 A 
HETATM    3  C4  UNL     1       5.547  18.766  38.759  1.00  0.00     0.120 C 
HETATM    4  N1  UNL     1       4.956  19.755  38.638  1.00  0.00    -0.190 NA
HETATM    5  N2  UNL     1       6.379  16.932  40.133  1.00  0.00    -0.330 N 
ATOM      6  H2  UNL     1       5.951  17.351  40.959  1.00  0.00     0.168 HD
HETATM    7  C5  UNL     1       7.075  15.761  40.224  1.00  0.00     0.132 A 
HETATM    8  C6  UNL     1       7.660  15.176  39.124  1.00  0.00     0.085 A 
HETATM    9  C7  UNL     1       7.551  15.783  37.878  1.00  0.00     0.005 A 
HETATM   10  C8  UNL     1       8.171  15.164  36.706  1.00  0.00     0.054 C 
HETATM   11  N3  UNL     1       8.312  13.977  39.497  1.00  0.00    -0.348 N 
HETATM   12  C9  UNL     1       8.813  12.861  38.689  1.00  0.00     0.145 C 
HETATM   13  C10 UNL     1       9.385  11.821  39.638  1.00  0.00     0.141 C 
HETATM   14  N4  UNL     1       8.538  11.634  40.793  1.00  0.00    -0.374 N 
ATOM     15  H4  UNL     1       8.309  10.690  41.103  1.00  0.00     0.161 HD
HETATM   16  C11 UNL     1       8.071  12.646  41.433  1.00  0.00     0.135 C 
HETATM   17  C12 UNL     1       8.436  13.991  40.938  1.00  0.00     0.256 C 
HETATM   18  N7  UNL     1       7.369  14.905  41.323  1.00  0.00    -0.347 N 
ATOM     19  H7  UNL     1       6.908  14.928  42.233  1.00  0.00     0.163 HD
ENDROOT
BRANCH   1  20
HETATM   20  O1  UNL     1       6.713  17.609  36.551  1.00  0.00    -0.352 OA
HETATM   21  C1  UNL     1       7.636  18.663  36.309  1.00  0.00     0.210 C 
ENDBRANCH   1  20
BRANCH  16  22
HETATM   22  N5  UNL     1       7.241  12.474  42.565  1.00  0.00    -0.293 N 
ATOM     23  H5  UNL     1       6.234  12.570  42.434  1.00  0.00     0.187 HD
BRANCH  22  24
HETATM   24  N6  UNL     1       7.698  12.186  43.839  1.00  0.00    -0.344 N 
ATOM     25  H62 UNL     1       8.632  11.781  43.909  1.00  0.00     0.176 HD
ATOM     26  H61 UNL     1       7.170  12.351  44.696  1.00  0.00     0.176 HD
ENDBRANCH  22  24
ENDBRANCH  16  22
TORSDOF 3
ENDMDL
