MODEL 1
REMARK VINA RESULT: -4.706132119      0.000      0.000
REMARK  7 active torsions:
REMARK  status: ('A' for Active; 'I' for Inactive)
REMARK    1  A    between atoms: N1_2  and  S1_4 
REMARK    2  A    between atoms: S1_4  and  N2_5 
REMARK    3  A    between atoms: S1_4  and  C3_8 
REMARK    4  A    between atoms: C3_8  and  N3_9 
REMARK    5  A    between atoms: C3_8  and  N5_13 
REMARK    6  A    between atoms: N3_9  and  N4_10 
REMARK    7  A    between atoms: N5_13  and  O1_14 
ROOT
HETATM    1  C3  UNL     1      23.640  28.074  23.287  1.00  0.00     0.303 C 
ENDROOT
BRANCH   1   2
HETATM    2  S1  UNL     1      24.810  27.366  24.401  1.00  0.00    -0.019 SA
BRANCH   2   3
HETATM    3  N1  UNL     1      24.137  26.947  25.915  1.00  0.00    -0.258 NA
HETATM    4  C1  UNL     1      24.502  25.622  26.357  1.00  0.00     0.124 C 
HETATM    5  C2  UNL     1      24.673  27.878  26.909  1.00  0.00     0.124 C 
ENDBRANCH   2   3
BRANCH   2   6
HETATM    6  N2  UNL     1      25.500  25.977  23.628  1.00  0.00    -0.369 NA
ATOM      7  H22 UNL     1      25.078  25.148  24.046  1.00  0.00     0.164 HD
ATOM      8  H21 UNL     1      26.518  25.992  23.699  1.00  0.00     0.164 HD
ENDBRANCH   2   6
ENDBRANCH   1   2
BRANCH   1   9
HETATM    9  N3  UNL     1      22.368  27.383  23.309  1.00  0.00    -0.111 NA
BRANCH   9  10
HETATM   10  N4  UNL     1      22.574  26.022  23.387  1.00  0.00    -0.346 N 
ATOM     11  H42 UNL     1      23.337  25.586  23.904  1.00  0.00     0.172 HD
ATOM     12  H41 UNL     1      21.856  25.530  22.855  1.00  0.00     0.172 HD
ENDBRANCH   9  10
ENDBRANCH   1   9
BRANCH   1  13
HETATM   13  N5  UNL     1      23.403  29.444  23.705  1.00  0.00    -0.067 NA
BRANCH  13  14
HETATM   14  O1  UNL     1      22.514  29.427  24.720  1.00  0.00    -0.294 OA
ATOM     15  H1  UNL     1      22.555  30.267  25.164  1.00  0.00     0.238 HD
ENDBRANCH  13  14
ENDBRANCH   1  13
TORSDOF 7
ENDMDL
MODEL 2
REMARK VINA RESULT: -4.563211272      3.388      4.905
REMARK  7 active torsions:
REMARK  status: ('A' for Active; 'I' for Inactive)
REMARK    1  A    between atoms: N1_2  and  S1_4 
REMARK    2  A    between atoms: S1_4  and  N2_5 
REMARK    3  A    between atoms: S1_4  and  C3_8 
REMARK    4  A    between atoms: C3_8  and  N3_9 
REMARK    5  A    between atoms: C3_8  and  N5_13 
REMARK    6  A    between atoms: N3_9  and  N4_10 
REMARK    7  A    between atoms: N5_13  and  O1_14 
ROOT
HETATM    1  C3  UNL     1      25.666  25.920  28.075  1.00  0.00     0.303 C 
ENDROOT
BRANCH   1   2
HETATM    2  S1  UNL     1      24.472  25.387  26.891  1.00  0.00    -0.019 SA
BRANCH   2   3
HETATM    3  N1  UNL     1      24.270  26.479  25.592  1.00  0.00    -0.258 NA
HETATM    4  C1  UNL     1      25.504  26.793  24.911  1.00  0.00     0.124 C 
HETATM    5  C2  UNL     1      23.404  25.833  24.604  1.00  0.00     0.124 C 
ENDBRANCH   2   3
BRANCH   2   6
HETATM    6  N2  UNL     1      24.960  23.827  26.314  1.00  0.00    -0.369 NA
ATOM      7  H22 UNL     1      24.689  23.760  25.333  1.00  0.00     0.164 HD
ATOM      8  H21 UNL     1      24.566  23.087  26.894  1.00  0.00     0.164 HD
ENDBRANCH   2   6
ENDBRANCH   1   2
BRANCH   1   9
HETATM    9  N3  UNL     1      25.426  27.272  28.531  1.00  0.00    -0.111 NA
BRANCH   9  10
HETATM   10  N4  UNL     1      24.070  27.496  28.645  1.00  0.00    -0.346 N 
ATOM     11  H42 UNL     1      23.454  27.700  27.859  1.00  0.00     0.172 HD
ATOM     12  H41 UNL     1      23.787  27.425  29.623  1.00  0.00     0.172 HD
ENDBRANCH   9  10
ENDBRANCH   1   9
BRANCH   1  13
HETATM   13  N5  UNL     1      25.569  25.043  29.227  1.00  0.00    -0.067 NA
BRANCH  13  14
HETATM   14  O1  UNL     1      24.285  24.648  29.350  1.00  0.00    -0.294 OA
ATOM     15  H1  UNL     1      24.065  24.639  30.275  1.00  0.00     0.238 HD
ENDBRANCH  13  14
ENDBRANCH   1  13
TORSDOF 7
ENDMDL
MODEL 3
REMARK VINA RESULT: -4.557981170      1.662      2.188
REMARK  7 active torsions:
REMARK  status: ('A' for Active; 'I' for Inactive)
REMARK    1  A    between atoms: N1_2  and  S1_4 
REMARK    2  A    between atoms: S1_4  and  N2_5 
REMARK    3  A    between atoms: S1_4  and  C3_8 
REMARK    4  A    between atoms: C3_8  and  N3_9 
REMARK    5  A    between atoms: C3_8  and  N5_13 
REMARK    6  A    between atoms: N3_9  and  N4_10 
REMARK    7  A    between atoms: N5_13  and  O1_14 
ROOT
HETATM    1  C3  UNL     1      24.555  28.912  23.709  1.00  0.00     0.303 C 
ENDROOT
BRANCH   1   2
HETATM    2  S1  UNL     1      24.113  28.472  25.359  1.00  0.00    -0.019 SA
BRANCH   2   3
HETATM    3  N1  UNL     1      24.936  27.090  25.936  1.00  0.00    -0.258 NA
HETATM    4  C1  UNL     1      24.087  25.929  26.065  1.00  0.00     0.124 C 
HETATM    5  C2  UNL     1      25.963  26.746  24.951  1.00  0.00     0.124 C 
ENDBRANCH   2   3
BRANCH   2   6
HETATM    6  N2  UNL     1      24.425  29.843  26.372  1.00  0.00    -0.369 NA
ATOM      7  H22 UNL     1      23.583  30.416  26.388  1.00  0.00     0.164 HD
ATOM      8  H21 UNL     1      25.252  30.348  26.053  1.00  0.00     0.164 HD
ENDBRANCH   2   6
ENDBRANCH   1   2
BRANCH   1   9
HETATM    9  N3  UNL     1      23.588  28.452  22.736  1.00  0.00    -0.111 NA
BRANCH   9  10
HETATM   10  N4  UNL     1      22.648  27.651  23.350  1.00  0.00    -0.346 N 
ATOM     11  H42 UNL     1      22.362  26.735  23.006  1.00  0.00     0.172 HD
ATOM     12  H41 UNL     1      22.292  28.112  24.187  1.00  0.00     0.172 HD
ENDBRANCH   9  10
ENDBRANCH   1   9
BRANCH   1  13
HETATM   13  N5  UNL     1      24.600  30.361  23.634  1.00  0.00    -0.067 NA
BRANCH  13  14
HETATM   14  O1  UNL     1      23.341  30.813  23.460  1.00  0.00    -0.294 OA
ATOM     15  H1  UNL     1      23.339  31.751  23.612  1.00  0.00     0.238 HD
ENDBRANCH  13  14
ENDBRANCH   1  13
TORSDOF 7
ENDMDL
MODEL 4
REMARK VINA RESULT: -4.546735242      2.593      3.787
REMARK  7 active torsions:
REMARK  status: ('A' for Active; 'I' for Inactive)
REMARK    1  A    between atoms: N1_2  and  S1_4 
REMARK    2  A    between atoms: S1_4  and  N2_5 
REMARK    3  A    between atoms: S1_4  and  C3_8 
REMARK    4  A    between atoms: C3_8  and  N3_9 
REMARK    5  A    between atoms: C3_8  and  N5_13 
REMARK    6  A    between atoms: N3_9  and  N4_10 
REMARK    7  A    between atoms: N5_13  and  O1_14 
ROOT
HETATM    1  C3  UNL     1      24.673  25.603  23.652  1.00  0.00     0.303 C 
ENDROOT
BRANCH   1   2
HETATM    2  S1  UNL     1      23.544  26.726  24.411  1.00  0.00    -0.019 SA
BRANCH   2   3
HETATM    3  N1  UNL     1      24.293  28.144  25.001  1.00  0.00    -0.258 NA
HETATM    4  C1  UNL     1      23.525  29.342  24.756  1.00  0.00     0.124 C 
HETATM    5  C2  UNL     1      24.402  28.012  26.455  1.00  0.00     0.124 C 
ENDBRANCH   2   3
BRANCH   2   6
HETATM    6  N2  UNL     1      22.322  27.115  23.245  1.00  0.00    -0.369 NA
ATOM      7  H22 UNL     1      21.901  28.001  23.521  1.00  0.00     0.164 HD
ATOM      8  H21 UNL     1      21.647  26.354  23.161  1.00  0.00     0.164 HD
ENDBRANCH   2   6
ENDBRANCH   1   2
BRANCH   1   9
HETATM    9  N3  UNL     1      25.982  26.186  23.451  1.00  0.00    -0.111 NA
BRANCH   9  10
HETATM   10  N4  UNL     1      26.368  26.031  22.136  1.00  0.00    -0.346 N 
ATOM     11  H42 UNL     1      27.223  25.560  21.841  1.00  0.00     0.172 HD
ATOM     12  H41 UNL     1      25.676  26.454  21.518  1.00  0.00     0.172 HD
ENDBRANCH   9  10
ENDBRANCH   1   9
BRANCH   1  13
HETATM   13  N5  UNL     1      24.831  24.466  24.541  1.00  0.00    -0.067 NA
BRANCH  13  14
HETATM   14  O1  UNL     1      25.701  23.605  23.974  1.00  0.00    -0.294 OA
ATOM     15  H1  UNL     1      25.695  22.801  24.479  1.00  0.00     0.238 HD
ENDBRANCH  13  14
ENDBRANCH   1  13
TORSDOF 7
ENDMDL
MODEL 5
REMARK VINA RESULT: -4.531847969      2.051      2.732
REMARK  7 active torsions:
REMARK  status: ('A' for Active; 'I' for Inactive)
REMARK    1  A    between atoms: N1_2  and  S1_4 
REMARK    2  A    between atoms: S1_4  and  N2_5 
REMARK    3  A    between atoms: S1_4  and  C3_8 
REMARK    4  A    between atoms: C3_8  and  N3_9 
REMARK    5  A    between atoms: C3_8  and  N5_13 
REMARK    6  A    between atoms: N3_9  and  N4_10 
REMARK    7  A    between atoms: N5_13  and  O1_14 
ROOT
HETATM    1  C3  UNL     1      23.537  27.830  24.774  1.00  0.00     0.303 C 
ENDROOT
BRANCH   1   2
HETATM    2  S1  UNL     1      25.101  28.006  23.977  1.00  0.00    -0.019 SA
BRANCH   2   3
HETATM    3  N1  UNL     1      26.216  26.781  24.396  1.00  0.00    -0.258 NA
HETATM    4  C1  UNL     1      27.580  27.104  24.050  1.00  0.00     0.124 C 
HETATM    5  C2  UNL     1      26.183  26.633  25.853  1.00  0.00     0.124 C 
ENDBRANCH   2   3
BRANCH   2   6
HETATM    6  N2  UNL     1      24.823  28.027  22.267  1.00  0.00    -0.369 NA
ATOM      7  H22 UNL     1      23.838  28.238  22.115  1.00  0.00     0.164 HD
ATOM      8  H21 UNL     1      25.119  27.148  21.841  1.00  0.00     0.164 HD
ENDBRANCH   2   6
ENDBRANCH   1   2
BRANCH   1   9
HETATM    9  N3  UNL     1      22.734  29.030  24.685  1.00  0.00    -0.111 NA
BRANCH   9  10
HETATM   10  N4  UNL     1      23.437  30.020  24.032  1.00  0.00    -0.346 N 
ATOM     11  H42 UNL     1      23.164  31.002  24.014  1.00  0.00     0.172 HD
ATOM     12  H41 UNL     1      24.259  29.620  23.578  1.00  0.00     0.172 HD
ENDBRANCH   9  10
ENDBRANCH   1   9
BRANCH   1  13
HETATM   13  N5  UNL     1      22.814  26.767  24.100  1.00  0.00    -0.067 NA
BRANCH  13  14
HETATM   14  O1  UNL     1      21.993  27.327  23.188  1.00  0.00    -0.294 OA
ATOM     15  H1  UNL     1      21.311  26.699  22.978  1.00  0.00     0.238 HD
ENDBRANCH  13  14
ENDBRANCH   1  13
TORSDOF 7
ENDMDL
