MODEL 1
REMARK VINA RESULT: -6.646101712      0.000      0.000
REMARK  16 active torsions:
REMARK  status: ('A' for Active; 'I' for Inactive)
REMARK    1  A    between atoms: C1_4  and  N2_5 
REMARK    2  A    between atoms: C1_4  and  C2_10 
REMARK    3  A    between atoms: N2_5  and  N3_7 
REMARK    4  A    between atoms: N5_14  and  C3_15 
REMARK    5  A    between atoms: C5_20  and  O3_21 
REMARK    6  A    between atoms: C6_23  and  O4_24 
REMARK    7  A    between atoms: C7_26  and  C8_27 
REMARK    8  A    between atoms: C9_34  and  C10_35 
REMARK    9  A    between atoms: C10_35  and  N10_36 
REMARK   10  A    between atoms: C12_38  and  C13_39 
REMARK   11  A    between atoms: C13_39  and  O5_40 
REMARK   12  A    between atoms: C13_39  and  C14_42 
REMARK   13  A    between atoms: C14_42  and  O6_43 
REMARK   14  A    between atoms: C14_42  and  C15_45 
REMARK   15  A    between atoms: C15_45  and  O7_46 
REMARK   16  A    between atoms: C16_53  and  N14_54 
ROOT
HETATM    1  C3  UNL     1      37.854  -5.576  21.248  1.00  0.00     0.157 A 
HETATM    2  N6  UNL     1      36.797  -5.612  22.080  1.00  0.00    -0.304 N 
ATOM      3  H6  UNL     1      36.263  -6.477  22.159  1.00  0.00     0.171 HD
HETATM    4  C4  UNL     1      36.417  -4.552  22.811  1.00  0.00     0.283 A 
HETATM    5  O2  UNL     1      35.405  -4.635  23.588  1.00  0.00    -0.265 OA
HETATM    6  C5  UNL     1      37.095  -3.364  22.746  1.00  0.00     0.169 A 
HETATM    7  C6  UNL     1      38.190  -3.262  21.910  1.00  0.00     0.122 A 
HETATM    8  C7  UNL     1      38.558  -4.388  21.163  1.00  0.00     0.092 A 
ENDROOT
BRANCH   8   9
HETATM    9  C8  UNL     1      39.695  -4.357  20.265  1.00  0.00     0.139 A 
HETATM   10  N7  UNL     1      40.793  -5.096  20.464  1.00  0.00    -0.270 N 
HETATM   11  N8  UNL     1      41.839  -5.080  19.658  1.00  0.00    -0.240 N 
ATOM     12  H7  UNL     1      40.824  -5.704  21.282  1.00  0.00     0.190 HD
HETATM   13  N9  UNL     1      41.781  -4.283  18.599  1.00  0.00    -0.273 N 
ATOM     14  H8  UNL     1      42.659  -5.658  19.842  1.00  0.00     0.208 HD
HETATM   15  C9  UNL     1      40.724  -3.512  18.323  1.00  0.00     0.118 A 
ATOM     16  H9  UNL     1      42.579  -4.258  17.965  1.00  0.00     0.190 HD
HETATM   17  N13 UNL     1      39.676  -3.557  19.173  1.00  0.00    -0.328 N 
ATOM     18  H13 UNL     1      38.855  -2.979  18.990  1.00  0.00     0.169 HD
BRANCH  15  19
HETATM   19  C10 UNL     1      40.754  -2.658  17.119  1.00  0.00     0.223 C 
BRANCH  19  20
HETATM   20  N10 UNL     1      39.505  -2.785  16.406  1.00  0.00    -0.278 N 
HETATM   21  C11 UNL     1      38.955  -3.933  15.994  1.00  0.00     0.137 A 
HETATM   22  C12 UNL     1      37.774  -3.657  15.353  1.00  0.00     0.072 A 
HETATM   23  N11 UNL     1      37.633  -2.311  15.394  1.00  0.00    -0.284 N 
HETATM   24  N12 UNL     1      38.693  -1.804  16.036  1.00  0.00    -0.020 NA
ATOM     25  H11 UNL     1      36.856  -1.777  15.004  1.00  0.00     0.184 HD
BRANCH  22  26
HETATM   26  C13 UNL     1      36.822  -4.601  14.733  1.00  0.00     0.201 C 
BRANCH  26  27
HETATM   27  O5  UNL     1      36.501  -4.283  13.423  1.00  0.00    -0.387 OA
ATOM     28  H5  UNL     1      37.237  -4.350  12.825  1.00  0.00     0.210 HD
ENDBRANCH  26  27
BRANCH  26  29
HETATM   29  C14 UNL     1      37.294  -6.032  14.819  1.00  0.00     0.176 C 
BRANCH  29  30
HETATM   30  O6  UNL     1      36.521  -6.797  15.671  1.00  0.00    -0.390 OA
ATOM     31  H6  UNL     1      36.711  -6.630  16.586  1.00  0.00     0.210 HD
ENDBRANCH  29  30
BRANCH  29  32
HETATM   32  C15 UNL     1      37.280  -6.670  13.441  1.00  0.00     0.198 C 
BRANCH  32  33
HETATM   33  O7  UNL     1      38.532  -6.704  12.862  1.00  0.00    -0.398 OA
ATOM     34  H7  UNL     1      38.656  -6.015  12.221  1.00  0.00     0.209 HD
ENDBRANCH  32  33
ENDBRANCH  29  32
ENDBRANCH  26  29
ENDBRANCH  22  26
ENDBRANCH  19  20
ENDBRANCH  15  19
ENDBRANCH   8   9
BRANCH   1  35
HETATM   35  N5  UNL     1      38.259  -6.696  20.475  1.00  0.00    -0.161 N 
HETATM   36  O1  UNL     1      39.121  -7.619  20.656  1.00  0.00    -0.146 OA
HETATM   37  N4  UNL     1      39.172  -8.456  19.687  1.00  0.00    -0.234 N 
HETATM   38  C2  UNL     1      38.258  -8.090  18.731  1.00  0.00     0.147 A 
ATOM     39  H4  UNL     1      39.792  -9.264  19.635  1.00  0.00     0.197 HD
HETATM   40  C16 UNL     1      37.688  -6.963  19.257  1.00  0.00     0.164 A 
BRANCH  38  41
HETATM   41  C1  UNL     1      38.043  -8.812  17.494  1.00  0.00     0.146 C 
HETATM   42  N1  UNL     1      38.907  -8.852  16.561  1.00  0.00    -0.382 N 
ATOM     43  H12 UNL     1      38.755  -9.360  15.689  1.00  0.00     0.157 HD
ATOM     44  H11 UNL     1      39.785  -8.352  16.699  1.00  0.00     0.157 HD
BRANCH  41  45
HETATM   45  N2  UNL     1      36.796  -9.522  17.298  1.00  0.00    -0.290 N 
ATOM     46  H2  UNL     1      35.900  -9.064  17.467  1.00  0.00     0.188 HD
BRANCH  45  47
HETATM   47  N3  UNL     1      36.853 -10.833  16.875  1.00  0.00    -0.344 N 
ATOM     48  H32 UNL     1      37.070 -11.045  15.901  1.00  0.00     0.176 HD
ATOM     49  H31 UNL     1      36.674 -11.567  17.559  1.00  0.00     0.176 HD
ENDBRANCH  45  47
ENDBRANCH  41  45
ENDBRANCH  38  41
BRANCH  40  50
HETATM   50  N14 UNL     1      36.761  -6.270  18.689  1.00  0.00    -0.382 N 
ATOM     51 2H14 UNL     1      36.298  -5.453  19.086  1.00  0.00     0.157 HD
ATOM     52 1H14 UNL     1      36.375  -6.458  17.764  1.00  0.00     0.157 HD
ENDBRANCH  40  50
ENDBRANCH   1  35
BRANCH   7  53
HETATM   53  O4  UNL     1      38.924  -2.091  21.794  1.00  0.00    -0.357 OA
ATOM     54  H4  UNL     1      39.814  -2.083  21.463  1.00  0.00     0.218 HD
ENDBRANCH   7  53
BRANCH   6  55
HETATM   55  O3  UNL     1      36.701  -2.269  23.501  1.00  0.00    -0.354 OA
ATOM     56  H3  UNL     1      36.966  -1.387  23.266  1.00  0.00     0.218 HD
ENDBRANCH   6  55
TORSDOF 16
ENDMDL
MODEL 2
REMARK VINA RESULT: -6.606656259      3.142      5.233
REMARK  16 active torsions:
REMARK  status: ('A' for Active; 'I' for Inactive)
REMARK    1  A    between atoms: C1_4  and  N2_5 
REMARK    2  A    between atoms: C1_4  and  C2_10 
REMARK    3  A    between atoms: N2_5  and  N3_7 
REMARK    4  A    between atoms: N5_14  and  C3_15 
REMARK    5  A    between atoms: C5_20  and  O3_21 
REMARK    6  A    between atoms: C6_23  and  O4_24 
REMARK    7  A    between atoms: C7_26  and  C8_27 
REMARK    8  A    between atoms: C9_34  and  C10_35 
REMARK    9  A    between atoms: C10_35  and  N10_36 
REMARK   10  A    between atoms: C12_38  and  C13_39 
REMARK   11  A    between atoms: C13_39  and  O5_40 
REMARK   12  A    between atoms: C13_39  and  C14_42 
REMARK   13  A    between atoms: C14_42  and  O6_43 
REMARK   14  A    between atoms: C14_42  and  C15_45 
REMARK   15  A    between atoms: C15_45  and  O7_46 
REMARK   16  A    between atoms: C16_53  and  N14_54 
ROOT
HETATM    1  C3  UNL     1      39.590  -2.093  23.561  1.00  0.00     0.157 A 
HETATM    2  N6  UNL     1      39.915  -0.894  24.079  1.00  0.00    -0.304 N 
ATOM      3  H6  UNL     1      40.850  -0.763  24.465  1.00  0.00     0.171 HD
HETATM    4  C4  UNL     1      39.056   0.137  24.108  1.00  0.00     0.283 A 
HETATM    5  O2  UNL     1      39.412   1.258  24.611  1.00  0.00    -0.265 OA
HETATM    6  C5  UNL     1      37.788   0.019  23.604  1.00  0.00     0.169 A 
HETATM    7  C6  UNL     1      37.393  -1.186  23.058  1.00  0.00     0.122 A 
HETATM    8  C7  UNL     1      38.315  -2.239  23.044  1.00  0.00     0.092 A 
ENDROOT
BRANCH   8   9
HETATM    9  C8  UNL     1      37.972  -3.533  22.488  1.00  0.00     0.139 A 
HETATM   10  N7  UNL     1      37.006  -4.305  22.997  1.00  0.00    -0.270 N 
HETATM   11  N8  UNL     1      36.680  -5.487  22.506  1.00  0.00    -0.240 N 
ATOM     12  H7  UNL     1      36.493  -3.963  23.810  1.00  0.00     0.190 HD
HETATM   13  N9  UNL     1      37.358  -5.915  21.449  1.00  0.00    -0.273 N 
ATOM     14  H8  UNL     1      35.936  -6.048  22.922  1.00  0.00     0.208 HD
HETATM   15  C9  UNL     1      38.338  -5.209  20.875  1.00  0.00     0.118 A 
ATOM     16  H9  UNL     1      37.120  -6.826  21.055  1.00  0.00     0.190 HD
HETATM   17  N13 UNL     1      38.640  -4.006  21.410  1.00  0.00    -0.328 N 
ATOM     18  H13 UNL     1      39.384  -3.445  20.995  1.00  0.00     0.169 HD
BRANCH  15  19
HETATM   19  C10 UNL     1      39.034  -5.772  19.701  1.00  0.00     0.223 C 
BRANCH  19  20
HETATM   20  N10 UNL     1      38.712  -4.993  18.530  1.00  0.00    -0.278 N 
HETATM   21  C11 UNL     1      37.893  -5.371  17.541  1.00  0.00     0.137 A 
HETATM   22  C12 UNL     1      37.834  -4.372  16.603  1.00  0.00     0.072 A 
HETATM   23  N11 UNL     1      38.641  -3.385  17.059  1.00  0.00    -0.284 N 
HETATM   24  N12 UNL     1      39.162  -3.783  18.226  1.00  0.00    -0.020 NA
ATOM     25  H11 UNL     1      38.821  -2.495  16.594  1.00  0.00     0.184 HD
BRANCH  22  26
HETATM   26  C13 UNL     1      37.063  -4.338  15.343  1.00  0.00     0.201 C 
BRANCH  26  27
HETATM   27  O5  UNL     1      37.780  -3.834  14.269  1.00  0.00    -0.387 OA
ATOM     28  H5  UNL     1      37.700  -4.358  13.480  1.00  0.00     0.210 HD
ENDBRANCH  26  27
BRANCH  26  29
HETATM   29  C14 UNL     1      36.479  -5.684  14.992  1.00  0.00     0.176 C 
BRANCH  29  30
HETATM   30  O6  UNL     1      35.153  -5.605  14.609  1.00  0.00    -0.390 OA
ATOM     31  H6  UNL     1      34.606  -6.243  15.052  1.00  0.00     0.210 HD
ENDBRANCH  29  30
BRANCH  29  32
HETATM   32  C15 UNL     1      37.275  -6.321  13.867  1.00  0.00     0.198 C 
BRANCH  32  33
HETATM   33  O7  UNL     1      36.593  -6.312  12.666  1.00  0.00    -0.398 OA
ATOM     34  H7  UNL     1      35.915  -6.976  12.628  1.00  0.00     0.209 HD
ENDBRANCH  32  33
ENDBRANCH  29  32
ENDBRANCH  26  29
ENDBRANCH  22  26
ENDBRANCH  19  20
ENDBRANCH  15  19
ENDBRANCH   8   9
BRANCH   1  35
HETATM   35  N5  UNL     1      40.497  -3.186  23.528  1.00  0.00    -0.161 N 
HETATM   36  O1  UNL     1      41.302  -3.629  22.642  1.00  0.00    -0.146 OA
HETATM   37  N4  UNL     1      41.952  -4.663  23.028  1.00  0.00    -0.234 N 
HETATM   38  C2  UNL     1      41.571  -4.980  24.308  1.00  0.00     0.147 A 
ATOM     39  H4  UNL     1      42.641  -5.170  22.473  1.00  0.00     0.197 HD
HETATM   40  C16 UNL     1      40.641  -4.022  24.605  1.00  0.00     0.164 A 
BRANCH  38  41
HETATM   41  C1  UNL     1      42.104  -6.096  25.061  1.00  0.00     0.146 C 
HETATM   42  N1  UNL     1      43.314  -6.147  25.455  1.00  0.00    -0.382 N 
ATOM     43  H12 UNL     1      43.690  -6.933  25.985  1.00  0.00     0.157 HD
ATOM     44  H11 UNL     1      43.925  -5.363  25.226  1.00  0.00     0.157 HD
BRANCH  41  45
HETATM   45  N2  UNL     1      41.237  -7.209  25.386  1.00  0.00    -0.290 N 
ATOM     46  H2  UNL     1      41.121  -7.990  24.739  1.00  0.00     0.188 HD
BRANCH  45  47
HETATM   47  N3  UNL     1      40.572  -7.186  26.593  1.00  0.00    -0.344 N 
ATOM     48  H32 UNL     1      40.889  -6.564  27.337  1.00  0.00     0.176 HD
ATOM     49  H31 UNL     1      39.767  -7.800  26.712  1.00  0.00     0.176 HD
ENDBRANCH  45  47
ENDBRANCH  41  45
ENDBRANCH  38  41
BRANCH  40  50
HETATM   50  N14 UNL     1      40.007  -3.930  25.724  1.00  0.00    -0.382 N 
ATOM     51 2H14 UNL     1      39.127  -4.391  25.951  1.00  0.00     0.157 HD
ATOM     52 1H14 UNL     1      40.313  -3.377  26.525  1.00  0.00     0.157 HD
ENDBRANCH  40  50
ENDBRANCH   1  35
BRANCH   7  53
HETATM   53  O4  UNL     1      36.125  -1.376  22.529  1.00  0.00    -0.357 OA
ATOM     54  H4  UNL     1      35.354  -1.453  23.079  1.00  0.00     0.218 HD
ENDBRANCH   7  53
BRANCH   6  55
HETATM   55  O3  UNL     1      36.902   1.086  23.634  1.00  0.00    -0.354 OA
ATOM     56  H3  UNL     1      36.128   1.100  23.081  1.00  0.00     0.218 HD
ENDBRANCH   6  55
TORSDOF 16
ENDMDL
MODEL 3
REMARK VINA RESULT: -6.578699680      5.588      8.212
REMARK  16 active torsions:
REMARK  status: ('A' for Active; 'I' for Inactive)
REMARK    1  A    between atoms: C1_4  and  N2_5 
REMARK    2  A    between atoms: C1_4  and  C2_10 
REMARK    3  A    between atoms: N2_5  and  N3_7 
REMARK    4  A    between atoms: N5_14  and  C3_15 
REMARK    5  A    between atoms: C5_20  and  O3_21 
REMARK    6  A    between atoms: C6_23  and  O4_24 
REMARK    7  A    between atoms: C7_26  and  C8_27 
REMARK    8  A    between atoms: C9_34  and  C10_35 
REMARK    9  A    between atoms: C10_35  and  N10_36 
REMARK   10  A    between atoms: C12_38  and  C13_39 
REMARK   11  A    between atoms: C13_39  and  O5_40 
REMARK   12  A    between atoms: C13_39  and  C14_42 
REMARK   13  A    between atoms: C14_42  and  O6_43 
REMARK   14  A    between atoms: C14_42  and  C15_45 
REMARK   15  A    between atoms: C15_45  and  O7_46 
REMARK   16  A    between atoms: C16_53  and  N14_54 
ROOT
HETATM    1  C3  UNL     1      40.815  -3.467  25.435  1.00  0.00     0.157 A 
HETATM    2  N6  UNL     1      40.746  -3.942  26.692  1.00  0.00    -0.304 N 
ATOM      3  H6  UNL     1      39.851  -4.288  27.037  1.00  0.00     0.171 HD
HETATM    4  C4  UNL     1      41.809  -3.979  27.510  1.00  0.00     0.283 A 
HETATM    5  O2  UNL     1      41.694  -4.440  28.697  1.00  0.00    -0.265 OA
HETATM    6  C5  UNL     1      43.036  -3.528  27.101  1.00  0.00     0.169 A 
HETATM    7  C6  UNL     1      43.174  -3.027  25.821  1.00  0.00     0.122 A 
HETATM    8  C7  UNL     1      42.044  -3.005  24.995  1.00  0.00     0.092 A 
ENDROOT
BRANCH   8   9
HETATM    9  C8  UNL     1      42.111  -2.494  23.640  1.00  0.00     0.139 A 
HETATM   10  N7  UNL     1      42.658  -3.187  22.634  1.00  0.00    -0.270 N 
HETATM   11  N8  UNL     1      42.729  -2.738  21.394  1.00  0.00    -0.240 N 
ATOM     12  H7  UNL     1      43.039  -4.111  22.835  1.00  0.00     0.190 HD
HETATM   13  N9  UNL     1      42.227  -1.534  21.151  1.00  0.00    -0.273 N 
ATOM     14  H8  UNL     1      43.154  -3.295  20.652  1.00  0.00     0.208 HD
HETATM   15  C9  UNL     1      41.663  -0.775  22.096  1.00  0.00     0.118 A 
ATOM     16  H9  UNL     1      42.274  -1.171  20.199  1.00  0.00     0.190 HD
HETATM   17  N13 UNL     1      41.611  -1.271  23.351  1.00  0.00    -0.328 N 
ATOM     18  H13 UNL     1      41.187  -0.714  24.093  1.00  0.00     0.169 HD
BRANCH  15  19
HETATM   19  C10 UNL     1      41.133   0.552  21.727  1.00  0.00     0.223 C 
BRANCH  19  20
HETATM   20  N10 UNL     1      39.841   0.745  22.343  1.00  0.00    -0.278 N 
HETATM   21  C11 UNL     1      39.508   1.751  23.160  1.00  0.00     0.137 A 
HETATM   22  C12 UNL     1      38.201   1.598  23.546  1.00  0.00     0.072 A 
HETATM   23  N11 UNL     1      37.761   0.471  22.937  1.00  0.00    -0.284 N 
HETATM   24  N12 UNL     1      38.772  -0.029  22.214  1.00  0.00    -0.020 NA
ATOM     25  H11 UNL     1      36.826   0.073  23.016  1.00  0.00     0.184 HD
BRANCH  22  26
HETATM   26  C13 UNL     1      37.399   2.459  24.439  1.00  0.00     0.201 C 
BRANCH  26  27
HETATM   27  O5  UNL     1      38.102   2.921  25.541  1.00  0.00    -0.387 OA
ATOM     28  H5  UNL     1      37.802   2.554  26.364  1.00  0.00     0.210 HD
ENDBRANCH  26  27
BRANCH  26  29
HETATM   29  C14 UNL     1      36.767   3.616  23.705  1.00  0.00     0.176 C 
BRANCH  29  30
HETATM   30  O6  UNL     1      36.201   3.238  22.502  1.00  0.00    -0.390 OA
ATOM     31  H6  UNL     1      36.808   3.305  21.775  1.00  0.00     0.210 HD
ENDBRANCH  29  30
BRANCH  29  32
HETATM   32  C15 UNL     1      35.696   4.260  24.567  1.00  0.00     0.198 C 
BRANCH  32  33
HETATM   33  O7  UNL     1      35.308   3.453  25.618  1.00  0.00    -0.398 OA
ATOM     34  H7  UNL     1      34.668   3.870  26.181  1.00  0.00     0.209 HD
ENDBRANCH  32  33
ENDBRANCH  29  32
ENDBRANCH  26  29
ENDBRANCH  22  26
ENDBRANCH  19  20
ENDBRANCH  15  19
ENDBRANCH   8   9
BRANCH   1  35
HETATM   35  N5  UNL     1      39.693  -3.427  24.566  1.00  0.00    -0.161 N 
HETATM   36  O1  UNL     1      38.873  -2.506  24.236  1.00  0.00    -0.146 OA
HETATM   37  N4  UNL     1      37.984  -2.901  23.403  1.00  0.00    -0.234 N 
HETATM   38  C2  UNL     1      38.195  -4.227  23.117  1.00  0.00     0.147 A 
ATOM     39  H4  UNL     1      37.238  -2.324  23.015  1.00  0.00     0.197 HD
HETATM   40  C16 UNL     1      39.292  -4.540  23.872  1.00  0.00     0.164 A 
BRANCH  38  41
HETATM   41  C1  UNL     1      37.376  -5.002  22.209  1.00  0.00     0.146 C 
HETATM   42  N1  UNL     1      37.607  -5.069  20.959  1.00  0.00    -0.382 N 
ATOM     43  H12 UNL     1      37.029  -5.615  20.319  1.00  0.00     0.157 HD
ATOM     44  H11 UNL     1      38.405  -4.552  20.591  1.00  0.00     0.157 HD
BRANCH  41  45
HETATM   45  N2  UNL     1      36.242  -5.737  22.731  1.00  0.00    -0.290 N 
ATOM     46  H2  UNL     1      36.265  -6.754  22.802  1.00  0.00     0.188 HD
BRANCH  45  47
HETATM   47  N3  UNL     1      35.132  -5.023  23.129  1.00  0.00    -0.344 N 
ATOM     48  H32 UNL     1      34.960  -4.861  24.122  1.00  0.00     0.176 HD
ATOM     49  H31 UNL     1      34.502  -4.671  22.409  1.00  0.00     0.176 HD
ENDBRANCH  45  47
ENDBRANCH  41  45
ENDBRANCH  38  41
BRANCH  40  50
HETATM   50  N14 UNL     1      39.852  -5.700  23.916  1.00  0.00    -0.382 N 
ATOM     51 2H14 UNL     1      40.531  -6.062  23.247  1.00  0.00     0.157 HD
ATOM     52 1H14 UNL     1      39.680  -6.405  24.633  1.00  0.00     0.157 HD
ENDBRANCH  40  50
ENDBRANCH   1  35
BRANCH   7  53
HETATM   53  O4  UNL     1      44.386  -2.554  25.340  1.00  0.00    -0.357 OA
ATOM     54  H4  UNL     1      45.047  -3.132  24.978  1.00  0.00     0.218 HD
ENDBRANCH   7  53
BRANCH   6  55
HETATM   55  O3  UNL     1      44.135  -3.566  27.947  1.00  0.00    -0.354 OA
ATOM     56  H3  UNL     1      45.019  -3.476  27.612  1.00  0.00     0.218 HD
ENDBRANCH   6  55
TORSDOF 16
ENDMDL
MODEL 4
REMARK VINA RESULT: -6.530381079      5.945      8.704
REMARK  16 active torsions:
REMARK  status: ('A' for Active; 'I' for Inactive)
REMARK    1  A    between atoms: C1_4  and  N2_5 
REMARK    2  A    between atoms: C1_4  and  C2_10 
REMARK    3  A    between atoms: N2_5  and  N3_7 
REMARK    4  A    between atoms: N5_14  and  C3_15 
REMARK    5  A    between atoms: C5_20  and  O3_21 
REMARK    6  A    between atoms: C6_23  and  O4_24 
REMARK    7  A    between atoms: C7_26  and  C8_27 
REMARK    8  A    between atoms: C9_34  and  C10_35 
REMARK    9  A    between atoms: C10_35  and  N10_36 
REMARK   10  A    between atoms: C12_38  and  C13_39 
REMARK   11  A    between atoms: C13_39  and  O5_40 
REMARK   12  A    between atoms: C13_39  and  C14_42 
REMARK   13  A    between atoms: C14_42  and  O6_43 
REMARK   14  A    between atoms: C14_42  and  C15_45 
REMARK   15  A    between atoms: C15_45  and  O7_46 
REMARK   16  A    between atoms: C16_53  and  N14_54 
ROOT
HETATM    1  C3  UNL     1      39.473  -0.487  23.858  1.00  0.00     0.157 A 
HETATM    2  N6  UNL     1      39.978  -1.713  24.091  1.00  0.00    -0.304 N 
ATOM      3  H6  UNL     1      40.931  -1.791  24.447  1.00  0.00     0.171 HD
HETATM    4  C4  UNL     1      39.277  -2.836  23.874  1.00  0.00     0.283 A 
HETATM    5  O2  UNL     1      39.801  -3.979  24.111  1.00  0.00    -0.265 OA
HETATM    6  C5  UNL     1      37.994  -2.792  23.397  1.00  0.00     0.169 A 
HETATM    7  C6  UNL     1      37.417  -1.564  23.137  1.00  0.00     0.122 A 
HETATM    8  C7  UNL     1      38.178  -0.413  23.376  1.00  0.00     0.092 A 
ENDROOT
BRANCH   8   9
HETATM    9  C8  UNL     1      37.641   0.910  23.127  1.00  0.00     0.139 A 
HETATM   10  N7  UNL     1      36.514   1.351  23.697  1.00  0.00    -0.270 N 
HETATM   11  N8  UNL     1      36.008   2.551  23.482  1.00  0.00    -0.240 N 
ATOM     12  H7  UNL     1      36.018   0.726  24.333  1.00  0.00     0.190 HD
HETATM   13  N9  UNL     1      36.667   3.351  22.652  1.00  0.00    -0.273 N 
ATOM     14  H8  UNL     1      35.146   2.853  23.936  1.00  0.00     0.208 HD
HETATM   15  C9  UNL     1      37.800   2.992  22.040  1.00  0.00     0.118 A 
ATOM     16  H9  UNL     1      36.291   4.282  22.474  1.00  0.00     0.190 HD
HETATM   17  N13 UNL     1      38.282   1.755  22.287  1.00  0.00    -0.328 N 
ATOM     18  H13 UNL     1      39.144   1.453  21.833  1.00  0.00     0.169 HD
BRANCH  15  19
HETATM   19  C10 UNL     1      38.459   3.952  21.133  1.00  0.00     0.223 C 
BRANCH  19  20
HETATM   20  N10 UNL     1      39.253   3.234  20.164  1.00  0.00    -0.278 N 
HETATM   21  C11 UNL     1      38.826   2.803  18.972  1.00  0.00     0.137 A 
HETATM   22  C12 UNL     1      39.859   2.164  18.333  1.00  0.00     0.072 A 
HETATM   23  N11 UNL     1      40.915   2.226  19.177  1.00  0.00    -0.284 N 
HETATM   24  N12 UNL     1      40.525   2.879  20.280  1.00  0.00    -0.020 NA
ATOM     25  H11 UNL     1      41.845   1.844  19.005  1.00  0.00     0.184 HD
BRANCH  22  26
HETATM   26  C13 UNL     1      39.862   1.527  17.000  1.00  0.00     0.201 C 
BRANCH  26  27
HETATM   27  O5  UNL     1      40.588   2.231  16.052  1.00  0.00    -0.387 OA
ATOM     28  H5  UNL     1      41.313   1.737  15.685  1.00  0.00     0.210 HD
ENDBRANCH  26  27
BRANCH  26  29
HETATM   29  C14 UNL     1      40.328   0.093  17.050  1.00  0.00     0.176 C 
BRANCH  29  30
HETATM   30  O6  UNL     1      40.434  -0.387  18.342  1.00  0.00    -0.390 OA
ATOM     31  H6  UNL     1      40.716  -1.293  18.373  1.00  0.00     0.210 HD
ENDBRANCH  29  30
BRANCH  29  32
HETATM   32  C15 UNL     1      39.368  -0.795  16.277  1.00  0.00     0.198 C 
BRANCH  32  33
HETATM   33  O7  UNL     1      38.297  -0.092  15.762  1.00  0.00    -0.398 OA
ATOM     34  H7  UNL     1      37.624   0.073  16.411  1.00  0.00     0.209 HD
ENDBRANCH  32  33
ENDBRANCH  29  32
ENDBRANCH  26  29
ENDBRANCH  22  26
ENDBRANCH  19  20
ENDBRANCH  15  19
ENDBRANCH   8   9
BRANCH   1  35
HETATM   35  N5  UNL     1      40.212   0.703  24.087  1.00  0.00    -0.161 N 
HETATM   36  O1  UNL     1      40.142   1.620  24.972  1.00  0.00    -0.146 OA
HETATM   37  N4  UNL     1      41.019   2.541  24.812  1.00  0.00    -0.234 N 
HETATM   38  C2  UNL     1      41.781   2.245  23.709  1.00  0.00     0.147 A 
ATOM     39  H4  UNL     1      41.132   3.361  25.407  1.00  0.00     0.197 HD
HETATM   40  C16 UNL     1      41.247   1.068  23.264  1.00  0.00     0.164 A 
BRANCH  38  41
HETATM   41  C1  UNL     1      42.870   3.071  23.230  1.00  0.00     0.146 C 
HETATM   42  N1  UNL     1      44.036   3.037  23.740  1.00  0.00    -0.382 N 
ATOM     43  H12 UNL     1      44.804   3.619  23.403  1.00  0.00     0.157 HD
ATOM     44  H11 UNL     1      44.200   2.398  24.517  1.00  0.00     0.157 HD
BRANCH  41  45
HETATM   45  N2  UNL     1      42.637   3.979  22.127  1.00  0.00    -0.290 N 
ATOM     46  H2  UNL     1      43.142   3.875  21.246  1.00  0.00     0.188 HD
BRANCH  45  47
HETATM   47  N3  UNL     1      41.714   4.988  22.298  1.00  0.00    -0.344 N 
ATOM     48  H32 UNL     1      41.142   5.017  23.143  1.00  0.00     0.176 HD
ATOM     49  H31 UNL     1      41.626   5.690  21.564  1.00  0.00     0.176 HD
ENDBRANCH  45  47
ENDBRANCH  41  45
ENDBRANCH  38  41
BRANCH  40  50
HETATM   50  N14 UNL     1      41.658   0.413  22.232  1.00  0.00    -0.382 N 
ATOM     51 2H14 UNL     1      42.612   0.093  22.069  1.00  0.00     0.157 HD
ATOM     52 1H14 UNL     1      41.071   0.133  21.446  1.00  0.00     0.157 HD
ENDBRANCH  40  50
ENDBRANCH   1  35
BRANCH   7  53
HETATM   53  O4  UNL     1      36.123  -1.444  22.654  1.00  0.00    -0.357 OA
ATOM     54  H4  UNL     1      35.872  -1.764  21.795  1.00  0.00     0.218 HD
ENDBRANCH   7  53
BRANCH   6  55
HETATM   55  O3  UNL     1      37.270  -3.954  23.173  1.00  0.00    -0.354 OA
ATOM     56  H3  UNL     1      36.408  -4.078  23.552  1.00  0.00     0.218 HD
ENDBRANCH   6  55
TORSDOF 16
ENDMDL
MODEL 5
REMARK VINA RESULT: -6.474252495      2.269      6.527
REMARK  16 active torsions:
REMARK  status: ('A' for Active; 'I' for Inactive)
REMARK    1  A    between atoms: C1_4  and  N2_5 
REMARK    2  A    between atoms: C1_4  and  C2_10 
REMARK    3  A    between atoms: N2_5  and  N3_7 
REMARK    4  A    between atoms: N5_14  and  C3_15 
REMARK    5  A    between atoms: C5_20  and  O3_21 
REMARK    6  A    between atoms: C6_23  and  O4_24 
REMARK    7  A    between atoms: C7_26  and  C8_27 
REMARK    8  A    between atoms: C9_34  and  C10_35 
REMARK    9  A    between atoms: C10_35  and  N10_36 
REMARK   10  A    between atoms: C12_38  and  C13_39 
REMARK   11  A    between atoms: C13_39  and  O5_40 
REMARK   12  A    between atoms: C13_39  and  C14_42 
REMARK   13  A    between atoms: C14_42  and  O6_43 
REMARK   14  A    between atoms: C14_42  and  C15_45 
REMARK   15  A    between atoms: C15_45  and  O7_46 
REMARK   16  A    between atoms: C16_53  and  N14_54 
ROOT
HETATM    1  C3  UNL     1      38.030  -5.004  15.530  1.00  0.00     0.157 A 
HETATM    2  N6  UNL     1      37.265  -4.304  14.672  1.00  0.00    -0.304 N 
ATOM      3  H6  UNL     1      36.672  -4.812  14.017  1.00  0.00     0.171 HD
HETATM    4  C4  UNL     1      37.253  -2.963  14.645  1.00  0.00     0.283 A 
HETATM    5  O2  UNL     1      36.508  -2.341  13.810  1.00  0.00    -0.265 OA
HETATM    6  C5  UNL     1      38.029  -2.227  15.501  1.00  0.00     0.169 A 
HETATM    7  C6  UNL     1      38.837  -2.886  16.407  1.00  0.00     0.122 A 
HETATM    8  C7  UNL     1      38.824  -4.286  16.407  1.00  0.00     0.092 A 
ENDROOT
BRANCH   8   9
HETATM    9  C8  UNL     1      39.645  -5.046  17.329  1.00  0.00     0.139 A 
HETATM   10  N7  UNL     1      40.943  -5.284  17.111  1.00  0.00    -0.270 N 
HETATM   11  N8  UNL     1      41.707  -5.975  17.938  1.00  0.00    -0.240 N 
ATOM     12  H7  UNL     1      41.367  -4.911  16.262  1.00  0.00     0.190 HD
HETATM   13  N9  UNL     1      41.140  -6.451  19.038  1.00  0.00    -0.273 N 
ATOM     14  H8  UNL     1      42.695  -6.136  17.738  1.00  0.00     0.208 HD
HETATM   15  C9  UNL     1      39.849  -6.261  19.335  1.00  0.00     0.118 A 
ATOM     16  H9  UNL     1      41.714  -6.988  19.689  1.00  0.00     0.190 HD
HETATM   17  N13 UNL     1      39.104  -5.550  18.463  1.00  0.00    -0.328 N 
ATOM     18  H13 UNL     1      38.116  -5.389  18.661  1.00  0.00     0.169 HD
BRANCH  15  19
HETATM   19  C10 UNL     1      39.310  -6.833  20.584  1.00  0.00     0.223 C 
BRANCH  19  20
HETATM   20  N10 UNL     1      38.581  -5.815  21.305  1.00  0.00    -0.278 N 
HETATM   21  C11 UNL     1      39.063  -5.072  22.307  1.00  0.00     0.137 A 
HETATM   22  C12 UNL     1      38.081  -4.217  22.740  1.00  0.00     0.072 A 
HETATM   23  N11 UNL     1      36.998  -4.471  21.968  1.00  0.00    -0.284 N 
HETATM   24  N12 UNL     1      37.324  -5.442  21.106  1.00  0.00    -0.020 NA
ATOM     25  H11 UNL     1      36.093  -4.004  22.031  1.00  0.00     0.184 HD
BRANCH  22  26
HETATM   26  C13 UNL     1      38.147  -3.213  23.822  1.00  0.00     0.201 C 
BRANCH  26  27
HETATM   27  O5  UNL     1      39.076  -3.518  24.805  1.00  0.00    -0.387 OA
ATOM     28  H5  UNL     1      38.684  -3.810  25.620  1.00  0.00     0.210 HD
ENDBRANCH  26  27
BRANCH  26  29
HETATM   29  C14 UNL     1      38.389  -1.819  23.296  1.00  0.00     0.176 C 
BRANCH  29  30
HETATM   30  O6  UNL     1      38.803  -1.812  21.978  1.00  0.00    -0.390 OA
ATOM     31  H6  UNL     1      39.112  -0.959  21.696  1.00  0.00     0.210 HD
ENDBRANCH  29  30
BRANCH  29  32
HETATM   32  C15 UNL     1      37.122  -0.990  23.414  1.00  0.00     0.198 C 
BRANCH  32  33
HETATM   33  O7  UNL     1      36.097  -1.477  22.626  1.00  0.00    -0.398 OA
ATOM     34  H7  UNL     1      36.144  -1.160  21.732  1.00  0.00     0.209 HD
ENDBRANCH  32  33
ENDBRANCH  29  32
ENDBRANCH  26  29
ENDBRANCH  22  26
ENDBRANCH  19  20
ENDBRANCH  15  19
ENDBRANCH   8   9
BRANCH   1  35
HETATM   35  N5  UNL     1      38.044  -6.424  15.563  1.00  0.00    -0.161 N 
HETATM   36  O1  UNL     1      37.535  -7.286  16.353  1.00  0.00    -0.146 OA
HETATM   37  N4  UNL     1      37.795  -8.494  16.012  1.00  0.00    -0.234 N 
HETATM   38  C2  UNL     1      38.559  -8.483  14.872  1.00  0.00     0.147 A 
ATOM     39  H4  UNL     1      37.484  -9.329  16.508  1.00  0.00     0.197 HD
HETATM   40  C16 UNL     1      38.705  -7.150  14.605  1.00  0.00     0.164 A 
BRANCH  38  41
HETATM   41  C1  UNL     1      39.037  -9.675  14.204  1.00  0.00     0.146 C 
HETATM   42  N1  UNL     1      40.246 -10.069  14.278  1.00  0.00    -0.382 N 
ATOM     43  H12 UNL     1      40.584 -10.908  13.807  1.00  0.00     0.157 HD
ATOM     44  H11 UNL     1      40.896  -9.514  14.835  1.00  0.00     0.157 HD
BRANCH  41  45
HETATM   45  N2  UNL     1      38.114 -10.462  13.413  1.00  0.00    -0.290 N 
ATOM     46  H2  UNL     1      37.968 -10.261  12.423  1.00  0.00     0.188 HD
BRANCH  45  47
HETATM   47  N3  UNL     1      37.437 -11.489  14.034  1.00  0.00    -0.344 N 
ATOM     48  H32 UNL     1      37.641 -11.720  15.007  1.00  0.00     0.176 HD
ATOM     49  H31 UNL     1      36.738 -12.000  13.495  1.00  0.00     0.176 HD
ENDBRANCH  45  47
ENDBRANCH  41  45
ENDBRANCH  38  41
BRANCH  40  50
HETATM   50  N14 UNL     1      39.362  -6.664  13.608  1.00  0.00    -0.382 N 
ATOM     51 2H14 UNL     1      38.981  -6.457  12.685  1.00  0.00     0.157 HD
ATOM     52 1H14 UNL     1      40.353  -6.425  13.622  1.00  0.00     0.157 HD
ENDBRANCH  40  50
ENDBRANCH   1  35
BRANCH   7  53
HETATM   53  O4  UNL     1      39.648  -2.206  17.303  1.00  0.00    -0.357 OA
ATOM     54  H4  UNL     1      40.483  -2.554  17.593  1.00  0.00     0.218 HD
ENDBRANCH   7  53
BRANCH   6  55
HETATM   55  O3  UNL     1      38.015  -0.840  15.472  1.00  0.00    -0.354 OA
ATOM     56  H3  UNL     1      38.724  -0.333  15.849  1.00  0.00     0.218 HD
ENDBRANCH   6  55
TORSDOF 16
ENDMDL
