MODEL 1
REMARK VINA RESULT: -7.195209260      0.000      0.000
REMARK  18 active torsions:
REMARK  status: ('A' for Active; 'I' for Inactive)
REMARK    1  A    between atoms: C3_4  and  C4_5 
REMARK    2  A    between atoms: C4_5  and  N1_6 
REMARK    3  A    between atoms: C4_5  and  C5_10 
REMARK    4  A    between atoms: C5_10  and  O3_12 
REMARK    5  A    between atoms: O3_12  and  N2_13 
REMARK    6  A    between atoms: N2_13  and  C6_14 
REMARK    7  A    between atoms: C6_14  and  C7_15 
REMARK    8  A    between atoms: C6_14  and  C13_39 
REMARK    9  A    between atoms: C7_15  and  C8_17 
REMARK   10  A    between atoms: C8_17  and  O5_18 
REMARK   11  A    between atoms: C8_17  and  N3_20 
REMARK   12  A    between atoms: C9_22  and  O6_23 
REMARK   13  A    between atoms: C9_22  and  N4_25 
REMARK   14  A    between atoms: C10_28  and  C11_29 
REMARK   15  A    between atoms: C11_29  and  O7_30 
REMARK   16  A    between atoms: C11_29  and  O8_32 
REMARK   17  A    between atoms: C13_39  and  N7_41 
REMARK   18  A    between atoms: C17_48  and  O10_49 
ROOT
HETATM    1  C6  UNL     1      38.602  -5.116  21.937  1.00  0.00     0.211 C 
ENDROOT
BRANCH   1   2
HETATM    2  N2  UNL     1      38.450  -4.249  20.715  1.00  0.00    -0.076 NA
BRANCH   2   3
HETATM    3  O3  UNL     1      39.590  -4.491  19.994  1.00  0.00    -0.204 OA
BRANCH   3   4
HETATM    4  C5  UNL     1      39.560  -5.162  18.766  1.00  0.00     0.314 C 
HETATM    5  O2  UNL     1      40.691  -5.351  18.243  1.00  0.00    -0.261 OA
BRANCH   4   6
HETATM    6  C4  UNL     1      38.328  -5.611  18.131  1.00  0.00     0.340 C 
BRANCH   6   7
HETATM    7  C3  UNL     1      37.962  -4.801  16.945  1.00  0.00     0.097 A 
HETATM    8  O1  UNL     1      38.326  -3.520  16.904  1.00  0.00    -0.314 OA
HETATM    9  C2  UNL     1      38.050  -2.725  15.906  1.00  0.00     0.086 A 
HETATM   10  C1  UNL     1      38.489  -1.304  15.926  1.00  0.00     0.079 C 
HETATM   11  C17 UNL     1      37.348  -3.149  14.791  1.00  0.00     0.145 A 
HETATM   12  C16 UNL     1      36.940  -4.460  14.765  1.00  0.00     0.209 A 
HETATM   13  C15 UNL     1      37.263  -5.258  15.858  1.00  0.00     0.093 A 
HETATM   14  O9  UNL     1      36.302  -4.899  13.784  1.00  0.00    -0.285 OA
BRANCH  11  15
HETATM   15  O10 UNL     1      37.059  -2.278  13.722  1.00  0.00    -0.355 OA
ATOM     16  H10 UNL     1      37.141  -1.336  13.808  1.00  0.00     0.218 HD
ENDBRANCH  11  15
ENDBRANCH   6   7
BRANCH   6  17
HETATM   17  N1  UNL     1      38.409  -6.992  17.671  1.00  0.00    -0.060 N 
ATOM     18  H13 UNL     1      38.027  -7.131  16.735  1.00  0.00     0.275 HD
ATOM     19  H12 UNL     1      39.361  -7.295  17.462  1.00  0.00     0.275 HD
ATOM     20  H11 UNL     1      37.950  -7.557  18.385  1.00  0.00     0.275 HD
ENDBRANCH   6  17
ENDBRANCH   4   6
ENDBRANCH   3   4
ENDBRANCH   2   3
ENDBRANCH   1   2
BRANCH   1  21
HETATM   21  C7  UNL     1      38.417  -4.280  23.107  1.00  0.00     0.198 C 
HETATM   22  O4  UNL     1      38.993  -4.662  24.150  1.00  0.00    -0.291 OA
BRANCH  21  23
HETATM   23  C8  UNL     1      37.643  -3.054  23.231  1.00  0.00     0.293 C 
BRANCH  23  24
HETATM   24  O5  UNL     1      37.312  -2.905  24.623  1.00  0.00    -0.369 OA
ATOM     25  H5  UNL     1      36.465  -2.477  24.664  1.00  0.00     0.212 HD
ENDBRANCH  23  24
BRANCH  23  26
HETATM   26  N3  UNL     1      38.417  -1.837  22.882  1.00  0.00    -0.322 N 
HETATM   27  C9  UNL     1      37.867  -0.679  22.981  1.00  0.00     0.243 C 
ATOM     28  H3  UNL     1      39.383  -1.920  22.564  1.00  0.00     0.166 HD
BRANCH  27  29
HETATM   29  O6  UNL     1      36.564  -0.607  23.413  1.00  0.00    -0.331 OA
ATOM     30  H6  UNL     1      36.391  -0.230  24.267  1.00  0.00     0.221 HD
ENDBRANCH  27  29
BRANCH  27  31
HETATM   31  N4  UNL     1      38.627   0.518  22.638  1.00  0.00    -0.196 N 
HETATM   32  N5  UNL     1      38.295   1.262  21.662  1.00  0.00    -0.281 N 
HETATM   33  C10 UNL     1      39.003   2.341  21.372  1.00  0.00     0.125 A 
ATOM     34  H5  UNL     1      37.478   1.025  21.099  1.00  0.00     0.188 HD
HETATM   35  S1  UNL     1      40.215   2.283  22.573  1.00  0.00    -0.033 SA
HETATM   36  C12 UNL     1      39.704   0.855  23.358  1.00  0.00     0.169 A 
HETATM   37  N6  UNL     1      40.206   0.224  24.397  1.00  0.00    -0.378 N 
ATOM     38  H62 UNL     1      39.901  -0.629  24.866  1.00  0.00     0.158 HD
ATOM     39  H61 UNL     1      41.027   0.481  24.946  1.00  0.00     0.158 HD
BRANCH  33  40
HETATM   40  C11 UNL     1      38.784   3.347  20.271  1.00  0.00     0.314 C 
BRANCH  40  41
HETATM   41  O7  UNL     1      38.176   4.485  20.743  1.00  0.00    -0.365 OA
ATOM     42  H7  UNL     1      37.480   4.773  20.164  1.00  0.00     0.213 HD
ENDBRANCH  40  41
BRANCH  40  43
HETATM   43  O8  UNL     1      37.958   2.687  19.339  1.00  0.00    -0.365 OA
ATOM     44  H8  UNL     1      37.081   3.001  19.526  1.00  0.00     0.213 HD
ENDBRANCH  40  43
ENDBRANCH  33  40
ENDBRANCH  27  31
ENDBRANCH  23  26
ENDBRANCH  21  23
ENDBRANCH   1  21
BRANCH   1  45
HETATM   45  C13 UNL     1      37.748  -6.284  21.688  1.00  0.00     0.208 C 
HETATM   46  C14 UNL     1      38.464  -7.573  21.514  1.00  0.00     0.042 C 
BRANCH  45  47
HETATM   47  N7  UNL     1      36.734  -6.481  22.721  1.00  0.00    -0.073 N 
ATOM     48  H73 UNL     1      37.166  -6.717  23.615  1.00  0.00     0.274 HD
ATOM     49  H72 UNL     1      36.296  -5.596  22.975  1.00  0.00     0.274 HD
ATOM     50  H71 UNL     1      36.032  -7.174  22.463  1.00  0.00     0.274 HD
ENDBRANCH  45  47
ENDBRANCH   1  45
TORSDOF 18
ENDMDL
MODEL 2
REMARK VINA RESULT: -7.090705302      2.489      3.256
REMARK  18 active torsions:
REMARK  status: ('A' for Active; 'I' for Inactive)
REMARK    1  A    between atoms: C3_4  and  C4_5 
REMARK    2  A    between atoms: C4_5  and  N1_6 
REMARK    3  A    between atoms: C4_5  and  C5_10 
REMARK    4  A    between atoms: C5_10  and  O3_12 
REMARK    5  A    between atoms: O3_12  and  N2_13 
REMARK    6  A    between atoms: N2_13  and  C6_14 
REMARK    7  A    between atoms: C6_14  and  C7_15 
REMARK    8  A    between atoms: C6_14  and  C13_39 
REMARK    9  A    between atoms: C7_15  and  C8_17 
REMARK   10  A    between atoms: C8_17  and  O5_18 
REMARK   11  A    between atoms: C8_17  and  N3_20 
REMARK   12  A    between atoms: C9_22  and  O6_23 
REMARK   13  A    between atoms: C9_22  and  N4_25 
REMARK   14  A    between atoms: C10_28  and  C11_29 
REMARK   15  A    between atoms: C11_29  and  O7_30 
REMARK   16  A    between atoms: C11_29  and  O8_32 
REMARK   17  A    between atoms: C13_39  and  N7_41 
REMARK   18  A    between atoms: C17_48  and  O10_49 
ROOT
HETATM    1  C6  UNL     1      38.067  -6.594  21.446  1.00  0.00     0.211 C 
ENDROOT
BRANCH   1   2
HETATM    2  N2  UNL     1      38.051  -5.781  20.178  1.00  0.00    -0.076 NA
BRANCH   2   3
HETATM    3  O3  UNL     1      37.408  -6.586  19.275  1.00  0.00    -0.204 OA
BRANCH   3   4
HETATM    4  C5  UNL     1      37.844  -6.709  17.951  1.00  0.00     0.314 C 
HETATM    5  O2  UNL     1      38.852  -7.448  17.795  1.00  0.00    -0.261 OA
BRANCH   4   6
HETATM    6  C4  UNL     1      37.194  -6.041  16.831  1.00  0.00     0.340 C 
BRANCH   6   7
HETATM    7  C3  UNL     1      37.712  -4.673  16.594  1.00  0.00     0.097 A 
HETATM    8  O1  UNL     1      38.793  -4.270  17.263  1.00  0.00    -0.314 OA
HETATM    9  C2  UNL     1      39.324  -3.086  17.126  1.00  0.00     0.086 A 
HETATM   10  C1  UNL     1      40.533  -2.704  17.905  1.00  0.00     0.079 C 
HETATM   11  C17 UNL     1      38.807  -2.135  16.264  1.00  0.00     0.145 A 
HETATM   12  C16 UNL     1      37.692  -2.482  15.541  1.00  0.00     0.209 A 
HETATM   13  C15 UNL     1      37.170  -3.757  15.730  1.00  0.00     0.093 A 
HETATM   14  O9  UNL     1      37.180  -1.663  14.746  1.00  0.00    -0.285 OA
BRANCH  11  15
HETATM   15  O10 UNL     1      39.394  -0.862  16.127  1.00  0.00    -0.355 OA
ATOM     16  H10 UNL     1      39.146  -0.270  15.426  1.00  0.00     0.218 HD
ENDBRANCH  11  15
ENDBRANCH   6   7
BRANCH   6  17
HETATM   17  N1  UNL     1      37.363  -6.762  15.576  1.00  0.00    -0.060 N 
ATOM     18  H13 UNL     1      37.015  -7.721  15.608  1.00  0.00     0.275 HD
ATOM     19  H12 UNL     1      36.749  -6.432  14.832  1.00  0.00     0.275 HD
ATOM     20  H11 UNL     1      38.354  -6.698  15.342  1.00  0.00     0.275 HD
ENDBRANCH   6  17
ENDBRANCH   4   6
ENDBRANCH   3   4
ENDBRANCH   2   3
ENDBRANCH   1   2
BRANCH   1  21
HETATM   21  C7  UNL     1      37.265  -5.900  22.434  1.00  0.00     0.198 C 
HETATM   22  O4  UNL     1      36.945  -6.565  23.444  1.00  0.00    -0.291 OA
BRANCH  21  23
HETATM   23  C8  UNL     1      36.778  -4.529  22.405  1.00  0.00     0.293 C 
BRANCH  23  24
HETATM   24  O5  UNL     1      35.672  -4.457  23.323  1.00  0.00    -0.369 OA
ATOM     25  H5  UNL     1      35.146  -3.709  23.065  1.00  0.00     0.212 HD
ENDBRANCH  23  24
BRANCH  23  26
HETATM   26  N3  UNL     1      37.769  -3.547  22.910  1.00  0.00    -0.322 N 
HETATM   27  C9  UNL     1      37.459  -2.300  22.975  1.00  0.00     0.243 C 
ATOM     28  H3  UNL     1      38.694  -3.859  23.206  1.00  0.00     0.166 HD
BRANCH  27  29
HETATM   29  O6  UNL     1      36.203  -1.916  22.568  1.00  0.00    -0.331 OA
ATOM     30  H6  UNL     1      35.983  -0.993  22.593  1.00  0.00     0.221 HD
ENDBRANCH  27  29
BRANCH  27  31
HETATM   31  N4  UNL     1      38.432  -1.334  23.471  1.00  0.00    -0.196 N 
HETATM   32  N5  UNL     1      39.654  -1.644  23.639  1.00  0.00    -0.281 N 
HETATM   33  C10 UNL     1      40.516  -0.749  24.091  1.00  0.00     0.125 A 
ATOM     34  H5  UNL     1      39.971  -2.590  23.424  1.00  0.00     0.188 HD
HETATM   35  S1  UNL     1      39.512   0.618  24.286  1.00  0.00    -0.033 SA
HETATM   36  C12 UNL     1      38.046  -0.086  23.762  1.00  0.00     0.169 A 
HETATM   37  N6  UNL     1      36.841   0.428  23.658  1.00  0.00    -0.378 N 
ATOM     38  H62 UNL     1      35.965   0.007  23.345  1.00  0.00     0.158 HD
ATOM     39  H61 UNL     1      36.547   1.379  23.880  1.00  0.00     0.158 HD
BRANCH  33  40
HETATM   40  C11 UNL     1      41.991  -0.907  24.358  1.00  0.00     0.314 C 
BRANCH  40  41
HETATM   41  O7  UNL     1      42.674  -1.256  23.219  1.00  0.00    -0.365 OA
ATOM     42  H7  UNL     1      43.503  -0.796  23.156  1.00  0.00     0.213 HD
ENDBRANCH  40  41
BRANCH  40  43
HETATM   43  O8  UNL     1      42.073  -1.931  25.326  1.00  0.00    -0.365 OA
ATOM     44  H8  UNL     1      42.862  -1.735  25.818  1.00  0.00     0.213 HD
ENDBRANCH  40  43
ENDBRANCH  33  40
ENDBRANCH  27  31
ENDBRANCH  23  26
ENDBRANCH  21  23
ENDBRANCH   1  21
BRANCH   1  45
HETATM   45  C13 UNL     1      37.748  -7.964  21.027  1.00  0.00     0.208 C 
HETATM   46  C14 UNL     1      38.688  -9.011  21.502  1.00  0.00     0.042 C 
BRANCH  45  47
HETATM   47  N7  UNL     1      36.401  -8.379  21.407  1.00  0.00    -0.073 N 
ATOM     48  H73 UNL     1      36.126  -7.955  22.293  1.00  0.00     0.274 HD
ATOM     49  H72 UNL     1      35.703  -7.956  20.795  1.00  0.00     0.274 HD
ATOM     50  H71 UNL     1      36.289  -9.392  21.440  1.00  0.00     0.274 HD
ENDBRANCH  45  47
ENDBRANCH   1  45
TORSDOF 18
ENDMDL
MODEL 3
REMARK VINA RESULT: -7.008301008      2.438      3.340
REMARK  18 active torsions:
REMARK  status: ('A' for Active; 'I' for Inactive)
REMARK    1  A    between atoms: C3_4  and  C4_5 
REMARK    2  A    between atoms: C4_5  and  N1_6 
REMARK    3  A    between atoms: C4_5  and  C5_10 
REMARK    4  A    between atoms: C5_10  and  O3_12 
REMARK    5  A    between atoms: O3_12  and  N2_13 
REMARK    6  A    between atoms: N2_13  and  C6_14 
REMARK    7  A    between atoms: C6_14  and  C7_15 
REMARK    8  A    between atoms: C6_14  and  C13_39 
REMARK    9  A    between atoms: C7_15  and  C8_17 
REMARK   10  A    between atoms: C8_17  and  O5_18 
REMARK   11  A    between atoms: C8_17  and  N3_20 
REMARK   12  A    between atoms: C9_22  and  O6_23 
REMARK   13  A    between atoms: C9_22  and  N4_25 
REMARK   14  A    between atoms: C10_28  and  C11_29 
REMARK   15  A    between atoms: C11_29  and  O7_30 
REMARK   16  A    between atoms: C11_29  and  O8_32 
REMARK   17  A    between atoms: C13_39  and  N7_41 
REMARK   18  A    between atoms: C17_48  and  O10_49 
ROOT
HETATM    1  C6  UNL     1      38.592  -6.307  21.772  1.00  0.00     0.211 C 
ENDROOT
BRANCH   1   2
HETATM    2  N2  UNL     1      39.607  -5.211  21.579  1.00  0.00    -0.076 NA
BRANCH   2   3
HETATM    3  O3  UNL     1      39.604  -4.991  20.227  1.00  0.00    -0.204 OA
BRANCH   3   4
HETATM    4  C5  UNL     1      39.901  -3.738  19.681  1.00  0.00     0.314 C 
HETATM    5  O2  UNL     1      39.753  -2.770  20.474  1.00  0.00    -0.261 OA
BRANCH   4   6
HETATM    6  C4  UNL     1      40.348  -3.550  18.306  1.00  0.00     0.340 C 
BRANCH   6   7
HETATM    7  C3  UNL     1      39.266  -3.756  17.314  1.00  0.00     0.097 A 
HETATM    8  O1  UNL     1      38.732  -4.971  17.188  1.00  0.00    -0.314 OA
HETATM    9  C2  UNL     1      37.777  -5.253  16.344  1.00  0.00     0.086 A 
HETATM   10  C1  UNL     1      37.227  -6.632  16.257  1.00  0.00     0.079 C 
HETATM   11  C17 UNL     1      37.230  -4.305  15.497  1.00  0.00     0.145 A 
HETATM   12  C16 UNL     1      37.733  -3.030  15.573  1.00  0.00     0.209 A 
HETATM   13  C15 UNL     1      38.750  -2.789  16.491  1.00  0.00     0.093 A 
HETATM   14  O9  UNL     1      37.278  -2.130  14.832  1.00  0.00    -0.285 OA
BRANCH  11  15
HETATM   15  O10 UNL     1      36.199  -4.625  14.592  1.00  0.00    -0.355 OA
ATOM     16  H10 UNL     1      35.332  -4.245  14.667  1.00  0.00     0.218 HD
ENDBRANCH  11  15
ENDBRANCH   6   7
BRANCH   6  17
HETATM   17  N1  UNL     1      40.869  -2.210  18.066  1.00  0.00    -0.060 N 
ATOM     18  H13 UNL     1      41.257  -2.087  17.130  1.00  0.00     0.275 HD
ATOM     19  H12 UNL     1      40.142  -1.499  17.995  1.00  0.00     0.275 HD
ATOM     20  H11 UNL     1      41.543  -2.030  18.811  1.00  0.00     0.275 HD
ENDBRANCH   6  17
ENDBRANCH   4   6
ENDBRANCH   3   4
ENDBRANCH   2   3
ENDBRANCH   1   2
BRANCH   1  21
HETATM   21  C7  UNL     1      37.458  -5.750  22.483  1.00  0.00     0.198 C 
HETATM   22  O4  UNL     1      36.857  -6.531  23.253  1.00  0.00    -0.291 OA
BRANCH  21  23
HETATM   23  C8  UNL     1      36.921  -4.399  22.415  1.00  0.00     0.293 C 
BRANCH  23  24
HETATM   24  O5  UNL     1      35.781  -4.356  23.292  1.00  0.00    -0.369 OA
ATOM     25  H5  UNL     1      35.039  -4.075  22.769  1.00  0.00     0.212 HD
ENDBRANCH  23  24
BRANCH  23  26
HETATM   26  N3  UNL     1      37.856  -3.373  22.939  1.00  0.00    -0.322 N 
HETATM   27  C9  UNL     1      37.496  -2.139  22.976  1.00  0.00     0.243 C 
ATOM     28  H3  UNL     1      38.782  -3.646  23.270  1.00  0.00     0.166 HD
BRANCH  27  29
HETATM   29  O6  UNL     1      36.242  -1.809  22.521  1.00  0.00    -0.331 OA
ATOM     30  H6  UNL     1      35.491  -2.235  22.917  1.00  0.00     0.221 HD
ENDBRANCH  27  29
BRANCH  27  31
HETATM   31  N4  UNL     1      38.415  -1.129  23.491  1.00  0.00    -0.196 N 
HETATM   32  N5  UNL     1      39.665  -1.343  23.569  1.00  0.00    -0.281 N 
HETATM   33  C10 UNL     1      40.476  -0.411  24.041  1.00  0.00     0.125 A 
ATOM     34  H5  UNL     1      40.046  -2.240  23.266  1.00  0.00     0.188 HD
HETATM   35  S1  UNL     1      39.376   0.847  24.393  1.00  0.00    -0.033 SA
HETATM   36  C12 UNL     1      37.945   0.057  23.897  1.00  0.00     0.169 A 
HETATM   37  N6  UNL     1      36.697   0.470  23.897  1.00  0.00    -0.378 N 
ATOM     38  H62 UNL     1      35.842  -0.002  23.600  1.00  0.00     0.158 HD
ATOM     39  H61 UNL     1      36.339   1.374  24.206  1.00  0.00     0.158 HD
BRANCH  33  40
HETATM   40  C11 UNL     1      41.972  -0.459  24.216  1.00  0.00     0.314 C 
BRANCH  40  41
HETATM   41  O7  UNL     1      42.605  -0.801  23.046  1.00  0.00    -0.365 OA
ATOM     42  H7  UNL     1      43.306  -0.193  22.839  1.00  0.00     0.213 HD
ENDBRANCH  40  41
BRANCH  40  43
HETATM   43  O8  UNL     1      42.187  -1.439  25.207  1.00  0.00    -0.365 OA
ATOM     44  H8  UNL     1      41.908  -1.029  26.018  1.00  0.00     0.213 HD
ENDBRANCH  40  43
ENDBRANCH  33  40
ENDBRANCH  27  31
ENDBRANCH  23  26
ENDBRANCH  21  23
ENDBRANCH   1  21
BRANCH   1  45
HETATM   45  C13 UNL     1      38.438  -6.925  20.449  1.00  0.00     0.208 C 
HETATM   46  C14 UNL     1      38.407  -8.410  20.438  1.00  0.00     0.042 C 
BRANCH  45  47
HETATM   47  N7  UNL     1      37.254  -6.456  19.734  1.00  0.00    -0.073 N 
ATOM     48  H73 UNL     1      36.554  -6.098  20.384  1.00  0.00     0.274 HD
ATOM     49  H72 UNL     1      37.456  -5.601  19.217  1.00  0.00     0.274 HD
ATOM     50  H71 UNL     1      36.851  -7.165  19.122  1.00  0.00     0.274 HD
ENDBRANCH  45  47
ENDBRANCH   1  45
TORSDOF 18
ENDMDL
MODEL 4
REMARK VINA RESULT: -6.972492254      1.276      1.868
REMARK  18 active torsions:
REMARK  status: ('A' for Active; 'I' for Inactive)
REMARK    1  A    between atoms: C3_4  and  C4_5 
REMARK    2  A    between atoms: C4_5  and  N1_6 
REMARK    3  A    between atoms: C4_5  and  C5_10 
REMARK    4  A    between atoms: C5_10  and  O3_12 
REMARK    5  A    between atoms: O3_12  and  N2_13 
REMARK    6  A    between atoms: N2_13  and  C6_14 
REMARK    7  A    between atoms: C6_14  and  C7_15 
REMARK    8  A    between atoms: C6_14  and  C13_39 
REMARK    9  A    between atoms: C7_15  and  C8_17 
REMARK   10  A    between atoms: C8_17  and  O5_18 
REMARK   11  A    between atoms: C8_17  and  N3_20 
REMARK   12  A    between atoms: C9_22  and  O6_23 
REMARK   13  A    between atoms: C9_22  and  N4_25 
REMARK   14  A    between atoms: C10_28  and  C11_29 
REMARK   15  A    between atoms: C11_29  and  O7_30 
REMARK   16  A    between atoms: C11_29  and  O8_32 
REMARK   17  A    between atoms: C13_39  and  N7_41 
REMARK   18  A    between atoms: C17_48  and  O10_49 
ROOT
HETATM    1  C6  UNL     1      39.087  -4.589  21.981  1.00  0.00     0.211 C 
ENDROOT
BRANCH   1   2
HETATM    2  N2  UNL     1      39.180  -3.536  20.909  1.00  0.00    -0.076 NA
BRANCH   2   3
HETATM    3  O3  UNL     1      39.048  -4.239  19.740  1.00  0.00    -0.204 OA
BRANCH   3   4
HETATM    4  C5  UNL     1      40.093  -4.342  18.816  1.00  0.00     0.314 C 
HETATM    5  O2  UNL     1      40.858  -5.327  18.994  1.00  0.00    -0.261 OA
BRANCH   4   6
HETATM    6  C4  UNL     1      40.295  -3.392  17.729  1.00  0.00     0.340 C 
BRANCH   6   7
HETATM    7  C3  UNL     1      39.292  -3.533  16.646  1.00  0.00     0.097 A 
HETATM    8  O1  UNL     1      39.169  -4.710  16.033  1.00  0.00    -0.314 OA
HETATM    9  C2  UNL     1      38.319  -4.934  15.069  1.00  0.00     0.086 A 
HETATM   10  C1  UNL     1      38.234  -6.275  14.430  1.00  0.00     0.079 C 
HETATM   11  C17 UNL     1      37.460  -3.958  14.594  1.00  0.00     0.145 A 
HETATM   12  C16 UNL     1      37.533  -2.718  15.180  1.00  0.00     0.209 A 
HETATM   13  C15 UNL     1      38.459  -2.540  16.203  1.00  0.00     0.093 A 
HETATM   14  O9  UNL     1      36.782  -1.796  14.793  1.00  0.00    -0.285 OA
BRANCH  11  15
HETATM   15  O10 UNL     1      36.547  -4.216  13.553  1.00  0.00    -0.355 OA
ATOM     16  H10 UNL     1      36.806  -4.179  12.640  1.00  0.00     0.218 HD
ENDBRANCH  11  15
ENDBRANCH   6   7
BRANCH   6  17
HETATM   17  N1  UNL     1      40.218  -2.007  18.176  1.00  0.00    -0.060 N 
ATOM     18  H13 UNL     1      40.367  -1.330  17.427  1.00  0.00     0.275 HD
ATOM     19  H12 UNL     1      39.273  -1.712  18.423  1.00  0.00     0.275 HD
ATOM     20  H11 UNL     1      40.885  -1.918  18.942  1.00  0.00     0.275 HD
ENDBRANCH   6  17
ENDBRANCH   4   6
ENDBRANCH   3   4
ENDBRANCH   2   3
ENDBRANCH   1   2
BRANCH   1  21
HETATM   21  C7  UNL     1      38.679  -3.941  23.213  1.00  0.00     0.198 C 
HETATM   22  O4  UNL     1      39.188  -4.392  24.262  1.00  0.00    -0.291 OA
BRANCH  21  23
HETATM   23  C8  UNL     1      37.749  -2.837  23.391  1.00  0.00     0.293 C 
BRANCH  23  24
HETATM   24  O5  UNL     1      37.429  -2.778  24.792  1.00  0.00    -0.369 OA
ATOM     25  H5  UNL     1      37.382  -1.859  25.028  1.00  0.00     0.212 HD
ENDBRANCH  23  24
BRANCH  23  26
HETATM   26  N3  UNL     1      38.344  -1.515  23.071  1.00  0.00    -0.322 N 
HETATM   27  C9  UNL     1      37.636  -0.448  23.192  1.00  0.00     0.243 C 
ATOM     28  H3  UNL     1      39.313  -1.453  22.757  1.00  0.00     0.166 HD
BRANCH  27  29
HETATM   29  O6  UNL     1      36.335  -0.571  23.617  1.00  0.00    -0.331 OA
ATOM     30  H6  UNL     1      35.642  -0.530  22.969  1.00  0.00     0.221 HD
ENDBRANCH  27  29
BRANCH  27  31
HETATM   31  N4  UNL     1      38.221   0.851  22.878  1.00  0.00    -0.196 N 
HETATM   32  N5  UNL     1      38.351   1.251  21.678  1.00  0.00    -0.281 N 
HETATM   33  C10 UNL     1      38.885   2.434  21.422  1.00  0.00     0.125 A 
ATOM     34  H5  UNL     1      38.042   0.657  20.909  1.00  0.00     0.188 HD
HETATM   35  S1  UNL     1      39.219   3.003  22.997  1.00  0.00    -0.033 SA
HETATM   36  C12 UNL     1      38.636   1.653  23.866  1.00  0.00     0.169 A 
HETATM   37  N6  UNL     1      38.588   1.425  25.160  1.00  0.00    -0.378 N 
ATOM     38  H62 UNL     1      38.240   0.618  25.679  1.00  0.00     0.158 HD
ATOM     39  H61 UNL     1      38.905   2.036  25.913  1.00  0.00     0.158 HD
BRANCH  33  40
HETATM   40  C11 UNL     1      39.128   3.092  20.088  1.00  0.00     0.314 C 
BRANCH  40  41
HETATM   41  O7  UNL     1      39.258   4.454  20.215  1.00  0.00    -0.365 OA
ATOM     42  H7  UNL     1      38.505   4.910  19.858  1.00  0.00     0.213 HD
ENDBRANCH  40  41
BRANCH  40  43
HETATM   43  O8  UNL     1      37.995   2.767  19.314  1.00  0.00    -0.365 OA
ATOM     44  H8  UNL     1      38.163   1.888  18.995  1.00  0.00     0.213 HD
ENDBRANCH  40  43
ENDBRANCH  33  40
ENDBRANCH  27  31
ENDBRANCH  23  26
ENDBRANCH  21  23
ENDBRANCH   1  21
BRANCH   1  45
HETATM   45  C13 UNL     1      38.294  -5.672  21.387  1.00  0.00     0.208 C 
HETATM   46  C14 UNL     1      38.799  -7.045  21.640  1.00  0.00     0.042 C 
BRANCH  45  47
HETATM   47  N7  UNL     1      36.890  -5.640  21.790  1.00  0.00    -0.073 N 
ATOM     48  H73 UNL     1      36.726  -6.255  22.586  1.00  0.00     0.274 HD
ATOM     49  H72 UNL     1      36.656  -4.745  22.219  1.00  0.00     0.274 HD
ATOM     50  H71 UNL     1      36.251  -5.856  21.026  1.00  0.00     0.274 HD
ENDBRANCH  45  47
ENDBRANCH   1  45
TORSDOF 18
ENDMDL
MODEL 5
REMARK VINA RESULT: -6.962255990      3.541      8.612
REMARK  18 active torsions:
REMARK  status: ('A' for Active; 'I' for Inactive)
REMARK    1  A    between atoms: C3_4  and  C4_5 
REMARK    2  A    between atoms: C4_5  and  N1_6 
REMARK    3  A    between atoms: C4_5  and  C5_10 
REMARK    4  A    between atoms: C5_10  and  O3_12 
REMARK    5  A    between atoms: O3_12  and  N2_13 
REMARK    6  A    between atoms: N2_13  and  C6_14 
REMARK    7  A    between atoms: C6_14  and  C7_15 
REMARK    8  A    between atoms: C6_14  and  C13_39 
REMARK    9  A    between atoms: C7_15  and  C8_17 
REMARK   10  A    between atoms: C8_17  and  O5_18 
REMARK   11  A    between atoms: C8_17  and  N3_20 
REMARK   12  A    between atoms: C9_22  and  O6_23 
REMARK   13  A    between atoms: C9_22  and  N4_25 
REMARK   14  A    between atoms: C10_28  and  C11_29 
REMARK   15  A    between atoms: C11_29  and  O7_30 
REMARK   16  A    between atoms: C11_29  and  O8_32 
REMARK   17  A    between atoms: C13_39  and  N7_41 
REMARK   18  A    between atoms: C17_48  and  O10_49 
ROOT
HETATM    1  C6  UNL     1      40.017  -2.894  16.711  1.00  0.00     0.211 C 
ENDROOT
BRANCH   1   2
HETATM    2  N2  UNL     1      39.941  -2.655  18.196  1.00  0.00    -0.076 NA
BRANCH   2   3
HETATM    3  O3  UNL     1      40.172  -3.889  18.743  1.00  0.00    -0.204 OA
BRANCH   3   4
HETATM    4  C5  UNL     1      39.526  -4.315  19.908  1.00  0.00     0.314 C 
HETATM    5  O2  UNL     1      38.374  -4.792  19.727  1.00  0.00    -0.261 OA
BRANCH   4   6
HETATM    6  C4  UNL     1      40.125  -4.220  21.234  1.00  0.00     0.340 C 
BRANCH   6   7
HETATM    7  C3  UNL     1      39.463  -3.211  22.095  1.00  0.00     0.097 A 
HETATM    8  O1  UNL     1      39.692  -1.919  21.864  1.00  0.00    -0.314 OA
HETATM    9  C2  UNL     1      39.160  -0.957  22.567  1.00  0.00     0.086 A 
HETATM   10  C1  UNL     1      39.459   0.466  22.252  1.00  0.00     0.079 C 
HETATM   11  C17 UNL     1      38.300  -1.197  23.625  1.00  0.00     0.145 A 
HETATM   12  C16 UNL     1      38.019  -2.508  23.920  1.00  0.00     0.209 A 
HETATM   13  C15 UNL     1      38.617  -3.490  23.137  1.00  0.00     0.093 A 
HETATM   14  O9  UNL     1      37.249  -2.787  24.866  1.00  0.00    -0.285 OA
BRANCH  11  15
HETATM   15  O10 UNL     1      37.732  -0.147  24.372  1.00  0.00    -0.355 OA
ATOM     16  H10 UNL     1      36.914   0.263  24.117  1.00  0.00     0.218 HD
ENDBRANCH  11  15
ENDBRANCH   6   7
BRANCH   6  17
HETATM   17  N1  UNL     1      40.065  -5.480  21.965  1.00  0.00    -0.060 N 
ATOM     18  H13 UNL     1      40.631  -6.219  21.546  1.00  0.00     0.275 HD
ATOM     19  H12 UNL     1      40.545  -5.450  22.864  1.00  0.00     0.275 HD
ATOM     20  H11 UNL     1      39.076  -5.718  22.040  1.00  0.00     0.275 HD
ENDBRANCH   6  17
ENDBRANCH   4   6
ENDBRANCH   3   4
ENDBRANCH   2   3
ENDBRANCH   1   2
BRANCH   1  21
HETATM   21  C7  UNL     1      38.676  -2.790  16.169  1.00  0.00     0.198 C 
HETATM   22  O4  UNL     1      38.269  -1.631  15.935  1.00  0.00    -0.291 OA
BRANCH  21  23
HETATM   23  C8  UNL     1      37.736  -3.858  15.867  1.00  0.00     0.293 C 
BRANCH  23  24
HETATM   24  O5  UNL     1      38.068  -4.352  14.558  1.00  0.00    -0.369 OA
ATOM     25  H5  UNL     1      37.250  -4.471  14.090  1.00  0.00     0.212 HD
ENDBRANCH  23  24
BRANCH  23  26
HETATM   26  N3  UNL     1      37.871  -5.027  16.771  1.00  0.00    -0.322 N 
HETATM   27  C9  UNL     1      37.126  -6.061  16.596  1.00  0.00     0.243 C 
ATOM     28  H3  UNL     1      38.553  -5.011  17.530  1.00  0.00     0.166 HD
BRANCH  27  29
HETATM   29  O6  UNL     1      36.218  -6.046  15.564  1.00  0.00    -0.331 OA
ATOM     30  H6  UNL     1      35.524  -6.695  15.564  1.00  0.00     0.221 HD
ENDBRANCH  27  29
BRANCH  27  31
HETATM   31  N4  UNL     1      37.259  -7.211  17.484  1.00  0.00    -0.196 N 
HETATM   32  N5  UNL     1      37.123  -7.100  18.743  1.00  0.00    -0.281 N 
HETATM   33  C10 UNL     1      37.248  -8.159  19.526  1.00  0.00     0.125 A 
ATOM     34  H5  UNL     1      36.915  -6.189  19.152  1.00  0.00     0.188 HD
HETATM   35  S1  UNL     1      37.581  -9.385  18.385  1.00  0.00    -0.033 SA
HETATM   36  C12 UNL     1      37.530  -8.419  16.977  1.00  0.00     0.169 A 
HETATM   37  N6  UNL     1      37.705  -8.740  15.714  1.00  0.00    -0.378 N 
ATOM     38  H62 UNL     1      37.674  -8.163  14.872  1.00  0.00     0.158 HD
ATOM     39  H61 UNL     1      37.912  -9.661  15.327  1.00  0.00     0.158 HD
BRANCH  33  40
HETATM   40  C11 UNL     1      37.127  -8.246  21.026  1.00  0.00     0.314 C 
BRANCH  40  41
HETATM   41  O7  UNL     1      35.863  -8.623  21.408  1.00  0.00    -0.365 OA
ATOM     42  H7  UNL     1      35.858  -8.987  22.285  1.00  0.00     0.213 HD
ENDBRANCH  40  41
BRANCH  40  43
HETATM   43  O8  UNL     1      37.423  -6.946  21.487  1.00  0.00    -0.365 OA
ATOM     44  H8  UNL     1      36.618  -6.456  21.366  1.00  0.00     0.213 HD
ENDBRANCH  40  43
ENDBRANCH  33  40
ENDBRANCH  27  31
ENDBRANCH  23  26
ENDBRANCH  21  23
ENDBRANCH   1  21
BRANCH   1  45
HETATM   45  C13 UNL     1      41.104  -2.027  16.237  1.00  0.00     0.208 C 
HETATM   46  C14 UNL     1      41.528  -0.963  17.182  1.00  0.00     0.042 C 
BRANCH  45  47
HETATM   47  N7  UNL     1      42.299  -2.770  15.848  1.00  0.00    -0.073 N 
ATOM     48  H73 UNL     1      42.102  -3.392  15.064  1.00  0.00     0.274 HD
ATOM     49  H72 UNL     1      42.982  -2.155  15.406  1.00  0.00     0.274 HD
ATOM     50  H71 UNL     1      42.719  -3.284  16.622  1.00  0.00     0.274 HD
ENDBRANCH  45  47
ENDBRANCH   1  45
TORSDOF 18
ENDMDL
