MODEL 1
REMARK VINA RESULT: -7.178574803      0.000      0.000
REMARK  15 active torsions:
REMARK  status: ('A' for Active; 'I' for Inactive)
REMARK    1  A    between atoms: C2_2  and  C3_3 
REMARK    2  A    between atoms: C2_2  and  N4_18 
REMARK    3  A    between atoms: C3_3  and  O1_4 
REMARK    4  A    between atoms: C3_3  and  C4_6 
REMARK    5  A    between atoms: C4_6  and  N1_7 
REMARK    6  A    between atoms: C6_11  and  S1_12 
REMARK    7  A    between atoms: N4_18  and  O5_19 
REMARK    8  A    between atoms: N4_18  and  C7_21 
REMARK    9  A    between atoms: C7_21  and  C8_22 
REMARK   10  A    between atoms: C7_21  and  C11_36 
REMARK       I    between atoms: C8_22  and  N5_24 
REMARK   11  A    between atoms: N5_24  and  C9_26 
REMARK   12  A    between atoms: C11_36  and  N10_41 
REMARK   13  A    between atoms: N9_37  and  O8_39 
REMARK   14  A    between atoms: N10_41  and  O9_43 
REMARK   15  A    between atoms: O9_43  and  C12_44 
ROOT
HETATM    1  C7  UNL     1      39.351  -5.936  18.432  1.00  0.00     0.271 C 
ENDROOT
BRANCH   1   2
HETATM    2  N4  UNL     1      39.987  -4.859  19.023  1.00  0.00    -0.268 N 
BRANCH   2   3
HETATM    3  C2  UNL     1      41.277  -4.804  19.483  1.00  0.00     0.136 C 
HETATM    4  C1  UNL     1      42.291  -5.841  19.247  1.00  0.00     0.037 C 
BRANCH   3   5
HETATM    5  C3  UNL     1      41.237  -4.565  21.011  1.00  0.00     0.162 C 
BRANCH   5   6
HETATM    6  O1  UNL     1      42.005  -5.533  21.653  1.00  0.00    -0.392 OA
ATOM      7  H1  UNL     1      42.925  -5.308  21.581  1.00  0.00     0.210 HD
ENDBRANCH   5   6
BRANCH   5   8
HETATM    8  C4  UNL     1      41.873  -3.236  21.346  1.00  0.00     0.183 C 
BRANCH   8   9
HETATM    9  N1  UNL     1      40.823  -2.414  21.935  1.00  0.00    -0.283 N 
HETATM   10  C5  UNL     1      40.845  -1.071  22.067  1.00  0.00     0.202 A 
HETATM   11  N2  UNL     1      39.701  -0.666  22.659  1.00  0.00    -0.324 N 
HETATM   12  C6  UNL     1      38.961  -1.749  22.899  1.00  0.00     0.241 A 
ATOM     13  H2  UNL     1      39.448   0.297  22.882  1.00  0.00     0.169 HD
HETATM   14  N3  UNL     1      39.668  -2.798  22.449  1.00  0.00    -0.271 N 
ATOM     15  H3  UNL     1      39.354  -3.768  22.498  1.00  0.00     0.189 HD
BRANCH  12  16
HETATM   16  S1  UNL     1      37.391  -1.719  23.656  1.00  0.00     0.173 S 
HETATM   17  O2  UNL     1      37.187  -0.381  24.345  1.00  0.00    -0.589 OA
HETATM   18  O3  UNL     1      37.375  -2.767  24.743  1.00  0.00    -0.589 OA
HETATM   19  O4  UNL     1      36.176  -1.996  22.552  1.00  0.00    -0.589 OA
ENDBRANCH  12  16
ENDBRANCH   8   9
ENDBRANCH   5   8
ENDBRANCH   3   5
ENDBRANCH   2   3
BRANCH   2  20
HETATM   20  O5  UNL     1      39.150  -3.892  19.496  1.00  0.00    -0.291 OA
ATOM     21  H5  UNL     1      38.316  -3.815  19.048  1.00  0.00     0.244 HD
ENDBRANCH   2  20
ENDBRANCH   1   2
BRANCH   1  22
HETATM   22  C8  UNL     1      38.749  -5.834  17.109  1.00  0.00     0.256 C 
HETATM   23  O6  UNL     1      38.805  -6.726  16.244  1.00  0.00    -0.270 OA
HETATM   24  N5  UNL     1      38.035  -4.640  16.744  1.00  0.00    -0.306 N 
ATOM     25  H5  UNL     1      37.959  -3.878  17.419  1.00  0.00     0.170 HD
BRANCH  24  26
HETATM   26  C9  UNL     1      37.436  -4.500  15.472  1.00  0.00     0.176 A 
HETATM   27  N6  UNL     1      37.057  -5.507  14.653  1.00  0.00    -0.222 N 
HETATM   28  O7  UNL     1      36.539  -5.017  13.562  1.00  0.00    -0.153 OA
ATOM     29  H6  UNL     1      37.161  -6.501  14.859  1.00  0.00     0.198 HD
HETATM   30  N7  UNL     1      36.567  -3.703  13.642  1.00  0.00    -0.222 N 
HETATM   31  C10 UNL     1      37.113  -3.344  14.806  1.00  0.00     0.167 A 
ATOM     32  H7  UNL     1      36.225  -3.060  12.928  1.00  0.00     0.198 HD
HETATM   33  N8  UNL     1      37.289  -2.144  15.193  1.00  0.00    -0.381 N 
ATOM     34  H82 UNL     1      37.707  -1.870  16.082  1.00  0.00     0.157 HD
ATOM     35  H81 UNL     1      37.049  -1.285  14.698  1.00  0.00     0.157 HD
ENDBRANCH  24  26
ENDBRANCH   1  22
BRANCH   1  36
HETATM   36  C11 UNL     1      38.395  -6.638  19.397  1.00  0.00     0.156 C 
HETATM   37  N9  UNL     1      37.427  -7.281  18.861  1.00  0.00    -0.253 N 
ATOM     38  H9  UNL     1      37.318  -7.310  17.848  1.00  0.00     0.195 HD
BRANCH  37  39
HETATM   39  O8  UNL     1      36.538  -7.928  19.678  1.00  0.00    -0.288 OA
ATOM     40  H8  UNL     1      36.509  -8.878  19.657  1.00  0.00     0.244 HD
ENDBRANCH  37  39
BRANCH  36  41
HETATM   41  N10 UNL     1      38.547  -6.578  20.783  1.00  0.00    -0.241 N 
ATOM     42  H10 UNL     1      39.107  -7.260  21.294  1.00  0.00     0.196 HD
BRANCH  41  43
HETATM   43  O9  UNL     1      37.887  -5.533  21.427  1.00  0.00    -0.197 OA
BRANCH  43  44
HETATM   44  C12 UNL     1      36.839  -5.753  22.301  1.00  0.00     0.273 A 
HETATM   45  N11 UNL     1      36.536  -6.888  22.808  1.00  0.00    -0.248 N 
HETATM   46  N12 UNL     1      35.427  -6.742  23.643  1.00  0.00    -0.006 NA
ATOM     47  H11 UNL     1      37.029  -7.763  22.629  1.00  0.00     0.187 HD
HETATM   48  N13 UNL     1      35.038  -5.393  23.677  1.00  0.00    -0.006 NA
HETATM   49  N14 UNL     1      35.942  -4.778  22.774  1.00  0.00    -0.248 N 
ATOM     50  H14 UNL     1      35.942  -3.792  22.510  1.00  0.00     0.187 HD
ENDBRANCH  43  44
ENDBRANCH  41  43
ENDBRANCH  36  41
ENDBRANCH   1  36
TORSDOF 15
ENDMDL
MODEL 2
REMARK VINA RESULT: -6.864133483      3.125      5.685
REMARK  15 active torsions:
REMARK  status: ('A' for Active; 'I' for Inactive)
REMARK    1  A    between atoms: C2_2  and  C3_3 
REMARK    2  A    between atoms: C2_2  and  N4_18 
REMARK    3  A    between atoms: C3_3  and  O1_4 
REMARK    4  A    between atoms: C3_3  and  C4_6 
REMARK    5  A    between atoms: C4_6  and  N1_7 
REMARK    6  A    between atoms: C6_11  and  S1_12 
REMARK    7  A    between atoms: N4_18  and  O5_19 
REMARK    8  A    between atoms: N4_18  and  C7_21 
REMARK    9  A    between atoms: C7_21  and  C8_22 
REMARK   10  A    between atoms: C7_21  and  C11_36 
REMARK       I    between atoms: C8_22  and  N5_24 
REMARK   11  A    between atoms: N5_24  and  C9_26 
REMARK   12  A    between atoms: C11_36  and  N10_41 
REMARK   13  A    between atoms: N9_37  and  O8_39 
REMARK   14  A    between atoms: N10_41  and  O9_43 
REMARK   15  A    between atoms: O9_43  and  C12_44 
ROOT
HETATM    1  C7  UNL     1      38.231  -7.382  15.652  1.00  0.00     0.271 C 
ENDROOT
BRANCH   1   2
HETATM    2  N4  UNL     1      38.847  -7.302  16.887  1.00  0.00    -0.268 N 
BRANCH   2   3
HETATM    3  C2  UNL     1      38.341  -7.701  18.097  1.00  0.00     0.136 C 
HETATM    4  C1  UNL     1      36.928  -8.019  18.346  1.00  0.00     0.037 C 
BRANCH   3   5
HETATM    5  C3  UNL     1      38.753  -6.658  19.163  1.00  0.00     0.162 C 
BRANCH   5   6
HETATM    6  O1  UNL     1      38.212  -5.418  18.833  1.00  0.00    -0.392 OA
ATOM      7  H1  UNL     1      38.187  -4.867  19.607  1.00  0.00     0.210 HD
ENDBRANCH   5   6
BRANCH   5   8
HETATM    8  C4  UNL     1      38.168  -7.027  20.506  1.00  0.00     0.183 C 
BRANCH   8   9
HETATM    9  N1  UNL     1      38.379  -5.878  21.378  1.00  0.00    -0.283 N 
HETATM   10  C5  UNL     1      39.486  -5.626  22.106  1.00  0.00     0.202 A 
HETATM   11  N2  UNL     1      39.314  -4.474  22.789  1.00  0.00    -0.324 N 
HETATM   12  C6  UNL     1      38.103  -4.002  22.492  1.00  0.00     0.241 A 
ATOM     13  H2  UNL     1      39.990  -4.042  23.419  1.00  0.00     0.169 HD
HETATM   14  N3  UNL     1      37.556  -4.876  21.631  1.00  0.00    -0.271 N 
ATOM     15  H3  UNL     1      36.625  -4.779  21.226  1.00  0.00     0.189 HD
BRANCH  12  16
HETATM   16  S1  UNL     1      37.437  -2.527  23.140  1.00  0.00     0.173 S 
HETATM   17  O2  UNL     1      37.453  -2.588  24.657  1.00  0.00    -0.589 OA
HETATM   18  O3  UNL     1      35.985  -2.450  22.730  1.00  0.00    -0.589 OA
HETATM   19  O4  UNL     1      38.273  -1.192  22.602  1.00  0.00    -0.589 OA
ENDBRANCH  12  16
ENDBRANCH   8   9
ENDBRANCH   5   8
ENDBRANCH   3   5
ENDBRANCH   2   3
BRANCH   2  20
HETATM   20  O5  UNL     1      39.901  -6.439  16.944  1.00  0.00    -0.291 OA
ATOM     21  H5  UNL     1      39.721  -5.551  16.658  1.00  0.00     0.244 HD
ENDBRANCH   2  20
ENDBRANCH   1   2
BRANCH   1  22
HETATM   22  C8  UNL     1      38.885  -8.011  14.512  1.00  0.00     0.256 C 
HETATM   23  O6  UNL     1      39.860  -7.528  13.910  1.00  0.00    -0.270 OA
HETATM   24  N5  UNL     1      38.401  -9.274  14.024  1.00  0.00    -0.306 N 
ATOM     25  H5  UNL     1      37.603  -9.714  14.484  1.00  0.00     0.170 HD
BRANCH  24  26
HETATM   26  C9  UNL     1      39.006  -9.919  12.922  1.00  0.00     0.176 A 
HETATM   27  N6  UNL     1      40.311 -10.256  12.813  1.00  0.00    -0.222 N 
HETATM   28  O7  UNL     1      40.522 -10.838  11.665  1.00  0.00    -0.153 OA
ATOM     29  H6  UNL     1      41.024 -10.081  13.522  1.00  0.00     0.198 HD
HETATM   30  N7  UNL     1      39.380 -10.893  11.012  1.00  0.00    -0.222 N 
HETATM   31  C10 UNL     1      38.420 -10.337  11.753  1.00  0.00     0.167 A 
ATOM     32  H7  UNL     1      39.250 -11.298  10.085  1.00  0.00     0.198 HD
HETATM   33  N8  UNL     1      37.199 -10.229  11.409  1.00  0.00    -0.381 N 
ATOM     34  H82 UNL     1      36.466  -9.803  11.976  1.00  0.00     0.157 HD
ATOM     35  H81 UNL     1      36.764 -10.539  10.540  1.00  0.00     0.157 HD
ENDBRANCH  24  26
ENDBRANCH   1  22
BRANCH   1  36
HETATM   36  C11 UNL     1      37.605  -6.051  15.236  1.00  0.00     0.156 C 
HETATM   37  N9  UNL     1      37.360  -5.910  13.987  1.00  0.00    -0.253 N 
ATOM     38  H9  UNL     1      37.578  -6.656  13.326  1.00  0.00     0.195 HD
BRANCH  37  39
HETATM   39  O8  UNL     1      36.800  -4.736  13.557  1.00  0.00    -0.288 OA
ATOM     40  H8  UNL     1      35.859  -4.628  13.628  1.00  0.00     0.244 HD
ENDBRANCH  37  39
BRANCH  36  41
HETATM   41  N10 UNL     1      37.325  -5.033  16.148  1.00  0.00    -0.241 N 
ATOM     42  H10 UNL     1      36.430  -4.974  16.633  1.00  0.00     0.196 HD
BRANCH  41  43
HETATM   43  O9  UNL     1      38.341  -4.102  16.358  1.00  0.00    -0.197 OA
BRANCH  43  44
HETATM   44  C12 UNL     1      38.195  -2.767  16.026  1.00  0.00     0.273 A 
HETATM   45  N11 UNL     1      37.227  -2.286  15.343  1.00  0.00    -0.248 N 
HETATM   46  N12 UNL     1      37.400  -0.909  15.199  1.00  0.00    -0.006 NA
ATOM     47  H11 UNL     1      36.449  -2.825  14.962  1.00  0.00     0.187 HD
HETATM   48  N13 UNL     1      38.559  -0.507  15.885  1.00  0.00    -0.006 NA
HETATM   49  N14 UNL     1      39.076  -1.730  16.381  1.00  0.00    -0.248 N 
ATOM     50  H14 UNL     1      39.943  -1.840  16.907  1.00  0.00     0.187 HD
ENDBRANCH  43  44
ENDBRANCH  41  43
ENDBRANCH  36  41
ENDBRANCH   1  36
TORSDOF 15
ENDMDL
MODEL 3
REMARK VINA RESULT: -6.798138570      3.683      7.746
REMARK  15 active torsions:
REMARK  status: ('A' for Active; 'I' for Inactive)
REMARK    1  A    between atoms: C2_2  and  C3_3 
REMARK    2  A    between atoms: C2_2  and  N4_18 
REMARK    3  A    between atoms: C3_3  and  O1_4 
REMARK    4  A    between atoms: C3_3  and  C4_6 
REMARK    5  A    between atoms: C4_6  and  N1_7 
REMARK    6  A    between atoms: C6_11  and  S1_12 
REMARK    7  A    between atoms: N4_18  and  O5_19 
REMARK    8  A    between atoms: N4_18  and  C7_21 
REMARK    9  A    between atoms: C7_21  and  C8_22 
REMARK   10  A    between atoms: C7_21  and  C11_36 
REMARK       I    between atoms: C8_22  and  N5_24 
REMARK   11  A    between atoms: N5_24  and  C9_26 
REMARK   12  A    between atoms: C11_36  and  N10_41 
REMARK   13  A    between atoms: N9_37  and  O8_39 
REMARK   14  A    between atoms: N10_41  and  O9_43 
REMARK   15  A    between atoms: O9_43  and  C12_44 
ROOT
HETATM    1  C7  UNL     1      38.564  -0.205  22.971  1.00  0.00     0.271 C 
ENDROOT
BRANCH   1   2
HETATM    2  N4  UNL     1      39.882  -0.145  22.556  1.00  0.00    -0.268 N 
BRANCH   2   3
HETATM    3  C2  UNL     1      40.430  -0.721  21.439  1.00  0.00     0.136 C 
HETATM    4  C1  UNL     1      41.606  -1.603  21.448  1.00  0.00     0.037 C 
BRANCH   3   5
HETATM    5  C3  UNL     1      40.725   0.397  20.412  1.00  0.00     0.162 C 
BRANCH   5   6
HETATM    6  O1  UNL     1      41.392   1.444  21.042  1.00  0.00    -0.392 OA
ATOM      7  H1  UNL     1      41.697   2.064  20.390  1.00  0.00     0.210 HD
ENDBRANCH   5   6
BRANCH   5   8
HETATM    8  C4  UNL     1      41.663  -0.113  19.343  1.00  0.00     0.183 C 
BRANCH   8   9
HETATM    9  N1  UNL     1      40.827  -0.532  18.225  1.00  0.00    -0.283 N 
HETATM   10  C5  UNL     1      40.374   0.260  17.231  1.00  0.00     0.202 A 
HETATM   11  N2  UNL     1      39.629  -0.480  16.381  1.00  0.00    -0.324 N 
HETATM   12  C6  UNL     1      39.614  -1.732  16.837  1.00  0.00     0.241 A 
ATOM     13  H2  UNL     1      39.162  -0.140  15.540  1.00  0.00     0.169 HD
HETATM   14  N3  UNL     1      40.350  -1.736  17.960  1.00  0.00    -0.271 N 
ATOM     15  H3  UNL     1      40.520  -2.561  18.535  1.00  0.00     0.189 HD
BRANCH  12  16
HETATM   16  S1  UNL     1      38.776  -3.050  16.063  1.00  0.00     0.173 S 
HETATM   17  O2  UNL     1      38.210  -3.981  17.121  1.00  0.00    -0.589 OA
HETATM   18  O3  UNL     1      39.787  -3.854  15.282  1.00  0.00    -0.589 OA
HETATM   19  O4  UNL     1      37.563  -2.499  15.064  1.00  0.00    -0.589 OA
ENDBRANCH  12  16
ENDBRANCH   8   9
ENDBRANCH   5   8
ENDBRANCH   3   5
ENDBRANCH   2   3
BRANCH   2  20
HETATM   20  O5  UNL     1      40.768   0.226  23.523  1.00  0.00    -0.291 OA
ATOM     21  H5  UNL     1      40.447   0.176  24.416  1.00  0.00     0.244 HD
ENDBRANCH   2  20
ENDBRANCH   1   2
BRANCH   1  22
HETATM   22  C8  UNL     1      37.999   0.800  23.861  1.00  0.00     0.256 C 
HETATM   23  O6  UNL     1      38.377   0.993  25.030  1.00  0.00    -0.270 OA
HETATM   24  N5  UNL     1      36.933   1.644  23.392  1.00  0.00    -0.306 N 
ATOM     25  H5  UNL     1      36.585   1.527  22.440  1.00  0.00     0.170 HD
BRANCH  24  26
HETATM   26  C9  UNL     1      36.356   2.632  24.222  1.00  0.00     0.176 A 
HETATM   27  N6  UNL     1      36.054   2.495  25.533  1.00  0.00    -0.222 N 
HETATM   28  O7  UNL     1      35.537   3.604  25.984  1.00  0.00    -0.153 OA
ATOM     29  H6  UNL     1      36.208   1.652  26.086  1.00  0.00     0.198 HD
HETATM   30  N7  UNL     1      35.491   4.473  24.996  1.00  0.00    -0.222 N 
HETATM   31  C10 UNL     1      35.986   3.912  23.892  1.00  0.00     0.167 A 
ATOM     32  H7  UNL     1      35.132   5.426  25.064  1.00  0.00     0.198 HD
HETATM   33  N8  UNL     1      36.082   4.485  22.759  1.00  0.00    -0.381 N 
ATOM     34  H82 UNL     1      36.461   4.056  21.915  1.00  0.00     0.157 HD
ATOM     35  H81 UNL     1      35.808   5.437  22.514  1.00  0.00     0.157 HD
ENDBRANCH  24  26
ENDBRANCH   1  22
BRANCH   1  36
HETATM   36  C11 UNL     1      38.172  -1.607  23.437  1.00  0.00     0.156 C 
HETATM   37  N9  UNL     1      39.028  -2.216  24.168  1.00  0.00    -0.253 N 
ATOM     38  H9  UNL     1      39.913  -1.773  24.414  1.00  0.00     0.195 HD
BRANCH  37  39
HETATM   39  O8  UNL     1      38.730  -3.477  24.614  1.00  0.00    -0.288 OA
ATOM     40  H8  UNL     1      38.258  -4.065  24.035  1.00  0.00     0.244 HD
ENDBRANCH  37  39
BRANCH  36  41
HETATM   41  N10 UNL     1      36.964  -2.208  23.081  1.00  0.00    -0.241 N 
ATOM     42  H10 UNL     1      36.071  -1.882  23.449  1.00  0.00     0.196 HD
BRANCH  41  43
HETATM   43  O9  UNL     1      37.051  -3.280  22.195  1.00  0.00    -0.197 OA
BRANCH  43  44
HETATM   44  C12 UNL     1      36.760  -4.576  22.579  1.00  0.00     0.273 A 
HETATM   45  N11 UNL     1      37.589  -5.550  22.547  1.00  0.00    -0.248 N 
HETATM   46  N12 UNL     1      36.960  -6.710  23.002  1.00  0.00    -0.006 NA
ATOM     47  H11 UNL     1      38.559  -5.488  22.238  1.00  0.00     0.187 HD
HETATM   48  N13 UNL     1      35.639  -6.411  23.378  1.00  0.00    -0.006 NA
HETATM   49  N14 UNL     1      35.521  -5.034  23.061  1.00  0.00    -0.248 N 
ATOM     50  H14 UNL     1      34.678  -4.470  23.165  1.00  0.00     0.187 HD
ENDBRANCH  43  44
ENDBRANCH  41  43
ENDBRANCH  36  41
ENDBRANCH   1  36
TORSDOF 15
ENDMDL
MODEL 4
REMARK VINA RESULT: -6.765459935      3.133      5.968
REMARK  15 active torsions:
REMARK  status: ('A' for Active; 'I' for Inactive)
REMARK    1  A    between atoms: C2_2  and  C3_3 
REMARK    2  A    between atoms: C2_2  and  N4_18 
REMARK    3  A    between atoms: C3_3  and  O1_4 
REMARK    4  A    between atoms: C3_3  and  C4_6 
REMARK    5  A    between atoms: C4_6  and  N1_7 
REMARK    6  A    between atoms: C6_11  and  S1_12 
REMARK    7  A    between atoms: N4_18  and  O5_19 
REMARK    8  A    between atoms: N4_18  and  C7_21 
REMARK    9  A    between atoms: C7_21  and  C8_22 
REMARK   10  A    between atoms: C7_21  and  C11_36 
REMARK       I    between atoms: C8_22  and  N5_24 
REMARK   11  A    between atoms: N5_24  and  C9_26 
REMARK   12  A    between atoms: C11_36  and  N10_41 
REMARK   13  A    between atoms: N9_37  and  O8_39 
REMARK   14  A    between atoms: N10_41  and  O9_43 
REMARK   15  A    between atoms: O9_43  and  C12_44 
ROOT
HETATM    1  C7  UNL     1      39.170  -6.779  15.373  1.00  0.00     0.271 C 
ENDROOT
BRANCH   1   2
HETATM    2  N4  UNL     1      38.400  -7.440  16.313  1.00  0.00    -0.268 N 
BRANCH   2   3
HETATM    3  C2  UNL     1      38.792  -7.877  17.552  1.00  0.00     0.136 C 
HETATM    4  C1  UNL     1      38.519  -9.218  18.087  1.00  0.00     0.037 C 
BRANCH   3   5
HETATM    5  C3  UNL     1      38.281  -6.869  18.607  1.00  0.00     0.162 C 
BRANCH   5   6
HETATM    6  O1  UNL     1      36.891  -6.922  18.667  1.00  0.00    -0.392 OA
ATOM      7  H1  UNL     1      36.529  -6.743  17.807  1.00  0.00     0.210 HD
ENDBRANCH   5   6
BRANCH   5   8
HETATM    8  C4  UNL     1      38.775  -7.258  19.981  1.00  0.00     0.183 C 
BRANCH   8   9
HETATM    9  N1  UNL     1      38.613  -6.081  20.826  1.00  0.00    -0.283 N 
HETATM   10  C5  UNL     1      39.589  -5.226  21.194  1.00  0.00     0.202 A 
HETATM   11  N2  UNL     1      39.060  -4.262  21.978  1.00  0.00    -0.324 N 
HETATM   12  C6  UNL     1      37.756  -4.510  22.104  1.00  0.00     0.241 A 
ATOM     13  H2  UNL     1      39.568  -3.484  22.399  1.00  0.00     0.169 HD
HETATM   14  N3  UNL     1      37.511  -5.622  21.393  1.00  0.00    -0.271 N 
ATOM     15  H3  UNL     1      36.593  -6.057  21.302  1.00  0.00     0.189 HD
BRANCH  12  16
HETATM   16  S1  UNL     1      36.654  -3.527  23.031  1.00  0.00     0.173 S 
HETATM   17  O2  UNL     1      36.355  -2.247  22.271  1.00  0.00    -0.589 OA
HETATM   18  O3  UNL     1      37.353  -3.115  24.304  1.00  0.00    -0.589 OA
HETATM   19  O4  UNL     1      35.245  -4.346  23.371  1.00  0.00    -0.589 OA
ENDBRANCH  12  16
ENDBRANCH   8   9
ENDBRANCH   5   8
ENDBRANCH   3   5
ENDBRANCH   2   3
BRANCH   2  20
HETATM   20  O5  UNL     1      37.260  -8.005  15.821  1.00  0.00    -0.291 OA
ATOM     21  H5  UNL     1      36.462  -7.509  15.961  1.00  0.00     0.244 HD
ENDBRANCH   2  20
ENDBRANCH   1   2
BRANCH   1  22
HETATM   22  C8  UNL     1      39.088  -5.335  15.200  1.00  0.00     0.256 C 
HETATM   23  O6  UNL     1      39.986  -4.638  14.696  1.00  0.00    -0.270 OA
HETATM   24  N5  UNL     1      37.907  -4.634  15.627  1.00  0.00    -0.306 N 
ATOM     25  H5  UNL     1      37.139  -5.160  16.047  1.00  0.00     0.170 HD
BRANCH  24  26
HETATM   26  C9  UNL     1      37.786  -3.234  15.478  1.00  0.00     0.176 A 
HETATM   27  N6  UNL     1      38.411  -2.296  16.224  1.00  0.00    -0.222 N 
HETATM   28  O7  UNL     1      38.071  -1.106  15.810  1.00  0.00    -0.153 OA
ATOM     29  H6  UNL     1      39.051  -2.489  16.994  1.00  0.00     0.198 HD
HETATM   30  N7  UNL     1      37.232  -1.240  14.804  1.00  0.00    -0.222 N 
HETATM   31  C10 UNL     1      37.030  -2.537  14.568  1.00  0.00     0.167 A 
ATOM     32  H7  UNL     1      36.805  -0.472  14.287  1.00  0.00     0.198 HD
HETATM   33  N8  UNL     1      36.271  -3.006  13.660  1.00  0.00    -0.381 N 
ATOM     34  H82 UNL     1      36.116  -3.998  13.480  1.00  0.00     0.157 HD
ATOM     35  H81 UNL     1      35.709  -2.488  12.984  1.00  0.00     0.157 HD
ENDBRANCH  24  26
ENDBRANCH   1  22
BRANCH   1  36
HETATM   36  C11 UNL     1      39.143  -7.478  14.014  1.00  0.00     0.156 C 
HETATM   37  N9  UNL     1      38.464  -6.899  13.096  1.00  0.00    -0.253 N 
ATOM     38  H9  UNL     1      37.978  -6.021  13.283  1.00  0.00     0.195 HD
BRANCH  37  39
HETATM   39  O8  UNL     1      38.404  -7.481  11.859  1.00  0.00    -0.288 OA
ATOM     40  H8  UNL     1      38.873  -7.074  11.140  1.00  0.00     0.244 HD
ENDBRANCH  37  39
BRANCH  36  41
HETATM   41  N10 UNL     1      39.800  -8.686  13.776  1.00  0.00    -0.241 N 
ATOM     42  H10 UNL     1      40.662  -8.733  13.233  1.00  0.00     0.196 HD
BRANCH  41  43
HETATM   43  O9  UNL     1      39.209  -9.823  14.323  1.00  0.00    -0.197 OA
BRANCH  43  44
HETATM   44  C12 UNL     1      38.316 -10.602  13.611  1.00  0.00     0.273 A 
HETATM   45  N11 UNL     1      37.938 -10.369  12.412  1.00  0.00    -0.248 N 
HETATM   46  N12 UNL     1      37.035 -11.355  12.010  1.00  0.00    -0.006 NA
ATOM     47  H11 UNL     1      38.249  -9.586  11.838  1.00  0.00     0.187 HD
HETATM   48  N13 UNL     1      36.873 -12.293  13.044  1.00  0.00    -0.006 NA
HETATM   49  N14 UNL     1      37.682 -11.766  14.082  1.00  0.00    -0.248 N 
ATOM     50  H14 UNL     1      37.786 -12.165  15.015  1.00  0.00     0.187 HD
ENDBRANCH  43  44
ENDBRANCH  41  43
ENDBRANCH  36  41
ENDBRANCH   1  36
TORSDOF 15
ENDMDL
MODEL 5
REMARK VINA RESULT: -6.732986517      1.528      2.221
REMARK  15 active torsions:
REMARK  status: ('A' for Active; 'I' for Inactive)
REMARK    1  A    between atoms: C2_2  and  C3_3 
REMARK    2  A    between atoms: C2_2  and  N4_18 
REMARK    3  A    between atoms: C3_3  and  O1_4 
REMARK    4  A    between atoms: C3_3  and  C4_6 
REMARK    5  A    between atoms: C4_6  and  N1_7 
REMARK    6  A    between atoms: C6_11  and  S1_12 
REMARK    7  A    between atoms: N4_18  and  O5_19 
REMARK    8  A    between atoms: N4_18  and  C7_21 
REMARK    9  A    between atoms: C7_21  and  C8_22 
REMARK   10  A    between atoms: C7_21  and  C11_36 
REMARK       I    between atoms: C8_22  and  N5_24 
REMARK   11  A    between atoms: N5_24  and  C9_26 
REMARK   12  A    between atoms: C11_36  and  N10_41 
REMARK   13  A    between atoms: N9_37  and  O8_39 
REMARK   14  A    between atoms: N10_41  and  O9_43 
REMARK   15  A    between atoms: O9_43  and  C12_44 
ROOT
HETATM    1  C7  UNL     1      38.923  -7.488  17.835  1.00  0.00     0.271 C 
ENDROOT
BRANCH   1   2
HETATM    2  N4  UNL     1      39.672  -6.768  18.748  1.00  0.00    -0.268 N 
BRANCH   2   3
HETATM    3  C2  UNL     1      40.588  -5.783  18.482  1.00  0.00     0.136 C 
HETATM    4  C1  UNL     1      42.011  -5.848  18.843  1.00  0.00     0.037 C 
BRANCH   3   5
HETATM    5  C3  UNL     1      40.048  -4.451  19.053  1.00  0.00     0.162 C 
BRANCH   5   6
HETATM    6  O1  UNL     1      38.831  -4.677  19.689  1.00  0.00    -0.392 OA
ATOM      7  H1  UNL     1      38.324  -3.874  19.699  1.00  0.00     0.210 HD
ENDBRANCH   5   6
BRANCH   5   8
HETATM    8  C4  UNL     1      40.984  -3.923  20.114  1.00  0.00     0.183 C 
BRANCH   8   9
HETATM    9  N1  UNL     1      40.189  -3.769  21.326  1.00  0.00    -0.283 N 
HETATM   10  C5  UNL     1      40.160  -4.622  22.371  1.00  0.00     0.202 A 
HETATM   11  N2  UNL     1      39.307  -4.148  23.305  1.00  0.00    -0.324 N 
HETATM   12  C6  UNL     1      38.801  -3.001  22.850  1.00  0.00     0.241 A 
ATOM     13  H2  UNL     1      39.089  -4.589  24.199  1.00  0.00     0.169 HD
HETATM   14  N3  UNL     1      39.355  -2.795  21.645  1.00  0.00    -0.271 N 
ATOM     15  H3  UNL     1      39.157  -1.990  21.050  1.00  0.00     0.189 HD
BRANCH  12  16
HETATM   16  S1  UNL     1      37.649  -2.023  23.718  1.00  0.00     0.173 S 
HETATM   17  O2  UNL     1      37.185  -2.767  24.958  1.00  0.00    -0.589 OA
HETATM   18  O3  UNL     1      36.431  -1.847  22.843  1.00  0.00    -0.589 OA
HETATM   19  O4  UNL     1      38.294  -0.545  24.134  1.00  0.00    -0.589 OA
ENDBRANCH  12  16
ENDBRANCH   8   9
ENDBRANCH   5   8
ENDBRANCH   3   5
ENDBRANCH   2   3
BRANCH   2  20
HETATM   20  O5  UNL     1      39.755  -7.331  19.988  1.00  0.00    -0.291 OA
ATOM     21  H5  UNL     1      39.841  -8.277  20.005  1.00  0.00     0.244 HD
ENDBRANCH   2  20
ENDBRANCH   1   2
BRANCH   1  22
HETATM   22  C8  UNL     1      38.052  -6.826  16.873  1.00  0.00     0.256 C 
HETATM   23  O6  UNL     1      36.831  -7.039  16.771  1.00  0.00    -0.270 OA
HETATM   24  N5  UNL     1      38.605  -5.856  15.966  1.00  0.00    -0.306 N 
ATOM     25  H5  UNL     1      39.602  -5.644  16.009  1.00  0.00     0.170 HD
BRANCH  24  26
HETATM   26  C9  UNL     1      37.797  -5.190  15.017  1.00  0.00     0.176 A 
HETATM   27  N6  UNL     1      37.168  -5.760  13.965  1.00  0.00    -0.222 N 
HETATM   28  O7  UNL     1      36.510  -4.852  13.300  1.00  0.00    -0.153 OA
ATOM     29  H6  UNL     1      37.205  -6.751  13.726  1.00  0.00     0.198 HD
HETATM   30  N7  UNL     1      36.690  -3.690  13.893  1.00  0.00    -0.222 N 
HETATM   31  C10 UNL     1      37.479  -3.856  14.957  1.00  0.00     0.167 A 
ATOM     32  H7  UNL     1      36.290  -2.803  13.588  1.00  0.00     0.198 HD
HETATM   33  N8  UNL     1      37.848  -2.928  15.745  1.00  0.00    -0.381 N 
ATOM     34  H82 UNL     1      38.451  -3.055  16.558  1.00  0.00     0.157 HD
ATOM     35  H81 UNL     1      37.612  -1.936  15.701  1.00  0.00     0.157 HD
ENDBRANCH  24  26
ENDBRANCH   1  22
BRANCH   1  36
HETATM   36  C11 UNL     1      38.195  -8.662  18.489  1.00  0.00     0.156 C 
HETATM   37  N9  UNL     1      38.704  -9.820  18.293  1.00  0.00    -0.253 N 
ATOM     38  H9  UNL     1      39.548  -9.929  17.730  1.00  0.00     0.195 HD
BRANCH  37  39
HETATM   39  O8  UNL     1      38.092 -10.909  18.854  1.00  0.00    -0.288 OA
ATOM     40  H8  UNL     1      38.191 -11.056  19.788  1.00  0.00     0.244 HD
ENDBRANCH  37  39
BRANCH  36  41
HETATM   41  N10 UNL     1      37.033  -8.500  19.245  1.00  0.00    -0.241 N 
ATOM     42  H10 UNL     1      36.168  -8.146  18.837  1.00  0.00     0.196 HD
BRANCH  41  43
HETATM   43  O9  UNL     1      37.124  -8.852  20.590  1.00  0.00    -0.197 OA
BRANCH  43  44
HETATM   44  C12 UNL     1      36.839  -7.957  21.605  1.00  0.00     0.273 A 
HETATM   45  N11 UNL     1      37.524  -6.909  21.868  1.00  0.00    -0.248 N 
HETATM   46  N12 UNL     1      36.953  -6.241  22.952  1.00  0.00    -0.006 NA
ATOM     47  H11 UNL     1      38.357  -6.608  21.363  1.00  0.00     0.187 HD
HETATM   48  N13 UNL     1      35.796  -6.923  23.368  1.00  0.00    -0.006 NA
HETATM   49  N14 UNL     1      35.763  -8.049  22.507  1.00  0.00    -0.248 N 
ATOM     50  H14 UNL     1      35.074  -8.800  22.536  1.00  0.00     0.187 HD
ENDBRANCH  43  44
ENDBRANCH  41  43
ENDBRANCH  36  41
ENDBRANCH   1  36
TORSDOF 15
ENDMDL
