MODEL 1
REMARK VINA RESULT: -7.080795086      0.000      0.000
REMARK  12 active torsions:
REMARK  status: ('A' for Active; 'I' for Inactive)
REMARK    1  A    between atoms: N1_2  and  N2_3 
REMARK    2  A    between atoms: N1_2  and  S1_45 
REMARK    3  A    between atoms: C2_8  and  C3_9 
REMARK    4  A    between atoms: C3_9  and  O1_10 
REMARK    5  A    between atoms: C3_9  and  N5_12 
REMARK    6  A    between atoms: N5_12  and  C4_14 
REMARK    7  A    between atoms: C9_21  and  O4_22 
REMARK    8  A    between atoms: O4_22  and  C10_23 
REMARK    9  A    between atoms: C11_26  and  N7_27 
REMARK   10  A    between atoms: N8_30  and  O5_31 
REMARK   11  A    between atoms: C13_41  and  C14_42 
REMARK   12  A    between atoms: C14_42  and  O6_43 
ROOT
HETATM    1  C4  UNL     1      38.411  -9.103  17.897  1.00  0.00     0.070 A 
HETATM    2  C5  UNL     1      37.896 -10.302  18.399  1.00  0.00     0.176 A 
HETATM    3  O2  UNL     1      37.566 -11.292  17.615  1.00  0.00    -0.284 OA
HETATM    4  C6  UNL     1      37.696 -11.226  16.315  1.00  0.00     0.315 A 
HETATM    5  O3  UNL     1      37.384 -12.164  15.540  1.00  0.00    -0.257 OA
HETATM    6  C7  UNL     1      38.204 -10.058  15.751  1.00  0.00     0.118 A 
HETATM    7  C8  UNL     1      38.565  -8.987  16.551  1.00  0.00     0.059 A 
HETATM    8  C9  UNL     1      39.091  -7.811  15.841  1.00  0.00     0.370 C 
HETATM    9  N10 UNL     1      40.044  -8.277  14.840  1.00  0.00    -0.028 N 
ATOM     10 1H10 UNL     1      40.835  -8.748  15.280  1.00  0.00     0.282 HD
ATOM     11 2H10 UNL     1      40.536  -7.494  14.410  1.00  0.00     0.282 HD
HETATM   12  C12 UNL     1      39.437  -9.111  13.846  1.00  0.00     0.358 C 
HETATM   13  N11 UNL     1      38.358  -9.918  14.354  1.00  0.00    -0.361 N 
ATOM     14  H11 UNL     1      37.714 -10.381  13.714  1.00  0.00     0.161 HD
ENDROOT
BRANCH   1  15
HETATM   15  N5  UNL     1      38.772  -8.035  18.749  1.00  0.00    -0.333 N 
ATOM     16  H5  UNL     1      39.659  -8.123  19.244  1.00  0.00     0.168 HD
BRANCH  15  17
HETATM   17  C3  UNL     1      38.028  -6.862  18.983  1.00  0.00     0.171 C 
BRANCH  17  18
HETATM   18  C2  UNL     1      37.993  -6.193  20.251  1.00  0.00     0.129 A 
HETATM   19  N4  UNL     1      37.182  -6.688  21.256  1.00  0.00    -0.279 N 
HETATM   20  N3  UNL     1      37.311  -5.946  22.298  1.00  0.00    -0.220 N 
ATOM     21  H4  UNL     1      36.580  -7.508  21.183  1.00  0.00     0.189 HD
HETATM   22  N2  UNL     1      38.183  -4.950  22.055  1.00  0.00    -0.169 N 
ATOM     23  H3  UNL     1      36.822  -6.090  23.182  1.00  0.00     0.210 HD
HETATM   24  C13 UNL     1      38.609  -5.097  20.786  1.00  0.00     0.110 A 
BRANCH  22  25
HETATM   25  N1  UNL     1      38.537  -3.964  22.990  1.00  0.00    -0.181 N 
HETATM   26  C1  UNL     1      39.809  -3.949  23.677  1.00  0.00     0.196 C 
BRANCH  25  27
HETATM   27  S1  UNL     1      37.410  -2.698  23.284  1.00  0.00     0.227 S 
HETATM   28  O7  UNL     1      36.024  -3.182  22.872  1.00  0.00    -0.577 OA
HETATM   29  O8  UNL     1      37.324  -2.514  24.786  1.00  0.00    -0.577 OA
HETATM   30  O9  UNL     1      37.781  -1.265  22.546  1.00  0.00    -0.577 OA
ENDBRANCH  25  27
ENDBRANCH  22  25
BRANCH  24  31
HETATM   31  C14 UNL     1      39.557  -4.237  20.075  1.00  0.00     0.227 C 
BRANCH  31  32
HETATM   32  O6  UNL     1      39.120  -3.861  18.783  1.00  0.00    -0.395 OA
ATOM     33  H6  UNL     1      39.815  -3.851  18.135  1.00  0.00     0.209 HD
ENDBRANCH  31  32
ENDBRANCH  24  31
ENDBRANCH  17  18
BRANCH  17  34
HETATM   34  O1  UNL     1      36.720  -6.891  18.404  1.00  0.00    -0.344 OA
ATOM     35  H1  UNL     1      36.173  -6.222  18.797  1.00  0.00     0.219 HD
ENDBRANCH  17  34
ENDBRANCH  15  17
ENDBRANCH   1  15
BRANCH   8  36
HETATM   36  O4  UNL     1      37.994  -7.277  15.080  1.00  0.00    -0.281 OA
BRANCH  36  37
HETATM   37  C10 UNL     1      37.773  -5.905  15.017  1.00  0.00     0.257 A 
HETATM   38  N6  UNL     1      37.200  -5.269  13.977  1.00  0.00    -0.150 N 
HETATM   39  C11 UNL     1      37.156  -3.966  14.276  1.00  0.00     0.721 A 
ATOM     40  H6  UNL     1      36.860  -5.702  13.119  1.00  0.00     0.188 HD
HETATM   41  N8  UNL     1      37.693  -3.772  15.490  1.00  0.00     0.019 N 
HETATM   42  N9  UNL     1      38.061  -4.963  15.922  1.00  0.00    -0.223 N 
ATOM     43  H9  UNL     1      38.504  -5.141  16.823  1.00  0.00     0.193 HD
BRANCH  39  44
HETATM   44  N7  UNL     1      36.680  -2.992  13.545  1.00  0.00    -0.231 N 
ATOM     45  H72 UNL     1      35.701  -2.708  13.569  1.00  0.00     0.174 HD
ATOM     46  H71 UNL     1      37.185  -2.405  12.881  1.00  0.00     0.174 HD
ENDBRANCH  39  44
BRANCH  41  47
HETATM   47  O5  UNL     1      37.814  -2.551  16.124  1.00  0.00    -0.254 OA
ATOM     48  H5  UNL     1      38.589  -2.002  16.116  1.00  0.00     0.247 HD
ENDBRANCH  41  47
ENDBRANCH  36  37
ENDBRANCH   8  36
TORSDOF 12
ENDMDL
MODEL 2
REMARK VINA RESULT: -6.909093414      2.623      3.934
REMARK  12 active torsions:
REMARK  status: ('A' for Active; 'I' for Inactive)
REMARK    1  A    between atoms: N1_2  and  N2_3 
REMARK    2  A    between atoms: N1_2  and  S1_45 
REMARK    3  A    between atoms: C2_8  and  C3_9 
REMARK    4  A    between atoms: C3_9  and  O1_10 
REMARK    5  A    between atoms: C3_9  and  N5_12 
REMARK    6  A    between atoms: N5_12  and  C4_14 
REMARK    7  A    between atoms: C9_21  and  O4_22 
REMARK    8  A    between atoms: O4_22  and  C10_23 
REMARK    9  A    between atoms: C11_26  and  N7_27 
REMARK   10  A    between atoms: N8_30  and  O5_31 
REMARK   11  A    between atoms: C13_41  and  C14_42 
REMARK   12  A    between atoms: C14_42  and  O6_43 
ROOT
HETATM    1  C4  UNL     1      39.470  -6.720  20.321  1.00  0.00     0.070 A 
HETATM    2  C5  UNL     1      39.349  -7.041  21.676  1.00  0.00     0.176 A 
HETATM    3  O2  UNL     1      38.373  -7.782  22.125  1.00  0.00    -0.284 OA
HETATM    4  C6  UNL     1      37.449  -8.270  21.338  1.00  0.00     0.315 A 
HETATM    5  O3  UNL     1      36.499  -8.985  21.745  1.00  0.00    -0.257 OA
HETATM    6  C7  UNL     1      37.512  -7.987  19.975  1.00  0.00     0.118 A 
HETATM    7  C8  UNL     1      38.533  -7.205  19.463  1.00  0.00     0.059 A 
HETATM    8  C9  UNL     1      38.494  -6.979  18.010  1.00  0.00     0.370 C 
HETATM    9  N10 UNL     1      38.210  -8.254  17.362  1.00  0.00    -0.028 N 
ATOM     10 1H10 UNL     1      38.951  -8.931  17.546  1.00  0.00     0.282 HD
ATOM     11 2H10 UNL     1      38.303  -8.179  16.349  1.00  0.00     0.282 HD
HETATM   12  C12 UNL     1      36.929  -8.783  17.723  1.00  0.00     0.358 C 
HETATM   13  N11 UNL     1      36.539  -8.473  19.073  1.00  0.00    -0.361 N 
ATOM     14  H11 UNL     1      35.573  -8.602  19.375  1.00  0.00     0.161 HD
ENDROOT
BRANCH   1  15
HETATM   15  N5  UNL     1      40.531  -5.922  19.838  1.00  0.00    -0.333 N 
ATOM     16  H5  UNL     1      40.774  -6.028  18.854  1.00  0.00     0.168 HD
BRANCH  15  17
HETATM   17  C3  UNL     1      41.286  -4.994  20.582  1.00  0.00     0.171 C 
BRANCH  17  18
HETATM   18  C2  UNL     1      40.726  -3.810  21.165  1.00  0.00     0.129 A 
HETATM   19  N4  UNL     1      40.420  -2.733  20.353  1.00  0.00    -0.279 N 
HETATM   20  N3  UNL     1      39.925  -1.793  21.078  1.00  0.00    -0.220 N 
ATOM     21  H4  UNL     1      40.563  -2.692  19.344  1.00  0.00     0.189 HD
HETATM   22  N2  UNL     1      39.875  -2.176  22.366  1.00  0.00    -0.169 N 
ATOM     23  H3  UNL     1      39.616  -0.887  20.726  1.00  0.00     0.210 HD
HETATM   24  C13 UNL     1      40.371  -3.427  22.429  1.00  0.00     0.110 A 
BRANCH  22  25
HETATM   25  N1  UNL     1      39.392  -1.373  23.412  1.00  0.00    -0.181 N 
HETATM   26  C1  UNL     1      40.222  -0.430  24.129  1.00  0.00     0.196 C 
BRANCH  25  27
HETATM   27  S1  UNL     1      37.724  -1.496  23.812  1.00  0.00     0.227 S 
HETATM   28  O7  UNL     1      37.281  -0.178  24.437  1.00  0.00    -0.577 OA
HETATM   29  O8  UNL     1      36.956  -1.583  22.508  1.00  0.00    -0.577 OA
HETATM   30  O9  UNL     1      37.348  -2.773  24.792  1.00  0.00    -0.577 OA
ENDBRANCH  25  27
ENDBRANCH  22  25
BRANCH  24  31
HETATM   31  C14 UNL     1      40.528  -4.249  23.630  1.00  0.00     0.227 C 
BRANCH  31  32
HETATM   32  O6  UNL     1      39.299  -4.697  24.171  1.00  0.00    -0.395 OA
ATOM     33  H6  UNL     1      39.397  -5.402  24.801  1.00  0.00     0.209 HD
ENDBRANCH  31  32
ENDBRANCH  24  31
ENDBRANCH  17  18
BRANCH  17  34
HETATM   34  O1  UNL     1      42.561  -4.701  20.001  1.00  0.00    -0.344 OA
ATOM     35  H1  UNL     1      42.653  -5.151  19.169  1.00  0.00     0.219 HD
ENDBRANCH  17  34
ENDBRANCH  15  17
ENDBRANCH   1  15
BRANCH   8  36
HETATM   36  O4  UNL     1      37.328  -6.174  17.760  1.00  0.00    -0.281 OA
BRANCH  36  37
HETATM   37  C10 UNL     1      37.161  -5.523  16.542  1.00  0.00     0.257 A 
HETATM   38  N6  UNL     1      37.344  -4.203  16.349  1.00  0.00    -0.150 N 
HETATM   39  C11 UNL     1      37.093  -3.946  15.060  1.00  0.00     0.721 A 
ATOM     40  H6  UNL     1      37.622  -3.523  17.056  1.00  0.00     0.188 HD
HETATM   41  N8  UNL     1      36.756  -5.085  14.438  1.00  0.00     0.019 N 
HETATM   42  N9  UNL     1      36.804  -6.031  15.357  1.00  0.00    -0.223 N 
ATOM     43  H9  UNL     1      36.597  -7.015  15.186  1.00  0.00     0.193 HD
BRANCH  39  44
HETATM   44  N7  UNL     1      37.152  -2.792  14.448  1.00  0.00    -0.231 N 
ATOM     45  H72 UNL     1      38.012  -2.251  14.365  1.00  0.00     0.174 HD
ATOM     46  H71 UNL     1      36.392  -2.289  13.989  1.00  0.00     0.174 HD
ENDBRANCH  39  44
BRANCH  41  47
HETATM   47  O5  UNL     1      36.434  -5.200  13.100  1.00  0.00    -0.254 OA
ATOM     48  H5  UNL     1      35.982  -5.937  12.705  1.00  0.00     0.247 HD
ENDBRANCH  41  47
ENDBRANCH  36  37
ENDBRANCH   8  36
TORSDOF 12
ENDMDL
MODEL 3
REMARK VINA RESULT: -6.844087849      1.062      1.580
REMARK  12 active torsions:
REMARK  status: ('A' for Active; 'I' for Inactive)
REMARK    1  A    between atoms: N1_2  and  N2_3 
REMARK    2  A    between atoms: N1_2  and  S1_45 
REMARK    3  A    between atoms: C2_8  and  C3_9 
REMARK    4  A    between atoms: C3_9  and  O1_10 
REMARK    5  A    between atoms: C3_9  and  N5_12 
REMARK    6  A    between atoms: N5_12  and  C4_14 
REMARK    7  A    between atoms: C9_21  and  O4_22 
REMARK    8  A    between atoms: O4_22  and  C10_23 
REMARK    9  A    between atoms: C11_26  and  N7_27 
REMARK   10  A    between atoms: N8_30  and  O5_31 
REMARK   11  A    between atoms: C13_41  and  C14_42 
REMARK   12  A    between atoms: C14_42  and  O6_43 
ROOT
HETATM    1  C4  UNL     1      38.591  -8.759  18.220  1.00  0.00     0.070 A 
HETATM    2  C5  UNL     1      38.136  -9.938  18.819  1.00  0.00     0.176 A 
HETATM    3  O2  UNL     1      37.753 -10.967  18.114  1.00  0.00    -0.284 OA
HETATM    4  C6  UNL     1      37.771 -10.961  16.806  1.00  0.00     0.315 A 
HETATM    5  O3  UNL     1      37.407 -11.938  16.105  1.00  0.00    -0.257 OA
HETATM    6  C7  UNL     1      38.214  -9.816  16.147  1.00  0.00     0.118 A 
HETATM    7  C8  UNL     1      38.628  -8.706  16.862  1.00  0.00     0.059 A 
HETATM    8  C9  UNL     1      39.076  -7.560  16.056  1.00  0.00     0.370 C 
HETATM    9  N10 UNL     1      39.945  -8.064  14.999  1.00  0.00    -0.028 N 
ATOM     10 1H10 UNL     1      40.778  -8.506  15.390  1.00  0.00     0.282 HD
ATOM     11 2H10 UNL     1      40.388  -7.298  14.493  1.00  0.00     0.282 HD
HETATM   12  C12 UNL     1      39.267  -8.949  14.101  1.00  0.00     0.358 C 
HETATM   13  N11 UNL     1      38.246  -9.741  14.736  1.00  0.00    -0.361 N 
ATOM     14  H11 UNL     1      37.556 -10.241  14.176  1.00  0.00     0.161 HD
ENDROOT
BRANCH   1  15
HETATM   15  N5  UNL     1      39.009  -7.649  18.987  1.00  0.00    -0.333 N 
ATOM     16  H5  UNL     1      39.896  -7.740  19.480  1.00  0.00     0.168 HD
BRANCH  15  17
HETATM   17  C3  UNL     1      38.321  -6.429  19.139  1.00  0.00     0.171 C 
BRANCH  17  18
HETATM   18  C2  UNL     1      38.640  -5.467  20.154  1.00  0.00     0.129 A 
HETATM   19  N4  UNL     1      39.454  -4.394  19.839  1.00  0.00    -0.279 N 
HETATM   20  N3  UNL     1      39.600  -3.661  20.886  1.00  0.00    -0.220 N 
ATOM     21  H4  UNL     1      39.870  -4.213  18.925  1.00  0.00     0.189 HD
HETATM   22  N2  UNL     1      38.917  -4.186  21.919  1.00  0.00    -0.169 N 
ATOM     23  H3  UNL     1      40.154  -2.806  20.927  1.00  0.00     0.210 HD
HETATM   24  C13 UNL     1      38.320  -5.308  21.473  1.00  0.00     0.110 A 
BRANCH  22  25
HETATM   25  N1  UNL     1      38.880  -3.626  23.207  1.00  0.00    -0.181 N 
HETATM   26  C1  UNL     1      39.841  -3.953  24.237  1.00  0.00     0.196 C 
BRANCH  25  27
HETATM   27  S1  UNL     1      37.654  -2.467  23.540  1.00  0.00     0.227 S 
HETATM   28  O7  UNL     1      37.249  -2.602  25.004  1.00  0.00    -0.577 OA
HETATM   29  O8  UNL     1      38.294  -1.096  23.442  1.00  0.00    -0.577 OA
HETATM   30  O9  UNL     1      36.334  -2.561  22.549  1.00  0.00    -0.577 OA
ENDBRANCH  25  27
ENDBRANCH  22  25
BRANCH  24  31
HETATM   31  C14 UNL     1      37.480  -6.222  22.250  1.00  0.00     0.227 C 
BRANCH  31  32
HETATM   32  O6  UNL     1      36.276  -5.634  22.703  1.00  0.00    -0.395 OA
ATOM     33  H6  UNL     1      35.567  -6.258  22.811  1.00  0.00     0.209 HD
ENDBRANCH  31  32
ENDBRANCH  24  31
ENDBRANCH  17  18
BRANCH  17  34
HETATM   34  O1  UNL     1      36.902  -6.554  19.007  1.00  0.00    -0.344 OA
ATOM     35  H1  UNL     1      36.618  -6.198  18.174  1.00  0.00     0.219 HD
ENDBRANCH  17  34
ENDBRANCH  15  17
ENDBRANCH   1  15
BRANCH   8  36
HETATM   36  O4  UNL     1      37.910  -7.073  15.368  1.00  0.00    -0.281 OA
BRANCH  36  37
HETATM   37  C10 UNL     1      37.744  -5.714  15.124  1.00  0.00     0.257 A 
HETATM   38  N6  UNL     1      37.079  -5.200  14.071  1.00  0.00    -0.150 N 
HETATM   39  C11 UNL     1      37.130  -3.867  14.173  1.00  0.00     0.721 A 
ATOM     40  H6  UNL     1      36.621  -5.731  13.331  1.00  0.00     0.188 HD
HETATM   41  N8  UNL     1      37.817  -3.533  15.276  1.00  0.00     0.019 N 
HETATM   42  N9  UNL     1      38.180  -4.670  15.838  1.00  0.00    -0.223 N 
ATOM     43  H9  UNL     1      38.720  -4.743  16.700  1.00  0.00     0.193 HD
BRANCH  39  44
HETATM   44  N7  UNL     1      36.613  -2.982  13.362  1.00  0.00    -0.231 N 
ATOM     45  H72 UNL     1      36.747  -3.010  12.352  1.00  0.00     0.174 HD
ATOM     46  H71 UNL     1      36.033  -2.178  13.602  1.00  0.00     0.174 HD
ENDBRANCH  39  44
BRANCH  41  47
HETATM   47  O5  UNL     1      38.067  -2.244  15.701  1.00  0.00    -0.254 OA
ATOM     48  H5  UNL     1      38.891  -1.781  15.599  1.00  0.00     0.247 HD
ENDBRANCH  41  47
ENDBRANCH  36  37
ENDBRANCH   8  36
TORSDOF 12
ENDMDL
MODEL 4
REMARK VINA RESULT: -6.802761057      6.965     10.028
REMARK  12 active torsions:
REMARK  status: ('A' for Active; 'I' for Inactive)
REMARK    1  A    between atoms: N1_2  and  N2_3 
REMARK    2  A    between atoms: N1_2  and  S1_45 
REMARK    3  A    between atoms: C2_8  and  C3_9 
REMARK    4  A    between atoms: C3_9  and  O1_10 
REMARK    5  A    between atoms: C3_9  and  N5_12 
REMARK    6  A    between atoms: N5_12  and  C4_14 
REMARK    7  A    between atoms: C9_21  and  O4_22 
REMARK    8  A    between atoms: O4_22  and  C10_23 
REMARK    9  A    between atoms: C11_26  and  N7_27 
REMARK   10  A    between atoms: N8_30  and  O5_31 
REMARK   11  A    between atoms: C13_41  and  C14_42 
REMARK   12  A    between atoms: C14_42  and  O6_43 
ROOT
HETATM    1  C4  UNL     1      42.698  -0.900  24.276  1.00  0.00     0.070 A 
HETATM    2  C5  UNL     1      43.433   0.002  25.052  1.00  0.00     0.176 A 
HETATM    3  O2  UNL     1      43.722  -0.240  26.301  1.00  0.00    -0.284 OA
HETATM    4  C6  UNL     1      43.344  -1.337  26.905  1.00  0.00     0.315 A 
HETATM    5  O3  UNL     1      43.610  -1.591  28.107  1.00  0.00    -0.257 OA
HETATM    6  C7  UNL     1      42.609  -2.277  26.187  1.00  0.00     0.118 A 
HETATM    7  C8  UNL     1      42.284  -2.056  24.860  1.00  0.00     0.059 A 
HETATM    8  C9  UNL     1      41.507  -3.122  24.209  1.00  0.00     0.370 C 
HETATM    9  N10 UNL     1      42.107  -4.401  24.568  1.00  0.00    -0.028 N 
ATOM     10 1H10 UNL     1      43.065  -4.466  24.222  1.00  0.00     0.282 HD
ATOM     11 2H10 UNL     1      41.688  -5.164  24.037  1.00  0.00     0.282 HD
HETATM   12  C12 UNL     1      42.050  -4.662  25.975  1.00  0.00     0.358 C 
HETATM   13  N11 UNL     1      42.161  -3.477  26.784  1.00  0.00    -0.361 N 
ATOM     14  H11 UNL     1      41.918  -3.502  27.775  1.00  0.00     0.161 HD
ENDROOT
BRANCH   1  15
HETATM   15  N5  UNL     1      42.390  -0.637  22.922  1.00  0.00    -0.333 N 
ATOM     16  H5  UNL     1      42.571  -1.388  22.257  1.00  0.00     0.168 HD
BRANCH  15  17
HETATM   17  C3  UNL     1      41.860   0.558  22.400  1.00  0.00     0.171 C 
BRANCH  17  18
HETATM   18  C2  UNL     1      40.504   0.975  22.610  1.00  0.00     0.129 A 
HETATM   19  N4  UNL     1      39.509   0.488  21.781  1.00  0.00    -0.279 N 
HETATM   20  N3  UNL     1      38.380   0.982  22.151  1.00  0.00    -0.220 N 
ATOM     21  H4  UNL     1      39.648  -0.156  21.003  1.00  0.00     0.189 HD
HETATM   22  N2  UNL     1      38.553   1.795  23.210  1.00  0.00    -0.169 N 
ATOM     23  H3  UNL     1      37.483   0.785  21.707  1.00  0.00     0.210 HD
HETATM   24  C13 UNL     1      39.869   1.796  23.499  1.00  0.00     0.110 A 
BRANCH  22  25
HETATM   25  N1  UNL     1      37.515   2.494  23.847  1.00  0.00    -0.181 N 
HETATM   26  C1  UNL     1      37.189   3.869  23.543  1.00  0.00     0.196 C 
BRANCH  25  27
HETATM   27  S1  UNL     1      36.571   1.643  25.007  1.00  0.00     0.227 S 
HETATM   28  O7  UNL     1      36.084   0.346  24.372  1.00  0.00    -0.577 OA
HETATM   29  O8  UNL     1      37.509   1.204  26.113  1.00  0.00    -0.577 OA
HETATM   30  O9  UNL     1      35.308   2.510  25.629  1.00  0.00    -0.577 OA
ENDBRANCH  25  27
ENDBRANCH  22  25
BRANCH  24  31
HETATM   31  C14 UNL     1      40.530   2.549  24.567  1.00  0.00     0.227 C 
BRANCH  31  32
HETATM   32  O6  UNL     1      40.465   1.914  25.829  1.00  0.00    -0.395 OA
ATOM     33  H6  UNL     1      40.427   2.523  26.558  1.00  0.00     0.209 HD
ENDBRANCH  31  32
ENDBRANCH  24  31
ENDBRANCH  17  18
BRANCH  17  34
HETATM   34  O1  UNL     1      42.249   0.812  21.047  1.00  0.00    -0.344 OA
ATOM     35  H1  UNL     1      42.608   1.689  20.968  1.00  0.00     0.219 HD
ENDBRANCH  17  34
ENDBRANCH  15  17
ENDBRANCH   1  15
BRANCH   8  36
HETATM   36  O4  UNL     1      40.219  -3.130  24.850  1.00  0.00    -0.281 OA
BRANCH  36  37
HETATM   37  C10 UNL     1      39.050  -3.149  24.097  1.00  0.00     0.257 A 
HETATM   38  N6  UNL     1      38.555  -4.239  23.479  1.00  0.00    -0.150 N 
HETATM   39  C11 UNL     1      37.427  -3.874  22.859  1.00  0.00     0.721 A 
ATOM     40  H6  UNL     1      38.965  -5.173  23.484  1.00  0.00     0.188 HD
HETATM   41  N8  UNL     1      37.204  -2.570  23.077  1.00  0.00     0.019 N 
HETATM   42  N9  UNL     1      38.201  -2.149  23.832  1.00  0.00    -0.223 N 
ATOM     43  H9  UNL     1      38.311  -1.192  24.167  1.00  0.00     0.193 HD
BRANCH  39  44
HETATM   44  N7  UNL     1      36.629  -4.622  22.142  1.00  0.00    -0.231 N 
ATOM     45  H72 UNL     1      36.968  -5.293  21.454  1.00  0.00     0.174 HD
ATOM     46  H71 UNL     1      35.610  -4.645  22.162  1.00  0.00     0.174 HD
ENDBRANCH  39  44
BRANCH  41  47
HETATM   47  O5  UNL     1      36.129  -1.851  22.593  1.00  0.00    -0.254 OA
ATOM     48  H5  UNL     1      36.106  -0.908  22.476  1.00  0.00     0.247 HD
ENDBRANCH  41  47
ENDBRANCH  36  37
ENDBRANCH   8  36
TORSDOF 12
ENDMDL
MODEL 5
REMARK VINA RESULT: -6.745607228      2.654      3.942
REMARK  12 active torsions:
REMARK  status: ('A' for Active; 'I' for Inactive)
REMARK    1  A    between atoms: N1_2  and  N2_3 
REMARK    2  A    between atoms: N1_2  and  S1_45 
REMARK    3  A    between atoms: C2_8  and  C3_9 
REMARK    4  A    between atoms: C3_9  and  O1_10 
REMARK    5  A    between atoms: C3_9  and  N5_12 
REMARK    6  A    between atoms: N5_12  and  C4_14 
REMARK    7  A    between atoms: C9_21  and  O4_22 
REMARK    8  A    between atoms: O4_22  and  C10_23 
REMARK    9  A    between atoms: C11_26  and  N7_27 
REMARK   10  A    between atoms: N8_30  and  O5_31 
REMARK   11  A    between atoms: C13_41  and  C14_42 
REMARK   12  A    between atoms: C14_42  and  O6_43 
ROOT
HETATM    1  C4  UNL     1      39.652  -6.717  20.393  1.00  0.00     0.070 A 
HETATM    2  C5  UNL     1      39.394  -7.064  21.723  1.00  0.00     0.176 A 
HETATM    3  O2  UNL     1      38.330  -7.736  22.065  1.00  0.00    -0.284 OA
HETATM    4  C6  UNL     1      37.439  -8.127  21.189  1.00  0.00     0.315 A 
HETATM    5  O3  UNL     1      36.406  -8.773  21.495  1.00  0.00    -0.257 OA
HETATM    6  C7  UNL     1      37.638  -7.813  19.847  1.00  0.00     0.118 A 
HETATM    7  C8  UNL     1      38.756  -7.101  19.446  1.00  0.00     0.059 A 
HETATM    8  C9  UNL     1      38.856  -6.833  18.003  1.00  0.00     0.370 C 
HETATM    9  N10 UNL     1      38.529  -8.063  17.292  1.00  0.00    -0.028 N 
ATOM     10 1H10 UNL     1      39.197  -8.802  17.512  1.00  0.00     0.282 HD
ATOM     11 2H10 UNL     1      38.712  -7.968  16.293  1.00  0.00     0.282 HD
HETATM   12  C12 UNL     1      37.185  -8.498  17.529  1.00  0.00     0.358 C 
HETATM   13  N11 UNL     1      36.709  -8.194  18.853  1.00  0.00    -0.361 N 
ATOM     14  H11 UNL     1      35.714  -8.253  19.071  1.00  0.00     0.161 HD
ENDROOT
BRANCH   1  15
HETATM   15  N5  UNL     1      40.809  -5.993  20.025  1.00  0.00    -0.333 N 
ATOM     16  H5  UNL     1      41.205  -6.197  19.109  1.00  0.00     0.168 HD
BRANCH  15  17
HETATM   17  C3  UNL     1      41.469  -5.019  20.799  1.00  0.00     0.171 C 
BRANCH  17  18
HETATM   18  C2  UNL     1      40.824  -3.838  21.294  1.00  0.00     0.129 A 
HETATM   19  N4  UNL     1      40.560  -2.795  20.425  1.00  0.00    -0.279 N 
HETATM   20  N3  UNL     1      39.975  -1.850  21.073  1.00  0.00    -0.220 N 
ATOM     21  H4  UNL     1      40.791  -2.778  19.432  1.00  0.00     0.189 HD
HETATM   22  N2  UNL     1      39.823  -2.198  22.364  1.00  0.00    -0.169 N 
ATOM     23  H3  UNL     1      39.672  -0.965  20.668  1.00  0.00     0.210 HD
HETATM   24  C13 UNL     1      40.348  -3.430  22.509  1.00  0.00     0.110 A 
BRANCH  22  25
HETATM   25  N1  UNL     1      39.226  -1.380  23.337  1.00  0.00    -0.181 N 
HETATM   26  C1  UNL     1      39.960  -0.388  24.091  1.00  0.00     0.196 C 
BRANCH  25  27
HETATM   27  S1  UNL     1      37.534  -1.550  23.598  1.00  0.00     0.227 S 
HETATM   28  O7  UNL     1      36.914  -2.167  22.348  1.00  0.00    -0.577 OA
HETATM   29  O8  UNL     1      37.350  -2.598  24.678  1.00  0.00    -0.577 OA
HETATM   30  O9  UNL     1      36.761  -0.148  24.013  1.00  0.00    -0.577 OA
ENDBRANCH  25  27
ENDBRANCH  22  25
BRANCH  24  31
HETATM   31  C14 UNL     1      40.422  -4.211  23.745  1.00  0.00     0.227 C 
BRANCH  31  32
HETATM   32  O6  UNL     1      39.164  -4.681  24.191  1.00  0.00    -0.395 OA
ATOM     33  H6  UNL     1      38.504  -4.000  24.249  1.00  0.00     0.209 HD
ENDBRANCH  31  32
ENDBRANCH  24  31
ENDBRANCH  17  18
BRANCH  17  34
HETATM   34  O1  UNL     1      42.779  -4.702  20.320  1.00  0.00    -0.344 OA
ATOM     35  H1  UNL     1      43.375  -4.583  21.050  1.00  0.00     0.219 HD
ENDBRANCH  17  34
ENDBRANCH  15  17
ENDBRANCH   1  15
BRANCH   8  36
HETATM   36  O4  UNL     1      37.781  -5.931  17.687  1.00  0.00    -0.281 OA
BRANCH  36  37
HETATM   37  C10 UNL     1      38.038  -4.697  17.100  1.00  0.00     0.257 A 
HETATM   38  N6  UNL     1      39.098  -3.917  17.389  1.00  0.00    -0.150 N 
HETATM   39  C11 UNL     1      39.009  -2.818  16.631  1.00  0.00     0.721 A 
ATOM     40  H6  UNL     1      39.835  -4.128  18.062  1.00  0.00     0.188 HD
HETATM   41  N8  UNL     1      37.908  -2.893  15.869  1.00  0.00     0.019 N 
HETATM   42  N9  UNL     1      37.334  -4.043  16.169  1.00  0.00    -0.223 N 
ATOM     43  H9  UNL     1      36.470  -4.385  15.749  1.00  0.00     0.193 HD
BRANCH  39  44
HETATM   44  N7  UNL     1      39.830  -1.801  16.596  1.00  0.00    -0.231 N 
ATOM     45  H72 UNL     1      40.824  -1.884  16.808  1.00  0.00     0.174 HD
ATOM     46  H71 UNL     1      39.614  -0.831  16.365  1.00  0.00     0.174 HD
ENDBRANCH  39  44
BRANCH  41  47
HETATM   47  O5  UNL     1      37.497  -1.937  14.962  1.00  0.00    -0.254 OA
ATOM     48  H5  UNL     1      36.644  -1.519  14.952  1.00  0.00     0.247 HD
ENDBRANCH  41  47
ENDBRANCH  36  37
ENDBRANCH   8  36
TORSDOF 12
ENDMDL
