MODEL 1
REMARK VINA RESULT: -5.180351637      0.000      0.000
REMARK  5 active torsions:
REMARK  status: ('A' for Active; 'I' for Inactive)
REMARK    1  A    between atoms: C2_2  and  O1_5 
REMARK    2  A    between atoms: O1_5  and  C5_6 
REMARK    3  A    between atoms: C5_6  and  C6_7 
REMARK    4  A    between atoms: C6_7  and  C7_8 
REMARK    5  A    between atoms: C10_11  and  N1_12 
ROOT
HETATM    1  C7  UNL     1      13.181  35.421  35.777  1.00  0.00     0.018 A 
HETATM    2  C8  UNL     1      13.698  35.979  37.084  1.00  0.00     0.009 A 
HETATM    3  C9  UNL     1      13.742  37.383  36.516  1.00  0.00     0.033 A 
HETATM    4  C10 UNL     1      13.215  36.809  35.215  1.00  0.00     0.187 A 
ENDROOT
BRANCH   1   5
HETATM    5  C6  UNL     1      11.785  34.851  35.983  1.00  0.00     0.033 C 
BRANCH   5   6
HETATM    6  C5  UNL     1      10.839  35.294  34.923  1.00  0.00     0.169 C 
BRANCH   6   7
HETATM    7  O1  UNL     1      11.002  34.797  33.676  1.00  0.00    -0.381 OA
BRANCH   7   8
HETATM    8  C2  UNL     1      10.383  35.346  32.613  1.00  0.00     0.050 C 
HETATM    9  C1  UNL     1      10.826  36.767  32.306  1.00  0.00     0.045 C 
HETATM   10  C3  UNL     1       8.887  35.522  33.004  1.00  0.00     0.045 C 
HETATM   11  C4  UNL     1      10.342  34.566  31.336  1.00  0.00     0.045 C 
ENDBRANCH   7   8
ENDBRANCH   6   7
ENDBRANCH   5   6
ENDBRANCH   1   5
BRANCH   4  12
HETATM   12  N1  UNL     1      14.173  37.011  34.162  1.00  0.00    -0.075 N 
ATOM     13  H13 UNL     1      14.942  36.347  34.251  1.00  0.00     0.274 HD
ATOM     14  H12 UNL     1      13.784  36.712  33.268  1.00  0.00     0.274 HD
ATOM     15  H11 UNL     1      14.535  37.962  34.089  1.00  0.00     0.274 HD
ENDBRANCH   4  12
TORSDOF 5
ENDMDL
MODEL 2
REMARK VINA RESULT: -5.154176962      1.664      4.916
REMARK  5 active torsions:
REMARK  status: ('A' for Active; 'I' for Inactive)
REMARK    1  A    between atoms: C2_2  and  O1_5 
REMARK    2  A    between atoms: O1_5  and  C5_6 
REMARK    3  A    between atoms: C5_6  and  C6_7 
REMARK    4  A    between atoms: C6_7  and  C7_8 
REMARK    5  A    between atoms: C10_11  and  N1_12 
ROOT
HETATM    1  C7  UNL     1      10.666  35.720  34.334  1.00  0.00     0.018 A 
HETATM    2  C8  UNL     1       9.373  35.152  33.793  1.00  0.00     0.009 A 
HETATM    3  C9  UNL     1       9.811  35.404  32.364  1.00  0.00     0.033 A 
HETATM    4  C10 UNL     1      11.107  35.962  32.923  1.00  0.00     0.187 A 
ENDROOT
BRANCH   1   5
HETATM    5  C6  UNL     1      11.437  34.629  35.063  1.00  0.00     0.033 C 
BRANCH   5   6
HETATM    6  C5  UNL     1      12.319  35.182  36.126  1.00  0.00     0.169 C 
BRANCH   6   7
HETATM    7  O1  UNL     1      13.244  36.104  35.769  1.00  0.00    -0.381 OA
BRANCH   7   8
HETATM    8  C2  UNL     1      14.121  36.602  36.663  1.00  0.00     0.050 C 
HETATM    9  C1  UNL     1      13.726  36.370  38.111  1.00  0.00     0.045 C 
HETATM   10  C3  UNL     1      14.071  38.151  36.528  1.00  0.00     0.045 C 
HETATM   11  C4  UNL     1      15.570  36.262  36.496  1.00  0.00     0.045 C 
ENDBRANCH   7   8
ENDBRANCH   6   7
ENDBRANCH   5   6
ENDBRANCH   1   5
BRANCH   4  12
HETATM   12  N1  UNL     1      11.243  37.347  32.561  1.00  0.00    -0.075 N 
ATOM     13  H13 UNL     1      11.637  37.878  33.338  1.00  0.00     0.274 HD
ATOM     14  H12 UNL     1      11.988  37.460  31.873  1.00  0.00     0.274 HD
ATOM     15  H11 UNL     1      10.386  37.789  32.230  1.00  0.00     0.274 HD
ENDBRANCH   4  12
TORSDOF 5
ENDMDL
MODEL 3
REMARK VINA RESULT: -5.123479822      0.387      1.266
REMARK  5 active torsions:
REMARK  status: ('A' for Active; 'I' for Inactive)
REMARK    1  A    between atoms: C2_2  and  O1_5 
REMARK    2  A    between atoms: O1_5  and  C5_6 
REMARK    3  A    between atoms: C5_6  and  C6_7 
REMARK    4  A    between atoms: C6_7  and  C7_8 
REMARK    5  A    between atoms: C10_11  and  N1_12 
ROOT
HETATM    1  C7  UNL     1      12.980  35.429  35.777  1.00  0.00     0.018 A 
HETATM    2  C8  UNL     1      13.651  35.799  37.081  1.00  0.00     0.009 A 
HETATM    3  C9  UNL     1      13.872  37.223  36.612  1.00  0.00     0.033 A 
HETATM    4  C10 UNL     1      13.188  36.838  35.314  1.00  0.00     0.187 A 
ENDROOT
BRANCH   1   5
HETATM    5  C6  UNL     1      11.529  35.054  36.040  1.00  0.00     0.033 C 
BRANCH   5   6
HETATM    6  C5  UNL     1      10.939  34.279  34.915  1.00  0.00     0.169 C 
BRANCH   6   7
HETATM    7  O1  UNL     1      11.249  34.654  33.652  1.00  0.00    -0.381 OA
BRANCH   7   8
HETATM    8  C2  UNL     1      10.403  35.393  32.910  1.00  0.00     0.050 C 
HETATM    9  C1  UNL     1       8.983  35.434  33.448  1.00  0.00     0.045 C 
HETATM   10  C3  UNL     1      10.241  34.660  31.547  1.00  0.00     0.045 C 
HETATM   11  C4  UNL     1      10.819  36.782  32.536  1.00  0.00     0.045 C 
ENDBRANCH   7   8
ENDBRANCH   6   7
ENDBRANCH   5   6
ENDBRANCH   1   5
BRANCH   4  12
HETATM   12  N1  UNL     1      14.102  36.984  34.213  1.00  0.00    -0.075 N 
ATOM     13  H13 UNL     1      14.143  36.121  33.671  1.00  0.00     0.274 HD
ATOM     14  H12 UNL     1      13.713  37.616  33.513  1.00  0.00     0.274 HD
ATOM     15  H11 UNL     1      15.042  37.282  34.474  1.00  0.00     0.274 HD
ENDBRANCH   4  12
TORSDOF 5
ENDMDL
MODEL 4
REMARK VINA RESULT: -5.108754032      1.143      1.327
REMARK  5 active torsions:
REMARK  status: ('A' for Active; 'I' for Inactive)
REMARK    1  A    between atoms: C2_2  and  O1_5 
REMARK    2  A    between atoms: O1_5  and  C5_6 
REMARK    3  A    between atoms: C5_6  and  C6_7 
REMARK    4  A    between atoms: C6_7  and  C7_8 
REMARK    5  A    between atoms: C10_11  and  N1_12 
ROOT
HETATM    1  C7  UNL     1      14.004  36.499  35.402  1.00  0.00     0.018 A 
HETATM    2  C8  UNL     1      15.246  35.897  36.021  1.00  0.00     0.009 A 
HETATM    3  C9  UNL     1      15.317  37.002  37.056  1.00  0.00     0.033 A 
HETATM    4  C10 UNL     1      14.065  37.587  36.430  1.00  0.00     0.187 A 
ENDROOT
BRANCH   1   5
HETATM    5  C6  UNL     1      12.837  35.536  35.564  1.00  0.00     0.033 C 
BRANCH   5   6
HETATM    6  C5  UNL     1      11.674  35.920  34.720  1.00  0.00     0.169 C 
BRANCH   6   7
HETATM    7  O1  UNL     1      11.278  35.060  33.753  1.00  0.00    -0.381 OA
BRANCH   7   8
HETATM    8  C2  UNL     1      10.474  35.455  32.746  1.00  0.00     0.050 C 
HETATM    9  C1  UNL     1      10.724  36.879  32.279  1.00  0.00     0.045 C 
HETATM   10  C3  UNL     1       9.030  35.523  33.323  1.00  0.00     0.045 C 
HETATM   11  C4  UNL     1      10.352  34.566  31.548  1.00  0.00     0.045 C 
ENDBRANCH   7   8
ENDBRANCH   6   7
ENDBRANCH   5   6
ENDBRANCH   1   5
BRANCH   4  12
HETATM   12  N1  UNL     1      14.342  38.897  35.907  1.00  0.00    -0.075 N 
ATOM     13  H13 UNL     1      14.982  38.834  35.114  1.00  0.00     0.274 HD
ATOM     14  H12 UNL     1      13.517  39.272  35.439  1.00  0.00     0.274 HD
ATOM     15  H11 UNL     1      14.695  39.566  36.592  1.00  0.00     0.274 HD
ENDBRANCH   4  12
TORSDOF 5
ENDMDL
MODEL 5
REMARK VINA RESULT: -5.063804162      1.969      5.237
REMARK  5 active torsions:
REMARK  status: ('A' for Active; 'I' for Inactive)
REMARK    1  A    between atoms: C2_2  and  O1_5 
REMARK    2  A    between atoms: O1_5  and  C5_6 
REMARK    3  A    between atoms: C5_6  and  C6_7 
REMARK    4  A    between atoms: C6_7  and  C7_8 
REMARK    5  A    between atoms: C10_11  and  N1_12 
ROOT
HETATM    1  C7  UNL     1      10.949  36.313  34.084  1.00  0.00     0.018 A 
HETATM    2  C8  UNL     1       9.817  35.351  33.802  1.00  0.00     0.009 A 
HETATM    3  C9  UNL     1      10.125  35.358  32.318  1.00  0.00     0.033 A 
HETATM    4  C10 UNL     1      11.263  36.314  32.620  1.00  0.00     0.187 A 
ENDROOT
BRANCH   1   5
HETATM    5  C6  UNL     1      11.992  35.630  34.958  1.00  0.00     0.033 C 
BRANCH   5   6
HETATM    6  C5  UNL     1      13.216  36.459  35.119  1.00  0.00     0.169 C 
BRANCH   6   7
HETATM    7  O1  UNL     1      14.155  36.043  36.000  1.00  0.00    -0.381 OA
BRANCH   7   8
HETATM    8  C2  UNL     1      14.371  36.696  37.159  1.00  0.00     0.050 C 
HETATM    9  C1  UNL     1      14.229  38.205  37.054  1.00  0.00     0.045 C 
HETATM   10  C3  UNL     1      15.876  36.509  37.507  1.00  0.00     0.045 C 
HETATM   11  C4  UNL     1      13.647  36.225  38.382  1.00  0.00     0.045 C 
ENDBRANCH   7   8
ENDBRANCH   6   7
ENDBRANCH   5   6
ENDBRANCH   1   5
BRANCH   4  12
HETATM   12  N1  UNL     1      11.041  37.570  31.955  1.00  0.00    -0.075 N 
ATOM     13  H13 UNL     1      10.402  38.150  32.500  1.00  0.00     0.274 HD
ATOM     14  H12 UNL     1      11.882  38.145  31.997  1.00  0.00     0.274 HD
ATOM     15  H11 UNL     1      10.712  37.493  30.992  1.00  0.00     0.274 HD
ENDBRANCH   4  12
TORSDOF 5
ENDMDL
