MODEL 1
REMARK VINA RESULT: -7.775634087      0.000      0.000
REMARK  10 active torsions:
REMARK  status: ('A' for Active; 'I' for Inactive)
REMARK    1  A    between atoms: C2_2  and  C3_3 
REMARK    2  A    between atoms: C3_3  and  C4_4 
REMARK    3  A    between atoms: C5_8  and  C6_9 
REMARK    4  A    between atoms: C6_9  and  N2_10 
REMARK    5  A    between atoms: C6_9  and  C7_14 
REMARK    6  A    between atoms: C7_14  and  C8_15 
REMARK    7  A    between atoms: C8_15  and  O2_16 
REMARK    8  A    between atoms: C8_15  and  C9_18 
REMARK    9  A    between atoms: C9_18  and  N3_19 
REMARK   10  A    between atoms: N3_19  and  C10_21 
ROOT
HETATM    1  C6  UNL     1      16.880   9.006  38.263  1.00  0.00     0.262 C 
ENDROOT
BRANCH   1   2
HETATM    2  C5  UNL     1      15.801   8.751  39.281  1.00  0.00     0.179 A 
HETATM    3  O1  UNL     1      15.510   7.588  39.786  1.00  0.00    -0.221 OA
HETATM    4  N1  UNL     1      14.524   7.696  40.639  1.00  0.00    -0.247 N 
HETATM    5  C4  UNL     1      14.142   8.981  40.704  1.00  0.00     0.103 A 
ATOM      6  H1  UNL     1      14.112   6.928  41.169  1.00  0.00     0.196 HD
HETATM    7  N4  UNL     1      14.969   9.634  39.831  1.00  0.00    -0.325 N 
ATOM      8  H4  UNL     1      14.953  10.635  39.634  1.00  0.00     0.169 HD
BRANCH   5   9
HETATM    9  C3  UNL     1      13.064   9.596  41.517  1.00  0.00     0.078 C 
BRANCH   9  10
HETATM   10  C2  UNL     1      12.466  10.785  40.790  1.00  0.00     0.003 C 
HETATM   11  C1  UNL     1      12.039  11.802  41.835  1.00  0.00     0.005 C 
ENDBRANCH   9  10
ENDBRANCH   5   9
ENDBRANCH   1   2
BRANCH   1  12
HETATM   12  N2  UNL     1      17.994   8.124  38.523  1.00  0.00    -0.068 N 
ATOM     13  H23 UNL     1      17.695   7.219  38.886  1.00  0.00     0.275 HD
ATOM     14  H22 UNL     1      18.437   7.796  37.665  1.00  0.00     0.275 HD
ATOM     15  H21 UNL     1      18.653   8.592  39.145  1.00  0.00     0.275 HD
ENDBRANCH   1  12
BRANCH   1  16
HETATM   16  C7  UNL     1      16.398   8.836  36.868  1.00  0.00     0.078 C 
BRANCH  16  17
HETATM   17  C8  UNL     1      17.290   7.900  36.095  1.00  0.00     0.158 C 
BRANCH  17  18
HETATM   18  O2  UNL     1      18.473   8.602  35.689  1.00  0.00    -0.390 OA
ATOM     19  H2  UNL     1      18.282   9.531  35.633  1.00  0.00     0.210 HD
ENDBRANCH  17  18
BRANCH  17  20
HETATM   20  C9  UNL     1      16.622   7.527  34.805  1.00  0.00     0.092 C 
BRANCH  20  21
HETATM   21  N3  UNL     1      16.991   6.329  34.237  1.00  0.00    -0.374 N 
ATOM     22  H3  UNL     1      16.374   5.535  34.408  1.00  0.00     0.164 HD
BRANCH  21  23
HETATM   23  C10 UNL     1      18.114   6.086  33.457  1.00  0.00    -0.014 C 
HETATM   24  C11 UNL     1      18.717   7.119  32.597  1.00  0.00     0.052 C 
HETATM   25  C12 UNL     1      18.562   6.936  31.106  1.00  0.00     0.006 C 
HETATM   26  C13 UNL     1      18.879   5.537  30.645  1.00  0.00     0.001 C 
HETATM   27  C14 UNL     1      19.218   4.638  31.823  1.00  0.00     0.006 C 
HETATM   28  C15 UNL     1      18.024   4.721  32.740  1.00  0.00     0.052 C 
ENDBRANCH  21  23
ENDBRANCH  20  21
ENDBRANCH  17  20
ENDBRANCH  16  17
ENDBRANCH   1  16
TORSDOF 10
ENDMDL
MODEL 2
REMARK VINA RESULT: -7.766478029      1.188      1.703
REMARK  10 active torsions:
REMARK  status: ('A' for Active; 'I' for Inactive)
REMARK    1  A    between atoms: C2_2  and  C3_3 
REMARK    2  A    between atoms: C3_3  and  C4_4 
REMARK    3  A    between atoms: C5_8  and  C6_9 
REMARK    4  A    between atoms: C6_9  and  N2_10 
REMARK    5  A    between atoms: C6_9  and  C7_14 
REMARK    6  A    between atoms: C7_14  and  C8_15 
REMARK    7  A    between atoms: C8_15  and  O2_16 
REMARK    8  A    between atoms: C8_15  and  C9_18 
REMARK    9  A    between atoms: C9_18  and  N3_19 
REMARK   10  A    between atoms: N3_19  and  C10_21 
ROOT
HETATM    1  C6  UNL     1      16.864   9.235  38.191  1.00  0.00     0.262 C 
ENDROOT
BRANCH   1   2
HETATM    2  C5  UNL     1      15.860   9.554  39.266  1.00  0.00     0.179 A 
HETATM    3  O1  UNL     1      15.665  10.733  39.779  1.00  0.00    -0.221 OA
HETATM    4  N1  UNL     1      14.729  10.683  40.692  1.00  0.00    -0.247 N 
HETATM    5  C4  UNL     1      14.285   9.420  40.793  1.00  0.00     0.103 A 
ATOM      6  H1  UNL     1      14.392  11.475  41.239  1.00  0.00     0.196 HD
HETATM    7  N4  UNL     1      15.020   8.719  39.875  1.00  0.00    -0.325 N 
ATOM      8  H4  UNL     1      14.936   7.720  39.687  1.00  0.00     0.169 HD
BRANCH   5   9
HETATM    9  C3  UNL     1      13.243   8.864  41.691  1.00  0.00     0.078 C 
BRANCH   9  10
HETATM   10  C2  UNL     1      13.448   7.373  41.880  1.00  0.00     0.003 C 
HETATM   11  C1  UNL     1      12.108   6.764  42.254  1.00  0.00     0.005 C 
ENDBRANCH   9  10
ENDBRANCH   5   9
ENDBRANCH   1   2
BRANCH   1  12
HETATM   12  N2  UNL     1      17.822   8.283  38.704  1.00  0.00    -0.068 N 
ATOM     13  H23 UNL     1      18.531   8.725  39.289  1.00  0.00     0.275 HD
ATOM     14  H22 UNL     1      17.417   7.667  39.408  1.00  0.00     0.275 HD
ATOM     15  H21 UNL     1      18.229   7.766  37.925  1.00  0.00     0.275 HD
ENDBRANCH   1  12
BRANCH   1  16
HETATM   16  C7  UNL     1      16.226   8.714  36.954  1.00  0.00     0.078 C 
BRANCH  16  17
HETATM   17  C8  UNL     1      17.170   7.821  36.190  1.00  0.00     0.158 C 
BRANCH  17  18
HETATM   18  O2  UNL     1      18.348   8.563  35.847  1.00  0.00    -0.390 OA
ATOM     19  H2  UNL     1      19.109   8.128  36.213  1.00  0.00     0.210 HD
ENDBRANCH  17  18
BRANCH  17  20
HETATM   20  C9  UNL     1      16.559   7.466  34.867  1.00  0.00     0.092 C 
BRANCH  20  21
HETATM   21  N3  UNL     1      16.954   6.277  34.299  1.00  0.00    -0.374 N 
ATOM     22  H3  UNL     1      16.357   5.469  34.472  1.00  0.00     0.164 HD
BRANCH  21  23
HETATM   23  C10 UNL     1      18.081   6.060  33.515  1.00  0.00    -0.014 C 
HETATM   24  C11 UNL     1      18.684   7.121  32.689  1.00  0.00     0.052 C 
HETATM   25  C12 UNL     1      18.534   6.982  31.193  1.00  0.00     0.006 C 
HETATM   26  C13 UNL     1      18.856   5.597  30.691  1.00  0.00     0.001 C 
HETATM   27  C14 UNL     1      19.194   4.664  31.843  1.00  0.00     0.006 C 
HETATM   28  C15 UNL     1      17.996   4.717  32.758  1.00  0.00     0.052 C 
ENDBRANCH  21  23
ENDBRANCH  20  21
ENDBRANCH  17  20
ENDBRANCH  16  17
ENDBRANCH   1  16
TORSDOF 10
ENDMDL
MODEL 3
REMARK VINA RESULT: -7.758723478      0.827      1.179
REMARK  10 active torsions:
REMARK  status: ('A' for Active; 'I' for Inactive)
REMARK    1  A    between atoms: C2_2  and  C3_3 
REMARK    2  A    between atoms: C3_3  and  C4_4 
REMARK    3  A    between atoms: C5_8  and  C6_9 
REMARK    4  A    between atoms: C6_9  and  N2_10 
REMARK    5  A    between atoms: C6_9  and  C7_14 
REMARK    6  A    between atoms: C7_14  and  C8_15 
REMARK    7  A    between atoms: C8_15  and  O2_16 
REMARK    8  A    between atoms: C8_15  and  C9_18 
REMARK    9  A    between atoms: C9_18  and  N3_19 
REMARK   10  A    between atoms: N3_19  and  C10_21 
ROOT
HETATM    1  C6  UNL     1      16.785   9.083  38.283  1.00  0.00     0.262 C 
ENDROOT
BRANCH   1   2
HETATM    2  C5  UNL     1      15.775   8.639  39.306  1.00  0.00     0.179 A 
HETATM    3  O1  UNL     1      15.556   7.405  39.653  1.00  0.00    -0.221 OA
HETATM    4  N1  UNL     1      14.616   7.347  40.562  1.00  0.00    -0.247 N 
HETATM    5  C4  UNL     1      14.192   8.592  40.830  1.00  0.00     0.103 A 
ATOM      6  H1  UNL     1      14.263   6.494  40.996  1.00  0.00     0.196 HD
HETATM    7  N4  UNL     1      14.945   9.398  40.019  1.00  0.00    -0.325 N 
ATOM      8  H4  UNL     1      14.880  10.415  39.970  1.00  0.00     0.169 HD
BRANCH   5   9
HETATM    9  C3  UNL     1      13.141   9.038  41.777  1.00  0.00     0.078 C 
BRANCH   9  10
HETATM   10  C2  UNL     1      12.475   7.841  42.430  1.00  0.00     0.003 C 
HETATM   11  C1  UNL     1      12.108   8.233  43.852  1.00  0.00     0.005 C 
ENDBRANCH   9  10
ENDBRANCH   5   9
ENDBRANCH   1   2
BRANCH   1  12
HETATM   12  N2  UNL     1      18.026   8.379  38.506  1.00  0.00    -0.068 N 
ATOM     13  H23 UNL     1      18.800   9.013  38.704  1.00  0.00     0.275 HD
ATOM     14  H22 UNL     1      18.029   7.868  39.388  1.00  0.00     0.275 HD
ATOM     15  H21 UNL     1      18.216   7.775  37.707  1.00  0.00     0.275 HD
ENDBRANCH   1  12
BRANCH   1  16
HETATM   16  C7  UNL     1      16.313   8.873  36.890  1.00  0.00     0.078 C 
BRANCH  16  17
HETATM   17  C8  UNL     1      17.230   7.943  36.138  1.00  0.00     0.158 C 
BRANCH  17  18
HETATM   18  O2  UNL     1      18.395   8.667  35.718  1.00  0.00    -0.390 OA
ATOM     19  H2  UNL     1      18.793   8.218  34.981  1.00  0.00     0.210 HD
ENDBRANCH  17  18
BRANCH  17  20
HETATM   20  C9  UNL     1      16.574   7.525  34.856  1.00  0.00     0.092 C 
BRANCH  20  21
HETATM   21  N3  UNL     1      16.969   6.320  34.320  1.00  0.00    -0.374 N 
ATOM     22  H3  UNL     1      16.381   5.513  34.530  1.00  0.00     0.164 HD
BRANCH  21  23
HETATM   23  C10 UNL     1      18.084   6.086  33.524  1.00  0.00    -0.014 C 
HETATM   24  C11 UNL     1      18.678   7.130  32.671  1.00  0.00     0.052 C 
HETATM   25  C12 UNL     1      18.506   6.966  31.180  1.00  0.00     0.006 C 
HETATM   26  C13 UNL     1      18.817   5.572  30.697  1.00  0.00     0.001 C 
HETATM   27  C14 UNL     1      19.168   4.658  31.861  1.00  0.00     0.006 C 
HETATM   28  C15 UNL     1      17.984   4.730  32.792  1.00  0.00     0.052 C 
ENDBRANCH  21  23
ENDBRANCH  20  21
ENDBRANCH  17  20
ENDBRANCH  16  17
ENDBRANCH   1  16
TORSDOF 10
ENDMDL
MODEL 4
REMARK VINA RESULT: -7.503252445      0.417      1.166
REMARK  10 active torsions:
REMARK  status: ('A' for Active; 'I' for Inactive)
REMARK    1  A    between atoms: C2_2  and  C3_3 
REMARK    2  A    between atoms: C3_3  and  C4_4 
REMARK    3  A    between atoms: C5_8  and  C6_9 
REMARK    4  A    between atoms: C6_9  and  N2_10 
REMARK    5  A    between atoms: C6_9  and  C7_14 
REMARK    6  A    between atoms: C7_14  and  C8_15 
REMARK    7  A    between atoms: C8_15  and  O2_16 
REMARK    8  A    between atoms: C8_15  and  C9_18 
REMARK    9  A    between atoms: C9_18  and  N3_19 
REMARK   10  A    between atoms: N3_19  and  C10_21 
ROOT
HETATM    1  C6  UNL     1      16.838   9.065  38.335  1.00  0.00     0.262 C 
ENDROOT
BRANCH   1   2
HETATM    2  C5  UNL     1      15.745   8.791  39.332  1.00  0.00     0.179 A 
HETATM    3  O1  UNL     1      15.497   7.632  39.869  1.00  0.00    -0.221 OA
HETATM    4  N1  UNL     1      14.483   7.719  40.692  1.00  0.00    -0.247 N 
HETATM    5  C4  UNL     1      14.038   8.986  40.704  1.00  0.00     0.103 A 
ATOM      6  H1  UNL     1      14.095   6.950  41.237  1.00  0.00     0.196 HD
HETATM    7  N4  UNL     1      14.857   9.650  39.831  1.00  0.00    -0.325 N 
ATOM      8  H4  UNL     1      14.797  10.642  39.599  1.00  0.00     0.169 HD
BRANCH   5   9
HETATM    9  C3  UNL     1      12.910   9.573  41.467  1.00  0.00     0.078 C 
BRANCH   9  10
HETATM   10  C2  UNL     1      12.430  10.850  40.803  1.00  0.00     0.003 C 
HETATM   11  C1  UNL     1      12.740  12.006  41.739  1.00  0.00     0.005 C 
ENDBRANCH   9  10
ENDBRANCH   5   9
ENDBRANCH   1   2
BRANCH   1  12
HETATM   12  N2  UNL     1      18.049   8.409  38.767  1.00  0.00    -0.068 N 
ATOM     13  H23 UNL     1      18.436   7.797  38.048  1.00  0.00     0.275 HD
ATOM     14  H22 UNL     1      18.834   9.055  38.844  1.00  0.00     0.275 HD
ATOM     15  H21 UNL     1      17.868   7.913  39.640  1.00  0.00     0.275 HD
ENDBRANCH   1  12
BRANCH   1  16
HETATM   16  C7  UNL     1      16.475   8.634  36.960  1.00  0.00     0.078 C 
BRANCH  16  17
HETATM   17  C8  UNL     1      17.534   7.736  36.375  1.00  0.00     0.158 C 
BRANCH  17  18
HETATM   18  O2  UNL     1      18.488   8.535  35.660  1.00  0.00    -0.390 OA
ATOM     19  H2  UNL     1      19.366   8.262  35.899  1.00  0.00     0.210 HD
ENDBRANCH  17  18
BRANCH  17  20
HETATM   20  C9  UNL     1      16.921   6.863  35.321  1.00  0.00     0.092 C 
BRANCH  20  21
HETATM   21  N3  UNL     1      17.785   6.128  34.542  1.00  0.00    -0.374 N 
ATOM     22  H3  UNL     1      18.503   5.598  35.035  1.00  0.00     0.164 HD
BRANCH  21  23
HETATM   23  C10 UNL     1      17.783   6.031  33.156  1.00  0.00    -0.014 C 
HETATM   24  C11 UNL     1      18.008   4.756  32.453  1.00  0.00     0.052 C 
HETATM   25  C12 UNL     1      19.317   4.610  31.716  1.00  0.00     0.006 C 
HETATM   26  C13 UNL     1      19.658   5.810  30.870  1.00  0.00     0.001 C 
HETATM   27  C14 UNL     1      18.612   6.902  31.026  1.00  0.00     0.006 C 
HETATM   28  C15 UNL     1      18.563   7.194  32.505  1.00  0.00     0.052 C 
ENDBRANCH  21  23
ENDBRANCH  20  21
ENDBRANCH  17  20
ENDBRANCH  16  17
ENDBRANCH   1  16
TORSDOF 10
ENDMDL
MODEL 5
REMARK VINA RESULT: -7.499430270      1.684      8.565
REMARK  10 active torsions:
REMARK  status: ('A' for Active; 'I' for Inactive)
REMARK    1  A    between atoms: C2_2  and  C3_3 
REMARK    2  A    between atoms: C3_3  and  C4_4 
REMARK    3  A    between atoms: C5_8  and  C6_9 
REMARK    4  A    between atoms: C6_9  and  N2_10 
REMARK    5  A    between atoms: C6_9  and  C7_14 
REMARK    6  A    between atoms: C7_14  and  C8_15 
REMARK    7  A    between atoms: C8_15  and  O2_16 
REMARK    8  A    between atoms: C8_15  and  C9_18 
REMARK    9  A    between atoms: C9_18  and  N3_19 
REMARK   10  A    between atoms: N3_19  and  C10_21 
ROOT
HETATM    1  C6  UNL     1      16.657   8.501  35.793  1.00  0.00     0.262 C 
ENDROOT
BRANCH   1   2
HETATM    2  C5  UNL     1      17.339   7.695  34.721  1.00  0.00     0.179 A 
HETATM    3  O1  UNL     1      18.050   8.191  33.752  1.00  0.00    -0.221 OA
HETATM    4  N1  UNL     1      18.504   7.233  32.984  1.00  0.00    -0.247 N 
HETATM    5  C4  UNL     1      18.077   6.053  33.460  1.00  0.00     0.103 A 
ATOM      6  H1  UNL     1      19.088   7.363  32.158  1.00  0.00     0.196 HD
HETATM    7  N4  UNL     1      17.337   6.372  34.567  1.00  0.00    -0.325 N 
ATOM      8  H4  UNL     1      16.863   5.704  35.175  1.00  0.00     0.169 HD
BRANCH   5   9
HETATM    9  C3  UNL     1      18.320   4.689  32.931  1.00  0.00     0.078 C 
BRANCH   9  10
HETATM   10  C2  UNL     1      18.290   4.695  31.415  1.00  0.00     0.003 C 
HETATM   11  C1  UNL     1      19.695   5.001  30.924  1.00  0.00     0.005 C 
ENDBRANCH   9  10
ENDBRANCH   5   9
ENDBRANCH   1   2
BRANCH   1  12
HETATM   12  N2  UNL     1      15.314   8.818  35.367  1.00  0.00    -0.068 N 
ATOM     13  H23 UNL     1      15.276   9.104  34.389  1.00  0.00     0.275 HD
ATOM     14  H22 UNL     1      14.724   7.988  35.298  1.00  0.00     0.275 HD
ATOM     15  H21 UNL     1      14.922   9.521  35.993  1.00  0.00     0.275 HD
ENDBRANCH   1  12
BRANCH   1  16
HETATM   16  C7  UNL     1      16.635   7.803  37.104  1.00  0.00     0.078 C 
BRANCH  16  17
HETATM   17  C8  UNL     1      17.955   7.941  37.817  1.00  0.00     0.158 C 
BRANCH  17  18
HETATM   18  O2  UNL     1      18.531   6.641  38.002  1.00  0.00    -0.390 OA
ATOM     19  H2  UNL     1      17.839   5.990  38.002  1.00  0.00     0.210 HD
ENDBRANCH  17  18
BRANCH  17  20
HETATM   20  C9  UNL     1      17.719   8.442  39.211  1.00  0.00     0.092 C 
BRANCH  20  21
HETATM   21  N3  UNL     1      16.634   9.267  39.400  1.00  0.00    -0.374 N 
ATOM     22  H3  UNL     1      16.438   9.938  38.658  1.00  0.00     0.164 HD
BRANCH  21  23
HETATM   23  C10 UNL     1      15.778   9.283  40.494  1.00  0.00    -0.014 C 
HETATM   24  C11 UNL     1      15.627   8.127  41.395  1.00  0.00     0.052 C 
HETATM   25  C12 UNL     1      14.317   7.379  41.326  1.00  0.00     0.006 C 
HETATM   26  C13 UNL     1      13.114   8.288  41.337  1.00  0.00     0.001 C 
HETATM   27  C14 UNL     1      13.535   9.750  41.352  1.00  0.00     0.006 C 
HETATM   28  C15 UNL     1      14.416   9.920  40.140  1.00  0.00     0.052 C 
ENDBRANCH  21  23
ENDBRANCH  20  21
ENDBRANCH  17  20
ENDBRANCH  16  17
ENDBRANCH   1  16
TORSDOF 10
ENDMDL
