MODEL 1
REMARK VINA RESULT: -4.941958168      0.000      0.000
REMARK  8 active torsions:
REMARK  status: ('A' for Active; 'I' for Inactive)
REMARK    1  A    between atoms: C2_2  and  C3_3 
REMARK    2  A    between atoms: C3_3  and  C4_4 
REMARK    3  A    between atoms: C6_8  and  N2_9 
REMARK    4  A    between atoms: N5_17  and  C8_18 
REMARK    5  A    between atoms: C8_18  and  C9_19 
REMARK    6  A    between atoms: C9_19  and  N6_20 
REMARK    7  A    between atoms: N6_20  and  C10_21 
REMARK    8  A    between atoms: N6_20  and  C12_23 
ROOT
HETATM    1  C4  UNL     1      13.261   9.397  41.096  1.00  0.00     0.086 A 
HETATM    2  N1  UNL     1      12.583   8.409  41.759  1.00  0.00    -0.340 N 
ATOM      3  H1  UNL     1      11.599   8.460  42.022  1.00  0.00     0.167 HD
HETATM    4  C5  UNL     1      13.384   7.370  42.014  1.00  0.00     0.126 A 
HETATM    5  C6  UNL     1      13.548   6.105  42.559  1.00  0.00     0.160 A 
HETATM    6  N3  UNL     1      14.812   5.680  42.390  1.00  0.00    -0.197 N 
HETATM    7  S1  UNL     1      15.500   4.121  42.921  1.00  0.00     0.070 SA
HETATM    8  N4  UNL     1      15.437   6.651  41.752  1.00  0.00    -0.268 N 
ATOM      9  H4  UNL     1      16.420   6.619  41.481  1.00  0.00     0.190 HD
HETATM   10  C7  UNL     1      14.619   7.686  41.504  1.00  0.00     0.156 A 
HETATM   11  N5  UNL     1      14.501   8.929  40.955  1.00  0.00    -0.315 N 
ENDROOT
BRANCH  11  12
HETATM   12  C8  UNL     1      15.635   9.571  40.284  1.00  0.00     0.176 C 
BRANCH  12  13
HETATM   13  C9  UNL     1      15.582   9.188  38.842  1.00  0.00     0.083 C 
BRANCH  13  14
HETATM   14  N6  UNL     1      16.536   8.296  38.348  1.00  0.00    -0.373 N 
BRANCH  14  15
HETATM   15  C10 UNL     1      17.863   8.447  38.905  1.00  0.00     0.122 C 
HETATM   16  C11 UNL     1      18.935   8.562  37.831  1.00  0.00     0.027 C 
ENDBRANCH  14  15
BRANCH  14  17
HETATM   17  C12 UNL     1      16.473   7.820  37.030  1.00  0.00     0.058 C 
HETATM   18  C13 UNL     1      15.808   8.744  36.029  1.00  0.00     0.055 C 
ENDBRANCH  14  17
ENDBRANCH  13  14
ENDBRANCH  12  13
ENDBRANCH  11  12
BRANCH   1  19
HETATM   19  C3  UNL     1      12.665  10.712  40.683  1.00  0.00     0.076 C 
BRANCH  19  20
HETATM   20  C2  UNL     1      12.632  11.732  41.763  1.00  0.00     0.003 C 
HETATM   21  C1  UNL     1      13.774  12.714  41.579  1.00  0.00     0.005 C 
ENDBRANCH  19  20
ENDBRANCH   1  19
BRANCH   5  22
HETATM   22  N2  UNL     1      12.611   5.442  43.141  1.00  0.00    -0.382 N 
ATOM     23  H22 UNL     1      11.717   5.190  42.720  1.00  0.00     0.157 HD
ATOM     24  H21 UNL     1      12.664   5.097  44.100  1.00  0.00     0.157 HD
ENDBRANCH   5  22
TORSDOF 8
ENDMDL
MODEL 2
REMARK VINA RESULT: -4.885724574      3.183      4.537
REMARK  8 active torsions:
REMARK  status: ('A' for Active; 'I' for Inactive)
REMARK    1  A    between atoms: C2_2  and  C3_3 
REMARK    2  A    between atoms: C3_3  and  C4_4 
REMARK    3  A    between atoms: C6_8  and  N2_9 
REMARK    4  A    between atoms: N5_17  and  C8_18 
REMARK    5  A    between atoms: C8_18  and  C9_19 
REMARK    6  A    between atoms: C9_19  and  N6_20 
REMARK    7  A    between atoms: N6_20  and  C10_21 
REMARK    8  A    between atoms: N6_20  and  C12_23 
ROOT
HETATM    1  C4  UNL     1      15.476   8.701  40.529  1.00  0.00     0.086 A 
HETATM    2  N1  UNL     1      14.779   7.523  40.538  1.00  0.00    -0.340 N 
ATOM      3  H1  UNL     1      14.254   7.156  39.744  1.00  0.00     0.167 HD
HETATM    4  C5  UNL     1      14.879   6.918  41.726  1.00  0.00     0.126 A 
HETATM    5  C6  UNL     1      14.556   5.843  42.541  1.00  0.00     0.160 A 
HETATM    6  N3  UNL     1      15.113   5.989  43.755  1.00  0.00    -0.197 N 
HETATM    7  S1  UNL     1      14.983   4.867  45.137  1.00  0.00     0.070 SA
HETATM    8  N4  UNL     1      15.775   7.130  43.714  1.00  0.00    -0.268 N 
ATOM      9  H4  UNL     1      16.306   7.513  44.497  1.00  0.00     0.190 HD
HETATM   10  C7  UNL     1      15.663   7.723  42.515  1.00  0.00     0.156 A 
HETATM   11  N5  UNL     1      16.005   8.797  41.748  1.00  0.00    -0.315 N 
ENDROOT
BRANCH  11  12
HETATM   12  C8  UNL     1      16.876   9.854  42.270  1.00  0.00     0.176 C 
BRANCH  12  13
HETATM   13  C9  UNL     1      18.275   9.332  42.259  1.00  0.00     0.083 C 
BRANCH  13  14
HETATM   14  N6  UNL     1      19.124   9.661  43.319  1.00  0.00    -0.373 N 
BRANCH  14  15
HETATM   15  C10 UNL     1      18.786   9.053  44.587  1.00  0.00     0.122 C 
HETATM   16  C11 UNL     1      19.886   9.223  45.625  1.00  0.00     0.027 C 
ENDBRANCH  14  15
BRANCH  14  17
HETATM   17  C12 UNL     1      19.751  10.915  43.385  1.00  0.00     0.058 C 
HETATM   18  C13 UNL     1      21.056  11.036  42.622  1.00  0.00     0.055 C 
ENDBRANCH  14  17
ENDBRANCH  13  14
ENDBRANCH  12  13
ENDBRANCH  11  12
BRANCH   1  19
HETATM   19  C3  UNL     1      15.549   9.641  39.359  1.00  0.00     0.076 C 
BRANCH  19  20
HETATM   20  C2  UNL     1      16.664   9.359  38.420  1.00  0.00     0.003 C 
HETATM   21  C1  UNL     1      16.119   8.760  37.137  1.00  0.00     0.005 C 
ENDBRANCH  19  20
ENDBRANCH   1  19
BRANCH   5  22
HETATM   22  N2  UNL     1      13.826   4.850  42.170  1.00  0.00    -0.382 N 
ATOM     23  H22 UNL     1      13.877   4.385  41.264  1.00  0.00     0.157 HD
ATOM     24  H21 UNL     1      13.107   4.420  42.753  1.00  0.00     0.157 HD
ENDBRANCH   5  22
TORSDOF 8
ENDMDL
MODEL 3
REMARK VINA RESULT: -4.847758639      3.034      6.149
REMARK  8 active torsions:
REMARK  status: ('A' for Active; 'I' for Inactive)
REMARK    1  A    between atoms: C2_2  and  C3_3 
REMARK    2  A    between atoms: C3_3  and  C4_4 
REMARK    3  A    between atoms: C6_8  and  N2_9 
REMARK    4  A    between atoms: N5_17  and  C8_18 
REMARK    5  A    between atoms: C8_18  and  C9_19 
REMARK    6  A    between atoms: C9_19  and  N6_20 
REMARK    7  A    between atoms: N6_20  and  C10_21 
REMARK    8  A    between atoms: N6_20  and  C12_23 
ROOT
HETATM    1  C4  UNL     1      17.416   8.493  39.439  1.00  0.00     0.086 A 
HETATM    2  N1  UNL     1      17.877   7.717  38.410  1.00  0.00    -0.340 N 
ATOM      3  H1  UNL     1      18.662   7.070  38.481  1.00  0.00     0.167 HD
HETATM    4  C5  UNL     1      17.160   7.920  37.300  1.00  0.00     0.126 A 
HETATM    5  C6  UNL     1      16.929   7.622  35.965  1.00  0.00     0.160 A 
HETATM    6  N3  UNL     1      15.892   8.336  35.496  1.00  0.00    -0.197 N 
HETATM    7  S1  UNL     1      15.222   8.295  33.842  1.00  0.00     0.070 SA
HETATM    8  N4  UNL     1      15.472   9.072  36.508  1.00  0.00    -0.268 N 
ATOM      9  H4  UNL     1      14.689   9.724  36.456  1.00  0.00     0.190 HD
HETATM   10  C7  UNL     1      16.204   8.855  37.613  1.00  0.00     0.156 A 
HETATM   11  N5  UNL     1      16.395   9.177  38.924  1.00  0.00    -0.315 N 
ENDROOT
BRANCH  11  12
HETATM   12  C8  UNL     1      15.519  10.135  39.604  1.00  0.00     0.176 C 
BRANCH  12  13
HETATM   13  C9  UNL     1      14.461   9.355  40.313  1.00  0.00     0.083 C 
BRANCH  13  14
HETATM   14  N6  UNL     1      14.021   9.800  41.561  1.00  0.00    -0.373 N 
BRANCH  14  15
HETATM   15  C10 UNL     1      13.514   8.767  42.437  1.00  0.00     0.122 C 
HETATM   16  C11 UNL     1      12.778   7.671  41.679  1.00  0.00     0.027 C 
ENDBRANCH  14  15
BRANCH  14  17
HETATM   17  C12 UNL     1      13.455  11.074  41.721  1.00  0.00     0.058 C 
HETATM   18  C13 UNL     1      12.176  11.326  40.948  1.00  0.00     0.055 C 
ENDBRANCH  14  17
ENDBRANCH  13  14
ENDBRANCH  12  13
ENDBRANCH  11  12
BRANCH   1  19
HETATM   19  C3  UNL     1      18.015   8.528  40.816  1.00  0.00     0.076 C 
BRANCH  19  20
HETATM   20  C2  UNL     1      17.301   7.689  41.812  1.00  0.00     0.003 C 
HETATM   21  C1  UNL     1      17.127   8.462  43.106  1.00  0.00     0.005 C 
ENDBRANCH  19  20
ENDBRANCH   1  19
BRANCH   5  22
HETATM   22  N2  UNL     1      17.619   6.775  35.285  1.00  0.00    -0.382 N 
ATOM     23  H22 UNL     1      17.514   5.761  35.325  1.00  0.00     0.157 HD
ATOM     24  H21 UNL     1      18.355   7.033  34.628  1.00  0.00     0.157 HD
ENDBRANCH   5  22
TORSDOF 8
ENDMDL
MODEL 4
REMARK VINA RESULT: -4.800231957      2.970      5.342
REMARK  8 active torsions:
REMARK  status: ('A' for Active; 'I' for Inactive)
REMARK    1  A    between atoms: C2_2  and  C3_3 
REMARK    2  A    between atoms: C3_3  and  C4_4 
REMARK    3  A    between atoms: C6_8  and  N2_9 
REMARK    4  A    between atoms: N5_17  and  C8_18 
REMARK    5  A    between atoms: C8_18  and  C9_19 
REMARK    6  A    between atoms: C9_19  and  N6_20 
REMARK    7  A    between atoms: N6_20  and  C10_21 
REMARK    8  A    between atoms: N6_20  and  C12_23 
ROOT
HETATM    1  C4  UNL     1      15.712   9.274  40.038  1.00  0.00     0.086 A 
HETATM    2  N1  UNL     1      15.277  10.571  40.013  1.00  0.00    -0.340 N 
ATOM      3  H1  UNL     1      15.651  11.295  39.399  1.00  0.00     0.167 HD
HETATM    4  C5  UNL     1      14.295  10.763  40.899  1.00  0.00     0.126 A 
HETATM    5  C6  UNL     1      13.380  11.622  41.489  1.00  0.00     0.160 A 
HETATM    6  N3  UNL     1      12.655  10.973  42.416  1.00  0.00    -0.197 N 
HETATM    7  S1  UNL     1      11.359  11.657  43.437  1.00  0.00     0.070 SA
HETATM    8  N4  UNL     1      13.098   9.731  42.417  1.00  0.00    -0.268 N 
ATOM      9  H4  UNL     1      12.737   8.993  43.023  1.00  0.00     0.190 HD
HETATM   10  C7  UNL     1      14.083   9.557  41.521  1.00  0.00     0.156 A 
HETATM   11  N5  UNL     1      14.967   8.678  40.968  1.00  0.00    -0.315 N 
ENDROOT
BRANCH  11  12
HETATM   12  C8  UNL     1      14.994   7.272  41.379  1.00  0.00     0.176 C 
BRANCH  12  13
HETATM   13  C9  UNL     1      15.643   7.208  42.723  1.00  0.00     0.083 C 
BRANCH  13  14
HETATM   14  N6  UNL     1      17.031   7.340  42.805  1.00  0.00    -0.373 N 
BRANCH  14  15
HETATM   15  C10 UNL     1      17.762   6.094  42.883  1.00  0.00     0.122 C 
HETATM   16  C11 UNL     1      17.001   5.020  43.648  1.00  0.00     0.027 C 
ENDBRANCH  14  15
BRANCH  14  17
HETATM   17  C12 UNL     1      17.621   8.440  43.446  1.00  0.00     0.058 C 
HETATM   18  C13 UNL     1      18.408   9.377  42.550  1.00  0.00     0.055 C 
ENDBRANCH  14  17
ENDBRANCH  13  14
ENDBRANCH  12  13
ENDBRANCH  11  12
BRANCH   1  19
HETATM   19  C3  UNL     1      16.824   8.730  39.186  1.00  0.00     0.076 C 
BRANCH  19  20
HETATM   20  C2  UNL     1      16.964   9.399  37.868  1.00  0.00     0.003 C 
HETATM   21  C1  UNL     1      16.098   8.697  36.839  1.00  0.00     0.005 C 
ENDBRANCH  19  20
ENDBRANCH   1  19
BRANCH   5  22
HETATM   22  N2  UNL     1      13.253  12.865  41.179  1.00  0.00    -0.382 N 
ATOM     23  H22 UNL     1      13.827  13.626  41.543  1.00  0.00     0.157 HD
ATOM     24  H21 UNL     1      12.553  13.224  40.530  1.00  0.00     0.157 HD
ENDBRANCH   5  22
TORSDOF 8
ENDMDL
MODEL 5
REMARK VINA RESULT: -4.791190327      3.102      4.560
REMARK  8 active torsions:
REMARK  status: ('A' for Active; 'I' for Inactive)
REMARK    1  A    between atoms: C2_2  and  C3_3 
REMARK    2  A    between atoms: C3_3  and  C4_4 
REMARK    3  A    between atoms: C6_8  and  N2_9 
REMARK    4  A    between atoms: N5_17  and  C8_18 
REMARK    5  A    between atoms: C8_18  and  C9_19 
REMARK    6  A    between atoms: C9_19  and  N6_20 
REMARK    7  A    between atoms: N6_20  and  C10_21 
REMARK    8  A    between atoms: N6_20  and  C12_23 
ROOT
HETATM    1  C4  UNL     1      16.431   9.486  41.614  1.00  0.00     0.086 A 
HETATM    2  N1  UNL     1      15.989  10.461  42.467  1.00  0.00    -0.340 N 
ATOM      3  H1  UNL     1      16.532  10.843  43.241  1.00  0.00     0.167 HD
HETATM    4  C5  UNL     1      14.749  10.847  42.148  1.00  0.00     0.126 A 
HETATM    5  C6  UNL     1      13.655  11.659  42.409  1.00  0.00     0.160 A 
HETATM    6  N3  UNL     1      12.670  11.420  41.527  1.00  0.00    -0.197 N 
HETATM    7  S1  UNL     1      11.073  12.215  41.459  1.00  0.00     0.070 SA
HETATM    8  N4  UNL     1      13.126  10.478  40.723  1.00  0.00    -0.268 N 
ATOM      9  H4  UNL     1      12.598  10.084  39.943  1.00  0.00     0.190 HD
HETATM   10  C7  UNL     1      14.371  10.103  41.057  1.00  0.00     0.156 A 
HETATM   11  N5  UNL     1      15.424   9.288  40.765  1.00  0.00    -0.315 N 
ENDROOT
BRANCH  11  12
HETATM   12  C8  UNL     1      15.377   8.370  39.623  1.00  0.00     0.176 C 
BRANCH  12  13
HETATM   13  C9  UNL     1      15.939   9.090  38.442  1.00  0.00     0.083 C 
BRANCH  13  14
HETATM   14  N6  UNL     1      16.233   8.360  37.288  1.00  0.00    -0.373 N 
BRANCH  14  15
HETATM   15  C10 UNL     1      17.520   7.698  37.293  1.00  0.00     0.122 C 
HETATM   16  C11 UNL     1      18.643   8.613  37.760  1.00  0.00     0.027 C 
ENDBRANCH  14  15
BRANCH  14  17
HETATM   17  C12 UNL     1      15.751   8.758  36.032  1.00  0.00     0.058 C 
HETATM   18  C13 UNL     1      16.231   7.933  34.854  1.00  0.00     0.055 C 
ENDBRANCH  14  17
ENDBRANCH  13  14
ENDBRANCH  12  13
ENDBRANCH  11  12
BRANCH   1  19
HETATM   19  C3  UNL     1      17.771   8.814  41.709  1.00  0.00     0.076 C 
BRANCH  19  20
HETATM   20  C2  UNL     1      17.992   8.073  42.977  1.00  0.00     0.003 C 
HETATM   21  C1  UNL     1      17.659   6.605  42.780  1.00  0.00     0.005 C 
ENDBRANCH  19  20
ENDBRANCH   1  19
BRANCH   5  22
HETATM   22  N2  UNL     1      13.606  12.518  43.366  1.00  0.00    -0.382 N 
ATOM     23  H22 UNL     1      14.086  12.433  44.262  1.00  0.00     0.157 HD
ATOM     24  H21 UNL     1      13.072  13.387  43.328  1.00  0.00     0.157 HD
ENDBRANCH   5  22
TORSDOF 8
ENDMDL
