MODEL 1
REMARK VINA RESULT: -7.002862783      0.000      0.000
REMARK  10 active torsions:
REMARK  status: ('A' for Active; 'I' for Inactive)
REMARK    1  A    between atoms: C2_2  and  C3_3 
REMARK    2  A    between atoms: C4_4  and  O1_5 
REMARK    3  A    between atoms: O1_5  and  N1_6 
REMARK    4  A    between atoms: N1_6  and  C5_8 
REMARK    5  A    between atoms: C5_8  and  C6_9 
REMARK    6  A    between atoms: C6_9  and  N2_10 
REMARK    7  A    between atoms: N2_10  and  C7_12 
REMARK    8  A    between atoms: C7_12  and  C8_13 
REMARK    9  A    between atoms: C7_12  and  N3_15 
REMARK   10  A    between atoms: C10_22  and  C11_23 
ROOT
HETATM    1  C7  UNL     1      17.311   7.932  38.065  1.00  0.00     0.243 C 
ENDROOT
BRANCH   1   2
HETATM    2  N2  UNL     1      16.861   7.549  36.787  1.00  0.00    -0.395 N 
ATOM      3  H2  UNL     1      17.197   6.669  36.396  1.00  0.00     0.155 HD
BRANCH   2   4
HETATM    4  C6  UNL     1      15.998   8.297  36.051  1.00  0.00     0.137 C 
BRANCH   4   5
HETATM    5  C5  UNL     1      16.261   8.205  34.533  1.00  0.00     0.166 C 
BRANCH   5   6
HETATM    6  N1  UNL     1      17.682   8.137  34.391  1.00  0.00    -0.296 N 
ATOM      7  H1  UNL     1      18.291   8.899  34.691  1.00  0.00     0.188 HD
BRANCH   6   8
HETATM    8  O1  UNL     1      18.144   7.077  33.870  1.00  0.00    -0.255 OA
BRANCH   8   9
HETATM    9  C4  UNL     1      18.494   6.338  32.856  1.00  0.00     0.163 C 
HETATM   10  C3  UNL     1      18.326   5.042  32.776  1.00  0.00    -0.001 C 
BRANCH  10  11
HETATM   11  C2  UNL     1      18.783   4.339  31.543  1.00  0.00     0.024 C 
HETATM   12  C1  UNL     1      19.519   5.406  30.709  1.00  0.00     0.009 C 
ENDBRANCH  10  11
ENDBRANCH   8   9
ENDBRANCH   6   8
ENDBRANCH   5   6
ENDBRANCH   4   5
ENDBRANCH   2   4
ENDBRANCH   1   2
BRANCH   1  13
HETATM   13  C8  UNL     1      18.512   8.855  37.861  1.00  0.00     0.277 C 
HETATM   14  O2  UNL     1      19.181   8.882  36.880  1.00  0.00    -0.303 OA
ENDBRANCH   1  13
BRANCH   1  15
HETATM   15  N3  UNL     1      16.368   8.766  38.725  1.00  0.00    -0.328 N 
HETATM   16  C9  UNL     1      15.578   8.519  39.696  1.00  0.00     0.242 A 
HETATM   17  N4  UNL     1      14.743   9.516  40.151  1.00  0.00    -0.263 N 
HETATM   18  O3  UNL     1      15.346   7.459  40.428  1.00  0.00    -0.263 OA
HETATM   19  N5  UNL     1      14.071   8.972  41.128  1.00  0.00    -0.279 N 
ATOM     20  H4  UNL     1      14.667  10.471  39.801  1.00  0.00     0.190 HD
HETATM   21  C10 UNL     1      14.419   7.687  41.329  1.00  0.00     0.149 A 
ATOM     22  H5  UNL     1      13.364   9.463  41.676  1.00  0.00     0.189 HD
ATOM     23  H3  UNL     1      16.315   9.718  38.363  1.00  0.00     0.165 HD
BRANCH  21  24
HETATM   24  C11 UNL     1      13.829   6.810  42.366  1.00  0.00     0.016 C 
HETATM   25  C12 UNL     1      14.395   5.457  42.336  1.00  0.00     0.023 C 
HETATM   26  C13 UNL     1      12.316   6.758  42.187  1.00  0.00     0.023 C 
HETATM   27  C14 UNL     1      14.098   7.400  43.756  1.00  0.00     0.023 C 
ENDBRANCH  21  24
ENDBRANCH   1  15
TORSDOF 10
ENDMDL
MODEL 2
REMARK VINA RESULT: -6.904763287      1.449      1.817
REMARK  10 active torsions:
REMARK  status: ('A' for Active; 'I' for Inactive)
REMARK    1  A    between atoms: C2_2  and  C3_3 
REMARK    2  A    between atoms: C4_4  and  O1_5 
REMARK    3  A    between atoms: O1_5  and  N1_6 
REMARK    4  A    between atoms: N1_6  and  C5_8 
REMARK    5  A    between atoms: C5_8  and  C6_9 
REMARK    6  A    between atoms: C6_9  and  N2_10 
REMARK    7  A    between atoms: N2_10  and  C7_12 
REMARK    8  A    between atoms: C7_12  and  C8_13 
REMARK    9  A    between atoms: C7_12  and  N3_15 
REMARK   10  A    between atoms: C10_22  and  C11_23 
ROOT
HETATM    1  C7  UNL     1      17.827   8.222  38.145  1.00  0.00     0.243 C 
ENDROOT
BRANCH   1   2
HETATM    2  N2  UNL     1      16.872   9.047  37.519  1.00  0.00    -0.395 N 
ATOM      3  H2  UNL     1      16.812  10.025  37.803  1.00  0.00     0.155 HD
BRANCH   2   4
HETATM    4  C6  UNL     1      16.026   8.599  36.554  1.00  0.00     0.137 C 
BRANCH   4   5
HETATM    5  C5  UNL     1      16.642   7.488  35.679  1.00  0.00     0.166 C 
BRANCH   5   6
HETATM    6  N1  UNL     1      17.404   8.164  34.675  1.00  0.00    -0.296 N 
ATOM      7  H1  UNL     1      17.340   9.173  34.538  1.00  0.00     0.188 HD
BRANCH   6   8
HETATM    8  O1  UNL     1      18.164   7.439  33.965  1.00  0.00    -0.255 OA
BRANCH   8   9
HETATM    9  C4  UNL     1      18.394   6.592  33.002  1.00  0.00     0.163 C 
HETATM   10  C3  UNL     1      18.177   5.302  33.068  1.00  0.00    -0.001 C 
BRANCH  10  11
HETATM   11  C2  UNL     1      18.493   4.465  31.875  1.00  0.00     0.024 C 
HETATM   12  C1  UNL     1      19.203   5.410  30.884  1.00  0.00     0.009 C 
ENDBRANCH  10  11
ENDBRANCH   8   9
ENDBRANCH   6   8
ENDBRANCH   5   6
ENDBRANCH   4   5
ENDBRANCH   2   4
ENDBRANCH   1   2
BRANCH   1  13
HETATM   13  C8  UNL     1      19.205   8.737  37.734  1.00  0.00     0.277 C 
HETATM   14  O2  UNL     1      19.481   9.129  36.647  1.00  0.00    -0.303 OA
ENDBRANCH   1  13
BRANCH   1  15
HETATM   15  N3  UNL     1      17.823   8.393  39.556  1.00  0.00    -0.328 N 
HETATM   16  C9  UNL     1      16.856   8.589  40.366  1.00  0.00     0.242 A 
HETATM   17  N4  UNL     1      17.126   8.734  41.709  1.00  0.00    -0.263 N 
HETATM   18  O3  UNL     1      15.560   8.697  40.220  1.00  0.00    -0.263 OA
HETATM   19  N5  UNL     1      15.962   8.918  42.268  1.00  0.00    -0.279 N 
ATOM     20  H4  UNL     1      18.037   8.703  42.167  1.00  0.00     0.190 HD
HETATM   21  C10 UNL     1      14.960   8.903  41.369  1.00  0.00     0.149 A 
ATOM     22  H5  UNL     1      15.827   9.056  43.270  1.00  0.00     0.189 HD
ATOM     23  H3  UNL     1      18.743   8.352  39.993  1.00  0.00     0.165 HD
BRANCH  21  24
HETATM   24  C11 UNL     1      13.529   9.086  41.704  1.00  0.00     0.016 C 
HETATM   25  C12 UNL     1      13.334   9.515  43.093  1.00  0.00     0.023 C 
HETATM   26  C13 UNL     1      12.775   7.788  41.437  1.00  0.00     0.023 C 
HETATM   27  C14 UNL     1      12.918  10.158  40.792  1.00  0.00     0.023 C 
ENDBRANCH  21  24
ENDBRANCH   1  15
TORSDOF 10
ENDMDL
MODEL 3
REMARK VINA RESULT: -6.744122301      2.331      2.837
REMARK  10 active torsions:
REMARK  status: ('A' for Active; 'I' for Inactive)
REMARK    1  A    between atoms: C2_2  and  C3_3 
REMARK    2  A    between atoms: C4_4  and  O1_5 
REMARK    3  A    between atoms: O1_5  and  N1_6 
REMARK    4  A    between atoms: N1_6  and  C5_8 
REMARK    5  A    between atoms: C5_8  and  C6_9 
REMARK    6  A    between atoms: C6_9  and  N2_10 
REMARK    7  A    between atoms: N2_10  and  C7_12 
REMARK    8  A    between atoms: C7_12  and  C8_13 
REMARK    9  A    between atoms: C7_12  and  N3_15 
REMARK   10  A    between atoms: C10_22  and  C11_23 
ROOT
HETATM    1  C7  UNL     1      17.655   7.897  38.102  1.00  0.00     0.243 C 
ENDROOT
BRANCH   1   2
HETATM    2  N2  UNL     1      17.031   7.513  36.899  1.00  0.00    -0.395 N 
ATOM      3  H2  UNL     1      17.288   6.618  36.482  1.00  0.00     0.155 HD
BRANCH   2   4
HETATM    4  C6  UNL     1      16.104   8.280  36.269  1.00  0.00     0.137 C 
BRANCH   4   5
HETATM    5  C5  UNL     1      16.184   8.184  34.731  1.00  0.00     0.166 C 
BRANCH   5   6
HETATM    6  N1  UNL     1      17.580   8.162  34.418  1.00  0.00    -0.296 N 
ATOM      7  H1  UNL     1      18.183   8.968  34.584  1.00  0.00     0.188 HD
BRANCH   6   8
HETATM    8  O1  UNL     1      18.026   7.084  33.922  1.00  0.00    -0.255 OA
BRANCH   8   9
HETATM    9  C4  UNL     1      18.411   6.334  32.928  1.00  0.00     0.163 C 
HETATM   10  C3  UNL     1      18.259   5.036  32.863  1.00  0.00    -0.001 C 
BRANCH  10  11
HETATM   11  C2  UNL     1      18.757   4.320  31.652  1.00  0.00     0.024 C 
HETATM   12  C1  UNL     1      19.449   5.396  30.793  1.00  0.00     0.009 C 
ENDBRANCH  10  11
ENDBRANCH   8   9
ENDBRANCH   6   8
ENDBRANCH   5   6
ENDBRANCH   4   5
ENDBRANCH   2   4
ENDBRANCH   1   2
BRANCH   1  13
HETATM   13  C8  UNL     1      18.821   8.811  37.733  1.00  0.00     0.277 C 
HETATM   14  O2  UNL     1      19.244   8.954  36.632  1.00  0.00    -0.303 OA
ENDBRANCH   1  13
BRANCH   1  15
HETATM   15  N3  UNL     1      16.816   8.738  38.883  1.00  0.00    -0.328 N 
HETATM   16  C9  UNL     1      16.908   9.100  40.104  1.00  0.00     0.242 A 
HETATM   17  N4  UNL     1      15.941   9.928  40.631  1.00  0.00    -0.263 N 
HETATM   18  O3  UNL     1      17.768   8.856  41.059  1.00  0.00    -0.263 OA
HETATM   19  N5  UNL     1      16.301  10.117  41.871  1.00  0.00    -0.279 N 
ATOM     20  H4  UNL     1      15.123  10.310  40.157  1.00  0.00     0.190 HD
HETATM   21  C10 UNL     1      17.436   9.461  42.175  1.00  0.00     0.149 A 
ATOM     22  H5  UNL     1      15.782  10.694  42.532  1.00  0.00     0.189 HD
ATOM     23  H3  UNL     1      16.010   9.114  38.386  1.00  0.00     0.165 HD
BRANCH  21  24
HETATM   24  C11 UNL     1      18.089   9.485  43.504  1.00  0.00     0.016 C 
HETATM   25  C12 UNL     1      17.339  10.287  44.477  1.00  0.00     0.023 C 
HETATM   26  C13 UNL     1      19.512  10.013  43.362  1.00  0.00     0.023 C 
HETATM   27  C14 UNL     1      18.191   8.056  44.055  1.00  0.00     0.023 C 
ENDBRANCH  21  24
ENDBRANCH   1  15
TORSDOF 10
ENDMDL
MODEL 4
REMARK VINA RESULT: -6.619714591      1.055      1.127
REMARK  10 active torsions:
REMARK  status: ('A' for Active; 'I' for Inactive)
REMARK    1  A    between atoms: C2_2  and  C3_3 
REMARK    2  A    between atoms: C4_4  and  O1_5 
REMARK    3  A    between atoms: O1_5  and  N1_6 
REMARK    4  A    between atoms: N1_6  and  C5_8 
REMARK    5  A    between atoms: C5_8  and  C6_9 
REMARK    6  A    between atoms: C6_9  and  N2_10 
REMARK    7  A    between atoms: N2_10  and  C7_12 
REMARK    8  A    between atoms: C7_12  and  C8_13 
REMARK    9  A    between atoms: C7_12  and  N3_15 
REMARK   10  A    between atoms: C10_22  and  C11_23 
ROOT
HETATM    1  C7  UNL     1      17.318   7.903  37.396  1.00  0.00     0.243 C 
ENDROOT
BRANCH   1   2
HETATM    2  N2  UNL     1      17.178   8.135  36.013  1.00  0.00    -0.395 N 
ATOM      3  H2  UNL     1      18.002   8.044  35.419  1.00  0.00     0.155 HD
BRANCH   2   4
HETATM    4  C6  UNL     1      15.996   8.475  35.436  1.00  0.00     0.137 C 
BRANCH   4   5
HETATM    5  C5  UNL     1      15.669   7.633  34.186  1.00  0.00     0.166 C 
BRANCH   5   6
HETATM    6  N1  UNL     1      16.172   6.322  34.461  1.00  0.00    -0.296 N 
ATOM      7  H1  UNL     1      15.632   5.638  34.991  1.00  0.00     0.188 HD
BRANCH   6   8
HETATM    8  O1  UNL     1      17.327   6.059  34.010  1.00  0.00    -0.255 OA
BRANCH   8   9
HETATM    9  C4  UNL     1      18.175   5.836  33.045  1.00  0.00     0.163 C 
HETATM   10  C3  UNL     1      18.332   4.689  32.433  1.00  0.00    -0.001 C 
BRANCH  10  11
HETATM   11  C2  UNL     1      19.348   4.596  31.346  1.00  0.00     0.024 C 
HETATM   12  C1  UNL     1      19.581   6.045  30.873  1.00  0.00     0.009 C 
ENDBRANCH  10  11
ENDBRANCH   8   9
ENDBRANCH   6   8
ENDBRANCH   5   6
ENDBRANCH   4   5
ENDBRANCH   2   4
ENDBRANCH   1   2
BRANCH   1  13
HETATM   13  C8  UNL     1      18.663   8.491  37.818  1.00  0.00     0.277 C 
HETATM   14  O2  UNL     1      19.409   9.057  37.087  1.00  0.00    -0.303 OA
ENDBRANCH   1  13
BRANCH   1  15
HETATM   15  N3  UNL     1      16.381   8.658  38.152  1.00  0.00    -0.328 N 
HETATM   16  C9  UNL     1      15.921   8.473  39.329  1.00  0.00     0.242 A 
HETATM   17  N4  UNL     1      14.999   9.362  39.835  1.00  0.00    -0.263 N 
HETATM   18  O3  UNL     1      16.129   7.567  40.250  1.00  0.00    -0.263 OA
HETATM   19  N5  UNL     1      14.724   8.917  41.030  1.00  0.00    -0.279 N 
ATOM     20  H4  UNL     1      14.615  10.188  39.377  1.00  0.00     0.190 HD
HETATM   21  C10 UNL     1      15.410   7.796  41.324  1.00  0.00     0.149 A 
ATOM     22  H5  UNL     1      14.067   9.366  41.668  1.00  0.00     0.189 HD
ATOM     23  H3  UNL     1      16.016   9.482  37.677  1.00  0.00     0.165 HD
BRANCH  21  24
HETATM   24  C11 UNL     1      15.307   7.060  42.605  1.00  0.00     0.016 C 
HETATM   25  C12 UNL     1      16.549   6.355  42.942  1.00  0.00     0.023 C 
HETATM   26  C13 UNL     1      14.141   6.081  42.537  1.00  0.00     0.023 C 
HETATM   27  C14 UNL     1      15.004   8.044  43.743  1.00  0.00     0.023 C 
ENDBRANCH  21  24
ENDBRANCH   1  15
TORSDOF 10
ENDMDL
MODEL 5
REMARK VINA RESULT: -6.325452876      1.718      2.465
REMARK  10 active torsions:
REMARK  status: ('A' for Active; 'I' for Inactive)
REMARK    1  A    between atoms: C2_2  and  C3_3 
REMARK    2  A    between atoms: C4_4  and  O1_5 
REMARK    3  A    between atoms: O1_5  and  N1_6 
REMARK    4  A    between atoms: N1_6  and  C5_8 
REMARK    5  A    between atoms: C5_8  and  C6_9 
REMARK    6  A    between atoms: C6_9  and  N2_10 
REMARK    7  A    between atoms: N2_10  and  C7_12 
REMARK    8  A    between atoms: C7_12  and  C8_13 
REMARK    9  A    between atoms: C7_12  and  N3_15 
REMARK   10  A    between atoms: C10_22  and  C11_23 
ROOT
HETATM    1  C7  UNL     1      16.075   8.453  39.381  1.00  0.00     0.243 C 
ENDROOT
BRANCH   1   2
HETATM    2  N2  UNL     1      16.145   7.971  38.059  1.00  0.00    -0.395 N 
ATOM      3  H2  UNL     1      16.156   6.963  37.909  1.00  0.00     0.155 HD
BRANCH   2   4
HETATM    4  C6  UNL     1      16.198   8.789  36.975  1.00  0.00     0.137 C 
BRANCH   4   5
HETATM    5  C5  UNL     1      16.382   8.023  35.648  1.00  0.00     0.166 C 
BRANCH   5   6
HETATM    6  N1  UNL     1      17.773   8.132  35.330  1.00  0.00    -0.296 N 
ATOM      7  H1  UNL     1      18.443   8.546  35.979  1.00  0.00     0.188 HD
BRANCH   6   8
HETATM    8  O1  UNL     1      18.125   7.685  34.198  1.00  0.00    -0.255 OA
BRANCH   8   9
HETATM    9  C4  UNL     1      18.149   6.777  33.263  1.00  0.00     0.163 C 
HETATM   10  C3  UNL     1      18.115   5.485  33.469  1.00  0.00    -0.001 C 
BRANCH  10  11
HETATM   11  C2  UNL     1      18.150   4.574  32.288  1.00  0.00     0.024 C 
HETATM   12  C1  UNL     1      19.127   5.229  31.291  1.00  0.00     0.009 C 
ENDBRANCH  10  11
ENDBRANCH   8   9
ENDBRANCH   6   8
ENDBRANCH   5   6
ENDBRANCH   4   5
ENDBRANCH   2   4
ENDBRANCH   1   2
BRANCH   1  13
HETATM   13  C8  UNL     1      15.876   9.965  39.299  1.00  0.00     0.277 C 
HETATM   14  O2  UNL     1      15.429  10.634  40.174  1.00  0.00    -0.303 OA
ENDBRANCH   1  13
BRANCH   1  15
HETATM   15  N3  UNL     1      14.899   8.005  40.041  1.00  0.00    -0.328 N 
HETATM   16  C9  UNL     1      14.744   7.139  40.967  1.00  0.00     0.242 A 
HETATM   17  N4  UNL     1      13.475   6.877  41.434  1.00  0.00    -0.263 N 
HETATM   18  O3  UNL     1      15.567   6.374  41.637  1.00  0.00    -0.263 OA
HETATM   19  N5  UNL     1      13.637   5.969  42.356  1.00  0.00    -0.279 N 
ATOM     20  H4  UNL     1      12.600   7.302  41.127  1.00  0.00     0.190 HD
HETATM   21  C10 UNL     1      14.931   5.627  42.509  1.00  0.00     0.149 A 
ATOM     22  H5  UNL     1      12.873   5.564  42.897  1.00  0.00     0.189 HD
ATOM     23  H3  UNL     1      14.037   8.447  39.723  1.00  0.00     0.165 HD
BRANCH  21  24
HETATM   24  C11 UNL     1      15.424   4.622  43.478  1.00  0.00     0.016 C 
HETATM   25  C12 UNL     1      15.343   3.255  42.951  1.00  0.00     0.023 C 
HETATM   26  C13 UNL     1      14.636   4.739  44.777  1.00  0.00     0.023 C 
HETATM   27  C14 UNL     1      16.894   4.908  43.815  1.00  0.00     0.023 C 
ENDBRANCH  21  24
ENDBRANCH   1  15
TORSDOF 10
ENDMDL
