MODEL 1
REMARK VINA RESULT: -5.215383199      0.000      0.000
REMARK  4 active torsions:
REMARK  status: ('A' for Active; 'I' for Inactive)
REMARK    1  A    between atoms: C2_2  and  C3_3 
REMARK    2  A    between atoms: C3_3  and  N1_4 
REMARK    3  A    between atoms: C4_5  and  C5_6 
REMARK    4  A    between atoms: C9_11  and  N2_12 
ROOT
HETATM    1  N1  UNL     1      15.026  37.590  36.727  1.00  0.00     0.133 N 
HETATM    2  C4  UNL     1      14.770  37.543  38.170  1.00  0.00     0.231 C 
HETATM    3  C7  UNL     1      14.167  38.904  38.074  1.00  0.00     0.112 C 
HETATM    4  C8  UNL     1      15.003  39.005  36.820  1.00  0.00     0.317 A 
HETATM    5  O1  UNL     1      14.683  39.857  35.798  1.00  0.00    -0.311 OA
HETATM    6  C9  UNL     1      15.921  39.985  36.604  1.00  0.00     0.388 A 
ENDROOT
BRANCH   1   7
HETATM    7  C3  UNL     1      13.914  37.098  35.936  1.00  0.00     0.277 C 
BRANCH   7   8
HETATM    8  C2  UNL     1      14.258  35.734  35.407  1.00  0.00     0.026 C 
HETATM    9  C1  UNL     1      13.083  34.808  35.321  1.00  0.00     0.007 C 
ENDBRANCH   7   8
ENDBRANCH   1   7
BRANCH   6  10
HETATM   10  N2  UNL     1      15.880  41.229  37.348  1.00  0.00    -0.048 N 
ATOM     11  H23 UNL     1      14.902  41.500  37.457  1.00  0.00     0.277 HD
ATOM     12  H22 UNL     1      16.151  41.029  38.311  1.00  0.00     0.277 HD
ATOM     13  H21 UNL     1      16.401  42.048  37.036  1.00  0.00     0.277 HD
ENDBRANCH   6  10
BRANCH   2  14
HETATM   14  C5  UNL     1      13.735  36.526  38.549  1.00  0.00     0.031 C 
HETATM   15  C6  UNL     1      14.333  35.606  39.588  1.00  0.00     0.007 C 
ENDBRANCH   2  14
TORSDOF 4
ENDMDL
MODEL 2
REMARK VINA RESULT: -5.089000332      3.096      4.371
REMARK  4 active torsions:
REMARK  status: ('A' for Active; 'I' for Inactive)
REMARK    1  A    between atoms: C2_2  and  C3_3 
REMARK    2  A    between atoms: C3_3  and  N1_4 
REMARK    3  A    between atoms: C4_5  and  C5_6 
REMARK    4  A    between atoms: C9_11  and  N2_12 
ROOT
HETATM    1  N1  UNL     1      12.456  35.614  34.107  1.00  0.00     0.133 N 
HETATM    2  C4  UNL     1      12.176  34.525  35.047  1.00  0.00     0.231 C 
HETATM    3  C7  UNL     1      12.613  35.417  36.159  1.00  0.00     0.112 C 
HETATM    4  C8  UNL     1      13.359  36.141  35.064  1.00  0.00     0.317 A 
HETATM    5  O1  UNL     1      13.713  37.458  35.172  1.00  0.00    -0.311 OA
HETATM    6  C9  UNL     1      14.702  36.357  35.084  1.00  0.00     0.388 A 
ENDROOT
BRANCH   1   7
HETATM    7  C3  UNL     1      11.324  36.500  33.909  1.00  0.00     0.277 C 
BRANCH   7   8
HETATM    8  C2  UNL     1      11.228  36.851  32.451  1.00  0.00     0.026 C 
HETATM    9  C1  UNL     1      10.472  35.846  31.638  1.00  0.00     0.007 C 
ENDBRANCH   7   8
ENDBRANCH   1   7
BRANCH   6  10
HETATM   10  N2  UNL     1      15.455  36.290  36.321  1.00  0.00    -0.048 N 
ATOM     11  H23 UNL     1      15.358  37.185  36.799  1.00  0.00     0.277 HD
ATOM     12  H22 UNL     1      14.964  35.658  36.955  1.00  0.00     0.277 HD
ATOM     13  H21 UNL     1      16.442  36.036  36.325  1.00  0.00     0.277 HD
ENDBRANCH   6  10
BRANCH   2  14
HETATM   14  C5  UNL     1      10.714  34.208  35.159  1.00  0.00     0.031 C 
HETATM   15  C6  UNL     1      10.312  34.334  36.610  1.00  0.00     0.007 C 
ENDBRANCH   2  14
TORSDOF 4
ENDMDL
MODEL 3
REMARK VINA RESULT: -4.817397107      3.674      5.477
REMARK  4 active torsions:
REMARK  status: ('A' for Active; 'I' for Inactive)
REMARK    1  A    between atoms: C2_2  and  C3_3 
REMARK    2  A    between atoms: C3_3  and  N1_4 
REMARK    3  A    between atoms: C4_5  and  C5_6 
REMARK    4  A    between atoms: C9_11  and  N2_12 
ROOT
HETATM    1  N1  UNL     1      11.639  36.311  34.566  1.00  0.00     0.133 N 
HETATM    2  C4  UNL     1      10.619  35.260  34.565  1.00  0.00     0.231 C 
HETATM    3  C7  UNL     1      10.981  34.953  33.151  1.00  0.00     0.112 C 
HETATM    4  C8  UNL     1      11.509  36.369  33.155  1.00  0.00     0.317 A 
HETATM    5  O1  UNL     1      12.483  36.784  32.289  1.00  0.00    -0.311 OA
HETATM    6  C9  UNL     1      11.103  37.326  32.278  1.00  0.00     0.388 A 
ENDROOT
BRANCH   1   7
HETATM    7  C3  UNL     1      12.952  35.830  34.952  1.00  0.00     0.277 C 
BRANCH   7   8
HETATM    8  C2  UNL     1      13.553  36.788  35.941  1.00  0.00     0.026 C 
HETATM    9  C1  UNL     1      13.895  36.160  37.257  1.00  0.00     0.007 C 
ENDBRANCH   7   8
ENDBRANCH   1   7
BRANCH   6  10
HETATM   10  N2  UNL     1      10.461  36.973  31.026  1.00  0.00    -0.048 N 
ATOM     11  H23 UNL     1       9.522  37.369  31.030  1.00  0.00     0.277 HD
ATOM     12  H22 UNL     1      10.910  37.505  30.280  1.00  0.00     0.277 HD
ATOM     13  H21 UNL     1      10.393  36.001  30.724  1.00  0.00     0.277 HD
ENDBRANCH   6  10
BRANCH   2  14
HETATM   14  C5  UNL     1      10.961  34.109  35.465  1.00  0.00     0.031 C 
HETATM   15  C6  UNL     1      10.226  34.293  36.772  1.00  0.00     0.007 C 
ENDBRANCH   2  14
TORSDOF 4
ENDMDL
MODEL 4
REMARK VINA RESULT: -4.799596269      1.605      3.402
REMARK  4 active torsions:
REMARK  status: ('A' for Active; 'I' for Inactive)
REMARK    1  A    between atoms: C2_2  and  C3_3 
REMARK    2  A    between atoms: C3_3  and  N1_4 
REMARK    3  A    between atoms: C4_5  and  C5_6 
REMARK    4  A    between atoms: C9_11  and  N2_12 
ROOT
HETATM    1  N1  UNL     1      13.159  36.583  36.937  1.00  0.00     0.133 N 
HETATM    2  C4  UNL     1      13.107  36.217  35.519  1.00  0.00     0.231 C 
HETATM    3  C7  UNL     1      14.521  36.672  35.383  1.00  0.00     0.112 C 
HETATM    4  C8  UNL     1      14.202  37.488  36.613  1.00  0.00     0.317 A 
HETATM    5  O1  UNL     1      15.175  37.912  37.478  1.00  0.00    -0.311 OA
HETATM    6  C9  UNL     1      14.340  38.839  36.677  1.00  0.00     0.388 A 
ENDROOT
BRANCH   1   7
HETATM    7  C3  UNL     1      13.641  35.509  37.785  1.00  0.00     0.277 C 
BRANCH   7   8
HETATM    8  C2  UNL     1      12.843  35.495  39.058  1.00  0.00     0.026 C 
HETATM    9  C1  UNL     1      13.610  35.000  40.245  1.00  0.00     0.007 C 
ENDBRANCH   7   8
ENDBRANCH   1   7
BRANCH   6  10
HETATM   10  N2  UNL     1      15.183  39.553  35.738  1.00  0.00    -0.048 N 
ATOM     11  H23 UNL     1      15.007  39.177  34.806  1.00  0.00     0.277 HD
ATOM     12  H22 UNL     1      14.826  40.504  35.651  1.00  0.00     0.277 HD
ATOM     13  H21 UNL     1      16.193  39.606  35.871  1.00  0.00     0.277 HD
ENDBRANCH   6  10
BRANCH   2  14
HETATM   14  C5  UNL     1      12.998  34.737  35.299  1.00  0.00     0.031 C 
HETATM   15  C6  UNL     1      11.566  34.414  34.945  1.00  0.00     0.007 C 
ENDBRANCH   2  14
TORSDOF 4
ENDMDL
MODEL 5
REMARK VINA RESULT: -4.790107149      2.646      3.980
REMARK  4 active torsions:
REMARK  status: ('A' for Active; 'I' for Inactive)
REMARK    1  A    between atoms: C2_2  and  C3_3 
REMARK    2  A    between atoms: C3_3  and  N1_4 
REMARK    3  A    between atoms: C4_5  and  C5_6 
REMARK    4  A    between atoms: C9_11  and  N2_12 
ROOT
HETATM    1  N1  UNL     1      13.989  36.483  37.037  1.00  0.00     0.133 N 
HETATM    2  C4  UNL     1      13.943  36.316  35.582  1.00  0.00     0.231 C 
HETATM    3  C7  UNL     1      15.193  35.506  35.668  1.00  0.00     0.112 C 
HETATM    4  C8  UNL     1      15.385  36.247  36.970  1.00  0.00     0.317 A 
HETATM    5  O1  UNL     1      16.149  35.744  37.988  1.00  0.00    -0.311 OA
HETATM    6  C9  UNL     1      16.488  36.989  37.258  1.00  0.00     0.388 A 
ENDROOT
BRANCH   1   7
HETATM    7  C3  UNL     1      13.310  35.419  37.753  1.00  0.00     0.277 C 
BRANCH   7   8
HETATM    8  C2  UNL     1      13.001  35.888  39.147  1.00  0.00     0.026 C 
HETATM    9  C1  UNL     1      13.466  34.948  40.216  1.00  0.00     0.007 C 
ENDBRANCH   7   8
ENDBRANCH   1   7
BRANCH   6  10
HETATM   10  N2  UNL     1      17.731  36.798  36.536  1.00  0.00    -0.048 N 
ATOM     11  H23 UNL     1      17.932  35.798  36.514  1.00  0.00     0.277 HD
ATOM     12  H22 UNL     1      17.558  36.999  35.551  1.00  0.00     0.277 HD
ATOM     13  H21 UNL     1      18.582  37.285  36.813  1.00  0.00     0.277 HD
ENDBRANCH   6  10
BRANCH   2  14
HETATM   14  C5  UNL     1      12.791  35.472  35.123  1.00  0.00     0.031 C 
HETATM   15  C6  UNL     1      11.940  36.300  34.188  1.00  0.00     0.007 C 
ENDBRANCH   2  14
TORSDOF 4
ENDMDL
