MODEL 1
REMARK VINA RESULT: -9.425600763      0.000      0.000
REMARK  10 active torsions:
REMARK  status: ('A' for Active; 'I' for Inactive)
REMARK    1  A    between atoms: N1_4  and  C4_5 
REMARK    2  A    between atoms: C4_5  and  C5_6 
REMARK    3  A    between atoms: C5_6  and  C6_7 
REMARK    4  A    between atoms: C9_10  and  N2_11 
REMARK       I    between atoms: N2_11  and  C10_13 
REMARK    5  A    between atoms: C10_13  and  C11_15 
REMARK    6  A    between atoms: C11_15  and  N3_16 
REMARK    7  A    between atoms: C15_20  and  C16_21 
REMARK    8  A    between atoms: N4_27  and  C20_28 
REMARK    9  A    between atoms: C20_28  and  C21_29 
REMARK   10  A    between atoms: N5_32  and  C24_33 
ROOT
HETATM    1  C1  UNL     1      11.969  24.962   7.472  1.00  0.00     0.034 C 
HETATM    2  C2  UNL     1      11.490  24.939   5.998  1.00  0.00     0.103 C 
HETATM    3  C3  UNL     1      12.445  24.106   5.258  1.00  0.00     0.296 C 
HETATM    4  N1  UNL     1      11.917  23.206   4.257  1.00  0.00     0.090 N 
HETATM    5  C17 UNL     1      11.122  23.912   3.281  1.00  0.00     0.274 C 
HETATM    6  C18 UNL     1       9.695  23.811   3.726  1.00  0.00     0.050 C 
HETATM    7  C19 UNL     1       9.699  23.522   5.235  1.00  0.00     0.119 C 
HETATM    8  N4  UNL     1      10.104  24.687   5.912  1.00  0.00    -0.406 N 
ENDROOT
BRANCH   4   9
HETATM    9  C4  UNL     1      13.014  22.488   3.694  1.00  0.00     0.273 C 
BRANCH   9  10
HETATM   10  C5  UNL     1      14.379  22.899   4.227  1.00  0.00     0.036 C 
BRANCH  10  11
HETATM   11  C6  UNL     1      15.250  21.658   4.405  1.00  0.00     0.002 C 
HETATM   12  C7  UNL     1      14.735  20.574   3.441  1.00  0.00     0.007 C 
HETATM   13  C8  UNL     1      15.163  19.230   3.946  1.00  0.00     0.026 C 
HETATM   14  C9  UNL     1      16.536  19.305   4.601  1.00  0.00     0.085 C 
HETATM   15  C14 UNL     1      16.382  20.060   5.876  1.00  0.00     0.041 C 
HETATM   16  C15 UNL     1      15.216  21.088   5.752  1.00  0.00     0.093 C 
BRANCH  14  17
HETATM   17  N2  UNL     1      16.955  17.946   4.874  1.00  0.00    -0.355 N 
HETATM   18  C10 UNL     1      17.964  17.363   4.032  1.00  0.00     0.246 C 
HETATM   19  O1  UNL     1      18.464  18.010   3.081  1.00  0.00    -0.272 OA
ATOM     20  H2  UNL     1      16.545  17.417   5.644  1.00  0.00     0.162 HD
BRANCH  18  21
HETATM   21  C11 UNL     1      18.397  15.996   4.304  1.00  0.00     0.373 C 
BRANCH  21  22
HETATM   22  N3  UNL     1      19.416  15.914   5.331  1.00  0.00     0.088 N 
HETATM   23  C12 UNL     1      20.442  14.967   4.898  1.00  0.00     0.310 C 
HETATM   24  C13 UNL     1      18.798  15.427   6.540  1.00  0.00     0.310 C 
ENDBRANCH  21  22
ENDBRANCH  18  21
ENDBRANCH  14  17
BRANCH  16  25
HETATM   25  C16 UNL     1      15.221  21.961   6.918  1.00  0.00     0.177 C 
HETATM   26  O2  UNL     1      16.121  22.758   7.273  1.00  0.00    -0.648 OA
HETATM   27  O3  UNL     1      14.101  21.950   7.790  1.00  0.00    -0.648 OA
ENDBRANCH  16  25
ENDBRANCH  10  11
ENDBRANCH   9  10
ENDBRANCH   4   9
BRANCH   8  28
HETATM   28  C20 UNL     1       9.438  24.979   7.152  1.00  0.00     0.122 C 
BRANCH  28  29
HETATM   29  C21 UNL     1       8.676  26.252   7.208  1.00  0.00     0.006 C 
HETATM   30  C22 UNL     1       8.063  26.438   5.803  1.00  0.00     0.036 C 
HETATM   31  C23 UNL     1       7.310  27.740   5.804  1.00  0.00     0.273 C 
HETATM   32  N5  UNL     1       6.203  27.751   6.725  1.00  0.00     0.093 N 
HETATM   33  C32 UNL     1       6.747  27.494   8.008  1.00  0.00     0.273 C 
HETATM   34  C33 UNL     1       7.446  26.147   8.118  1.00  0.00     0.036 C 
BRANCH  32  35
HETATM   35  C24 UNL     1       5.078  26.967   6.317  1.00  0.00     0.223 C 
HETATM   36  C25 UNL     1       4.550  27.343   4.964  1.00  0.00     0.036 C 
HETATM   37  C26 UNL     1       3.156  26.901   4.692  1.00  0.00     0.002 C 
HETATM   38  C27 UNL     1       2.098  27.897   4.946  1.00  0.00     0.000 C 
HETATM   39  C28 UNL     1       2.506  29.194   5.566  1.00  0.00     0.000 C 
HETATM   40  C29 UNL     1       3.164  29.120   6.892  1.00  0.00     0.000 C 
HETATM   41  C30 UNL     1       3.061  27.823   7.614  1.00  0.00     0.002 C 
HETATM   42  C31 UNL     1       4.046  26.780   7.364  1.00  0.00     0.036 C 
ENDBRANCH  32  35
ENDBRANCH  28  29
ENDBRANCH   8  28
TORSDOF 10
ENDMDL
MODEL 2
REMARK VINA RESULT: -8.991652997      1.160      1.409
REMARK  10 active torsions:
REMARK  status: ('A' for Active; 'I' for Inactive)
REMARK    1  A    between atoms: N1_4  and  C4_5 
REMARK    2  A    between atoms: C4_5  and  C5_6 
REMARK    3  A    between atoms: C5_6  and  C6_7 
REMARK    4  A    between atoms: C9_10  and  N2_11 
REMARK       I    between atoms: N2_11  and  C10_13 
REMARK    5  A    between atoms: C10_13  and  C11_15 
REMARK    6  A    between atoms: C11_15  and  N3_16 
REMARK    7  A    between atoms: C15_20  and  C16_21 
REMARK    8  A    between atoms: N4_27  and  C20_28 
REMARK    9  A    between atoms: C20_28  and  C21_29 
REMARK   10  A    between atoms: N5_32  and  C24_33 
ROOT
HETATM    1  C1  UNL     1      10.983  25.294   7.332  1.00  0.00     0.034 C 
HETATM    2  C2  UNL     1      10.830  25.424   5.796  1.00  0.00     0.103 C 
HETATM    3  C3  UNL     1      11.841  24.546   5.194  1.00  0.00     0.296 C 
HETATM    4  N1  UNL     1      11.459  23.779   4.030  1.00  0.00     0.090 N 
HETATM    5  C17 UNL     1      10.957  24.633   2.979  1.00  0.00     0.274 C 
HETATM    6  C18 UNL     1       9.465  24.655   3.111  1.00  0.00     0.050 C 
HETATM    7  C19 UNL     1       9.121  24.265   4.557  1.00  0.00     0.119 C 
HETATM    8  N4  UNL     1       9.477  25.329   5.404  1.00  0.00    -0.406 N 
ENDROOT
BRANCH   4   9
HETATM    9  C4  UNL     1      12.580  22.988   3.642  1.00  0.00     0.273 C 
BRANCH   9  10
HETATM   10  C5  UNL     1      13.870  23.312   4.384  1.00  0.00     0.036 C 
BRANCH  10  11
HETATM   11  C6  UNL     1      14.732  22.056   4.474  1.00  0.00     0.002 C 
HETATM   12  C7  UNL     1      14.262  21.076   3.383  1.00  0.00     0.007 C 
HETATM   13  C8  UNL     1      14.668  19.687   3.768  1.00  0.00     0.026 C 
HETATM   14  C9  UNL     1      16.010  19.690   4.488  1.00  0.00     0.085 C 
HETATM   15  C14 UNL     1      15.798  20.312   5.825  1.00  0.00     0.041 C 
HETATM   16  C15 UNL     1      14.638  21.352   5.753  1.00  0.00     0.093 C 
BRANCH  14  17
HETATM   17  N2  UNL     1      16.417  18.308   4.641  1.00  0.00    -0.355 N 
HETATM   18  C10 UNL     1      17.816  18.027   4.816  1.00  0.00     0.246 C 
HETATM   19  O1  UNL     1      18.664  18.951   4.830  1.00  0.00    -0.272 OA
ATOM     20  H2  UNL     1      15.729  17.555   4.625  1.00  0.00     0.162 HD
BRANCH  18  21
HETATM   21  C11 UNL     1      18.235  16.638   4.978  1.00  0.00     0.373 C 
BRANCH  21  22
HETATM   22  N3  UNL     1      19.027  16.416   6.170  1.00  0.00     0.088 N 
HETATM   23  C12 UNL     1      19.587  15.066   6.115  1.00  0.00     0.310 C 
HETATM   24  C13 UNL     1      18.158  16.525   7.316  1.00  0.00     0.310 C 
ENDBRANCH  21  22
ENDBRANCH  18  21
ENDBRANCH  14  17
BRANCH  16  25
HETATM   25  C16 UNL     1      14.590  22.103   7.001  1.00  0.00     0.177 C 
HETATM   26  O2  UNL     1      13.644  22.165   7.821  1.00  0.00    -0.648 OA
HETATM   27  O3  UNL     1      15.719  22.873   7.383  1.00  0.00    -0.648 OA
ENDBRANCH  16  25
ENDBRANCH  10  11
ENDBRANCH   9  10
ENDBRANCH   4   9
BRANCH   8  28
HETATM   28  C20 UNL     1       8.591  25.605   6.503  1.00  0.00     0.122 C 
BRANCH  28  29
HETATM   29  C21 UNL     1       7.551  26.638   6.268  1.00  0.00     0.006 C 
HETATM   30  C22 UNL     1       6.639  26.074   5.156  1.00  0.00     0.036 C 
HETATM   31  C23 UNL     1       5.589  27.109   4.861  1.00  0.00     0.273 C 
HETATM   32  N5  UNL     1       4.727  27.376   5.983  1.00  0.00     0.093 N 
HETATM   33  C32 UNL     1       5.567  27.813   7.037  1.00  0.00     0.273 C 
HETATM   34  C33 UNL     1       6.601  26.781   7.464  1.00  0.00     0.036 C 
BRANCH  32  35
HETATM   35  C24 UNL     1       3.788  26.338   6.276  1.00  0.00     0.223 C 
HETATM   36  C25 UNL     1       2.853  26.044   5.139  1.00  0.00     0.036 C 
HETATM   37  C26 UNL     1       1.606  25.330   5.525  1.00  0.00     0.002 C 
HETATM   38  C27 UNL     1       0.421  26.175   5.762  1.00  0.00     0.000 C 
HETATM   39  C28 UNL     1       0.611  27.657   5.720  1.00  0.00     0.000 C 
HETATM   40  C29 UNL     1       1.578  28.232   6.685  1.00  0.00     0.000 C 
HETATM   41  C30 UNL     1       2.013  27.345   7.799  1.00  0.00     0.002 C 
HETATM   42  C31 UNL     1       3.143  26.449   7.606  1.00  0.00     0.036 C 
ENDBRANCH  32  35
ENDBRANCH  28  29
ENDBRANCH   8  28
TORSDOF 10
ENDMDL
MODEL 3
REMARK VINA RESULT: -8.922026948      0.956      1.651
REMARK  10 active torsions:
REMARK  status: ('A' for Active; 'I' for Inactive)
REMARK    1  A    between atoms: N1_4  and  C4_5 
REMARK    2  A    between atoms: C4_5  and  C5_6 
REMARK    3  A    between atoms: C5_6  and  C6_7 
REMARK    4  A    between atoms: C9_10  and  N2_11 
REMARK       I    between atoms: N2_11  and  C10_13 
REMARK    5  A    between atoms: C10_13  and  C11_15 
REMARK    6  A    between atoms: C11_15  and  N3_16 
REMARK    7  A    between atoms: C15_20  and  C16_21 
REMARK    8  A    between atoms: N4_27  and  C20_28 
REMARK    9  A    between atoms: C20_28  and  C21_29 
REMARK   10  A    between atoms: N5_32  and  C24_33 
ROOT
HETATM    1  C1  UNL     1       9.239  25.153   2.789  1.00  0.00     0.034 C 
HETATM    2  C2  UNL     1       9.609  24.398   4.091  1.00  0.00     0.103 C 
HETATM    3  C3  UNL     1      10.721  23.500   3.757  1.00  0.00     0.296 C 
HETATM    4  N1  UNL     1      11.792  23.369   4.718  1.00  0.00     0.090 N 
HETATM    5  C17 UNL     1      11.292  22.965   6.011  1.00  0.00     0.274 C 
HETATM    6  C18 UNL     1      11.098  24.216   6.813  1.00  0.00     0.050 C 
HETATM    7  C19 UNL     1      10.958  25.384   5.824  1.00  0.00     0.119 C 
HETATM    8  N4  UNL     1       9.709  25.283   5.186  1.00  0.00    -0.406 N 
ENDROOT
BRANCH   4   9
HETATM    9  C4  UNL     1      12.762  22.477   4.172  1.00  0.00     0.273 C 
BRANCH   9  10
HETATM   10  C5  UNL     1      14.206  22.924   4.354  1.00  0.00     0.036 C 
BRANCH  10  11
HETATM   11  C6  UNL     1      15.107  21.697   4.468  1.00  0.00     0.002 C 
HETATM   12  C7  UNL     1      14.573  20.624   3.502  1.00  0.00     0.007 C 
HETATM   13  C8  UNL     1      15.047  19.278   3.958  1.00  0.00     0.026 C 
HETATM   14  C9  UNL     1      16.445  19.367   4.559  1.00  0.00     0.085 C 
HETATM   15  C14 UNL     1      16.328  20.090   5.856  1.00  0.00     0.041 C 
HETATM   16  C15 UNL     1      15.138  21.097   5.802  1.00  0.00     0.093 C 
BRANCH  14  17
HETATM   17  N2  UNL     1      16.900  18.011   4.784  1.00  0.00    -0.355 N 
HETATM   18  C10 UNL     1      17.879  17.464   3.885  1.00  0.00     0.246 C 
HETATM   19  O1  UNL     1      18.324  18.139   2.926  1.00  0.00    -0.272 OA
ATOM     20  H2  UNL     1      16.536  17.458   5.561  1.00  0.00     0.162 HD
BRANCH  18  21
HETATM   21  C11 UNL     1      18.349  16.100   4.109  1.00  0.00     0.373 C 
BRANCH  21  22
HETATM   22  N3  UNL     1      19.360  16.007   5.143  1.00  0.00     0.088 N 
HETATM   23  C12 UNL     1      20.406  15.090   4.694  1.00  0.00     0.310 C 
HETATM   24  C13 UNL     1      18.739  15.477   6.332  1.00  0.00     0.310 C 
ENDBRANCH  21  22
ENDBRANCH  18  21
ENDBRANCH  14  17
BRANCH  16  25
HETATM   25  C16 UNL     1      15.174  21.945   6.986  1.00  0.00     0.177 C 
HETATM   26  O2  UNL     1      16.055  22.779   7.304  1.00  0.00    -0.648 OA
HETATM   27  O3  UNL     1      14.113  21.859   7.926  1.00  0.00    -0.648 OA
ENDBRANCH  16  25
ENDBRANCH  10  11
ENDBRANCH   9  10
ENDBRANCH   4   9
BRANCH   8  28
HETATM   28  C20 UNL     1       9.011  26.514   4.934  1.00  0.00     0.122 C 
BRANCH  28  29
HETATM   29  C21 UNL     1       8.038  26.945   5.970  1.00  0.00     0.006 C 
HETATM   30  C22 UNL     1       6.979  27.788   5.227  1.00  0.00     0.036 C 
HETATM   31  C23 UNL     1       5.990  28.277   6.250  1.00  0.00     0.273 C 
HETATM   32  N5  UNL     1       5.268  27.210   6.894  1.00  0.00     0.093 N 
HETATM   33  C32 UNL     1       6.241  26.382   7.506  1.00  0.00     0.273 C 
HETATM   34  C33 UNL     1       7.227  25.767   6.523  1.00  0.00     0.036 C 
BRANCH  32  35
HETATM   35  C24 UNL     1       4.283  26.575   6.074  1.00  0.00     0.223 C 
HETATM   36  C25 UNL     1       3.499  27.538   5.232  1.00  0.00     0.036 C 
HETATM   37  C26 UNL     1       2.202  27.013   4.726  1.00  0.00     0.002 C 
HETATM   38  C27 UNL     1       1.009  27.352   5.525  1.00  0.00     0.000 C 
HETATM   39  C28 UNL     1       1.225  28.071   6.817  1.00  0.00     0.000 C 
HETATM   40  C29 UNL     1       2.068  27.387   7.826  1.00  0.00     0.000 C 
HETATM   41  C30 UNL     1       2.341  25.942   7.595  1.00  0.00     0.002 C 
HETATM   42  C31 UNL     1       3.474  25.547   6.770  1.00  0.00     0.036 C 
ENDBRANCH  32  35
ENDBRANCH  28  29
ENDBRANCH   8  28
TORSDOF 10
ENDMDL
MODEL 4
REMARK VINA RESULT: -8.874390292      2.433      3.460
REMARK  10 active torsions:
REMARK  status: ('A' for Active; 'I' for Inactive)
REMARK    1  A    between atoms: N1_4  and  C4_5 
REMARK    2  A    between atoms: C4_5  and  C5_6 
REMARK    3  A    between atoms: C5_6  and  C6_7 
REMARK    4  A    between atoms: C9_10  and  N2_11 
REMARK       I    between atoms: N2_11  and  C10_13 
REMARK    5  A    between atoms: C10_13  and  C11_15 
REMARK    6  A    between atoms: C11_15  and  N3_16 
REMARK    7  A    between atoms: C15_20  and  C16_21 
REMARK    8  A    between atoms: N4_27  and  C20_28 
REMARK    9  A    between atoms: C20_28  and  C21_29 
REMARK   10  A    between atoms: N5_32  and  C24_33 
ROOT
HETATM    1  C1  UNL     1       9.660  23.251   2.218  1.00  0.00     0.034 C 
HETATM    2  C2  UNL     1       9.400  23.489   3.726  1.00  0.00     0.103 C 
HETATM    3  C3  UNL     1      10.476  22.806   4.453  1.00  0.00     0.296 C 
HETATM    4  N1  UNL     1      11.042  23.474   5.603  1.00  0.00     0.090 N 
HETATM    5  C17 UNL     1      10.023  23.812   6.569  1.00  0.00     0.274 C 
HETATM    6  C18 UNL     1       9.614  25.227   6.294  1.00  0.00     0.050 C 
HETATM    7  C19 UNL     1       9.987  25.543   4.838  1.00  0.00     0.119 C 
HETATM    8  N4  UNL     1       9.109  24.845   3.990  1.00  0.00    -0.406 N 
ENDROOT
BRANCH   4   9
HETATM    9  C4  UNL     1      12.077  22.644   6.126  1.00  0.00     0.273 C 
BRANCH   9  10
HETATM   10  C5  UNL     1      13.474  23.240   6.032  1.00  0.00     0.036 C 
BRANCH  10  11
HETATM   11  C6  UNL     1      14.476  22.137   5.700  1.00  0.00     0.002 C 
HETATM   12  C7  UNL     1      13.937  21.355   4.489  1.00  0.00     0.007 C 
HETATM   13  C8  UNL     1      14.558  19.992   4.474  1.00  0.00     0.026 C 
HETATM   14  C9  UNL     1      15.995  20.041   4.975  1.00  0.00     0.085 C 
HETATM   15  C14 UNL     1      15.949  20.324   6.437  1.00  0.00     0.041 C 
HETATM   16  C15 UNL     1      14.684  21.170   6.778  1.00  0.00     0.093 C 
BRANCH  14  17
HETATM   17  N2  UNL     1      16.576  18.735   4.739  1.00  0.00    -0.355 N 
HETATM   18  C10 UNL     1      17.997  18.584   4.897  1.00  0.00     0.246 C 
HETATM   19  O1  UNL     1      18.717  19.557   5.224  1.00  0.00    -0.272 OA
ATOM     20  H2  UNL     1      15.992  17.944   4.469  1.00  0.00     0.162 HD
BRANCH  18  21
HETATM   21  C11 UNL     1      18.590  17.270   4.668  1.00  0.00     0.373 C 
BRANCH  21  22
HETATM   22  N3  UNL     1      18.054  16.243   5.538  1.00  0.00     0.088 N 
HETATM   23  C12 UNL     1      18.331  16.612   6.925  1.00  0.00     0.310 C 
HETATM   24  C13 UNL     1      18.723  15.002   5.233  1.00  0.00     0.310 C 
ENDBRANCH  21  22
ENDBRANCH  18  21
ENDBRANCH  14  17
BRANCH  16  25
HETATM   25  C16 UNL     1      14.768  21.622   8.161  1.00  0.00     0.177 C 
HETATM   26  O2  UNL     1      13.926  21.453   9.074  1.00  0.00    -0.648 OA
HETATM   27  O3  UNL     1      15.917  22.343   8.580  1.00  0.00    -0.648 OA
ENDBRANCH  16  25
ENDBRANCH  10  11
ENDBRANCH   9  10
ENDBRANCH   4   9
BRANCH   8  28
HETATM   28  C20 UNL     1       8.675  25.530   2.802  1.00  0.00     0.122 C 
BRANCH  28  29
HETATM   29  C21 UNL     1       7.279  26.036   2.804  1.00  0.00     0.006 C 
HETATM   30  C22 UNL     1       6.476  25.057   1.920  1.00  0.00     0.036 C 
HETATM   31  C23 UNL     1       5.058  25.554   1.865  1.00  0.00     0.273 C 
HETATM   32  N5  UNL     1       4.408  25.553   3.150  1.00  0.00     0.093 N 
HETATM   33  C32 UNL     1       5.188  26.382   3.993  1.00  0.00     0.273 C 
HETATM   34  C33 UNL     1       6.617  25.892   4.180  1.00  0.00     0.036 C 
BRANCH  32  35
HETATM   35  C24 UNL     1       4.057  24.256   3.642  1.00  0.00     0.223 C 
HETATM   36  C25 UNL     1       3.450  23.368   2.595  1.00  0.00     0.036 C 
HETATM   37  C26 UNL     1       2.669  22.219   3.128  1.00  0.00     0.002 C 
HETATM   38  C27 UNL     1       1.212  22.420   3.239  1.00  0.00     0.000 C 
HETATM   39  C28 UNL     1       0.679  23.782   2.933  1.00  0.00     0.000 C 
HETATM   40  C29 UNL     1       1.192  24.899   3.761  1.00  0.00     0.000 C 
HETATM   41  C30 UNL     1       1.922  24.526   5.003  1.00  0.00     0.002 C 
HETATM   42  C31 UNL     1       3.352  24.262   4.945  1.00  0.00     0.036 C 
ENDBRANCH  32  35
ENDBRANCH  28  29
ENDBRANCH   8  28
TORSDOF 10
ENDMDL
MODEL 5
REMARK VINA RESULT: -8.836772371      1.512      2.352
REMARK  10 active torsions:
REMARK  status: ('A' for Active; 'I' for Inactive)
REMARK    1  A    between atoms: N1_4  and  C4_5 
REMARK    2  A    between atoms: C4_5  and  C5_6 
REMARK    3  A    between atoms: C5_6  and  C6_7 
REMARK    4  A    between atoms: C9_10  and  N2_11 
REMARK       I    between atoms: N2_11  and  C10_13 
REMARK    5  A    between atoms: C10_13  and  C11_15 
REMARK    6  A    between atoms: C11_15  and  N3_16 
REMARK    7  A    between atoms: C15_20  and  C16_21 
REMARK    8  A    between atoms: N4_27  and  C20_28 
REMARK    9  A    between atoms: C20_28  and  C21_29 
REMARK   10  A    between atoms: N5_32  and  C24_33 
ROOT
HETATM    1  C1  UNL     1       8.947  24.841   3.271  1.00  0.00     0.034 C 
HETATM    2  C2  UNL     1       9.044  24.445   4.766  1.00  0.00     0.103 C 
HETATM    3  C3  UNL     1      10.170  23.511   4.883  1.00  0.00     0.296 C 
HETATM    4  N1  UNL     1      11.039  23.645   6.031  1.00  0.00     0.090 N 
HETATM    5  C17 UNL     1      10.295  23.570   7.265  1.00  0.00     0.274 C 
HETATM    6  C18 UNL     1       9.992  24.979   7.678  1.00  0.00     0.050 C 
HETATM    7  C19 UNL     1      10.076  25.858   6.420  1.00  0.00     0.119 C 
HETATM    8  N4  UNL     1       8.965  25.578   5.604  1.00  0.00    -0.406 N 
ENDROOT
BRANCH   4   9
HETATM    9  C4  UNL     1      12.066  22.661   5.918  1.00  0.00     0.273 C 
BRANCH   9  10
HETATM   10  C5  UNL     1      13.482  23.216   5.974  1.00  0.00     0.036 C 
BRANCH  10  11
HETATM   11  C6  UNL     1      14.475  22.111   5.622  1.00  0.00     0.002 C 
HETATM   12  C7  UNL     1      13.871  21.276   4.479  1.00  0.00     0.007 C 
HETATM   13  C8  UNL     1      14.506  19.919   4.477  1.00  0.00     0.026 C 
HETATM   14  C9  UNL     1      15.972  20.003   4.885  1.00  0.00     0.085 C 
HETATM   15  C14 UNL     1      16.014  20.343   6.335  1.00  0.00     0.041 C 
HETATM   16  C15 UNL     1      14.762  21.190   6.722  1.00  0.00     0.093 C 
BRANCH  14  17
HETATM   17  N2  UNL     1      16.553  18.695   4.663  1.00  0.00    -0.355 N 
HETATM   18  C10 UNL     1      17.971  18.542   4.839  1.00  0.00     0.246 C 
HETATM   19  O1  UNL     1      18.690  19.516   5.169  1.00  0.00    -0.272 OA
ATOM     20  H2  UNL     1      15.971  17.903   4.390  1.00  0.00     0.162 HD
BRANCH  18  21
HETATM   21  C11 UNL     1      18.565  17.226   4.625  1.00  0.00     0.373 C 
BRANCH  21  22
HETATM   22  N3  UNL     1      18.040  16.211   5.516  1.00  0.00     0.088 N 
HETATM   23  C12 UNL     1      18.316  16.610   6.895  1.00  0.00     0.310 C 
HETATM   24  C13 UNL     1      18.718  14.970   5.234  1.00  0.00     0.310 C 
ENDBRANCH  21  22
ENDBRANCH  18  21
ENDBRANCH  14  17
BRANCH  16  25
HETATM   25  C16 UNL     1      14.927  21.696   8.078  1.00  0.00     0.177 C 
HETATM   26  O2  UNL     1      15.911  22.313   8.550  1.00  0.00    -0.648 OA
HETATM   27  O3  UNL     1      13.883  21.495   9.019  1.00  0.00    -0.648 OA
ENDBRANCH  16  25
ENDBRANCH  10  11
ENDBRANCH   9  10
ENDBRANCH   4   9
BRANCH   8  28
HETATM   28  C20 UNL     1       8.364  26.694   4.925  1.00  0.00     0.122 C 
BRANCH  28  29
HETATM   29  C21 UNL     1       7.202  27.327   5.598  1.00  0.00     0.006 C 
HETATM   30  C22 UNL     1       5.997  27.098   4.660  1.00  0.00     0.036 C 
HETATM   31  C23 UNL     1       4.800  27.759   5.289  1.00  0.00     0.273 C 
HETATM   32  N5  UNL     1       4.434  27.179   6.555  1.00  0.00     0.093 N 
HETATM   33  C32 UNL     1       5.567  27.307   7.396  1.00  0.00     0.273 C 
HETATM   34  C33 UNL     1       6.801  26.582   6.877  1.00  0.00     0.036 C 
BRANCH  32  35
HETATM   35  C24 UNL     1       3.822  25.889   6.467  1.00  0.00     0.223 C 
HETATM   36  C25 UNL     1       3.567  25.447   5.056  1.00  0.00     0.036 C 
HETATM   37  C26 UNL     1       2.553  24.368   4.913  1.00  0.00     0.002 C 
HETATM   38  C27 UNL     1       1.178  24.805   4.607  1.00  0.00     0.000 C 
HETATM   39  C28 UNL     1       0.908  26.275   4.596  1.00  0.00     0.000 C 
HETATM   40  C29 UNL     1       1.176  27.010   5.855  1.00  0.00     0.000 C 
HETATM   41  C30 UNL     1       1.368  26.184   7.079  1.00  0.00     0.002 C 
HETATM   42  C31 UNL     1       2.694  25.678   7.404  1.00  0.00     0.036 C 
ENDBRANCH  32  35
ENDBRANCH  28  29
ENDBRANCH   8  28
TORSDOF 10
ENDMDL
