MODEL 1
REMARK VINA RESULT: -8.196377761      0.000      0.000
REMARK  10 active torsions:
REMARK  status: ('A' for Active; 'I' for Inactive)
REMARK    1  A    between atoms: C3_3  and  N1_4 
REMARK    2  A    between atoms: N1_4  and  C4_5 
REMARK    3  A    between atoms: N1_4  and  C7_8 
REMARK    4  A    between atoms: C4_5  and  C5_6 
REMARK    5  A    between atoms: C7_8  and  O1_9 
REMARK    6  A    between atoms: N2_14  and  C11_15 
REMARK    7  A    between atoms: C11_15  and  C12_16 
REMARK    8  A    between atoms: C11_15  and  C23_34 
REMARK       I    between atoms: C12_16  and  N3_18 
REMARK    9  A    between atoms: N3_18  and  C13_20 
REMARK       I    between atoms: N4_23  and  C16_24 
REMARK       I    between atoms: C16_24  and  N5_26 
REMARK   10  A    between atoms: N5_26  and  C17_28 
ROOT
HETATM    1  C11 UNL     1       8.211  26.851   6.000  1.00  0.00     0.353 C 
ENDROOT
BRANCH   1   2
HETATM    2  N2  UNL     1       6.896  26.295   5.958  1.00  0.00     0.107 N 
HETATM    3  C10 UNL     1       6.312  26.210   4.638  1.00  0.00     0.278 C 
HETATM    4  C9  UNL     1       4.809  26.626   4.661  1.00  0.00     0.069 C 
HETATM    5  C8  UNL     1       4.829  28.088   4.925  1.00  0.00    -0.026 C 
HETATM    6  C7  UNL     1       3.661  28.882   4.740  1.00  0.00     0.144 C 
HETATM    7  C28 UNL     1       5.623  28.312   6.207  1.00  0.00     0.069 C 
HETATM    8  C27 UNL     1       6.032  27.007   6.860  1.00  0.00     0.278 C 
BRANCH   6   9
HETATM    9  N1  UNL     1       2.329  28.818   5.277  1.00  0.00    -0.338 N 
BRANCH   9  10
HETATM   10  C3  UNL     1       1.258  28.223   4.592  1.00  0.00     0.088 C 
HETATM   11  C2  UNL     1       1.120  26.851   4.171  1.00  0.00    -0.014 C 
HETATM   12  C1  UNL     1       1.076  25.713   5.100  1.00  0.00     0.037 C 
ENDBRANCH   9  10
BRANCH   9  13
HETATM   13  C4  UNL     1       2.078  29.617   6.477  1.00  0.00     0.130 C 
BRANCH  13  14
HETATM   14  C5  UNL     1       2.305  29.081   7.802  1.00  0.00     0.016 C 
HETATM   15  C6  UNL     1       2.489  27.657   8.087  1.00  0.00     0.006 C 
ENDBRANCH  13  14
ENDBRANCH   9  13
ENDBRANCH   6   9
BRANCH   6  16
HETATM   16  O1  UNL     1       3.795  29.892   3.914  1.00  0.00    -0.346 OA
ATOM     17  H1  UNL     1       4.671  30.258   3.954  1.00  0.00     0.219 HD
ENDBRANCH   6  16
ENDBRANCH   1   2
BRANCH   1  18
HETATM   18  C12 UNL     1       9.289  25.983   5.480  1.00  0.00     0.256 C 
HETATM   19  O2  UNL     1       9.610  26.108   4.242  1.00  0.00    -0.271 OA
HETATM   20  N3  UNL     1      10.017  25.024   6.204  1.00  0.00    -0.354 N 
ATOM     21  H3  UNL     1       9.803  24.883   7.191  1.00  0.00     0.162 HD
BRANCH  20  22
HETATM   22  C13 UNL     1      11.071  24.220   5.586  1.00  0.00     0.087 C 
HETATM   23  C14 UNL     1      12.429  24.630   6.113  1.00  0.00     0.045 C 
HETATM   24  C15 UNL     1      13.487  23.925   5.354  1.00  0.00     0.130 C 
HETATM   25  N4  UNL     1      13.152  22.615   4.864  1.00  0.00    -0.330 N 
HETATM   26  C16 UNL     1      14.186  21.882   4.236  1.00  0.00     0.319 C 
HETATM   27  C20 UNL     1      11.851  22.014   4.973  1.00  0.00     0.086 C 
HETATM   28  O3  UNL     1      15.320  22.366   4.127  1.00  0.00    -0.247 OA
HETATM   29  N5  UNL     1      13.958  20.590   3.716  1.00  0.00    -0.339 N 
ATOM     30  H5  UNL     1      13.028  20.182   3.797  1.00  0.00     0.164 HD
HETATM   31  C21 UNL     1      11.160  22.034   3.611  1.00  0.00     0.032 C 
HETATM   32  C22 UNL     1      10.933  22.743   5.932  1.00  0.00     0.050 C 
BRANCH  29  33
HETATM   33  C17 UNL     1      15.011  19.820   3.066  1.00  0.00     0.078 C 
HETATM   34  C18 UNL     1      15.092  18.414   3.608  1.00  0.00     0.032 C 
HETATM   35  C19 UNL     1      14.856  19.787   1.570  1.00  0.00     0.032 C 
ENDBRANCH  29  33
ENDBRANCH  20  22
ENDBRANCH   1  18
BRANCH   1  36
HETATM   36  C23 UNL     1       8.521  27.175   7.456  1.00  0.00     0.025 A 
HETATM   37  C24 UNL     1       8.993  28.351   7.978  1.00  0.00     0.018 A 
HETATM   38  C25 UNL     1       9.206  28.394   9.299  1.00  0.00     0.008 A 
HETATM   39  C26 UNL     1       8.935  27.258  10.019  1.00  0.00     0.050 A 
HETATM   40  S1  UNL     1       8.393  26.170   8.827  1.00  0.00    -0.104 SA
ENDBRANCH   1  36
TORSDOF 10
ENDMDL
MODEL 2
REMARK VINA RESULT: -8.174204556      3.122      4.207
REMARK  10 active torsions:
REMARK  status: ('A' for Active; 'I' for Inactive)
REMARK    1  A    between atoms: C3_3  and  N1_4 
REMARK    2  A    between atoms: N1_4  and  C4_5 
REMARK    3  A    between atoms: N1_4  and  C7_8 
REMARK    4  A    between atoms: C4_5  and  C5_6 
REMARK    5  A    between atoms: C7_8  and  O1_9 
REMARK    6  A    between atoms: N2_14  and  C11_15 
REMARK    7  A    between atoms: C11_15  and  C12_16 
REMARK    8  A    between atoms: C11_15  and  C23_34 
REMARK       I    between atoms: C12_16  and  N3_18 
REMARK    9  A    between atoms: N3_18  and  C13_20 
REMARK       I    between atoms: N4_23  and  C16_24 
REMARK       I    between atoms: C16_24  and  N5_26 
REMARK   10  A    between atoms: N5_26  and  C17_28 
ROOT
HETATM    1  C11 UNL     1      10.573  25.201   5.349  1.00  0.00     0.353 C 
ENDROOT
BRANCH   1   2
HETATM    2  N2  UNL     1       9.311  24.537   5.273  1.00  0.00     0.107 N 
HETATM    3  C10 UNL     1       9.140  23.683   4.119  1.00  0.00     0.278 C 
HETATM    4  C9  UNL     1       7.713  23.840   3.509  1.00  0.00     0.069 C 
HETATM    5  C8  UNL     1       7.704  25.204   2.921  1.00  0.00    -0.026 C 
HETATM    6  C7  UNL     1       6.671  25.611   2.030  1.00  0.00     0.144 C 
HETATM    7  C28 UNL     1       8.092  26.182   4.025  1.00  0.00     0.069 C 
HETATM    8  C27 UNL     1       8.244  25.496   5.367  1.00  0.00     0.278 C 
BRANCH   6   9
HETATM    9  N1  UNL     1       5.239  25.664   2.137  1.00  0.00    -0.338 N 
BRANCH   9  10
HETATM   10  C3  UNL     1       4.558  25.499   3.354  1.00  0.00     0.088 C 
HETATM   11  C2  UNL     1       3.671  24.430   3.741  1.00  0.00    -0.014 C 
HETATM   12  C1  UNL     1       4.086  23.025   3.854  1.00  0.00     0.037 C 
ENDBRANCH   9  10
BRANCH   9  13
HETATM   13  C4  UNL     1       4.496  25.660   0.876  1.00  0.00     0.130 C 
BRANCH  13  14
HETATM   14  C5  UNL     1       4.172  24.425   0.195  1.00  0.00     0.016 C 
HETATM   15  C6  UNL     1       2.827  23.850   0.141  1.00  0.00     0.006 C 
ENDBRANCH  13  14
ENDBRANCH   9  13
ENDBRANCH   6   9
BRANCH   6  16
HETATM   16  O1  UNL     1       7.078  26.032   0.856  1.00  0.00    -0.346 OA
ATOM     17  H1  UNL     1       7.588  26.830   0.932  1.00  0.00     0.219 HD
ENDBRANCH   6  16
ENDBRANCH   1   2
BRANCH   1  18
HETATM   18  C12 UNL     1      11.762  24.334   5.199  1.00  0.00     0.256 C 
HETATM   19  O2  UNL     1      12.702  24.742   4.425  1.00  0.00    -0.271 OA
HETATM   20  N3  UNL     1      11.981  23.096   5.825  1.00  0.00    -0.354 N 
ATOM     21  H3  UNL     1      11.266  22.725   6.451  1.00  0.00     0.162 HD
BRANCH  20  22
HETATM   22  C13 UNL     1      13.203  22.322   5.608  1.00  0.00     0.087 C 
HETATM   23  C14 UNL     1      14.160  22.504   6.765  1.00  0.00     0.045 C 
HETATM   24  C15 UNL     1      15.451  21.852   6.447  1.00  0.00     0.130 C 
HETATM   25  N4  UNL     1      15.384  20.686   5.606  1.00  0.00    -0.330 N 
HETATM   26  C16 UNL     1      16.591  19.985   5.384  1.00  0.00     0.319 C 
HETATM   27  C20 UNL     1      14.181  20.198   4.987  1.00  0.00     0.086 C 
HETATM   28  O3  UNL     1      17.646  20.375   5.903  1.00  0.00    -0.247 OA
HETATM   29  N5  UNL     1      16.633  18.833   4.570  1.00  0.00    -0.339 N 
ATOM     30  H5  UNL     1      15.771  18.505   4.136  1.00  0.00     0.164 HD
HETATM   31  C21 UNL     1      14.201  20.524   3.496  1.00  0.00     0.032 C 
HETATM   32  C22 UNL     1      12.922  20.826   5.549  1.00  0.00     0.050 C 
BRANCH  29  33
HETATM   33  C17 UNL     1      17.868  18.098   4.331  1.00  0.00     0.078 C 
HETATM   34  C18 UNL     1      17.920  16.817   5.129  1.00  0.00     0.032 C 
HETATM   35  C19 UNL     1      18.085  17.804   2.871  1.00  0.00     0.032 C 
ENDBRANCH  29  33
ENDBRANCH  20  22
ENDBRANCH   1  18
BRANCH   1  36
HETATM   36  C23 UNL     1      10.648  25.880   6.711  1.00  0.00     0.025 A 
HETATM   37  C24 UNL     1      11.506  25.608   7.744  1.00  0.00     0.018 A 
HETATM   38  C25 UNL     1      11.371  26.334   8.861  1.00  0.00     0.008 A 
HETATM   39  C26 UNL     1      10.387  27.290   8.877  1.00  0.00     0.050 A 
HETATM   40  S1  UNL     1       9.683  27.140   7.334  1.00  0.00    -0.104 SA
ENDBRANCH   1  36
TORSDOF 10
ENDMDL
MODEL 3
REMARK VINA RESULT: -8.163475395      3.088      4.004
REMARK  10 active torsions:
REMARK  status: ('A' for Active; 'I' for Inactive)
REMARK    1  A    between atoms: C3_3  and  N1_4 
REMARK    2  A    between atoms: N1_4  and  C4_5 
REMARK    3  A    between atoms: N1_4  and  C7_8 
REMARK    4  A    between atoms: C4_5  and  C5_6 
REMARK    5  A    between atoms: C7_8  and  O1_9 
REMARK    6  A    between atoms: N2_14  and  C11_15 
REMARK    7  A    between atoms: C11_15  and  C12_16 
REMARK    8  A    between atoms: C11_15  and  C23_34 
REMARK       I    between atoms: C12_16  and  N3_18 
REMARK    9  A    between atoms: N3_18  and  C13_20 
REMARK       I    between atoms: N4_23  and  C16_24 
REMARK       I    between atoms: C16_24  and  N5_26 
REMARK   10  A    between atoms: N5_26  and  C17_28 
ROOT
HETATM    1  C11 UNL     1      10.526  25.127   5.305  1.00  0.00     0.353 C 
ENDROOT
BRANCH   1   2
HETATM    2  N2  UNL     1       9.271  24.453   5.198  1.00  0.00     0.107 N 
HETATM    3  C10 UNL     1       9.127  23.616   4.028  1.00  0.00     0.278 C 
HETATM    4  C9  UNL     1       7.708  23.771   3.398  1.00  0.00     0.069 C 
HETATM    5  C8  UNL     1       7.697  25.143   2.831  1.00  0.00    -0.026 C 
HETATM    6  C7  UNL     1       6.675  25.556   1.929  1.00  0.00     0.144 C 
HETATM    7  C28 UNL     1       8.058  26.107   3.956  1.00  0.00     0.069 C 
HETATM    8  C27 UNL     1       8.194  25.402   5.290  1.00  0.00     0.278 C 
BRANCH   6   9
HETATM    9  N1  UNL     1       5.241  25.595   2.014  1.00  0.00    -0.338 N 
BRANCH   9  10
HETATM   10  C3  UNL     1       4.412  25.738   0.890  1.00  0.00     0.088 C 
HETATM   11  C2  UNL     1       3.875  24.704   0.040  1.00  0.00    -0.014 C 
HETATM   12  C1  UNL     1       2.954  23.660   0.509  1.00  0.00     0.037 C 
ENDBRANCH   9  10
BRANCH   9  13
HETATM   13  C4  UNL     1       4.677  25.720   3.359  1.00  0.00     0.130 C 
BRANCH  13  14
HETATM   14  C5  UNL     1       3.773  24.725   3.895  1.00  0.00     0.016 C 
HETATM   15  C6  UNL     1       4.071  23.293   3.945  1.00  0.00     0.006 C 
ENDBRANCH  13  14
ENDBRANCH   9  13
ENDBRANCH   6   9
BRANCH   6  16
HETATM   16  O1  UNL     1       7.097  25.998   0.769  1.00  0.00    -0.346 OA
ATOM     17  H1  UNL     1       7.957  26.394   0.841  1.00  0.00     0.219 HD
ENDBRANCH   6  16
ENDBRANCH   1   2
BRANCH   1  18
HETATM   18  C12 UNL     1      11.724  24.272   5.161  1.00  0.00     0.256 C 
HETATM   19  O2  UNL     1      12.659  24.683   4.381  1.00  0.00    -0.271 OA
HETATM   20  N3  UNL     1      11.960  23.043   5.799  1.00  0.00    -0.354 N 
ATOM     21  H3  UNL     1      11.250  22.670   6.430  1.00  0.00     0.162 HD
BRANCH  20  22
HETATM   22  C13 UNL     1      13.190  22.281   5.586  1.00  0.00     0.087 C 
HETATM   23  C14 UNL     1      14.151  22.493   6.736  1.00  0.00     0.045 C 
HETATM   24  C15 UNL     1      15.448  21.853   6.420  1.00  0.00     0.130 C 
HETATM   25  N4  UNL     1      15.391  20.673   5.598  1.00  0.00    -0.330 N 
HETATM   26  C16 UNL     1      16.606  19.984   5.380  1.00  0.00     0.319 C 
HETATM   27  C20 UNL     1      14.191  20.160   4.994  1.00  0.00     0.086 C 
HETATM   28  O3  UNL     1      17.659  20.395   5.887  1.00  0.00    -0.247 OA
HETATM   29  N5  UNL     1      16.658  18.820   4.584  1.00  0.00    -0.339 N 
ATOM     30  H5  UNL     1      15.798  18.474   4.159  1.00  0.00     0.164 HD
HETATM   31  C21 UNL     1      14.199  20.464   3.497  1.00  0.00     0.032 C 
HETATM   32  C22 UNL     1      12.927  20.781   5.552  1.00  0.00     0.050 C 
BRANCH  29  33
HETATM   33  C17 UNL     1      17.901  18.097   4.349  1.00  0.00     0.078 C 
HETATM   34  C18 UNL     1      17.956  16.810   5.136  1.00  0.00     0.032 C 
HETATM   35  C19 UNL     1      18.134  17.818   2.889  1.00  0.00     0.032 C 
ENDBRANCH  29  33
ENDBRANCH  20  22
ENDBRANCH   1  18
BRANCH   1  36
HETATM   36  C23 UNL     1      10.573  25.785   6.678  1.00  0.00     0.025 A 
HETATM   37  C24 UNL     1      11.327  25.423   7.763  1.00  0.00     0.018 A 
HETATM   38  C25 UNL     1      11.188  26.150   8.879  1.00  0.00     0.008 A 
HETATM   39  C26 UNL     1      10.302  27.197   8.841  1.00  0.00     0.050 A 
HETATM   40  S1  UNL     1       9.695  27.128   7.252  1.00  0.00    -0.104 SA
ENDBRANCH   1  36
TORSDOF 10
ENDMDL
MODEL 4
REMARK VINA RESULT: -8.066470073      0.493      1.552
REMARK  10 active torsions:
REMARK  status: ('A' for Active; 'I' for Inactive)
REMARK    1  A    between atoms: C3_3  and  N1_4 
REMARK    2  A    between atoms: N1_4  and  C4_5 
REMARK    3  A    between atoms: N1_4  and  C7_8 
REMARK    4  A    between atoms: C4_5  and  C5_6 
REMARK    5  A    between atoms: C7_8  and  O1_9 
REMARK    6  A    between atoms: N2_14  and  C11_15 
REMARK    7  A    between atoms: C11_15  and  C12_16 
REMARK    8  A    between atoms: C11_15  and  C23_34 
REMARK       I    between atoms: C12_16  and  N3_18 
REMARK    9  A    between atoms: N3_18  and  C13_20 
REMARK       I    between atoms: N4_23  and  C16_24 
REMARK       I    between atoms: C16_24  and  N5_26 
REMARK   10  A    between atoms: N5_26  and  C17_28 
ROOT
HETATM    1  C11 UNL     1       8.176  26.860   5.985  1.00  0.00     0.353 C 
ENDROOT
BRANCH   1   2
HETATM    2  N2  UNL     1       6.862  26.305   5.939  1.00  0.00     0.107 N 
HETATM    3  C10 UNL     1       6.282  26.220   4.617  1.00  0.00     0.278 C 
HETATM    4  C9  UNL     1       4.780  26.638   4.634  1.00  0.00     0.069 C 
HETATM    5  C8  UNL     1       4.800  28.100   4.898  1.00  0.00    -0.026 C 
HETATM    6  C7  UNL     1       3.633  28.894   4.709  1.00  0.00     0.144 C 
HETATM    7  C28 UNL     1       5.589  28.322   6.183  1.00  0.00     0.069 C 
HETATM    8  C27 UNL     1       5.994  27.017   6.837  1.00  0.00     0.278 C 
BRANCH   6   9
HETATM    9  N1  UNL     1       2.299  28.831   5.241  1.00  0.00    -0.338 N 
BRANCH   9  10
HETATM   10  C3  UNL     1       2.027  28.789   6.617  1.00  0.00     0.088 C 
HETATM   11  C2  UNL     1       1.591  27.663   7.406  1.00  0.00    -0.014 C 
HETATM   12  C1  UNL     1       2.382  26.439   7.588  1.00  0.00     0.037 C 
ENDBRANCH   9  10
BRANCH   9  13
HETATM   13  C4  UNL     1       1.231  28.569   4.275  1.00  0.00     0.130 C 
BRANCH  13  14
HETATM   14  C5  UNL     1       1.107  27.288   3.615  1.00  0.00     0.016 C 
HETATM   15  C6  UNL     1       1.537  27.032   2.239  1.00  0.00     0.006 C 
ENDBRANCH  13  14
ENDBRANCH   9  13
ENDBRANCH   6   9
BRANCH   6  16
HETATM   16  O1  UNL     1       3.771  29.905   3.884  1.00  0.00    -0.346 OA
ATOM     17  H1  UNL     1       4.666  29.979   3.575  1.00  0.00     0.219 HD
ENDBRANCH   6  16
ENDBRANCH   1   2
BRANCH   1  18
HETATM   18  C12 UNL     1       9.255  25.993   5.464  1.00  0.00     0.256 C 
HETATM   19  O2  UNL     1       9.552  26.096   4.218  1.00  0.00    -0.271 OA
HETATM   20  N3  UNL     1      10.007  25.057   6.194  1.00  0.00    -0.354 N 
ATOM     21  H3  UNL     1       9.812  24.934   7.187  1.00  0.00     0.162 HD
BRANCH  20  22
HETATM   22  C13 UNL     1      11.058  24.253   5.573  1.00  0.00     0.087 C 
HETATM   23  C14 UNL     1      12.419  24.669   6.089  1.00  0.00     0.045 C 
HETATM   24  C15 UNL     1      13.474  23.963   5.326  1.00  0.00     0.130 C 
HETATM   25  N4  UNL     1      13.139  22.648   4.846  1.00  0.00    -0.330 N 
HETATM   26  C16 UNL     1      14.170  21.915   4.215  1.00  0.00     0.319 C 
HETATM   27  C20 UNL     1      11.840  22.044   4.967  1.00  0.00     0.086 C 
HETATM   28  O3  UNL     1      15.302  22.402   4.096  1.00  0.00    -0.247 OA
HETATM   29  N5  UNL     1      13.943  20.619   3.704  1.00  0.00    -0.339 N 
ATOM     30  H5  UNL     1      13.014  20.209   3.795  1.00  0.00     0.164 HD
HETATM   31  C21 UNL     1      11.140  22.055   3.611  1.00  0.00     0.032 C 
HETATM   32  C22 UNL     1      10.927  22.777   5.929  1.00  0.00     0.050 C 
BRANCH  29  33
HETATM   33  C17 UNL     1      14.993  19.849   3.052  1.00  0.00     0.078 C 
HETATM   34  C18 UNL     1      15.085  18.447   3.605  1.00  0.00     0.032 C 
HETATM   35  C19 UNL     1      14.825  19.803   1.557  1.00  0.00     0.032 C 
ENDBRANCH  29  33
ENDBRANCH  20  22
ENDBRANCH   1  18
BRANCH   1  36
HETATM   36  C23 UNL     1       8.484  27.177   7.444  1.00  0.00     0.025 A 
HETATM   37  C24 UNL     1       8.944  28.354   7.973  1.00  0.00     0.018 A 
HETATM   38  C25 UNL     1       9.158  28.391   9.295  1.00  0.00     0.008 A 
HETATM   39  C26 UNL     1       8.899  27.247  10.007  1.00  0.00     0.050 A 
HETATM   40  S1  UNL     1       8.367  26.162   8.808  1.00  0.00    -0.104 SA
ENDBRANCH   1  36
TORSDOF 10
ENDMDL
MODEL 5
REMARK VINA RESULT: -8.008777698      3.132     10.184
REMARK  10 active torsions:
REMARK  status: ('A' for Active; 'I' for Inactive)
REMARK    1  A    between atoms: C3_3  and  N1_4 
REMARK    2  A    between atoms: N1_4  and  C4_5 
REMARK    3  A    between atoms: N1_4  and  C7_8 
REMARK    4  A    between atoms: C4_5  and  C5_6 
REMARK    5  A    between atoms: C7_8  and  O1_9 
REMARK    6  A    between atoms: N2_14  and  C11_15 
REMARK    7  A    between atoms: C11_15  and  C12_16 
REMARK    8  A    between atoms: C11_15  and  C23_34 
REMARK       I    between atoms: C12_16  and  N3_18 
REMARK    9  A    between atoms: N3_18  and  C13_20 
REMARK       I    between atoms: N4_23  and  C16_24 
REMARK       I    between atoms: C16_24  and  N5_26 
REMARK   10  A    between atoms: N5_26  and  C17_28 
ROOT
HETATM    1  C11 UNL     1       9.762  25.403   6.705  1.00  0.00     0.353 C 
ENDROOT
BRANCH   1   2
HETATM    2  N2  UNL     1      11.094  25.678   6.270  1.00  0.00     0.107 N 
HETATM    3  C10 UNL     1      11.365  25.348   4.889  1.00  0.00     0.278 C 
HETATM    4  C9  UNL     1      12.762  24.672   4.736  1.00  0.00     0.069 C 
HETATM    5  C8  UNL     1      12.607  23.340   5.375  1.00  0.00    -0.026 C 
HETATM    6  C7  UNL     1      13.584  22.320   5.189  1.00  0.00     0.144 C 
HETATM    7  C28 UNL     1      12.107  23.569   6.797  1.00  0.00     0.069 C 
HETATM    8  C27 UNL     1      12.039  25.042   7.147  1.00  0.00     0.278 C 
BRANCH   6   9
HETATM    9  N1  UNL     1      15.000  22.254   5.428  1.00  0.00    -0.338 N 
BRANCH   9  10
HETATM   10  C3  UNL     1      15.697  23.229   6.159  1.00  0.00     0.088 C 
HETATM   11  C2  UNL     1      15.891  23.304   7.585  1.00  0.00    -0.014 C 
HETATM   12  C1  UNL     1      16.615  22.291   8.365  1.00  0.00     0.037 C 
ENDBRANCH   9  10
BRANCH   9  13
HETATM   13  C4  UNL     1      15.736  21.242   4.668  1.00  0.00     0.130 C 
BRANCH  13  14
HETATM   14  C5  UNL     1      16.393  20.134   5.326  1.00  0.00     0.016 C 
HETATM   15  C6  UNL     1      17.845  19.967   5.392  1.00  0.00     0.006 C 
ENDBRANCH  13  14
ENDBRANCH   9  13
ENDBRANCH   6   9
BRANCH   6  16
HETATM   16  O1  UNL     1      13.129  21.192   4.699  1.00  0.00    -0.346 OA
ATOM     17  H1  UNL     1      12.286  21.312   4.278  1.00  0.00     0.219 HD
ENDBRANCH   6  16
ENDBRANCH   1   2
BRANCH   1  18
HETATM   18  C12 UNL     1       8.709  25.561   5.678  1.00  0.00     0.256 C 
HETATM   19  O2  UNL     1       8.095  26.688   5.624  1.00  0.00    -0.271 OA
HETATM   20  N3  UNL     1       8.303  24.600   4.737  1.00  0.00    -0.354 N 
ATOM     21  H3  UNL     1       8.758  23.687   4.736  1.00  0.00     0.162 HD
BRANCH  20  22
HETATM   22  C13 UNL     1       7.249  24.868   3.760  1.00  0.00     0.087 C 
HETATM   23  C14 UNL     1       7.847  25.160   2.401  1.00  0.00     0.045 C 
HETATM   24  C15 UNL     1       6.777  25.592   1.472  1.00  0.00     0.130 C 
HETATM   25  N4  UNL     1       5.473  25.025   1.697  1.00  0.00    -0.330 N 
HETATM   26  C16 UNL     1       4.468  25.338   0.754  1.00  0.00     0.319 C 
HETATM   27  C20 UNL     1       5.137  24.174   2.806  1.00  0.00     0.086 C 
HETATM   28  O3  UNL     1       4.721  26.066  -0.214  1.00  0.00    -0.247 OA
HETATM   29  N5  UNL     1       3.155  24.838   0.888  1.00  0.00    -0.339 N 
ATOM     30  H5  UNL     1       2.933  24.239   1.683  1.00  0.00     0.164 HD
HETATM   31  C21 UNL     1       4.304  24.954   3.819  1.00  0.00     0.032 C 
HETATM   32  C22 UNL     1       6.349  23.656   3.552  1.00  0.00     0.050 C 
BRANCH  29  33
HETATM   33  C17 UNL     1       2.106  25.148  -0.075  1.00  0.00     0.078 C 
HETATM   34  C18 UNL     1       1.245  23.944  -0.373  1.00  0.00     0.032 C 
HETATM   35  C19 UNL     1       1.244  26.300   0.370  1.00  0.00     0.032 C 
ENDBRANCH  29  33
ENDBRANCH  20  22
ENDBRANCH   1  18
BRANCH   1  36
HETATM   36  C23 UNL     1       9.453  26.356   7.853  1.00  0.00     0.025 A 
HETATM   37  C24 UNL     1       8.864  26.066   9.056  1.00  0.00     0.018 A 
HETATM   38  C25 UNL     1       8.679  27.082   9.910  1.00  0.00     0.008 A 
HETATM   39  C26 UNL     1       9.097  28.326   9.509  1.00  0.00     0.050 A 
HETATM   40  S1  UNL     1       9.729  28.035   7.955  1.00  0.00    -0.104 SA
ENDBRANCH   1  36
TORSDOF 10
ENDMDL
