MODEL 1
REMARK VINA RESULT: -6.673223885      0.000      0.000
REMARK  10 active torsions:
REMARK  status: ('A' for Active; 'I' for Inactive)
REMARK    1  A    between atoms: C2_2  and  N1_3 
REMARK    2  A    between atoms: N1_3  and  C3_5 
REMARK    3  A    between atoms: C4_6  and  O1_7 
REMARK    4  A    between atoms: C5_9  and  O2_10 
REMARK    5  A    between atoms: C9_15  and  O3_16 
REMARK    6  A    between atoms: C11_18  and  O4_19 
REMARK    7  A    between atoms: O4_19  and  C12_20 
REMARK    8  A    between atoms: C14_22  and  N2_23 
REMARK       I    between atoms: N2_23  and  C15_25 
REMARK       I    between atoms: C15_25  and  N3_27 
REMARK    9  A    between atoms: N3_27  and  N4_29 
REMARK   10  A    between atoms: C16_32  and  O8_33 
ROOT
HETATM    1  O4  UNL     1      54.784  14.236  25.219  1.00  0.00    -0.347 OA
ENDROOT
BRANCH   1   2
HETATM    2  C11 UNL     1      55.181  14.756  26.429  1.00  0.00     0.202 C 
HETATM    3  C3  UNL     1      55.905  13.758  27.216  1.00  0.00     0.049 C 
HETATM    4  C4  UNL     1      56.013  13.958  28.706  1.00  0.00     0.195 C 
HETATM    5  C5  UNL     1      54.866  14.635  29.344  1.00  0.00     0.163 C 
HETATM    6  C6  UNL     1      54.157  15.670  28.516  1.00  0.00     0.010 C 
HETATM    7  C7  UNL     1      52.821  16.000  29.142  1.00  0.00     0.020 C 
HETATM    8  C8  UNL     1      55.031  16.899  28.473  1.00  0.00     0.020 C 
HETATM    9  C9  UNL     1      53.855  15.160  27.116  1.00  0.00     0.166 C 
BRANCH   3  10
HETATM   10  N1  UNL     1      57.053  13.242  26.620  1.00  0.00    -0.372 N 
ATOM     11  H1  UNL     1      57.872  13.848  26.571  1.00  0.00     0.164 HD
BRANCH  10  12
HETATM   12  C2  UNL     1      57.164  11.968  26.088  1.00  0.00     0.056 C 
HETATM   13  C1  UNL     1      57.036  11.717  24.617  1.00  0.00     0.054 C 
ENDBRANCH  10  12
ENDBRANCH   3  10
BRANCH   4  14
HETATM   14  O1  UNL     1      56.095  12.657  29.266  1.00  0.00    -0.387 OA
ATOM     15  H1  UNL     1      56.841  12.674  29.854  1.00  0.00     0.210 HD
ENDBRANCH   4  14
BRANCH   5  16
HETATM   16  O2  UNL     1      55.358  15.335  30.477  1.00  0.00    -0.392 OA
ATOM     17  H2  UNL     1      54.863  15.041  31.234  1.00  0.00     0.210 HD
ENDBRANCH   5  16
BRANCH   9  18
HETATM   18  O3  UNL     1      52.898  14.211  27.093  1.00  0.00    -0.387 OA
HETATM   19  C10 UNL     1      51.777  14.363  26.369  1.00  0.00     0.202 C 
ENDBRANCH   9  18
ENDBRANCH   1   2
BRANCH   1  20
HETATM   20  C12 UNL     1      54.892  15.101  24.135  1.00  0.00     0.263 C 
HETATM   21  C13 UNL     1      56.219  15.217  23.512  1.00  0.00     0.088 C 
HETATM   22  C14 UNL     1      56.122  15.302  22.018  1.00  0.00     0.122 C 
HETATM   23  C16 UNL     1      55.308  14.158  21.460  1.00  0.00     0.169 C 
HETATM   24  C17 UNL     1      54.146  13.841  22.378  1.00  0.00     0.151 C 
HETATM   25  C18 UNL     1      52.897  13.471  21.648  1.00  0.00     0.042 C 
HETATM   26  O9  UNL     1      53.894  14.924  23.217  1.00  0.00    -0.354 OA
BRANCH  22  27
HETATM   27  N2  UNL     1      55.571  16.588  21.649  1.00  0.00    -0.334 N 
HETATM   28  C15 UNL     1      55.873  17.277  20.453  1.00  0.00     0.339 C 
HETATM   29  O5  UNL     1      56.667  16.757  19.640  1.00  0.00    -0.245 OA
HETATM   30  N3  UNL     1      55.302  18.532  20.151  1.00  0.00    -0.191 N 
ATOM     31  H3  UNL     1      54.655  18.932  20.830  1.00  0.00     0.198 HD
ATOM     32  H2  UNL     1      54.919  17.028  22.299  1.00  0.00     0.164 HD
BRANCH  30  33
HETATM   33  N4  UNL     1      55.556  19.262  18.997  1.00  0.00    -0.035 N 
HETATM   34  O6  UNL     1      56.171  20.356  19.085  1.00  0.00    -0.516 OA
HETATM   35  O7  UNL     1      55.181  18.879  17.725  1.00  0.00    -0.516 OA
ENDBRANCH  30  33
ENDBRANCH  22  27
BRANCH  23  36
HETATM   36  O8  UNL     1      54.808  14.547  20.226  1.00  0.00    -0.391 OA
ATOM     37  H8  UNL     1      53.863  14.607  20.296  1.00  0.00     0.210 HD
ENDBRANCH  23  36
ENDBRANCH   1  20
TORSDOF 10
ENDMDL
MODEL 2
REMARK VINA RESULT: -6.642959285      3.568      5.848
REMARK  10 active torsions:
REMARK  status: ('A' for Active; 'I' for Inactive)
REMARK    1  A    between atoms: C2_2  and  N1_3 
REMARK    2  A    between atoms: N1_3  and  C3_5 
REMARK    3  A    between atoms: C4_6  and  O1_7 
REMARK    4  A    between atoms: C5_9  and  O2_10 
REMARK    5  A    between atoms: C9_15  and  O3_16 
REMARK    6  A    between atoms: C11_18  and  O4_19 
REMARK    7  A    between atoms: O4_19  and  C12_20 
REMARK    8  A    between atoms: C14_22  and  N2_23 
REMARK       I    between atoms: N2_23  and  C15_25 
REMARK       I    between atoms: C15_25  and  N3_27 
REMARK    9  A    between atoms: N3_27  and  N4_29 
REMARK   10  A    between atoms: C16_32  and  O8_33 
ROOT
HETATM    1  O4  UNL     1      57.962  14.152  23.308  1.00  0.00    -0.347 OA
ENDROOT
BRANCH   1   2
HETATM    2  C11 UNL     1      58.936  13.569  22.531  1.00  0.00     0.202 C 
HETATM    3  C3  UNL     1      59.279  12.238  23.030  1.00  0.00     0.049 C 
HETATM    4  C4  UNL     1      60.603  11.639  22.630  1.00  0.00     0.195 C 
HETATM    5  C5  UNL     1      61.704  12.600  22.429  1.00  0.00     0.163 C 
HETATM    6  C6  UNL     1      61.321  13.953  21.895  1.00  0.00     0.010 C 
HETATM    7  C7  UNL     1      62.464  14.923  22.087  1.00  0.00     0.020 C 
HETATM    8  C8  UNL     1      61.013  13.794  20.426  1.00  0.00     0.020 C 
HETATM    9  C9  UNL     1      60.136  14.539  22.646  1.00  0.00     0.166 C 
BRANCH   3  10
HETATM   10  N1  UNL     1      58.226  11.328  23.081  1.00  0.00    -0.372 N 
ATOM     11  H1  UNL     1      57.799  11.051  22.197  1.00  0.00     0.164 HD
BRANCH  10  12
HETATM   12  C2  UNL     1      57.717  10.770  24.243  1.00  0.00     0.056 C 
HETATM   13  C1  UNL     1      56.911  11.577  25.212  1.00  0.00     0.054 C 
ENDBRANCH  10  12
ENDBRANCH   3  10
BRANCH   4  14
HETATM   14  O1  UNL     1      60.981  10.787  23.699  1.00  0.00    -0.387 OA
ATOM     15  H1  UNL     1      61.556  11.303  24.251  1.00  0.00     0.210 HD
ENDBRANCH   4  14
BRANCH   5  16
HETATM   16  O2  UNL     1      62.583  12.050  21.459  1.00  0.00    -0.392 OA
ATOM     17  H2  UNL     1      63.007  12.774  21.012  1.00  0.00     0.210 HD
ENDBRANCH   5  16
BRANCH   9  18
HETATM   18  O3  UNL     1      60.439  14.912  23.905  1.00  0.00    -0.387 OA
HETATM   19  C10 UNL     1      60.248  16.172  24.328  1.00  0.00     0.202 C 
ENDBRANCH   9  18
ENDBRANCH   1   2
BRANCH   1  20
HETATM   20  C12 UNL     1      57.072  14.977  22.629  1.00  0.00     0.263 C 
HETATM   21  C13 UNL     1      56.866  14.693  21.200  1.00  0.00     0.088 C 
HETATM   22  C14 UNL     1      55.429  14.858  20.807  1.00  0.00     0.122 C 
HETATM   23  C16 UNL     1      54.523  14.048  21.706  1.00  0.00     0.169 C 
HETATM   24  C17 UNL     1      55.030  14.079  23.131  1.00  0.00     0.151 C 
HETATM   25  C18 UNL     1      53.938  14.146  24.148  1.00  0.00     0.042 C 
HETATM   26  O9  UNL     1      55.897  15.156  23.304  1.00  0.00    -0.354 OA
BRANCH  22  27
HETATM   27  N2  UNL     1      55.089  16.264  20.823  1.00  0.00    -0.334 N 
HETATM   28  C15 UNL     1      55.486  17.198  19.840  1.00  0.00     0.339 C 
HETATM   29  O5  UNL     1      56.179  16.803  18.877  1.00  0.00    -0.245 OA
HETATM   30  N3  UNL     1      55.122  18.559  19.913  1.00  0.00    -0.191 N 
ATOM     31  H3  UNL     1      54.554  18.854  20.707  1.00  0.00     0.198 HD
ATOM     32  H2  UNL     1      54.522  16.606  21.600  1.00  0.00     0.164 HD
BRANCH  30  33
HETATM   33  N4  UNL     1      55.480  19.527  18.984  1.00  0.00    -0.035 N 
HETATM   34  O6  UNL     1      56.584  20.119  19.107  1.00  0.00    -0.516 OA
HETATM   35  O7  UNL     1      54.706  19.907  17.905  1.00  0.00    -0.516 OA
ENDBRANCH  30  33
ENDBRANCH  22  27
BRANCH  23  36
HETATM   36  O8  UNL     1      53.259  14.619  21.669  1.00  0.00    -0.391 OA
ATOM     37  H8  UNL     1      53.350  15.548  21.840  1.00  0.00     0.210 HD
ENDBRANCH  23  36
ENDBRANCH   1  20
TORSDOF 10
ENDMDL
MODEL 3
REMARK VINA RESULT: -6.539055333      3.859      6.073
REMARK  10 active torsions:
REMARK  status: ('A' for Active; 'I' for Inactive)
REMARK    1  A    between atoms: C2_2  and  N1_3 
REMARK    2  A    between atoms: N1_3  and  C3_5 
REMARK    3  A    between atoms: C4_6  and  O1_7 
REMARK    4  A    between atoms: C5_9  and  O2_10 
REMARK    5  A    between atoms: C9_15  and  O3_16 
REMARK    6  A    between atoms: C11_18  and  O4_19 
REMARK    7  A    between atoms: O4_19  and  C12_20 
REMARK    8  A    between atoms: C14_22  and  N2_23 
REMARK       I    between atoms: N2_23  and  C15_25 
REMARK       I    between atoms: C15_25  and  N3_27 
REMARK    9  A    between atoms: N3_27  and  N4_29 
REMARK   10  A    between atoms: C16_32  and  O8_33 
ROOT
HETATM    1  O4  UNL     1      58.105  14.031  23.071  1.00  0.00    -0.347 OA
ENDROOT
BRANCH   1   2
HETATM    2  C11 UNL     1      59.202  13.689  22.314  1.00  0.00     0.202 C 
HETATM    3  C3  UNL     1      59.691  12.358  22.670  1.00  0.00     0.049 C 
HETATM    4  C4  UNL     1      61.109  11.993  22.313  1.00  0.00     0.195 C 
HETATM    5  C5  UNL     1      62.078  13.107  22.330  1.00  0.00     0.163 C 
HETATM    6  C6  UNL     1      61.548  14.459  21.938  1.00  0.00     0.010 C 
HETATM    7  C7  UNL     1      62.529  15.533  22.348  1.00  0.00     0.020 C 
HETATM    8  C8  UNL     1      61.366  14.462  20.440  1.00  0.00     0.020 C 
HETATM    9  C9  UNL     1      60.245  14.780  22.652  1.00  0.00     0.166 C 
BRANCH   3  10
HETATM   10  N1  UNL     1      58.773  11.321  22.515  1.00  0.00    -0.372 N 
ATOM     11  H1  UNL     1      58.201  11.073  23.322  1.00  0.00     0.164 HD
BRANCH  10  12
HETATM   12  C2  UNL     1      58.581  10.602  21.347  1.00  0.00     0.056 C 
HETATM   13  C1  UNL     1      58.931   9.149  21.253  1.00  0.00     0.054 C 
ENDBRANCH  10  12
ENDBRANCH   3  10
BRANCH   4  14
HETATM   14  O1  UNL     1      61.528  11.060  23.296  1.00  0.00    -0.387 OA
ATOM     15  H1  UNL     1      62.292  10.627  22.934  1.00  0.00     0.210 HD
ENDBRANCH   4  14
BRANCH   5  16
HETATM   16  O2  UNL     1      63.089  12.811  21.378  1.00  0.00    -0.392 OA
ATOM     17  H2  UNL     1      62.700  12.261  20.708  1.00  0.00     0.210 HD
ENDBRANCH   5  16
BRANCH   9  18
HETATM   18  O3  UNL     1      60.406  15.015  23.969  1.00  0.00    -0.387 OA
HETATM   19  C10 UNL     1      60.040  16.182  24.523  1.00  0.00     0.202 C 
ENDBRANCH   9  18
ENDBRANCH   1   2
BRANCH   1  20
HETATM   20  C12 UNL     1      57.191  14.875  22.450  1.00  0.00     0.263 C 
HETATM   21  C13 UNL     1      56.911  14.616  21.029  1.00  0.00     0.088 C 
HETATM   22  C14 UNL     1      55.458  14.801  20.711  1.00  0.00     0.122 C 
HETATM   23  C16 UNL     1      54.589  13.987  21.641  1.00  0.00     0.169 C 
HETATM   24  C17 UNL     1      55.167  13.990  23.040  1.00  0.00     0.151 C 
HETATM   25  C18 UNL     1      54.128  14.053  24.111  1.00  0.00     0.042 C 
HETATM   26  O9  UNL     1      56.054  15.055  23.185  1.00  0.00    -0.354 OA
BRANCH  22  27
HETATM   27  N2  UNL     1      55.134  16.210  20.765  1.00  0.00    -0.334 N 
HETATM   28  C15 UNL     1      55.505  17.158  19.784  1.00  0.00     0.339 C 
HETATM   29  O5  UNL     1      56.157  16.774  18.789  1.00  0.00    -0.245 OA
HETATM   30  N3  UNL     1      55.159  18.522  19.896  1.00  0.00    -0.191 N 
ATOM     31  H3  UNL     1      54.625  18.808  20.716  1.00  0.00     0.198 HD
ATOM     32  H2  UNL     1      54.601  16.544  21.569  1.00  0.00     0.164 HD
BRANCH  30  33
HETATM   33  N4  UNL     1      55.492  19.503  18.971  1.00  0.00    -0.035 N 
HETATM   34  O6  UNL     1      56.580  20.123  19.098  1.00  0.00    -0.516 OA
HETATM   35  O7  UNL     1      54.710  19.866  17.893  1.00  0.00    -0.516 OA
ENDBRANCH  30  33
ENDBRANCH  22  27
BRANCH  23  36
HETATM   36  O8  UNL     1      53.331  14.570  21.676  1.00  0.00    -0.391 OA
ATOM     37  H8  UNL     1      52.792  14.148  21.019  1.00  0.00     0.210 HD
ENDBRANCH  23  36
ENDBRANCH   1  20
TORSDOF 10
ENDMDL
MODEL 4
REMARK VINA RESULT: -6.395397771      2.894      5.424
REMARK  10 active torsions:
REMARK  status: ('A' for Active; 'I' for Inactive)
REMARK    1  A    between atoms: C2_2  and  N1_3 
REMARK    2  A    between atoms: N1_3  and  C3_5 
REMARK    3  A    between atoms: C4_6  and  O1_7 
REMARK    4  A    between atoms: C5_9  and  O2_10 
REMARK    5  A    between atoms: C9_15  and  O3_16 
REMARK    6  A    between atoms: C11_18  and  O4_19 
REMARK    7  A    between atoms: O4_19  and  C12_20 
REMARK    8  A    between atoms: C14_22  and  N2_23 
REMARK       I    between atoms: N2_23  and  C15_25 
REMARK       I    between atoms: C15_25  and  N3_27 
REMARK    9  A    between atoms: N3_27  and  N4_29 
REMARK   10  A    between atoms: C16_32  and  O8_33 
ROOT
HETATM    1  O4  UNL     1      57.829  14.331  23.728  1.00  0.00    -0.347 OA
ENDROOT
BRANCH   1   2
HETATM    2  C11 UNL     1      57.974  13.036  23.288  1.00  0.00     0.202 C 
HETATM    3  C3  UNL     1      58.037  12.104  24.413  1.00  0.00     0.049 C 
HETATM    4  C4  UNL     1      58.645  10.743  24.186  1.00  0.00     0.195 C 
HETATM    5  C5  UNL     1      59.729  10.687  23.186  1.00  0.00     0.163 C 
HETATM    6  C6  UNL     1      59.622  11.644  22.031  1.00  0.00     0.010 C 
HETATM    7  C7  UNL     1      60.949  11.728  21.311  1.00  0.00     0.020 C 
HETATM    8  C8  UNL     1      58.556  11.121  21.101  1.00  0.00     0.020 C 
HETATM    9  C9  UNL     1      59.303  13.055  22.498  1.00  0.00     0.166 C 
BRANCH   3  10
HETATM   10  N1  UNL     1      56.930  12.106  25.257  1.00  0.00    -0.372 N 
ATOM     11  H1  UNL     1      56.063  11.705  24.900  1.00  0.00     0.164 HD
BRANCH  10  12
HETATM   12  C2  UNL     1      56.918  12.613  26.547  1.00  0.00     0.056 C 
HETATM   13  C1  UNL     1      56.413  13.992  26.843  1.00  0.00     0.054 C 
ENDBRANCH  10  12
ENDBRANCH   3  10
BRANCH   4  14
HETATM   14  O1  UNL     1      59.203  10.356  25.431  1.00  0.00    -0.387 OA
ATOM     15  H1  UNL     1      59.217  11.142  25.965  1.00  0.00     0.210 HD
ENDBRANCH   4  14
BRANCH   5  16
HETATM   16  O2  UNL     1      59.709   9.393  22.603  1.00  0.00    -0.392 OA
ATOM     17  H2  UNL     1      59.356   8.792  23.248  1.00  0.00     0.210 HD
ENDBRANCH   5  16
BRANCH   9  18
HETATM   18  O3  UNL     1      60.330  13.647  23.139  1.00  0.00    -0.387 OA
HETATM   19  C10 UNL     1      60.820  14.830  22.735  1.00  0.00     0.202 C 
ENDBRANCH   9  18
ENDBRANCH   1   2
BRANCH   1  20
HETATM   20  C12 UNL     1      56.989  15.131  22.961  1.00  0.00     0.263 C 
HETATM   21  C13 UNL     1      56.908  14.819  21.526  1.00  0.00     0.088 C 
HETATM   22  C14 UNL     1      55.507  14.957  21.011  1.00  0.00     0.122 C 
HETATM   23  C16 UNL     1      54.538  14.151  21.845  1.00  0.00     0.169 C 
HETATM   24  C17 UNL     1      54.923  14.214  23.308  1.00  0.00     0.151 C 
HETATM   25  C18 UNL     1      53.749  14.285  24.227  1.00  0.00     0.042 C 
HETATM   26  O9  UNL     1      55.760  15.306  23.532  1.00  0.00    -0.354 OA
BRANCH  22  27
HETATM   27  N2  UNL     1      55.149  16.358  20.971  1.00  0.00    -0.334 N 
HETATM   28  C15 UNL     1      55.518  17.252  19.941  1.00  0.00     0.339 C 
HETATM   29  O5  UNL     1      56.199  16.824  18.985  1.00  0.00    -0.245 OA
HETATM   30  N3  UNL     1      55.138  18.612  19.961  1.00  0.00    -0.191 N 
ATOM     31  H3  UNL     1      54.580  18.935  20.752  1.00  0.00     0.198 HD
ATOM     32  H2  UNL     1      54.592  16.727  21.742  1.00  0.00     0.164 HD
BRANCH  30  33
HETATM   33  N4  UNL     1      55.468  19.542  18.984  1.00  0.00    -0.035 N 
HETATM   34  O6  UNL     1      56.548  20.181  19.083  1.00  0.00    -0.516 OA
HETATM   35  O7  UNL     1      54.689  19.835  17.882  1.00  0.00    -0.516 OA
ENDBRANCH  30  33
ENDBRANCH  22  27
BRANCH  23  36
HETATM   36  O8  UNL     1      53.275  14.703  21.692  1.00  0.00    -0.391 OA
ATOM     37  H8  UNL     1      53.372  15.548  21.268  1.00  0.00     0.210 HD
ENDBRANCH  23  36
ENDBRANCH   1  20
TORSDOF 10
ENDMDL
MODEL 5
REMARK VINA RESULT: -6.305096321      1.382      2.190
REMARK  10 active torsions:
REMARK  status: ('A' for Active; 'I' for Inactive)
REMARK    1  A    between atoms: C2_2  and  N1_3 
REMARK    2  A    between atoms: N1_3  and  C3_5 
REMARK    3  A    between atoms: C4_6  and  O1_7 
REMARK    4  A    between atoms: C5_9  and  O2_10 
REMARK    5  A    between atoms: C9_15  and  O3_16 
REMARK    6  A    between atoms: C11_18  and  O4_19 
REMARK    7  A    between atoms: O4_19  and  C12_20 
REMARK    8  A    between atoms: C14_22  and  N2_23 
REMARK       I    between atoms: N2_23  and  C15_25 
REMARK       I    between atoms: C15_25  and  N3_27 
REMARK    9  A    between atoms: N3_27  and  N4_29 
REMARK   10  A    between atoms: C16_32  and  O8_33 
ROOT
HETATM    1  O4  UNL     1      55.108  14.240  25.219  1.00  0.00    -0.347 OA
ENDROOT
BRANCH   1   2
HETATM    2  C11 UNL     1      56.323  13.996  25.815  1.00  0.00     0.202 C 
HETATM    3  C3  UNL     1      56.606  12.562  25.861  1.00  0.00     0.049 C 
HETATM    4  C4  UNL     1      57.621  12.061  26.856  1.00  0.00     0.195 C 
HETATM    5  C5  UNL     1      57.703  12.817  28.121  1.00  0.00     0.163 C 
HETATM    6  C6  UNL     1      57.428  14.293  28.035  1.00  0.00     0.010 C 
HETATM    7  C7  UNL     1      57.189  14.851  29.420  1.00  0.00     0.020 C 
HETATM    8  C8  UNL     1      58.635  14.948  27.410  1.00  0.00     0.020 C 
HETATM    9  C9  UNL     1      56.167  14.585  27.237  1.00  0.00     0.166 C 
BRANCH   3  10
HETATM   10  N1  UNL     1      56.642  11.918  24.627  1.00  0.00    -0.372 N 
ATOM     11  H1  UNL     1      55.775  11.502  24.286  1.00  0.00     0.164 HD
BRANCH  10  12
HETATM   12  C2  UNL     1      57.768  11.801  23.828  1.00  0.00     0.056 C 
HETATM   13  C1  UNL     1      58.422  10.477  23.583  1.00  0.00     0.054 C 
ENDBRANCH  10  12
ENDBRANCH   3  10
BRANCH   4  14
HETATM   14  O1  UNL     1      57.222  10.739  27.184  1.00  0.00    -0.387 OA
ATOM     15  H1  UNL     1      57.992  10.320  27.550  1.00  0.00     0.210 HD
ENDBRANCH   4  14
BRANCH   5  16
HETATM   16  O2  UNL     1      59.036  12.713  28.599  1.00  0.00    -0.392 OA
ATOM     17  H2  UNL     1      59.270  13.549  28.983  1.00  0.00     0.210 HD
ENDBRANCH   5  16
BRANCH   9  18
HETATM   18  O3  UNL     1      55.039  14.219  27.877  1.00  0.00    -0.387 OA
HETATM   19  C10 UNL     1      54.033  15.086  28.076  1.00  0.00     0.202 C 
ENDBRANCH   9  18
ENDBRANCH   1   2
BRANCH   1  20
HETATM   20  C12 UNL     1      55.141  15.108  24.132  1.00  0.00     0.263 C 
HETATM   21  C13 UNL     1      56.426  15.241  23.431  1.00  0.00     0.088 C 
HETATM   22  C14 UNL     1      56.238  15.327  21.946  1.00  0.00     0.122 C 
HETATM   23  C16 UNL     1      55.405  14.174  21.435  1.00  0.00     0.169 C 
HETATM   24  C17 UNL     1      54.305  13.843  22.420  1.00  0.00     0.151 C 
HETATM   25  C18 UNL     1      53.019  13.460  21.766  1.00  0.00     0.042 C 
HETATM   26  O9  UNL     1      54.092  14.921  23.276  1.00  0.00    -0.354 OA
BRANCH  22  27
HETATM   27  N2  UNL     1      55.652  16.607  21.614  1.00  0.00    -0.334 N 
HETATM   28  C15 UNL     1      55.906  17.321  20.421  1.00  0.00     0.339 C 
HETATM   29  O5  UNL     1      56.687  16.831  19.578  1.00  0.00    -0.245 OA
HETATM   30  N3  UNL     1      55.302  18.569  20.156  1.00  0.00    -0.191 N 
ATOM     31  H3  UNL     1      54.666  18.945  20.859  1.00  0.00     0.198 HD
ATOM     32  H2  UNL     1      55.009  17.023  22.288  1.00  0.00     0.164 HD
BRANCH  30  33
HETATM   33  N4  UNL     1      55.509  19.323  19.008  1.00  0.00    -0.035 N 
HETATM   34  O6  UNL     1      56.056  20.452  19.105  1.00  0.00    -0.516 OA
HETATM   35  O7  UNL     1      55.156  18.927  17.733  1.00  0.00    -0.516 OA
ENDBRANCH  30  33
ENDBRANCH  22  27
BRANCH  23  36
HETATM   36  O8  UNL     1      54.828  14.560  20.234  1.00  0.00    -0.391 OA
ATOM     37  H8  UNL     1      54.111  15.152  20.429  1.00  0.00     0.210 HD
ENDBRANCH  23  36
ENDBRANCH   1  20
TORSDOF 10
ENDMDL
