MODEL 1
REMARK VINA RESULT: -6.854959368      0.000      0.000
REMARK  12 active torsions:
REMARK  status: ('A' for Active; 'I' for Inactive)
REMARK    1  A    between atoms: C2_2  and  C3_3 
REMARK    2  A    between atoms: C3_3  and  C4_4 
REMARK    3  A    between atoms: C4_4  and  C5_5 
REMARK    4  A    between atoms: C5_5  and  C6_6 
REMARK    5  A    between atoms: C6_6  and  C7_7 
REMARK    6  A    between atoms: C7_7  and  C8_8 
REMARK    7  A    between atoms: C11_11  and  C12_12 
REMARK    8  A    between atoms: C16_17  and  O2_18 
REMARK    9  A    between atoms: C17_20  and  C18_21 
REMARK   10  A    between atoms: C17_20  and  C19_24 
REMARK   11  A    between atoms: C18_21  and  O3_22 
REMARK   12  A    between atoms: C19_24  and  O4_25 
ROOT
HETATM    1  C8  UNL     1      -1.807  23.388  46.458  1.00  0.00    -0.005 C 
HETATM    2  C9  UNL     1      -1.121  22.126  46.934  1.00  0.00     0.033 C 
HETATM    3  C10 UNL     1      -2.087  21.000  47.217  1.00  0.00    -0.015 C 
HETATM    4  C11 UNL     1      -3.270  21.201  47.763  1.00  0.00    -0.015 C 
HETATM    5  C13 UNL     1      -3.505  22.637  48.061  1.00  0.00    -0.007 C 
HETATM    6  C14 UNL     1      -2.588  22.997  49.170  1.00  0.00     0.021 C 
HETATM    7  C15 UNL     1      -4.930  22.996  48.319  1.00  0.00     0.047 C 
HETATM    8  C16 UNL     1      -4.950  24.474  47.989  1.00  0.00     0.132 C 
HETATM    9  C17 UNL     1      -4.079  24.570  46.695  1.00  0.00     0.033 C 
HETATM   10  C20 UNL     1      -3.250  23.359  46.735  1.00  0.00     0.018 C 
ENDROOT
BRANCH   1  11
HETATM   11  C7  UNL     1      -1.318  23.716  45.091  1.00  0.00     0.005 C 
BRANCH  11  12
HETATM   12  C6  UNL     1      -0.512  24.943  44.880  1.00  0.00     0.000 C 
BRANCH  12  13
HETATM   13  C5  UNL     1      -0.660  25.823  43.732  1.00  0.00     0.000 C 
BRANCH  13  14
HETATM   14  C4  UNL     1       0.463  25.651  42.701  1.00  0.00     0.004 C 
BRANCH  14  15
HETATM   15  C3  UNL     1      -0.045  25.348  41.344  1.00  0.00     0.026 C 
BRANCH  15  16
HETATM   16  C2  UNL     1      -0.731  24.030  41.348  1.00  0.00    -0.037 C 
HETATM   17  C1  UNL     1      -0.695  23.287  40.258  1.00  0.00     0.007 C 
ENDBRANCH  15  16
ENDBRANCH  14  15
ENDBRANCH  13  14
ENDBRANCH  12  13
ENDBRANCH  11  12
ENDBRANCH   1  11
BRANCH   9  18
HETATM   18  C18 UNL     1      -3.400  25.898  46.667  1.00  0.00     0.178 C 
BRANCH  18  19
HETATM   19  O3  UNL     1      -4.277  26.916  46.266  1.00  0.00    -0.400 OA
ATOM     20  H3  UNL     1      -4.159  27.703  46.785  1.00  0.00     0.209 HD
ENDBRANCH  18  19
ENDBRANCH   9  18
BRANCH   9  21
HETATM   21  C19 UNL     1      -5.143  24.570  45.593  1.00  0.00     0.178 C 
BRANCH  21  22
HETATM   22  O4  UNL     1      -4.676  24.548  44.315  1.00  0.00    -0.400 OA
ATOM     23  H4  UNL     1      -3.935  25.114  44.133  1.00  0.00     0.209 HD
ENDBRANCH  21  22
ENDBRANCH   9  21
BRANCH   4  24
HETATM   24  C12 UNL     1      -4.244  20.176  48.061  1.00  0.00     0.266 C 
HETATM   25  O1  UNL     1      -4.233  19.579  49.161  1.00  0.00    -0.302 OA
ENDBRANCH   4  24
BRANCH   8  26
HETATM   26  O2  UNL     1      -4.537  25.302  48.976  1.00  0.00    -0.395 OA
ATOM     27  H2  UNL     1      -4.029  24.897  49.668  1.00  0.00     0.210 HD
ENDBRANCH   8  26
TORSDOF 12
ENDMDL
MODEL 2
REMARK VINA RESULT: -6.308515749      1.339      1.655
REMARK  12 active torsions:
REMARK  status: ('A' for Active; 'I' for Inactive)
REMARK    1  A    between atoms: C2_2  and  C3_3 
REMARK    2  A    between atoms: C3_3  and  C4_4 
REMARK    3  A    between atoms: C4_4  and  C5_5 
REMARK    4  A    between atoms: C5_5  and  C6_6 
REMARK    5  A    between atoms: C6_6  and  C7_7 
REMARK    6  A    between atoms: C7_7  and  C8_8 
REMARK    7  A    between atoms: C11_11  and  C12_12 
REMARK    8  A    between atoms: C16_17  and  O2_18 
REMARK    9  A    between atoms: C17_20  and  C18_21 
REMARK   10  A    between atoms: C17_20  and  C19_24 
REMARK   11  A    between atoms: C18_21  and  O3_22 
REMARK   12  A    between atoms: C19_24  and  O4_25 
ROOT
HETATM    1  C8  UNL     1      -2.408  23.530  47.596  1.00  0.00    -0.005 C 
HETATM    2  C9  UNL     1      -1.548  22.327  47.914  1.00  0.00     0.033 C 
HETATM    3  C10 UNL     1      -2.233  21.015  47.616  1.00  0.00    -0.015 C 
HETATM    4  C11 UNL     1      -3.520  20.822  47.832  1.00  0.00    -0.015 C 
HETATM    5  C13 UNL     1      -4.172  22.029  48.401  1.00  0.00    -0.007 C 
HETATM    6  C14 UNL     1      -3.648  22.186  49.780  1.00  0.00     0.021 C 
HETATM    7  C15 UNL     1      -5.662  22.029  48.322  1.00  0.00     0.047 C 
HETATM    8  C16 UNL     1      -5.983  23.508  48.383  1.00  0.00     0.132 C 
HETATM    9  C17 UNL     1      -4.900  24.154  47.461  1.00  0.00     0.033 C 
HETATM   10  C20 UNL     1      -3.821  23.159  47.431  1.00  0.00     0.018 C 
ENDROOT
BRANCH   1  11
HETATM   11  C7  UNL     1      -1.727  24.347  46.555  1.00  0.00     0.005 C 
BRANCH  11  12
HETATM   12  C6  UNL     1      -1.261  23.695  45.306  1.00  0.00     0.000 C 
BRANCH  12  13
HETATM   13  C5  UNL     1      -1.770  24.019  43.983  1.00  0.00     0.000 C 
BRANCH  13  14
HETATM   14  C4  UNL     1      -1.398  25.438  43.532  1.00  0.00     0.004 C 
BRANCH  14  15
HETATM   15  C3  UNL     1       0.042  25.736  43.704  1.00  0.00     0.026 C 
BRANCH  15  16
HETATM   16  C2  UNL     1       0.721  25.712  42.382  1.00  0.00    -0.037 C 
HETATM   17  C1  UNL     1      -0.000  25.507  41.297  1.00  0.00     0.007 C 
ENDBRANCH  15  16
ENDBRANCH  14  15
ENDBRANCH  13  14
ENDBRANCH  12  13
ENDBRANCH  11  12
ENDBRANCH   1  11
BRANCH   9  18
HETATM   18  C18 UNL     1      -4.592  25.524  47.963  1.00  0.00     0.178 C 
BRANCH  18  19
HETATM   19  O3  UNL     1      -5.659  26.407  47.738  1.00  0.00    -0.400 OA
ATOM     20  H3  UNL     1      -5.541  26.899  46.934  1.00  0.00     0.209 HD
ENDBRANCH  18  19
ENDBRANCH   9  18
BRANCH   9  21
HETATM   21  C19 UNL     1      -5.655  24.305  46.137  1.00  0.00     0.178 C 
BRANCH  21  22
HETATM   22  O4  UNL     1      -5.018  25.013  45.165  1.00  0.00    -0.400 OA
ATOM     23  H4  UNL     1      -5.441  25.819  44.893  1.00  0.00     0.209 HD
ENDBRANCH  21  22
ENDBRANCH   9  21
BRANCH   4  24
HETATM   24  C12 UNL     1      -4.242  19.598  47.570  1.00  0.00     0.266 C 
HETATM   25  O1  UNL     1      -4.073  18.967  46.503  1.00  0.00    -0.302 OA
ENDBRANCH   4  24
BRANCH   8  26
HETATM   26  O2  UNL     1      -6.025  24.050  49.622  1.00  0.00    -0.395 OA
ATOM     27  H2  UNL     1      -6.329  24.948  49.668  1.00  0.00     0.210 HD
ENDBRANCH   8  26
TORSDOF 12
ENDMDL
MODEL 3
REMARK VINA RESULT: -6.257021587      1.324      1.938
REMARK  12 active torsions:
REMARK  status: ('A' for Active; 'I' for Inactive)
REMARK    1  A    between atoms: C2_2  and  C3_3 
REMARK    2  A    between atoms: C3_3  and  C4_4 
REMARK    3  A    between atoms: C4_4  and  C5_5 
REMARK    4  A    between atoms: C5_5  and  C6_6 
REMARK    5  A    between atoms: C6_6  and  C7_7 
REMARK    6  A    between atoms: C7_7  and  C8_8 
REMARK    7  A    between atoms: C11_11  and  C12_12 
REMARK    8  A    between atoms: C16_17  and  O2_18 
REMARK    9  A    between atoms: C17_20  and  C18_21 
REMARK   10  A    between atoms: C17_20  and  C19_24 
REMARK   11  A    between atoms: C18_21  and  O3_22 
REMARK   12  A    between atoms: C19_24  and  O4_25 
ROOT
HETATM    1  C8  UNL     1      -2.666  22.783  47.958  1.00  0.00    -0.005 C 
HETATM    2  C9  UNL     1      -2.851  21.399  48.539  1.00  0.00     0.033 C 
HETATM    3  C10 UNL     1      -4.107  20.716  48.051  1.00  0.00    -0.015 C 
HETATM    4  C11 UNL     1      -5.237  21.367  47.854  1.00  0.00    -0.015 C 
HETATM    5  C13 UNL     1      -5.109  22.810  48.181  1.00  0.00    -0.007 C 
HETATM    6  C14 UNL     1      -4.953  22.901  49.653  1.00  0.00     0.021 C 
HETATM    7  C15 UNL     1      -6.198  23.672  47.638  1.00  0.00     0.047 C 
HETATM    8  C16 UNL     1      -5.531  25.031  47.584  1.00  0.00     0.132 C 
HETATM    9  C17 UNL     1      -4.100  24.713  47.044  1.00  0.00     0.033 C 
HETATM   10  C20 UNL     1      -3.909  23.293  47.361  1.00  0.00     0.018 C 
ENDROOT
BRANCH   1  11
HETATM   11  C7  UNL     1      -1.399  22.812  47.177  1.00  0.00     0.005 C 
BRANCH  11  12
HETATM   12  C6  UNL     1      -1.453  23.022  45.710  1.00  0.00     0.000 C 
BRANCH  12  13
HETATM   13  C5  UNL     1      -0.639  23.995  45.000  1.00  0.00     0.000 C 
BRANCH  13  14
HETATM   14  C4  UNL     1      -1.254  24.424  43.661  1.00  0.00     0.004 C 
BRANCH  14  15
HETATM   15  C3  UNL     1      -0.792  25.758  43.218  1.00  0.00     0.026 C 
BRANCH  15  16
HETATM   16  C2  UNL     1       0.049  25.620  42.001  1.00  0.00    -0.037 C 
HETATM   17  C1  UNL     1      -0.268  24.703  41.107  1.00  0.00     0.007 C 
ENDBRANCH  15  16
ENDBRANCH  14  15
ENDBRANCH  13  14
ENDBRANCH  12  13
ENDBRANCH  11  12
ENDBRANCH   1  11
BRANCH   9  18
HETATM   18  C18 UNL     1      -3.139  25.704  47.607  1.00  0.00     0.178 C 
BRANCH  18  19
HETATM   19  O3  UNL     1      -2.524  26.458  46.596  1.00  0.00    -0.400 OA
ATOM     20  H3  UNL     1      -2.938  27.307  46.493  1.00  0.00     0.209 HD
ENDBRANCH  18  19
ENDBRANCH   9  18
BRANCH   9  21
HETATM   21  C19 UNL     1      -4.250  25.010  45.549  1.00  0.00     0.178 C 
BRANCH  21  22
HETATM   22  O4  UNL     1      -4.887  26.171  45.233  1.00  0.00    -0.400 OA
ATOM     23  H4  UNL     1      -5.831  26.113  45.136  1.00  0.00     0.209 HD
ENDBRANCH  21  22
ENDBRANCH   9  21
BRANCH   4  24
HETATM   24  C12 UNL     1      -6.474  20.782  47.388  1.00  0.00     0.266 C 
HETATM   25  O1  UNL     1      -6.469  19.842  46.563  1.00  0.00    -0.302 OA
ENDBRANCH   4  24
BRANCH   8  26
HETATM   26  O2  UNL     1      -5.524  25.728  48.743  1.00  0.00    -0.395 OA
ATOM     27  H2  UNL     1      -4.760  26.273  48.891  1.00  0.00     0.210 HD
ENDBRANCH   8  26
TORSDOF 12
ENDMDL
MODEL 4
REMARK VINA RESULT: -5.911205980      2.429      4.781
REMARK  12 active torsions:
REMARK  status: ('A' for Active; 'I' for Inactive)
REMARK    1  A    between atoms: C2_2  and  C3_3 
REMARK    2  A    between atoms: C3_3  and  C4_4 
REMARK    3  A    between atoms: C4_4  and  C5_5 
REMARK    4  A    between atoms: C5_5  and  C6_6 
REMARK    5  A    between atoms: C6_6  and  C7_7 
REMARK    6  A    between atoms: C7_7  and  C8_8 
REMARK    7  A    between atoms: C11_11  and  C12_12 
REMARK    8  A    between atoms: C16_17  and  O2_18 
REMARK    9  A    between atoms: C17_20  and  C18_21 
REMARK   10  A    between atoms: C17_20  and  C19_24 
REMARK   11  A    between atoms: C18_21  and  O3_22 
REMARK   12  A    between atoms: C19_24  and  O4_25 
ROOT
HETATM    1  C8  UNL     1      -2.599  23.506  47.976  1.00  0.00    -0.005 C 
HETATM    2  C9  UNL     1      -3.345  22.731  49.040  1.00  0.00     0.033 C 
HETATM    3  C10 UNL     1      -4.665  22.180  48.553  1.00  0.00    -0.015 C 
HETATM    4  C11 UNL     1      -5.450  22.847  47.730  1.00  0.00    -0.015 C 
HETATM    5  C13 UNL     1      -4.881  24.171  47.372  1.00  0.00    -0.007 C 
HETATM    6  C14 UNL     1      -4.941  25.005  48.597  1.00  0.00     0.021 C 
HETATM    7  C15 UNL     1      -5.501  24.814  46.178  1.00  0.00     0.047 C 
HETATM    8  C16 UNL     1      -4.403  25.749  45.714  1.00  0.00     0.132 C 
HETATM    9  C17 UNL     1      -3.105  24.893  45.870  1.00  0.00     0.033 C 
HETATM   10  C20 UNL     1      -3.474  23.865  46.851  1.00  0.00     0.018 C 
ENDROOT
BRANCH   1  11
HETATM   11  C7  UNL     1      -1.294  22.837  47.719  1.00  0.00     0.005 C 
BRANCH  11  12
HETATM   12  C6  UNL     1      -1.259  21.599  46.904  1.00  0.00     0.000 C 
BRANCH  12  13
HETATM   13  C5  UNL     1      -0.414  20.454  47.204  1.00  0.00     0.000 C 
BRANCH  13  14
HETATM   14  C4  UNL     1      -0.504  20.013  48.670  1.00  0.00     0.004 C 
BRANCH  14  15
HETATM   15  C3  UNL     1       0.762  19.440  49.177  1.00  0.00     0.026 C 
BRANCH  15  16
HETATM   16  C2  UNL     1       1.857  20.434  49.031  1.00  0.00    -0.037 C 
HETATM   17  C1  UNL     1       2.577  20.752  50.090  1.00  0.00     0.007 C 
ENDBRANCH  15  16
ENDBRANCH  14  15
ENDBRANCH  13  14
ENDBRANCH  12  13
ENDBRANCH  11  12
ENDBRANCH   1  11
BRANCH   9  18
HETATM   18  C18 UNL     1      -1.962  25.798  46.181  1.00  0.00     0.178 C 
BRANCH  18  19
HETATM   19  O3  UNL     1      -1.627  26.601  45.081  1.00  0.00    -0.400 OA
ATOM     20  H3  UNL     1      -1.228  27.419  45.355  1.00  0.00     0.209 HD
ENDBRANCH  18  19
ENDBRANCH   9  18
BRANCH   9  21
HETATM   21  C19 UNL     1      -2.902  24.361  44.448  1.00  0.00     0.178 C 
BRANCH  21  22
HETATM   22  O4  UNL     1      -1.812  23.568  44.259  1.00  0.00    -0.400 OA
ATOM     23  H4  UNL     1      -1.160  23.585  44.950  1.00  0.00     0.209 HD
ENDBRANCH  21  22
ENDBRANCH   9  21
BRANCH   4  24
HETATM   24  C12 UNL     1      -6.722  22.384  47.223  1.00  0.00     0.266 C 
HETATM   25  O1  UNL     1      -6.796  21.355  46.515  1.00  0.00    -0.302 OA
ENDBRANCH   4  24
BRANCH   8  26
HETATM   26  O2  UNL     1      -4.338  26.940  46.353  1.00  0.00    -0.395 OA
ATOM     27  H2  UNL     1      -3.464  27.280  46.503  1.00  0.00     0.210 HD
ENDBRANCH   8  26
TORSDOF 12
ENDMDL
MODEL 5
REMARK VINA RESULT: -5.869111662      2.440      4.988
REMARK  12 active torsions:
REMARK  status: ('A' for Active; 'I' for Inactive)
REMARK    1  A    between atoms: C2_2  and  C3_3 
REMARK    2  A    between atoms: C3_3  and  C4_4 
REMARK    3  A    between atoms: C4_4  and  C5_5 
REMARK    4  A    between atoms: C5_5  and  C6_6 
REMARK    5  A    between atoms: C6_6  and  C7_7 
REMARK    6  A    between atoms: C7_7  and  C8_8 
REMARK    7  A    between atoms: C11_11  and  C12_12 
REMARK    8  A    between atoms: C16_17  and  O2_18 
REMARK    9  A    between atoms: C17_20  and  C18_21 
REMARK   10  A    between atoms: C17_20  and  C19_24 
REMARK   11  A    between atoms: C18_21  and  O3_22 
REMARK   12  A    between atoms: C19_24  and  O4_25 
ROOT
HETATM    1  C8  UNL     1      -2.680  23.529  48.053  1.00  0.00    -0.005 C 
HETATM    2  C9  UNL     1      -3.464  22.785  49.111  1.00  0.00     0.033 C 
HETATM    3  C10 UNL     1      -4.781  22.247  48.603  1.00  0.00    -0.015 C 
HETATM    4  C11 UNL     1      -5.535  22.913  47.751  1.00  0.00    -0.015 C 
HETATM    5  C13 UNL     1      -4.936  24.221  47.384  1.00  0.00    -0.007 C 
HETATM    6  C14 UNL     1      -5.010  25.077  48.594  1.00  0.00     0.021 C 
HETATM    7  C15 UNL     1      -5.517  24.854  46.165  1.00  0.00     0.047 C 
HETATM    8  C16 UNL     1      -4.393  25.763  45.712  1.00  0.00     0.132 C 
HETATM    9  C17 UNL     1      -3.114  24.888  45.912  1.00  0.00     0.033 C 
HETATM   10  C20 UNL     1      -3.523  23.884  46.902  1.00  0.00     0.018 C 
ENDROOT
BRANCH   1  11
HETATM   11  C7  UNL     1      -1.381  22.834  47.838  1.00  0.00     0.005 C 
BRANCH  11  12
HETATM   12  C6  UNL     1      -1.330  21.640  46.960  1.00  0.00     0.000 C 
BRANCH  12  13
HETATM   13  C5  UNL     1      -1.336  20.272  47.450  1.00  0.00     0.000 C 
BRANCH  13  14
HETATM   14  C4  UNL     1      -2.693  19.579  47.271  1.00  0.00     0.004 C 
BRANCH  14  15
HETATM   15  C3  UNL     1      -3.106  18.809  48.465  1.00  0.00     0.026 C 
BRANCH  15  16
HETATM   16  C2  UNL     1      -2.372  19.301  49.659  1.00  0.00    -0.037 C 
HETATM   17  C1  UNL     1      -3.031  19.472  50.789  1.00  0.00     0.007 C 
ENDBRANCH  15  16
ENDBRANCH  14  15
ENDBRANCH  13  14
ENDBRANCH  12  13
ENDBRANCH  11  12
ENDBRANCH   1  11
BRANCH   9  18
HETATM   18  C18 UNL     1      -1.963  25.779  46.236  1.00  0.00     0.178 C 
BRANCH  18  19
HETATM   19  O3  UNL     1      -1.608  26.580  45.140  1.00  0.00    -0.400 OA
ATOM     20  H3  UNL     1      -2.371  26.969  44.731  1.00  0.00     0.209 HD
ENDBRANCH  18  19
ENDBRANCH   9  18
BRANCH   9  21
HETATM   21  C19 UNL     1      -2.886  24.329  44.505  1.00  0.00     0.178 C 
BRANCH  21  22
HETATM   22  O4  UNL     1      -1.771  23.566  44.340  1.00  0.00    -0.400 OA
ATOM     23  H4  UNL     1      -1.521  23.383  43.442  1.00  0.00     0.209 HD
ENDBRANCH  21  22
ENDBRANCH   9  21
BRANCH   4  24
HETATM   24  C12 UNL     1      -6.803  22.462  47.221  1.00  0.00     0.266 C 
HETATM   25  O1  UNL     1      -6.875  21.431  46.517  1.00  0.00    -0.302 OA
ENDBRANCH   4  24
BRANCH   8  26
HETATM   26  O2  UNL     1      -4.322  26.964  46.332  1.00  0.00    -0.395 OA
ATOM     27  H2  UNL     1      -3.656  27.042  47.004  1.00  0.00     0.210 HD
ENDBRANCH   8  26
TORSDOF 12
ENDMDL
