MODEL 1
REMARK VINA RESULT: -10.278724197      0.000      0.000
REMARK  9 active torsions:
REMARK  status: ('A' for Active; 'I' for Inactive)
REMARK    1  A    between atoms: C2_7  and  C3_8 
REMARK    2  A    between atoms: C4_9  and  C5_10 
REMARK    3  A    between atoms: C5_10  and  O1_11 
REMARK    4  A    between atoms: C5_10  and  C6_13 
REMARK    5  A    between atoms: C6_13  and  O2_14 
REMARK    6  A    between atoms: C6_13  and  O3_16 
REMARK    7  A    between atoms: C8_20  and  N4_21 
REMARK       I    between atoms: N4_21  and  C9_23 
REMARK       I    between atoms: C9_23  and  N5_24 
REMARK       I    between atoms: C9_23  and  N6_28 
REMARK    8  A    between atoms: C10_32  and  O5_33 
REMARK    9  A    between atoms: C13_41  and  N8_42 
REMARK       I    between atoms: N8_42  and  C14_44 
ROOT
HETATM    1  C3  UNL     1      19.383  33.824  15.220  1.00  0.00     0.079 A 
HETATM    2  C4  UNL     1      18.812  33.755  16.480  1.00  0.00     0.104 A 
HETATM    3  O4  UNL     1      18.349  32.549  16.700  1.00  0.00    -0.306 OA
HETATM    4  C7  UNL     1      18.567  31.778  15.664  1.00  0.00     0.140 A 
HETATM    5  C8  UNL     1      18.283  30.438  15.383  1.00  0.00     0.108 A 
HETATM    6  C10 UNL     1      18.642  29.888  14.175  1.00  0.00     0.171 A 
HETATM    7  C11 UNL     1      19.285  30.716  13.280  1.00  0.00     0.324 A 
HETATM    8  O6  UNL     1      19.624  30.229  12.162  1.00  0.00    -0.257 OA
HETATM    9  O7  UNL     1      19.541  31.984  13.576  1.00  0.00    -0.269 OA
HETATM   10  C12 UNL     1      19.214  32.530  14.708  1.00  0.00     0.132 A 
ENDROOT
BRANCH   1  11
HETATM   11  C2  UNL     1      20.015  34.962  14.573  1.00  0.00     0.152 A 
HETATM   12  N3  UNL     1      19.965  35.045  13.237  1.00  0.00    -0.269 N 
HETATM   13  N2  UNL     1      20.526  36.069  12.579  1.00  0.00    -0.225 N 
ATOM     14  H3  UNL     1      19.490  34.313  12.709  1.00  0.00     0.190 HD
HETATM   15  N1  UNL     1      21.140  37.014  13.251  1.00  0.00    -0.113 N 
ATOM     16  H2  UNL     1      20.476  36.113  11.561  1.00  0.00     0.209 HD
HETATM   17  C1  UNL     1      21.738  38.109  12.531  1.00  0.00     0.199 C 
HETATM   18  C13 UNL     1      21.198  36.947  14.580  1.00  0.00     0.705 A 
HETATM   19  N7  UNL     1      20.641  35.930  15.245  1.00  0.00    -0.173 N 
ATOM     20  H7  UNL     1      20.693  35.893  16.263  1.00  0.00     0.186 HD
BRANCH  18  21
HETATM   21  N8  UNL     1      21.820  37.910  15.206  1.00  0.00    -0.142 N 
HETATM   22  C14 UNL     1      21.594  38.089  16.584  1.00  0.00     0.347 C 
HETATM   23  N9  UNL     1      20.404  38.728  17.029  1.00  0.00    -0.039 NA
HETATM   24  O8  UNL     1      22.434  37.691  17.450  1.00  0.00    -0.250 OA
ATOM     25  H8  UNL     1      22.460  38.524  14.703  1.00  0.00     0.189 HD
ENDBRANCH  18  21
ENDBRANCH   1  11
BRANCH   2  26
HETATM   26  C5  UNL     1      18.758  34.916  17.414  1.00  0.00     0.231 C 
BRANCH  26  27
HETATM   27  O1  UNL     1      18.374  36.043  16.648  1.00  0.00    -0.384 OA
ATOM     28  H1  UNL     1      18.311  35.755  15.745  1.00  0.00     0.210 HD
ENDBRANCH  26  27
BRANCH  26  29
HETATM   29  C6  UNL     1      20.133  35.243  17.957  1.00  0.00     0.289 C 
BRANCH  29  30
HETATM   30  O2  UNL     1      20.802  34.119  18.398  1.00  0.00    -0.368 OA
ATOM     31  H2  UNL     1      21.731  34.277  18.517  1.00  0.00     0.212 HD
ENDBRANCH  29  30
BRANCH  29  32
HETATM   32  O3  UNL     1      19.998  36.131  18.999  1.00  0.00    -0.368 OA
ATOM     33  H3  UNL     1      19.522  35.706  19.703  1.00  0.00     0.212 HD
ENDBRANCH  29  32
ENDBRANCH  26  29
ENDBRANCH   2  26
BRANCH   5  34
HETATM   34  N4  UNL     1      17.622  29.665  16.350  1.00  0.00    -0.336 N 
HETATM   35  C9  UNL     1      18.391  29.090  17.431  1.00  0.00     0.480 C 
HETATM   36  N5  UNL     1      19.450  28.224  17.005  1.00  0.00    -0.033 N 
HETATM   37  N6  UNL     1      17.559  28.337  18.350  1.00  0.00    -0.033 N 
ATOM     38  H53 UNL     1      19.088  27.490  16.396  1.00  0.00     0.278 HD
ATOM     39  H52 UNL     1      20.063  28.707  16.349  1.00  0.00     0.278 HD
ATOM     40  H51 UNL     1      19.993  27.818  17.767  1.00  0.00     0.278 HD
ATOM     41  H63 UNL     1      16.791  28.907  18.704  1.00  0.00     0.278 HD
ATOM     42  H62 UNL     1      17.018  27.624  17.861  1.00  0.00     0.278 HD
ATOM     43  H61 UNL     1      18.101  27.932  19.112  1.00  0.00     0.278 HD
ATOM     44  H4  UNL     1      16.616  29.511  16.291  1.00  0.00     0.163 HD
ENDBRANCH   5  34
BRANCH   6  45
HETATM   45  O5  UNL     1      18.343  28.558  13.933  1.00  0.00    -0.354 OA
ATOM     46  H5  UNL     1      17.579  28.349  13.407  1.00  0.00     0.218 HD
ENDBRANCH   6  45
TORSDOF 9
ENDMDL
MODEL 2
REMARK VINA RESULT: -9.884609161      1.269      1.688
REMARK  9 active torsions:
REMARK  status: ('A' for Active; 'I' for Inactive)
REMARK    1  A    between atoms: C2_7  and  C3_8 
REMARK    2  A    between atoms: C4_9  and  C5_10 
REMARK    3  A    between atoms: C5_10  and  O1_11 
REMARK    4  A    between atoms: C5_10  and  C6_13 
REMARK    5  A    between atoms: C6_13  and  O2_14 
REMARK    6  A    between atoms: C6_13  and  O3_16 
REMARK    7  A    between atoms: C8_20  and  N4_21 
REMARK       I    between atoms: N4_21  and  C9_23 
REMARK       I    between atoms: C9_23  and  N5_24 
REMARK       I    between atoms: C9_23  and  N6_28 
REMARK    8  A    between atoms: C10_32  and  O5_33 
REMARK    9  A    between atoms: C13_41  and  N8_42 
REMARK       I    between atoms: N8_42  and  C14_44 
ROOT
HETATM    1  C3  UNL     1      19.823  33.910  14.459  1.00  0.00     0.079 A 
HETATM    2  C4  UNL     1      19.831  33.875  15.845  1.00  0.00     0.104 A 
HETATM    3  O4  UNL     1      19.549  32.667  16.268  1.00  0.00    -0.306 OA
HETATM    4  C7  UNL     1      19.347  31.863  15.255  1.00  0.00     0.140 A 
HETATM    5  C8  UNL     1      19.025  30.505  15.151  1.00  0.00     0.108 A 
HETATM    6  C10 UNL     1      18.871  29.918  13.918  1.00  0.00     0.171 A 
HETATM    7  C11 UNL     1      19.051  30.727  12.815  1.00  0.00     0.324 A 
HETATM    8  O6  UNL     1      18.913  30.205  11.671  1.00  0.00    -0.257 OA
HETATM    9  O7  UNL     1      19.356  32.011  12.946  1.00  0.00    -0.269 OA
HETATM   10  C12 UNL     1      19.507  32.593  14.098  1.00  0.00     0.132 A 
ENDROOT
BRANCH   1  11
HETATM   11  C2  UNL     1      20.083  35.038  13.580  1.00  0.00     0.152 A 
HETATM   12  N3  UNL     1      19.532  35.034  12.359  1.00  0.00    -0.269 N 
HETATM   13  N2  UNL     1      19.731  36.043  11.501  1.00  0.00    -0.225 N 
ATOM     14  H3  UNL     1      18.949  34.246  12.077  1.00  0.00     0.190 HD
HETATM   15  N1  UNL     1      20.480  37.061  11.855  1.00  0.00    -0.113 N 
ATOM     16  H2  UNL     1      19.302  36.021  10.575  1.00  0.00     0.209 HD
HETATM   17  C1  UNL     1      20.685  38.138  10.922  1.00  0.00     0.199 C 
HETATM   18  C13 UNL     1      21.035  37.080  13.066  1.00  0.00     0.705 A 
HETATM   19  N7  UNL     1      20.842  36.077  13.930  1.00  0.00    -0.173 N 
ATOM     20  H7  UNL     1      21.273  36.107  14.854  1.00  0.00     0.186 HD
BRANCH  18  21
HETATM   21  N8  UNL     1      21.773  38.111  13.375  1.00  0.00    -0.142 N 
HETATM   22  C14 UNL     1      22.424  38.139  14.623  1.00  0.00     0.347 C 
HETATM   23  N9  UNL     1      21.689  38.462  15.797  1.00  0.00    -0.039 NA
HETATM   24  O8  UNL     1      23.664  37.881  14.730  1.00  0.00    -0.250 OA
ATOM     25  H8  UNL     1      21.877  38.887  12.721  1.00  0.00     0.189 HD
ENDBRANCH  18  21
ENDBRANCH   1  11
BRANCH   2  26
HETATM   26  C5  UNL     1      20.123  35.070  16.686  1.00  0.00     0.231 C 
BRANCH  26  27
HETATM   27  O1  UNL     1      20.509  34.592  17.962  1.00  0.00    -0.384 OA
ATOM     28  H1  UNL     1      20.564  33.646  17.898  1.00  0.00     0.210 HD
ENDBRANCH  26  27
BRANCH  26  29
HETATM   29  C6  UNL     1      18.873  35.892  16.922  1.00  0.00     0.289 C 
BRANCH  29  30
HETATM   30  O2  UNL     1      19.001  37.185  16.454  1.00  0.00    -0.368 OA
ATOM     31  H2  UNL     1      18.640  37.289  15.582  1.00  0.00     0.212 HD
ENDBRANCH  29  30
BRANCH  29  32
HETATM   32  O3  UNL     1      18.609  35.921  18.272  1.00  0.00    -0.368 OA
ATOM     33  H3  UNL     1      19.312  36.385  18.711  1.00  0.00     0.212 HD
ENDBRANCH  29  32
ENDBRANCH  26  29
ENDBRANCH   2  26
BRANCH   5  34
HETATM   34  N4  UNL     1      18.857  29.754  16.325  1.00  0.00    -0.336 N 
HETATM   35  C9  UNL     1      17.867  28.700  16.345  1.00  0.00     0.480 C 
HETATM   36  N5  UNL     1      16.534  29.138  16.057  1.00  0.00    -0.033 N 
HETATM   37  N6  UNL     1      17.833  28.012  17.621  1.00  0.00    -0.033 N 
ATOM     38  H53 UNL     1      16.263  29.894  16.687  1.00  0.00     0.278 HD
ATOM     39  H52 UNL     1      16.507  29.636  15.167  1.00  0.00     0.278 HD
ATOM     40  H51 UNL     1      15.836  28.395  16.072  1.00  0.00     0.278 HD
ATOM     41  H63 UNL     1      18.755  27.659  17.876  1.00  0.00     0.278 HD
ATOM     42  H62 UNL     1      17.692  28.666  18.391  1.00  0.00     0.278 HD
ATOM     43  H61 UNL     1      17.135  27.269  17.635  1.00  0.00     0.278 HD
ATOM     44  H4  UNL     1      19.424  29.949  17.150  1.00  0.00     0.163 HD
ENDBRANCH   5  34
BRANCH   6  45
HETATM   45  O5  UNL     1      18.552  28.573  13.855  1.00  0.00    -0.354 OA
ATOM     46  H5  UNL     1      18.588  28.132  13.014  1.00  0.00     0.218 HD
ENDBRANCH   6  45
TORSDOF 9
ENDMDL
MODEL 3
REMARK VINA RESULT: -9.626876805      3.799      8.413
REMARK  9 active torsions:
REMARK  status: ('A' for Active; 'I' for Inactive)
REMARK    1  A    between atoms: C2_7  and  C3_8 
REMARK    2  A    between atoms: C4_9  and  C5_10 
REMARK    3  A    between atoms: C5_10  and  O1_11 
REMARK    4  A    between atoms: C5_10  and  C6_13 
REMARK    5  A    between atoms: C6_13  and  O2_14 
REMARK    6  A    between atoms: C6_13  and  O3_16 
REMARK    7  A    between atoms: C8_20  and  N4_21 
REMARK       I    between atoms: N4_21  and  C9_23 
REMARK       I    between atoms: C9_23  and  N5_24 
REMARK       I    between atoms: C9_23  and  N6_28 
REMARK    8  A    between atoms: C10_32  and  O5_33 
REMARK    9  A    between atoms: C13_41  and  N8_42 
REMARK       I    between atoms: N8_42  and  C14_44 
ROOT
HETATM    1  C3  UNL     1      22.016  37.792  14.034  1.00  0.00     0.079 A 
HETATM    2  C4  UNL     1      22.736  38.685  14.812  1.00  0.00     0.104 A 
HETATM    3  O4  UNL     1      23.293  39.597  14.054  1.00  0.00    -0.306 OA
HETATM    4  C7  UNL     1      22.999  39.388  12.795  1.00  0.00     0.140 A 
HETATM    5  C8  UNL     1      23.326  40.048  11.606  1.00  0.00     0.108 A 
HETATM    6  C10 UNL     1      22.859  39.583  10.400  1.00  0.00     0.171 A 
HETATM    7  C11 UNL     1      22.066  38.456  10.430  1.00  0.00     0.324 A 
HETATM    8  O6  UNL     1      21.627  38.012   9.330  1.00  0.00    -0.257 OA
HETATM    9  O7  UNL     1      21.773  37.851  11.575  1.00  0.00    -0.269 OA
HETATM   10  C12 UNL     1      22.200  38.268  12.729  1.00  0.00     0.132 A 
ENDROOT
BRANCH   1  11
HETATM   11  C2  UNL     1      21.245  36.636  14.461  1.00  0.00     0.152 A 
HETATM   12  N3  UNL     1      20.935  35.705  13.549  1.00  0.00    -0.269 N 
HETATM   13  N2  UNL     1      20.228  34.615  13.877  1.00  0.00    -0.225 N 
ATOM     14  H3  UNL     1      21.242  35.829  12.585  1.00  0.00     0.190 HD
HETATM   15  N1  UNL     1      19.828  34.447  15.116  1.00  0.00    -0.113 N 
ATOM     16  H2  UNL     1      20.003  33.917  13.168  1.00  0.00     0.209 HD
HETATM   17  C1  UNL     1      19.070  33.271  15.454  1.00  0.00     0.199 C 
HETATM   18  C13 UNL     1      20.129  35.364  16.035  1.00  0.00     0.705 A 
HETATM   19  N7  UNL     1      20.835  36.454  15.717  1.00  0.00    -0.173 N 
ATOM     20  H7  UNL     1      21.058  37.146  16.432  1.00  0.00     0.186 HD
BRANCH  18  21
HETATM   21  N8  UNL     1      19.710  35.155  17.254  1.00  0.00    -0.142 N 
HETATM   22  C14 UNL     1      19.719  36.222  18.173  1.00  0.00     0.347 C 
HETATM   23  N9  UNL     1      20.940  36.617  18.786  1.00  0.00    -0.039 NA
HETATM   24  O8  UNL     1      18.654  36.848  18.472  1.00  0.00    -0.250 OA
ATOM     25  H8  UNL     1      19.380  34.232  17.536  1.00  0.00     0.189 HD
ENDBRANCH  18  21
ENDBRANCH   1  11
BRANCH   2  26
HETATM   26  C5  UNL     1      22.832  38.577  16.296  1.00  0.00     0.231 C 
BRANCH  26  27
HETATM   27  O1  UNL     1      21.601  39.039  16.823  1.00  0.00    -0.384 OA
ATOM     28  H1  UNL     1      21.638  39.989  16.821  1.00  0.00     0.210 HD
ENDBRANCH  26  27
BRANCH  26  29
HETATM   29  C6  UNL     1      23.886  39.516  16.844  1.00  0.00     0.289 C 
BRANCH  29  30
HETATM   30  O2  UNL     1      24.951  38.837  17.402  1.00  0.00    -0.368 OA
ATOM     31  H2  UNL     1      24.668  38.127  17.967  1.00  0.00     0.212 HD
ENDBRANCH  29  30
BRANCH  29  32
HETATM   32  O3  UNL     1      23.309  40.322  17.798  1.00  0.00    -0.368 OA
ATOM     33  H3  UNL     1      23.260  39.840  18.616  1.00  0.00     0.212 HD
ENDBRANCH  29  32
ENDBRANCH  26  29
ENDBRANCH   2  26
BRANCH   5  34
HETATM   34  N4  UNL     1      24.142  41.189  11.664  1.00  0.00    -0.336 N 
HETATM   35  C9  UNL     1      23.537  42.467  11.968  1.00  0.00     0.480 C 
HETATM   36  N5  UNL     1      22.505  42.863  11.057  1.00  0.00    -0.033 N 
HETATM   37  N6  UNL     1      24.516  43.536  12.007  1.00  0.00    -0.033 N 
ATOM     38  H53 UNL     1      22.853  42.853  10.098  1.00  0.00     0.278 HD
ATOM     39  H52 UNL     1      21.791  42.137  10.990  1.00  0.00     0.278 HD
ATOM     40  H51 UNL     1      22.078  43.764  11.272  1.00  0.00     0.278 HD
ATOM     41  H63 UNL     1      25.274  43.321  12.655  1.00  0.00     0.278 HD
ATOM     42  H62 UNL     1      25.052  43.578  11.140  1.00  0.00     0.278 HD
ATOM     43  H61 UNL     1      24.089  44.437  12.222  1.00  0.00     0.278 HD
ATOM     44  H4  UNL     1      25.145  41.118  11.493  1.00  0.00     0.163 HD
ENDBRANCH   5  34
BRANCH   6  45
HETATM   45  O5  UNL     1      23.205  40.263   9.244  1.00  0.00    -0.354 OA
ATOM     46  H5  UNL     1      22.618  40.226   8.498  1.00  0.00     0.218 HD
ENDBRANCH   6  45
TORSDOF 9
ENDMDL
MODEL 4
REMARK VINA RESULT: -9.612761893      4.040      7.443
REMARK  9 active torsions:
REMARK  status: ('A' for Active; 'I' for Inactive)
REMARK    1  A    between atoms: C2_7  and  C3_8 
REMARK    2  A    between atoms: C4_9  and  C5_10 
REMARK    3  A    between atoms: C5_10  and  O1_11 
REMARK    4  A    between atoms: C5_10  and  C6_13 
REMARK    5  A    between atoms: C6_13  and  O2_14 
REMARK    6  A    between atoms: C6_13  and  O3_16 
REMARK    7  A    between atoms: C8_20  and  N4_21 
REMARK       I    between atoms: N4_21  and  C9_23 
REMARK       I    between atoms: C9_23  and  N5_24 
REMARK       I    between atoms: C9_23  and  N6_28 
REMARK    8  A    between atoms: C10_32  and  O5_33 
REMARK    9  A    between atoms: C13_41  and  N8_42 
REMARK       I    between atoms: N8_42  and  C14_44 
ROOT
HETATM    1  C3  UNL     1      21.711  37.693  12.864  1.00  0.00     0.079 A 
HETATM    2  C4  UNL     1      20.855  36.702  13.317  1.00  0.00     0.104 A 
HETATM    3  O4  UNL     1      20.909  36.620  14.624  1.00  0.00    -0.306 OA
HETATM    4  C7  UNL     1      21.754  37.499  15.103  1.00  0.00     0.140 A 
HETATM    5  C8  UNL     1      22.175  37.825  16.397  1.00  0.00     0.108 A 
HETATM    6  C10 UNL     1      23.100  38.822  16.597  1.00  0.00     0.171 A 
HETATM    7  C11 UNL     1      23.575  39.467  15.475  1.00  0.00     0.324 A 
HETATM    8  O6  UNL     1      24.428  40.387  15.638  1.00  0.00    -0.257 OA
HETATM    9  O7  UNL     1      23.156  39.135  14.260  1.00  0.00    -0.269 OA
HETATM   10  C12 UNL     1      22.283  38.198  14.041  1.00  0.00     0.132 A 
ENDROOT
BRANCH   1  11
HETATM   11  C2  UNL     1      21.961  38.120  11.498  1.00  0.00     0.152 A 
HETATM   12  N3  UNL     1      22.745  39.188  11.297  1.00  0.00    -0.269 N 
HETATM   13  N2  UNL     1      23.016  39.632  10.062  1.00  0.00    -0.225 N 
ATOM     14  H3  UNL     1      23.144  39.672  12.101  1.00  0.00     0.190 HD
HETATM   15  N1  UNL     1      22.506  39.015   9.022  1.00  0.00    -0.113 N 
ATOM     16  H2  UNL     1      23.616  40.446   9.931  1.00  0.00     0.209 HD
HETATM   17  C1  UNL     1      22.806  39.503   7.702  1.00  0.00     0.199 C 
HETATM   18  C13 UNL     1      21.724  37.951   9.205  1.00  0.00     0.705 A 
HETATM   19  N7  UNL     1      21.449  37.500  10.434  1.00  0.00    -0.173 N 
ATOM     20  H7  UNL     1      20.850  36.684  10.557  1.00  0.00     0.186 HD
BRANCH  18  21
HETATM   21  N8  UNL     1      21.239  37.370   8.142  1.00  0.00    -0.142 N 
HETATM   22  C14 UNL     1      20.379  36.265   8.297  1.00  0.00     0.347 C 
HETATM   23  N9  UNL     1      20.920  34.986   8.606  1.00  0.00    -0.039 NA
HETATM   24  O8  UNL     1      19.121  36.381   8.168  1.00  0.00    -0.250 OA
ATOM     25  H8  UNL     1      21.479  37.711   7.211  1.00  0.00     0.189 HD
ENDBRANCH  18  21
ENDBRANCH   1  11
BRANCH   2  26
HETATM   26  C5  UNL     1      20.015  35.875  12.405  1.00  0.00     0.231 C 
BRANCH  26  27
HETATM   27  O1  UNL     1      18.973  36.709  11.934  1.00  0.00    -0.384 OA
ATOM     28  H1  UNL     1      18.467  36.197  11.314  1.00  0.00     0.210 HD
ENDBRANCH  26  27
BRANCH  26  29
HETATM   29  C6  UNL     1      19.329  34.756  13.160  1.00  0.00     0.289 C 
BRANCH  29  30
HETATM   30  O2  UNL     1      20.170  34.148  14.072  1.00  0.00    -0.368 OA
ATOM     31  H2  UNL     1      20.997  33.890  13.682  1.00  0.00     0.212 HD
ENDBRANCH  29  30
BRANCH  29  32
HETATM   32  O3  UNL     1      18.884  33.818  12.257  1.00  0.00    -0.368 OA
ATOM     33  H3  UNL     1      19.251  32.973  12.487  1.00  0.00     0.212 HD
ENDBRANCH  29  32
ENDBRANCH  26  29
ENDBRANCH   2  26
BRANCH   5  34
HETATM   34  N4  UNL     1      21.643  37.116  17.485  1.00  0.00    -0.336 N 
HETATM   35  C9  UNL     1      20.279  36.639  17.409  1.00  0.00     0.480 C 
HETATM   36  N5  UNL     1      19.306  37.669  17.196  1.00  0.00    -0.033 N 
HETATM   37  N6  UNL     1      19.891  35.914  18.604  1.00  0.00    -0.033 N 
ATOM     38  H53 UNL     1      19.391  38.393  17.910  1.00  0.00     0.278 HD
ATOM     39  H52 UNL     1      19.540  38.214  16.366  1.00  0.00     0.278 HD
ATOM     40  H51 UNL     1      18.345  37.332  17.143  1.00  0.00     0.278 HD
ATOM     41  H63 UNL     1      20.540  35.153  18.801  1.00  0.00     0.278 HD
ATOM     42  H62 UNL     1      20.040  36.475  19.442  1.00  0.00     0.278 HD
ATOM     43  H61 UNL     1      18.930  35.578  18.551  1.00  0.00     0.278 HD
ATOM     44  H4  UNL     1      22.208  36.941  18.315  1.00  0.00     0.163 HD
ENDBRANCH   5  34
BRANCH   6  45
HETATM   45  O5  UNL     1      23.494  39.115  17.891  1.00  0.00    -0.354 OA
ATOM     46  H5  UNL     1      23.956  39.929  18.056  1.00  0.00     0.218 HD
ENDBRANCH   6  45
TORSDOF 9
ENDMDL
MODEL 5
REMARK VINA RESULT: -9.600650573      3.882      8.002
REMARK  9 active torsions:
REMARK  status: ('A' for Active; 'I' for Inactive)
REMARK    1  A    between atoms: C2_7  and  C3_8 
REMARK    2  A    between atoms: C4_9  and  C5_10 
REMARK    3  A    between atoms: C5_10  and  O1_11 
REMARK    4  A    between atoms: C5_10  and  C6_13 
REMARK    5  A    between atoms: C6_13  and  O2_14 
REMARK    6  A    between atoms: C6_13  and  O3_16 
REMARK    7  A    between atoms: C8_20  and  N4_21 
REMARK       I    between atoms: N4_21  and  C9_23 
REMARK       I    between atoms: C9_23  and  N5_24 
REMARK       I    between atoms: C9_23  and  N6_28 
REMARK    8  A    between atoms: C10_32  and  O5_33 
REMARK    9  A    between atoms: C13_41  and  N8_42 
REMARK       I    between atoms: N8_42  and  C14_44 
ROOT
HETATM    1  C3  UNL     1      21.692  37.646  13.736  1.00  0.00     0.079 A 
HETATM    2  C4  UNL     1      20.833  36.791  13.064  1.00  0.00     0.104 A 
HETATM    3  O4  UNL     1      20.853  37.049  11.779  1.00  0.00    -0.306 OA
HETATM    4  C7  UNL     1      21.678  38.033  11.522  1.00  0.00     0.140 A 
HETATM    5  C8  UNL     1      22.065  38.684  10.346  1.00  0.00     0.108 A 
HETATM    6  C10 UNL     1      22.975  39.713  10.388  1.00  0.00     0.171 A 
HETATM    7  C11 UNL     1      23.474  40.056  11.626  1.00  0.00     0.324 A 
HETATM    8  O6  UNL     1      24.313  41.001  11.685  1.00  0.00    -0.257 OA
HETATM    9  O7  UNL     1      23.088  39.418  12.724  1.00  0.00    -0.269 OA
HETATM   10  C12 UNL     1      22.230  38.443  12.716  1.00  0.00     0.132 A 
ENDROOT
BRANCH   1  11
HETATM   11  C2  UNL     1      21.977  37.708  15.160  1.00  0.00     0.152 A 
HETATM   12  N3  UNL     1      23.001  38.468  15.572  1.00  0.00    -0.269 N 
HETATM   13  N2  UNL     1      23.316  38.570  16.870  1.00  0.00    -0.225 N 
ATOM     14  H3  UNL     1      23.551  38.980  14.882  1.00  0.00     0.190 HD
HETATM   15  N1  UNL     1      22.613  37.914  17.763  1.00  0.00    -0.113 N 
ATOM     16  H2  UNL     1      24.099  39.155  17.163  1.00  0.00     0.209 HD
HETATM   17  C1  UNL     1      22.963  38.033  19.155  1.00  0.00     0.199 C 
HETATM   18  C13 UNL     1      21.592  37.154  17.370  1.00  0.00     0.705 A 
HETATM   19  N7  UNL     1      21.269  37.047  16.076  1.00  0.00    -0.173 N 
ATOM     20  H7  UNL     1      20.484  36.462  15.791  1.00  0.00     0.186 HD
BRANCH  18  21
HETATM   21  N8  UNL     1      20.921  36.520  18.293  1.00  0.00    -0.142 N 
HETATM   22  C14 UNL     1      20.155  35.395  17.933  1.00  0.00     0.347 C 
HETATM   23  N9  UNL     1      18.892  35.572  17.304  1.00  0.00    -0.039 NA
HETATM   24  O8  UNL     1      20.566  34.214  18.157  1.00  0.00    -0.250 OA
ATOM     25  H8  UNL     1      20.953  36.835  19.263  1.00  0.00     0.189 HD
ENDBRANCH  18  21
ENDBRANCH   1  11
BRANCH   2  26
HETATM   26  C5  UNL     1      20.023  35.746  13.752  1.00  0.00     0.231 C 
BRANCH  26  27
HETATM   27  O1  UNL     1      20.912  34.700  14.102  1.00  0.00    -0.384 OA
ATOM     28  H1  UNL     1      20.720  34.463  15.001  1.00  0.00     0.210 HD
ENDBRANCH  26  27
BRANCH  26  29
HETATM   29  C6  UNL     1      19.018  35.124  12.806  1.00  0.00     0.289 C 
BRANCH  29  30
HETATM   30  O2  UNL     1      19.617  34.297  11.876  1.00  0.00    -0.368 OA
ATOM     31  H2  UNL     1      20.111  34.785  11.227  1.00  0.00     0.212 HD
ENDBRANCH  29  30
BRANCH  29  32
HETATM   32  O3  UNL     1      18.343  36.129  12.153  1.00  0.00    -0.368 OA
ATOM     33  H3  UNL     1      17.429  36.103  12.413  1.00  0.00     0.212 HD
ENDBRANCH  29  32
ENDBRANCH  26  29
ENDBRANCH   2  26
BRANCH   5  34
HETATM   34  N4  UNL     1      21.505  38.275   9.126  1.00  0.00    -0.336 N 
HETATM   35  C9  UNL     1      20.150  38.669   8.810  1.00  0.00     0.480 C 
HETATM   36  N5  UNL     1      19.173  38.237   9.766  1.00  0.00    -0.033 N 
HETATM   37  N6  UNL     1      19.731  38.181   7.510  1.00  0.00    -0.033 N 
ATOM     38  H53 UNL     1      19.229  37.227   9.901  1.00  0.00     0.278 HD
ATOM     39  H52 UNL     1      19.428  38.552  10.702  1.00  0.00     0.278 HD
ATOM     40  H51 UNL     1      18.218  38.514   9.543  1.00  0.00     0.278 HD
ATOM     41  H63 UNL     1      20.381  38.471   6.780  1.00  0.00     0.278 HD
ATOM     42  H62 UNL     1      19.849  37.170   7.439  1.00  0.00     0.278 HD
ATOM     43  H61 UNL     1      18.776  38.458   7.288  1.00  0.00     0.278 HD
ATOM     44  H4  UNL     1      22.046  37.709   8.472  1.00  0.00     0.163 HD
ENDBRANCH   5  34
BRANCH   6  45
HETATM   45  O5  UNL     1      23.332  40.335   9.203  1.00  0.00    -0.354 OA
ATOM     46  H5  UNL     1      22.667  40.806   8.714  1.00  0.00     0.218 HD
ENDBRANCH   6  45
TORSDOF 9
ENDMDL
