MODEL 1
REMARK VINA RESULT: -4.409106589      0.000      0.000
REMARK  2 active torsions:
REMARK  status: ('A' for Active; 'I' for Inactive)
REMARK    1  A    between atoms: C2_2  and  N1_4 
REMARK       I    between atoms: N1_4  and  C4_6 
REMARK    2  A    between atoms: C4_6  and  C5_8 
ROOT
HETATM    1  N1  UNL     1      -5.124   2.198  15.478  1.00  0.00    -0.353 N 
ATOM      2  H1  UNL     1      -6.066   2.590  15.491  1.00  0.00     0.163 HD
HETATM    3  C4  UNL     1      -4.840   1.140  16.346  1.00  0.00     0.256 C 
HETATM    4  O1  UNL     1      -3.698   0.634  16.355  1.00  0.00    -0.267 OA
ENDROOT
BRANCH   3   5
HETATM    5  C5  UNL     1      -5.846   0.614  17.240  1.00  0.00     0.155 C 
HETATM    6  N2  UNL     1      -7.037   1.092  17.259  1.00  0.00    -0.404 N 
ATOM      7  H22 UNL     1      -7.261   1.858  16.624  1.00  0.00     0.155 HD
ATOM      8  H21 UNL     1      -7.747   0.721  17.890  1.00  0.00     0.155 HD
ENDBRANCH   3   5
BRANCH   1   9
HETATM    9  C2  UNL     1      -4.156   2.771  14.556  1.00  0.00     0.076 C 
HETATM   10  C1  UNL     1      -4.463   2.162  13.185  1.00  0.00     0.032 C 
HETATM   11  C3  UNL     1      -4.292   4.254  14.425  1.00  0.00     0.032 C 
ENDBRANCH   1   9
TORSDOF 2
ENDMDL
MODEL 2
REMARK VINA RESULT: -3.738915232      2.149      2.615
REMARK  2 active torsions:
REMARK  status: ('A' for Active; 'I' for Inactive)
REMARK    1  A    between atoms: C2_2  and  N1_4 
REMARK       I    between atoms: N1_4  and  C4_6 
REMARK    2  A    between atoms: C4_6  and  C5_8 
ROOT
HETATM    1  N1  UNL     1      -4.038   2.035  13.800  1.00  0.00    -0.353 N 
ATOM      2  H1  UNL     1      -3.282   1.352  13.759  1.00  0.00     0.163 HD
HETATM    3  C4  UNL     1      -4.803   2.100  14.969  1.00  0.00     0.256 C 
HETATM    4  O1  UNL     1      -5.736   2.926  15.054  1.00  0.00    -0.267 OA
ENDROOT
BRANCH   3   5
HETATM    5  C5  UNL     1      -4.534   1.228  16.089  1.00  0.00     0.155 C 
HETATM    6  N2  UNL     1      -4.154   0.014  15.914  1.00  0.00    -0.404 N 
ATOM      7  H22 UNL     1      -4.043  -0.324  14.958  1.00  0.00     0.155 HD
ATOM      8  H21 UNL     1      -3.964  -0.601  16.704  1.00  0.00     0.155 HD
ENDBRANCH   3   5
BRANCH   1   9
HETATM    9  C2  UNL     1      -4.259   2.883  12.640  1.00  0.00     0.076 C 
HETATM   10  C1  UNL     1      -2.874   3.367  12.200  1.00  0.00     0.032 C 
HETATM   11  C3  UNL     1      -4.859   2.142  11.489  1.00  0.00     0.032 C 
ENDBRANCH   1   9
TORSDOF 2
ENDMDL
MODEL 3
REMARK VINA RESULT: -3.694515676      2.000      2.555
REMARK  2 active torsions:
REMARK  status: ('A' for Active; 'I' for Inactive)
REMARK    1  A    between atoms: C2_2  and  N1_4 
REMARK       I    between atoms: N1_4  and  C4_6 
REMARK    2  A    between atoms: C4_6  and  C5_8 
ROOT
HETATM    1  N1  UNL     1      -3.775   3.291  15.091  1.00  0.00    -0.353 N 
ATOM      2  H1  UNL     1      -3.773   3.574  16.071  1.00  0.00     0.163 HD
HETATM    3  C4  UNL     1      -4.203   1.997  14.781  1.00  0.00     0.256 C 
HETATM    4  O1  UNL     1      -4.220   1.618  13.591  1.00  0.00    -0.267 OA
ENDROOT
BRANCH   3   5
HETATM    5  C5  UNL     1      -4.630   1.081  15.814  1.00  0.00     0.155 C 
HETATM    6  N2  UNL     1      -4.170  -0.115  15.878  1.00  0.00    -0.404 N 
ATOM      7  H22 UNL     1      -3.489  -0.409  15.177  1.00  0.00     0.155 HD
ATOM      8  H21 UNL     1      -4.471  -0.761  16.607  1.00  0.00     0.155 HD
ENDBRANCH   3   5
BRANCH   1   9
HETATM    9  C2  UNL     1      -3.333   4.257  14.099  1.00  0.00     0.076 C 
HETATM   10  C1  UNL     1      -4.222   5.492  14.283  1.00  0.00     0.032 C 
HETATM   11  C3  UNL     1      -1.918   4.692  14.306  1.00  0.00     0.032 C 
ENDBRANCH   1   9
TORSDOF 2
ENDMDL
MODEL 4
REMARK VINA RESULT: -3.670465352      3.544      4.287
REMARK  2 active torsions:
REMARK  status: ('A' for Active; 'I' for Inactive)
REMARK    1  A    between atoms: C2_2  and  N1_4 
REMARK       I    between atoms: N1_4  and  C4_6 
REMARK    2  A    between atoms: C4_6  and  C5_8 
ROOT
HETATM    1  N1  UNL     1      -3.390   2.571  13.114  1.00  0.00    -0.353 N 
ATOM      2  H1  UNL     1      -2.449   2.281  12.847  1.00  0.00     0.163 HD
HETATM    3  C4  UNL     1      -3.527   3.711  13.910  1.00  0.00     0.256 C 
HETATM    4  O1  UNL     1      -4.664   4.096  14.254  1.00  0.00    -0.267 OA
ENDROOT
BRANCH   3   5
HETATM    5  C5  UNL     1      -2.371   4.462  14.348  1.00  0.00     0.155 C 
HETATM    6  N2  UNL     1      -1.474   3.930  15.096  1.00  0.00    -0.404 N 
ATOM      7  H22 UNL     1      -1.594   2.957  15.378  1.00  0.00     0.155 HD
ATOM      8  H21 UNL     1      -0.659   4.460  15.405  1.00  0.00     0.155 HD
ENDBRANCH   3   5
BRANCH   1   9
HETATM    9  C2  UNL     1      -4.511   1.773  12.643  1.00  0.00     0.076 C 
HETATM   10  C1  UNL     1      -4.813   2.263  11.223  1.00  0.00     0.032 C 
HETATM   11  C3  UNL     1      -4.186   0.317  12.553  1.00  0.00     0.032 C 
ENDBRANCH   1   9
TORSDOF 2
ENDMDL
MODEL 5
REMARK VINA RESULT: -3.639374263      2.221      4.028
REMARK  2 active torsions:
REMARK  status: ('A' for Active; 'I' for Inactive)
REMARK    1  A    between atoms: C2_2  and  N1_4 
REMARK       I    between atoms: N1_4  and  C4_6 
REMARK    2  A    between atoms: C4_6  and  C5_8 
ROOT
HETATM    1  N1  UNL     1      -3.891   2.285  15.512  1.00  0.00    -0.353 N 
ATOM      2  H1  UNL     1      -3.064   2.174  16.099  1.00  0.00     0.163 HD
HETATM    3  C4  UNL     1      -3.922   3.357  14.616  1.00  0.00     0.256 C 
HETATM    4  O1  UNL     1      -4.917   3.523  13.880  1.00  0.00    -0.267 OA
ENDROOT
BRANCH   3   5
HETATM    5  C5  UNL     1      -2.818   4.286  14.520  1.00  0.00     0.155 C 
HETATM    6  N2  UNL     1      -1.645   3.973  14.939  1.00  0.00    -0.404 N 
ATOM      7  H22 UNL     1      -1.507   3.047  15.344  1.00  0.00     0.155 HD
ATOM      8  H21 UNL     1      -0.867   4.628  14.872  1.00  0.00     0.155 HD
ENDBRANCH   3   5
BRANCH   1   9
HETATM    9  C2  UNL     1      -4.968   1.319  15.656  1.00  0.00     0.076 C 
HETATM   10  C1  UNL     1      -4.379  -0.036  15.255  1.00  0.00     0.032 C 
HETATM   11  C3  UNL     1      -5.449   1.196  17.066  1.00  0.00     0.032 C 
ENDBRANCH   1   9
TORSDOF 2
ENDMDL
