MODEL 1
REMARK VINA RESULT: -5.144286912      0.000      0.000
REMARK  3 active torsions:
REMARK  status: ('A' for Active; 'I' for Inactive)
REMARK    1  A    between atoms: C4_11  and  N4_12 
REMARK    2  A    between atoms: N4_12  and  S1_14 
REMARK    3  A    between atoms: S1_14  and  N5_15 
ROOT
HETATM    1  N1  UNL     1      18.212  -1.499  36.975  1.00  0.00    -0.080 NA
HETATM    2  C1  UNL     1      16.936  -1.900  36.478  1.00  0.00     0.153 A 
HETATM    3  N2  UNL     1      16.463  -3.140  36.693  1.00  0.00    -0.295 N 
ATOM      4  H2  UNL     1      17.016  -3.817  37.219  1.00  0.00     0.172 HD
HETATM    5  C2  UNL     1      15.258  -3.477  36.209  1.00  0.00     0.328 A 
HETATM    6  O1  UNL     1      14.803  -4.656  36.411  1.00  0.00    -0.247 OA
HETATM    7  N3  UNL     1      14.530  -2.580  35.516  1.00  0.00    -0.273 N 
ATOM      8  H3  UNL     1      13.618  -2.867  35.161  1.00  0.00     0.173 HD
HETATM    9  C3  UNL     1      14.945  -1.326  35.266  1.00  0.00     0.280 A 
HETATM   10  O2  UNL     1      14.217  -0.527  34.608  1.00  0.00    -0.265 OA
HETATM   11  C4  UNL     1      16.180  -0.977  35.761  1.00  0.00     0.153 A 
ENDROOT
BRANCH  11  12
HETATM   12  N4  UNL     1      16.646   0.340  35.515  1.00  0.00    -0.260 N 
ATOM     13  H4  UNL     1      17.212   0.494  34.680  1.00  0.00     0.180 HD
BRANCH  12  14
HETATM   14  S1  UNL     1      16.330   1.679  36.513  1.00  0.00     0.317 S 
HETATM   15  O3  UNL     1      15.626   1.314  37.784  1.00  0.00    -0.183 OA
HETATM   16  O4  UNL     1      15.458   2.648  35.764  1.00  0.00    -0.183 OA
BRANCH  14  17
HETATM   17  N5  UNL     1      17.775   2.522  36.967  1.00  0.00    -0.311 N 
ATOM     18  H52 UNL     1      18.500   2.783  36.297  1.00  0.00     0.170 HD
ATOM     19  H51 UNL     1      17.812   2.721  37.966  1.00  0.00     0.170 HD
ENDBRANCH  14  17
ENDBRANCH  12  14
ENDBRANCH  11  12
TORSDOF 3
ENDMDL
MODEL 2
REMARK VINA RESULT: -5.079282756      1.378      2.270
REMARK  3 active torsions:
REMARK  status: ('A' for Active; 'I' for Inactive)
REMARK    1  A    between atoms: C4_11  and  N4_12 
REMARK    2  A    between atoms: N4_12  and  S1_14 
REMARK    3  A    between atoms: S1_14  and  N5_15 
ROOT
HETATM    1  N1  UNL     1      14.380  -0.470  34.696  1.00  0.00    -0.080 NA
HETATM    2  C1  UNL     1      15.025  -1.449  35.509  1.00  0.00     0.153 A 
HETATM    3  N2  UNL     1      14.578  -2.716  35.559  1.00  0.00    -0.295 N 
ATOM      4  H2  UNL     1      13.764  -2.996  35.012  1.00  0.00     0.172 HD
HETATM    5  C2  UNL     1      15.214  -3.607  36.337  1.00  0.00     0.328 A 
HETATM    6  O1  UNL     1      14.792  -4.814  36.389  1.00  0.00    -0.247 OA
HETATM    7  N3  UNL     1      16.289  -3.232  37.058  1.00  0.00    -0.273 N 
ATOM      8  H3  UNL     1      16.750  -3.933  37.638  1.00  0.00     0.173 HD
HETATM    9  C3  UNL     1      16.785  -1.983  37.051  1.00  0.00     0.280 A 
HETATM   10  O2  UNL     1      17.799  -1.691  37.749  1.00  0.00    -0.265 OA
HETATM   11  C4  UNL     1      16.137  -1.067  36.256  1.00  0.00     0.153 A 
ENDROOT
BRANCH  11  12
HETATM   12  N4  UNL     1      16.636   0.259  36.227  1.00  0.00    -0.260 N 
ATOM     13  H4  UNL     1      17.305   0.498  35.494  1.00  0.00     0.180 HD
BRANCH  12  14
HETATM   14  S1  UNL     1      16.199   1.481  37.325  1.00  0.00     0.317 S 
HETATM   15  O3  UNL     1      15.237   1.014  38.374  1.00  0.00    -0.183 OA
HETATM   16  O4  UNL     1      15.547   2.605  36.569  1.00  0.00    -0.183 OA
BRANCH  14  17
HETATM   17  N5  UNL     1      17.567   2.141  38.161  1.00  0.00    -0.311 N 
ATOM     18  H52 UNL     1      18.519   1.799  38.023  1.00  0.00     0.170 HD
ATOM     19  H51 UNL     1      17.309   2.896  38.795  1.00  0.00     0.170 HD
ENDBRANCH  14  17
ENDBRANCH  12  14
ENDBRANCH  11  12
TORSDOF 3
ENDMDL
MODEL 3
REMARK VINA RESULT: -5.049578708      1.504      1.754
REMARK  3 active torsions:
REMARK  status: ('A' for Active; 'I' for Inactive)
REMARK    1  A    between atoms: C4_11  and  N4_12 
REMARK    2  A    between atoms: N4_12  and  S1_14 
REMARK    3  A    between atoms: S1_14  and  N5_15 
ROOT
HETATM    1  N1  UNL     1      17.562  -1.327  37.978  1.00  0.00    -0.080 NA
HETATM    2  C1  UNL     1      16.547  -1.822  37.105  1.00  0.00     0.153 A 
HETATM    3  N2  UNL     1      16.220  -3.126  37.087  1.00  0.00    -0.295 N 
ATOM      4  H2  UNL     1      16.697  -3.785  37.702  1.00  0.00     0.172 HD
HETATM    5  C2  UNL     1      15.259  -3.551  36.251  1.00  0.00     0.328 A 
HETATM    6  O1  UNL     1      14.944  -4.790  36.229  1.00  0.00    -0.247 OA
HETATM    7  N3  UNL     1      14.631  -2.677  35.441  1.00  0.00    -0.273 N 
ATOM      8  H3  UNL     1      13.905  -3.031  34.817  1.00  0.00     0.173 HD
HETATM    9  C3  UNL     1      14.910  -1.362  35.411  1.00  0.00     0.280 A 
HETATM   10  O2  UNL     1      14.285  -0.590  34.628  1.00  0.00    -0.265 OA
HETATM   11  C4  UNL     1      15.895  -0.923  36.266  1.00  0.00     0.153 A 
ENDROOT
BRANCH  11  12
HETATM   12  N4  UNL     1      16.213   0.458  36.259  1.00  0.00    -0.260 N 
ATOM     13  H4  UNL     1      15.789   1.046  36.977  1.00  0.00     0.180 HD
BRANCH  12  14
HETATM   14  S1  UNL     1      17.251   1.205  35.138  1.00  0.00     0.317 S 
HETATM   15  O3  UNL     1      18.459   0.381  34.813  1.00  0.00    -0.183 OA
HETATM   16  O4  UNL     1      17.725   2.512  35.711  1.00  0.00    -0.183 OA
BRANCH  14  17
HETATM   17  N5  UNL     1      16.463   1.551  33.633  1.00  0.00    -0.311 N 
ATOM     18  H52 UNL     1      16.974   1.758  32.774  1.00  0.00     0.170 HD
ATOM     19  H51 UNL     1      15.447   1.522  33.710  1.00  0.00     0.170 HD
ENDBRANCH  14  17
ENDBRANCH  12  14
ENDBRANCH  11  12
TORSDOF 3
ENDMDL
MODEL 4
REMARK VINA RESULT: -5.036686523      0.961      1.130
REMARK  3 active torsions:
REMARK  status: ('A' for Active; 'I' for Inactive)
REMARK    1  A    between atoms: C4_11  and  N4_12 
REMARK    2  A    between atoms: N4_12  and  S1_14 
REMARK    3  A    between atoms: S1_14  and  N5_15 
ROOT
HETATM    1  N1  UNL     1      18.313  -1.529  36.778  1.00  0.00    -0.080 NA
HETATM    2  C1  UNL     1      17.005  -1.904  36.348  1.00  0.00     0.153 A 
HETATM    3  N2  UNL     1      16.513  -3.129  36.603  1.00  0.00    -0.295 N 
ATOM      4  H2  UNL     1      17.073  -3.813  37.112  1.00  0.00     0.172 HD
HETATM    5  C2  UNL     1      15.277  -3.442  36.181  1.00  0.00     0.328 A 
HETATM    6  O1  UNL     1      14.804  -4.606  36.421  1.00  0.00    -0.247 OA
HETATM    7  N3  UNL     1      14.540  -2.535  35.510  1.00  0.00    -0.273 N 
ATOM      8  H3  UNL     1      13.605  -2.804  35.203  1.00  0.00     0.173 HD
HETATM    9  C3  UNL     1      14.973  -1.295  35.224  1.00  0.00     0.280 A 
HETATM   10  O2  UNL     1      14.235  -0.486  34.590  1.00  0.00    -0.265 OA
HETATM   11  C4  UNL     1      16.239  -0.971  35.654  1.00  0.00     0.153 A 
ENDROOT
BRANCH  11  12
HETATM   12  N4  UNL     1      16.725   0.330  35.368  1.00  0.00    -0.260 N 
ATOM     13  H4  UNL     1      17.239   0.462  34.497  1.00  0.00     0.180 HD
BRANCH  12  14
HETATM   14  S1  UNL     1      16.514   1.684  36.374  1.00  0.00     0.317 S 
HETATM   15  O3  UNL     1      17.802   2.219  36.921  1.00  0.00    -0.183 OA
HETATM   16  O4  UNL     1      15.645   1.295  37.537  1.00  0.00    -0.183 OA
BRANCH  14  17
HETATM   17  N5  UNL     1      15.734   3.000  35.558  1.00  0.00    -0.311 N 
ATOM     18  H52 UNL     1      14.965   3.530  35.970  1.00  0.00     0.170 HD
ATOM     19  H51 UNL     1      16.129   3.174  34.634  1.00  0.00     0.170 HD
ENDBRANCH  14  17
ENDBRANCH  12  14
ENDBRANCH  11  12
TORSDOF 3
ENDMDL
MODEL 5
REMARK VINA RESULT: -5.030588005      1.470      1.617
REMARK  3 active torsions:
REMARK  status: ('A' for Active; 'I' for Inactive)
REMARK    1  A    between atoms: C4_11  and  N4_12 
REMARK    2  A    between atoms: N4_12  and  S1_14 
REMARK    3  A    between atoms: S1_14  and  N5_15 
ROOT
HETATM    1  N1  UNL     1      17.576  -1.333  37.935  1.00  0.00    -0.080 NA
HETATM    2  C1  UNL     1      16.542  -1.840  37.092  1.00  0.00     0.153 A 
HETATM    3  N2  UNL     1      16.194  -3.137  37.121  1.00  0.00    -0.295 N 
ATOM      4  H2  UNL     1      16.668  -3.783  37.752  1.00  0.00     0.172 HD
HETATM    5  C2  UNL     1      15.216  -3.574  36.311  1.00  0.00     0.328 A 
HETATM    6  O1  UNL     1      14.881  -4.808  36.334  1.00  0.00    -0.247 OA
HETATM    7  N3  UNL     1      14.592  -2.717  35.479  1.00  0.00    -0.273 N 
ATOM      8  H3  UNL     1      13.853  -3.080  34.877  1.00  0.00     0.173 HD
HETATM    9  C3  UNL     1      14.893  -1.409  35.402  1.00  0.00     0.280 A 
HETATM   10  O2  UNL     1      14.271  -0.653  34.600  1.00  0.00    -0.265 OA
HETATM   11  C4  UNL     1      15.894  -0.959  36.230  1.00  0.00     0.153 A 
ENDROOT
BRANCH  11  12
HETATM   12  N4  UNL     1      16.235   0.417  36.173  1.00  0.00    -0.260 N 
ATOM     13  H4  UNL     1      15.691   1.064  36.744  1.00  0.00     0.180 HD
BRANCH  12  14
HETATM   14  S1  UNL     1      17.487   1.064  35.220  1.00  0.00     0.317 S 
HETATM   15  O3  UNL     1      17.597   2.554  35.326  1.00  0.00    -0.183 OA
HETATM   16  O4  UNL     1      17.228   0.721  33.780  1.00  0.00    -0.183 OA
BRANCH  14  17
HETATM   17  N5  UNL     1      19.040   0.417  35.639  1.00  0.00    -0.311 N 
ATOM     18  H52 UNL     1      19.158  -0.472  36.126  1.00  0.00     0.170 HD
ATOM     19  H51 UNL     1      19.806   1.023  35.345  1.00  0.00     0.170 HD
ENDBRANCH  14  17
ENDBRANCH  12  14
ENDBRANCH  11  12
TORSDOF 3
ENDMDL
