MODEL 1
REMARK VINA RESULT: -5.911461357      0.000      0.000
REMARK  4 active torsions:
REMARK  status: ('A' for Active; 'I' for Inactive)
REMARK    1  A    between atoms: C4_6  and  C5_7 
REMARK    2  A    between atoms: C5_7  and  O3_8 
REMARK    3  A    between atoms: C7_11  and  C8_12 
REMARK    4  A    between atoms: C8_12  and  O4_13 
ROOT
HETATM    1  C1  UNL     1      34.012  13.271 -18.437  1.00  0.00     0.052 C 
HETATM    2  C2  UNL     1      33.648  14.716 -18.124  1.00  0.00     0.118 C 
HETATM    3  C3  UNL     1      32.201  14.799 -17.726  1.00  0.00     0.052 C 
HETATM    4  O1  UNL     1      33.842  15.422 -19.340  1.00  0.00    -0.227 OA
HETATM    5  O2  UNL     1      35.110  15.828 -19.430  1.00  0.00    -0.232 OA
HETATM    6  C4  UNL     1      35.316  17.011 -18.670  1.00  0.00     0.193 C 
HETATM    7  C6  UNL     1      34.455  16.855 -17.477  1.00  0.00     0.089 C 
HETATM    8  C7  UNL     1      34.868  17.441 -16.200  1.00  0.00     0.193 C 
HETATM    9  O5  UNL     1      35.076  16.304 -15.379  1.00  0.00    -0.232 OA
HETATM   10  O6  UNL     1      34.204  15.395 -15.837  1.00  0.00    -0.231 OA
HETATM   11  C9  UNL     1      34.563  15.347 -17.148  1.00  0.00     0.206 C 
ENDROOT
BRANCH   6  12
HETATM   12  C5  UNL     1      34.988  18.148 -19.577  1.00  0.00     0.199 C 
BRANCH  12  13
HETATM   13  O3  UNL     1      35.364  19.388 -19.127  1.00  0.00    -0.398 OA
ATOM     14  H3  UNL     1      35.177  20.110 -19.716  1.00  0.00     0.209 HD
ENDBRANCH  12  13
ENDBRANCH   6  12
BRANCH   8  15
HETATM   15  C8  UNL     1      33.719  18.181 -15.497  1.00  0.00     0.199 C 
BRANCH  15  16
HETATM   16  O4  UNL     1      32.483  17.691 -15.827  1.00  0.00    -0.398 OA
ATOM     17  H4  UNL     1      31.997  17.370 -15.077  1.00  0.00     0.209 HD
ENDBRANCH  15  16
ENDBRANCH   8  15
TORSDOF 4
ENDMDL
MODEL 2
REMARK VINA RESULT: -5.636870153      2.034      3.064
REMARK  4 active torsions:
REMARK  status: ('A' for Active; 'I' for Inactive)
REMARK    1  A    between atoms: C4_6  and  C5_7 
REMARK    2  A    between atoms: C5_7  and  O3_8 
REMARK    3  A    between atoms: C7_11  and  C8_12 
REMARK    4  A    between atoms: C8_12  and  O4_13 
ROOT
HETATM    1  C1  UNL     1      36.084  15.206 -21.295  1.00  0.00     0.052 C 
HETATM    2  C2  UNL     1      34.966  15.713 -20.394  1.00  0.00     0.118 C 
HETATM    3  C3  UNL     1      33.729  15.958 -21.211  1.00  0.00     0.052 C 
HETATM    4  O1  UNL     1      35.436  16.946 -19.872  1.00  0.00    -0.227 OA
HETATM    5  O2  UNL     1      36.143  16.727 -18.762  1.00  0.00    -0.232 OA
HETATM    6  C4  UNL     1      35.286  16.541 -17.644  1.00  0.00     0.193 C 
HETATM    7  C6  UNL     1      34.114  15.813 -18.178  1.00  0.00     0.089 C 
HETATM    8  C7  UNL     1      33.394  14.866 -17.323  1.00  0.00     0.193 C 
HETATM    9  O5  UNL     1      33.624  13.621 -17.962  1.00  0.00    -0.232 OA
HETATM   10  O6  UNL     1      33.732  13.925 -19.263  1.00  0.00    -0.231 OA
HETATM   11  C9  UNL     1      34.731  14.847 -19.218  1.00  0.00     0.206 C 
ENDROOT
BRANCH   6  12
HETATM   12  C5  UNL     1      35.024  17.901 -17.094  1.00  0.00     0.199 C 
BRANCH  12  13
HETATM   13  O3  UNL     1      35.727  18.921 -17.685  1.00  0.00    -0.398 OA
ATOM     14  H3  UNL     1      36.276  18.666 -18.418  1.00  0.00     0.209 HD
ENDBRANCH  12  13
ENDBRANCH   6  12
BRANCH   8  15
HETATM   15  C8  UNL     1      31.870  15.037 -17.416  1.00  0.00     0.199 C 
BRANCH  15  16
HETATM   16  O4  UNL     1      31.255  14.017 -18.095  1.00  0.00    -0.398 OA
ATOM     17  H4  UNL     1      31.006  13.292 -17.534  1.00  0.00     0.209 HD
ENDBRANCH  15  16
ENDBRANCH   8  15
TORSDOF 4
ENDMDL
MODEL 3
REMARK VINA RESULT: -5.597260970      1.780      3.521
REMARK  4 active torsions:
REMARK  status: ('A' for Active; 'I' for Inactive)
REMARK    1  A    between atoms: C4_6  and  C5_7 
REMARK    2  A    between atoms: C5_7  and  O3_8 
REMARK    3  A    between atoms: C7_11  and  C8_12 
REMARK    4  A    between atoms: C8_12  and  O4_13 
ROOT
HETATM    1  C1  UNL     1      34.434  14.502 -20.935  1.00  0.00     0.052 C 
HETATM    2  C2  UNL     1      35.095  14.978 -19.649  1.00  0.00     0.118 C 
HETATM    3  C3  UNL     1      36.588  14.868 -19.776  1.00  0.00     0.052 C 
HETATM    4  O1  UNL     1      34.642  14.085 -18.643  1.00  0.00    -0.227 OA
HETATM    5  O2  UNL     1      33.488  14.523 -18.136  1.00  0.00    -0.232 OA
HETATM    6  C4  UNL     1      33.714  15.545 -17.175  1.00  0.00     0.193 C 
HETATM    7  C6  UNL     1      34.869  16.309 -17.693  1.00  0.00     0.089 C 
HETATM    8  C7  UNL     1      34.971  17.746 -17.426  1.00  0.00     0.193 C 
HETATM    9  O5  UNL     1      34.857  18.320 -18.717  1.00  0.00    -0.232 OA
HETATM   10  O6  UNL     1      35.392  17.407 -19.539  1.00  0.00    -0.231 OA
HETATM   11  C9  UNL     1      34.639  16.320 -19.224  1.00  0.00     0.206 C 
ENDROOT
BRANCH   6  12
HETATM   12  C5  UNL     1      33.913  14.850 -15.871  1.00  0.00     0.199 C 
BRANCH  12  13
HETATM   13  O3  UNL     1      34.683  15.523 -14.957  1.00  0.00    -0.398 OA
ATOM     14  H3  UNL     1      34.563  15.262 -14.051  1.00  0.00     0.209 HD
ENDBRANCH  12  13
ENDBRANCH   6  12
BRANCH   8  15
HETATM   15  C8  UNL     1      36.381  18.159 -16.976  1.00  0.00     0.199 C 
BRANCH  15  16
HETATM   16  O4  UNL     1      37.269  17.115 -16.968  1.00  0.00    -0.398 OA
ATOM     17  H4  UNL     1      38.097  17.333 -16.556  1.00  0.00     0.209 HD
ENDBRANCH  15  16
ENDBRANCH   8  15
TORSDOF 4
ENDMDL
MODEL 4
REMARK VINA RESULT: -5.508927968      1.730      3.880
REMARK  4 active torsions:
REMARK  status: ('A' for Active; 'I' for Inactive)
REMARK    1  A    between atoms: C4_6  and  C5_7 
REMARK    2  A    between atoms: C5_7  and  O3_8 
REMARK    3  A    between atoms: C7_11  and  C8_12 
REMARK    4  A    between atoms: C8_12  and  O4_13 
ROOT
HETATM    1  C1  UNL     1      31.848  14.510 -17.691  1.00  0.00     0.052 C 
HETATM    2  C2  UNL     1      33.342  14.591 -17.970  1.00  0.00     0.118 C 
HETATM    3  C3  UNL     1      33.938  13.211 -17.941  1.00  0.00     0.052 C 
HETATM    4  O1  UNL     1      33.881  15.358 -16.905  1.00  0.00    -0.227 OA
HETATM    5  O2  UNL     1      33.820  16.656 -17.206  1.00  0.00    -0.232 OA
HETATM    6  C4  UNL     1      34.892  17.028 -18.062  1.00  0.00     0.193 C 
HETATM    7  C6  UNL     1      35.099  15.860 -18.946  1.00  0.00     0.089 C 
HETATM    8  C7  UNL     1      35.563  16.061 -20.320  1.00  0.00     0.193 C 
HETATM    9  O5  UNL     1      34.464  15.618 -21.097  1.00  0.00    -0.232 OA
HETATM   10  O6  UNL     1      33.892  14.659 -20.356  1.00  0.00    -0.231 OA
HETATM   11  C9  UNL     1      33.663  15.343 -19.203  1.00  0.00     0.206 C 
ENDROOT
BRANCH   6  12
HETATM   12  C5  UNL     1      36.029  17.387 -17.166  1.00  0.00     0.199 C 
BRANCH  12  13
HETATM   13  O3  UNL     1      35.836  17.119 -15.834  1.00  0.00    -0.398 OA
ATOM     14  H3  UNL     1      36.447  17.540 -15.241  1.00  0.00     0.209 HD
ENDBRANCH  12  13
ENDBRANCH   6  12
BRANCH   8  15
HETATM   15  C8  UNL     1      36.687  15.085 -20.706  1.00  0.00     0.199 C 
BRANCH  15  16
HETATM   16  O4  UNL     1      36.899  14.112 -19.765  1.00  0.00    -0.398 OA
ATOM     17  H4  UNL     1      36.172  14.011 -19.162  1.00  0.00     0.209 HD
ENDBRANCH  15  16
ENDBRANCH   8  15
TORSDOF 4
ENDMDL
MODEL 5
REMARK VINA RESULT: -5.404756066      1.566      3.965
REMARK  4 active torsions:
REMARK  status: ('A' for Active; 'I' for Inactive)
REMARK    1  A    between atoms: C4_6  and  C5_7 
REMARK    2  A    between atoms: C5_7  and  O3_8 
REMARK    3  A    between atoms: C7_11  and  C8_12 
REMARK    4  A    between atoms: C8_12  and  O4_13 
ROOT
HETATM    1  C1  UNL     1      34.667  16.179 -14.936  1.00  0.00     0.052 C 
HETATM    2  C2  UNL     1      34.140  16.519 -16.322  1.00  0.00     0.118 C 
HETATM    3  C3  UNL     1      33.781  17.977 -16.384  1.00  0.00     0.052 C 
HETATM    4  O1  UNL     1      32.964  15.738 -16.477  1.00  0.00    -0.227 OA
HETATM    5  O2  UNL     1      33.280  14.536 -16.963  1.00  0.00    -0.232 OA
HETATM    6  C4  UNL     1      33.469  14.593 -18.370  1.00  0.00     0.193 C 
HETATM    7  C6  UNL     1      34.098  15.909 -18.619  1.00  0.00     0.089 C 
HETATM    8  C7  UNL     1      35.042  16.066 -19.728  1.00  0.00     0.193 C 
HETATM    9  O5  UNL     1      36.265  16.349 -19.070  1.00  0.00    -0.232 OA
HETATM   10  O6  UNL     1      35.904  16.996 -17.953  1.00  0.00    -0.231 OA
HETATM   11  C9  UNL     1      35.047  16.091 -17.410  1.00  0.00     0.206 C 
ENDROOT
BRANCH   6  12
HETATM   12  C5  UNL     1      32.125  14.379 -18.976  1.00  0.00     0.199 C 
BRANCH  12  13
HETATM   13  O3  UNL     1      31.118  14.090 -18.089  1.00  0.00    -0.398 OA
ATOM     14  H3  UNL     1      30.758  13.213 -18.152  1.00  0.00     0.209 HD
ENDBRANCH  12  13
ENDBRANCH   6  12
BRANCH   8  15
HETATM   15  C8  UNL     1      34.775  17.340 -20.546  1.00  0.00     0.199 C 
BRANCH  15  16
HETATM   16  O4  UNL     1      35.154  18.485 -19.895  1.00  0.00    -0.398 OA
ATOM     17  H4  UNL     1      35.879  18.350 -19.295  1.00  0.00     0.209 HD
ENDBRANCH  15  16
ENDBRANCH   8  15
TORSDOF 4
ENDMDL
