MODEL 1
REMARK VINA RESULT: -5.461014190      0.000      0.000
REMARK  3 active torsions:
REMARK  status: ('A' for Active; 'I' for Inactive)
REMARK    1  A    between atoms: C7_19  and  O1_20 
REMARK    2  A    between atoms: C7_19  and  C8_22 
REMARK    3  A    between atoms: C8_22  and  N6_23 
ROOT
HETATM    1  N1  UNL     1     -62.821  92.447  98.474  1.00  0.00    -0.385 N 
ATOM      2  H11 UNL     1     -62.764  91.921  97.602  1.00  0.00     0.157 HD
ATOM      3  H12 UNL     1     -62.825  93.462  98.564  1.00  0.00     0.157 HD
HETATM    4  C1  UNL     1     -62.905  91.769  99.569  1.00  0.00     0.134 C 
HETATM    5  N2  UNL     1     -62.985  92.497 100.776  1.00  0.00    -0.360 N 
ATOM      6  H2  UNL     1     -62.360  93.297 100.865  1.00  0.00     0.162 HD
HETATM    7  C2  UNL     1     -63.854  92.230 101.899  1.00  0.00     0.239 C 
HETATM    8  N3  UNL     1     -63.216  91.544 102.989  1.00  0.00    -0.404 N 
ATOM      9  H3  UNL     1     -63.737  90.931 103.616  1.00  0.00     0.154 HD
HETATM   10  C3  UNL     1     -61.830  91.761 103.146  1.00  0.00     0.143 C 
HETATM   11  C4  UNL     1     -61.085  90.451 103.448  1.00  0.00     0.251 C 
HETATM   12  N4  UNL     1     -61.788  89.389 102.793  1.00  0.00    -0.072 N 
ATOM     13  H41 UNL     1     -62.612  89.737 102.300  1.00  0.00     0.277 HD
ATOM     14  H42 UNL     1     -62.252  88.779 103.466  1.00  0.00     0.277 HD
HETATM   15  C5  UNL     1     -60.929  88.644 101.915  1.00  0.00     0.251 C 
HETATM   16  C6  UNL     1     -61.659  88.545 100.571  1.00  0.00     0.145 C 
HETATM   17  N5  UNL     1     -61.644  89.807  99.951  1.00  0.00    -0.380 N 
ATOM     18  H5  UNL     1     -60.786  90.352  99.868  1.00  0.00     0.157 HD
HETATM   19  C7  UNL     1     -62.899  90.291  99.438  1.00  0.00     0.221 C 
ENDROOT
BRANCH  19  20
HETATM   20  O1  UNL     1     -63.880  89.640 100.140  1.00  0.00    -0.360 OA
ATOM     21  H1  UNL     1     -63.619  88.811 100.524  1.00  0.00     0.213 HD
ENDBRANCH  19  20
BRANCH  19  22
HETATM   22  C8  UNL     1     -62.928  89.864  97.995  1.00  0.00     0.131 C 
BRANCH  22  23
HETATM   23  N6  UNL     1     -64.131  89.436  97.442  1.00  0.00    -0.366 N 
HETATM   24  C9  UNL     1     -64.292  88.119  96.979  1.00  0.00     0.090 C 
HETATM   25  C10 UNL     1     -64.966  87.996  95.634  1.00  0.00     0.277 C 
HETATM   26  N7  UNL     1     -64.806  89.197  94.839  1.00  0.00    -0.069 N 
HETATM   27  C11 UNL     1     -65.474  90.256  95.546  1.00  0.00     0.252 C 
ATOM     28  H72 UNL     1     -63.832  89.410  94.623  1.00  0.00     0.277 HD
ATOM     29  H71 UNL     1     -65.131  89.089  93.877  1.00  0.00     0.277 HD
HETATM   30  C12 UNL     1     -65.076  90.382  96.986  1.00  0.00     0.154 C 
ENDBRANCH  22  23
ENDBRANCH  19  22
TORSDOF 3
ENDMDL
MODEL 2
REMARK VINA RESULT: -4.998611999      3.015      6.044
REMARK  3 active torsions:
REMARK  status: ('A' for Active; 'I' for Inactive)
REMARK    1  A    between atoms: C7_19  and  O1_20 
REMARK    2  A    between atoms: C7_19  and  C8_22 
REMARK    3  A    between atoms: C8_22  and  N6_23 
ROOT
HETATM    1  N1  UNL     1     -60.004  94.196 101.401  1.00  0.00    -0.385 N 
ATOM      2  H11 UNL     1     -60.533  95.014 101.100  1.00  0.00     0.157 HD
ATOM      3  H12 UNL     1     -58.994  94.148 101.530  1.00  0.00     0.157 HD
HETATM    4  C1  UNL     1     -60.670  93.120 101.653  1.00  0.00     0.134 C 
HETATM    5  N2  UNL     1     -59.938  91.988 102.071  1.00  0.00    -0.360 N 
ATOM      6  H2  UNL     1     -59.072  91.796 101.567  1.00  0.00     0.162 HD
HETATM    7  C2  UNL     1     -60.282  91.070 103.133  1.00  0.00     0.239 C 
HETATM    8  N3  UNL     1     -60.878  89.843 102.682  1.00  0.00    -0.404 N 
ATOM      9  H3  UNL     1     -61.535  89.320 103.261  1.00  0.00     0.154 HD
HETATM   10  C3  UNL     1     -60.507  89.397 101.394  1.00  0.00     0.143 C 
HETATM   11  C4  UNL     1     -61.724  88.891 100.602  1.00  0.00     0.251 C 
HETATM   12  N4  UNL     1     -62.865  89.642 101.030  1.00  0.00    -0.072 N 
ATOM     13  H41 UNL     1     -62.617  90.314 101.757  1.00  0.00     0.277 HD
ATOM     14  H42 UNL     1     -63.513  89.062 101.564  1.00  0.00     0.277 HD
HETATM   15  C5  UNL     1     -63.525  90.284  99.926  1.00  0.00     0.251 C 
HETATM   16  C6  UNL     1     -63.723  91.749 100.329  1.00  0.00     0.145 C 
HETATM   17  N5  UNL     1     -62.477  92.399 100.310  1.00  0.00    -0.380 N 
ATOM     18  H5  UNL     1     -61.842  92.315  99.516  1.00  0.00     0.157 HD
HETATM   19  C7  UNL     1     -62.140  93.189 101.465  1.00  0.00     0.221 C 
ENDROOT
BRANCH  19  20
HETATM   20  O1  UNL     1     -62.884  92.692 102.503  1.00  0.00    -0.360 OA
ATOM     21  H1  UNL     1     -62.567  92.914 103.371  1.00  0.00     0.213 HD
ENDBRANCH  19  20
BRANCH  19  22
HETATM   22  C8  UNL     1     -62.590  94.587 101.133  1.00  0.00     0.131 C 
BRANCH  22  23
HETATM   23  N6  UNL     1     -63.325  95.301 102.073  1.00  0.00    -0.366 N 
HETATM   24  C9  UNL     1     -64.699  95.063 102.254  1.00  0.00     0.090 C 
HETATM   25  C10 UNL     1     -65.551  96.306 102.354  1.00  0.00     0.277 C 
HETATM   26  N7  UNL     1     -64.931  97.439 101.696  1.00  0.00    -0.069 N 
HETATM   27  C11 UNL     1     -63.708  97.713 102.402  1.00  0.00     0.252 C 
ATOM     28  H72 UNL     1     -64.794  97.297 100.695  1.00  0.00     0.277 HD
ATOM     29  H71 UNL     1     -65.546  98.250 101.628  1.00  0.00     0.277 HD
HETATM   30  C12 UNL     1     -62.824  96.516 102.589  1.00  0.00     0.154 C 
ENDBRANCH  22  23
ENDBRANCH  19  22
TORSDOF 3
ENDMDL
MODEL 3
REMARK VINA RESULT: -4.955902161      3.602      6.112
REMARK  3 active torsions:
REMARK  status: ('A' for Active; 'I' for Inactive)
REMARK    1  A    between atoms: C7_19  and  O1_20 
REMARK    2  A    between atoms: C7_19  and  C8_22 
REMARK    3  A    between atoms: C8_22  and  N6_23 
ROOT
HETATM    1  N1  UNL     1     -67.452  89.388  94.469  1.00  0.00    -0.385 N 
ATOM      2  H11 UNL     1     -67.697  90.361  94.288  1.00  0.00     0.157 HD
ATOM      3  H12 UNL     1     -68.038  88.576  94.278  1.00  0.00     0.157 HD
HETATM    4  C1  UNL     1     -66.289  89.155  94.977  1.00  0.00     0.134 C 
HETATM    5  N2  UNL     1     -65.950  87.807  95.225  1.00  0.00    -0.360 N 
ATOM      6  H2  UNL     1     -66.676  87.226  95.641  1.00  0.00     0.162 HD
HETATM    7  C2  UNL     1     -64.685  87.162  94.954  1.00  0.00     0.239 C 
HETATM    8  N3  UNL     1     -63.837  87.021  96.106  1.00  0.00    -0.404 N 
ATOM      9  H3  UNL     1     -62.820  87.000  96.025  1.00  0.00     0.154 HD
HETATM   10  C3  UNL     1     -64.484  86.911  97.356  1.00  0.00     0.143 C 
HETATM   11  C4  UNL     1     -63.787  87.765  98.427  1.00  0.00     0.251 C 
HETATM   12  N4  UNL     1     -63.220  88.906  97.774  1.00  0.00    -0.072 N 
ATOM     13  H41 UNL     1     -63.393  88.883  96.768  1.00  0.00     0.277 HD
ATOM     14  H42 UNL     1     -62.201  88.860  97.762  1.00  0.00     0.277 HD
HETATM   15  C5  UNL     1     -63.682  90.137  98.356  1.00  0.00     0.251 C 
HETATM   16  C6  UNL     1     -64.152  91.018  97.194  1.00  0.00     0.145 C 
HETATM   17  N5  UNL     1     -65.354  90.496  96.684  1.00  0.00    -0.380 N 
ATOM     18  H5  UNL     1     -66.130  90.244  97.295  1.00  0.00     0.157 HD
HETATM   19  C7  UNL     1     -65.436  90.336  95.255  1.00  0.00     0.221 C 
ENDROOT
BRANCH  19  20
HETATM   20  O1  UNL     1     -64.146  90.242  94.803  1.00  0.00    -0.360 OA
ATOM     21  H1  UNL     1     -63.929  89.428  94.364  1.00  0.00     0.213 HD
ENDBRANCH  19  20
BRANCH  19  22
HETATM   22  C8  UNL     1     -66.068  91.606  94.750  1.00  0.00     0.131 C 
BRANCH  22  23
HETATM   23  N6  UNL     1     -65.757  92.052  93.470  1.00  0.00    -0.366 N 
HETATM   24  C9  UNL     1     -64.469  91.881  92.933  1.00  0.00     0.090 C 
HETATM   25  C10 UNL     1     -63.904  93.096  92.239  1.00  0.00     0.277 C 
HETATM   26  N7  UNL     1     -64.499  94.323  92.729  1.00  0.00    -0.069 N 
HETATM   27  C11 UNL     1     -65.898  94.267  92.401  1.00  0.00     0.252 C 
ATOM     28  H72 UNL     1     -64.325  94.486  93.721  1.00  0.00     0.277 HD
ATOM     29  H71 UNL     1     -64.038  95.163  92.378  1.00  0.00     0.277 HD
HETATM   30  C12 UNL     1     -66.582  93.005  92.833  1.00  0.00     0.154 C 
ENDBRANCH  22  23
ENDBRANCH  19  22
TORSDOF 3
ENDMDL
MODEL 4
REMARK VINA RESULT: -4.844912446      3.060      5.091
REMARK  3 active torsions:
REMARK  status: ('A' for Active; 'I' for Inactive)
REMARK    1  A    between atoms: C7_19  and  O1_20 
REMARK    2  A    between atoms: C7_19  and  C8_22 
REMARK    3  A    between atoms: C8_22  and  N6_23 
ROOT
HETATM    1  N1  UNL     1     -59.554  91.813 103.132  1.00  0.00    -0.385 N 
ATOM      2  H11 UNL     1     -60.069  90.932 103.139  1.00  0.00     0.157 HD
ATOM      3  H12 UNL     1     -58.627  91.970 103.525  1.00  0.00     0.157 HD
HETATM    4  C1  UNL     1     -60.120  92.824 102.566  1.00  0.00     0.134 C 
HETATM    5  N2  UNL     1     -59.408  94.043 102.555  1.00  0.00    -0.360 N 
ATOM      6  H2  UNL     1     -58.936  94.300 103.422  1.00  0.00     0.162 HD
HETATM    7  C2  UNL     1     -59.274  94.966 101.451  1.00  0.00     0.239 C 
HETATM    8  N3  UNL     1     -60.148  96.105 101.527  1.00  0.00    -0.404 N 
ATOM      9  H3  UNL     1     -60.481  96.582 100.689  1.00  0.00     0.154 HD
HETATM   10  C3  UNL     1     -60.521  96.529 102.821  1.00  0.00     0.143 C 
HETATM   11  C4  UNL     1     -62.017  96.874 102.890  1.00  0.00     0.251 C 
HETATM   12  N4  UNL     1     -62.702  96.029 101.959  1.00  0.00    -0.072 N 
ATOM     13  H41 UNL     1     -62.052  95.418 101.463  1.00  0.00     0.277 HD
ATOM     14  H42 UNL     1     -63.056  96.562 101.164  1.00  0.00     0.277 HD
HETATM   15  C5  UNL     1     -63.749  95.276 102.593  1.00  0.00     0.251 C 
HETATM   16  C6  UNL     1     -63.556  93.817 102.165  1.00  0.00     0.145 C 
HETATM   17  N5  UNL     1     -62.423  93.298 102.815  1.00  0.00    -0.380 N 
ATOM     18  H5  UNL     1     -62.282  93.412 103.819  1.00  0.00     0.157 HD
HETATM   19  C7  UNL     1     -61.470  92.597 101.994  1.00  0.00     0.221 C 
ENDROOT
BRANCH  19  20
HETATM   20  O1  UNL     1     -61.647  93.060 100.716  1.00  0.00    -0.360 OA
ATOM     21  H1  UNL     1     -62.085  92.459 100.126  1.00  0.00     0.213 HD
ENDBRANCH  19  20
BRANCH  19  22
HETATM   22  C8  UNL     1     -61.868  91.147 102.076  1.00  0.00     0.131 C 
BRANCH  22  23
HETATM   23  N6  UNL     1     -62.195  90.470 100.906  1.00  0.00    -0.366 N 
HETATM   24  C9  UNL     1     -61.214  90.150  99.952  1.00  0.00     0.090 C 
HETATM   25  C10 UNL     1     -61.602  90.436  98.521  1.00  0.00     0.277 C 
HETATM   26  N7  UNL     1     -62.614  91.470  98.433  1.00  0.00    -0.069 N 
HETATM   27  C11 UNL     1     -63.787  90.960  99.091  1.00  0.00     0.252 C 
ATOM     28  H72 UNL     1     -62.304  92.368  98.803  1.00  0.00     0.277 HD
ATOM     29  H71 UNL     1     -62.792  91.778  97.477  1.00  0.00     0.277 HD
HETATM   30  C12 UNL     1     -63.537  90.423 100.468  1.00  0.00     0.154 C 
ENDBRANCH  22  23
ENDBRANCH  19  22
TORSDOF 3
ENDMDL
MODEL 5
REMARK VINA RESULT: -4.816153807      1.862      3.337
REMARK  3 active torsions:
REMARK  status: ('A' for Active; 'I' for Inactive)
REMARK    1  A    between atoms: C7_19  and  O1_20 
REMARK    2  A    between atoms: C7_19  and  C8_22 
REMARK    3  A    between atoms: C8_22  and  N6_23 
ROOT
HETATM    1  N1  UNL     1     -63.232  88.932 101.542  1.00  0.00    -0.385 N 
ATOM      2  H11 UNL     1     -64.024  88.990 100.902  1.00  0.00     0.157 HD
ATOM      3  H12 UNL     1     -63.057  88.186 102.214  1.00  0.00     0.157 HD
HETATM    4  C1  UNL     1     -62.362  89.883 101.496  1.00  0.00     0.134 C 
HETATM    5  N2  UNL     1     -61.266  89.802 102.381  1.00  0.00    -0.360 N 
ATOM      6  H2  UNL     1     -61.476  89.517 103.338  1.00  0.00     0.162 HD
HETATM    7  C2  UNL     1     -59.880  90.079 102.081  1.00  0.00     0.239 C 
HETATM    8  N3  UNL     1     -59.431  91.376 102.509  1.00  0.00    -0.404 N 
ATOM      9  H3  UNL     1     -58.682  91.871 102.026  1.00  0.00     0.154 HD
HETATM   10  C3  UNL     1     -60.082  91.928 103.634  1.00  0.00     0.143 C 
HETATM   11  C4  UNL     1     -60.395  93.419 103.427  1.00  0.00     0.251 C 
HETATM   12  N4  UNL     1     -60.625  93.625 102.028  1.00  0.00    -0.072 N 
ATOM     13  H41 UNL     1     -60.516  92.758 101.501  1.00  0.00     0.277 HD
ATOM     14  H42 UNL     1     -59.871  94.166 101.603  1.00  0.00     0.277 HD
HETATM   15  C5  UNL     1     -61.906  94.230 101.783  1.00  0.00     0.251 C 
HETATM   16  C6  UNL     1     -62.584  93.386 100.698  1.00  0.00     0.145 C 
HETATM   17  N5  UNL     1     -62.972  92.155 101.255  1.00  0.00    -0.380 N 
ATOM     18  H5  UNL     1     -63.480  92.103 102.138  1.00  0.00     0.157 HD
HETATM   19  C7  UNL     1     -62.616  90.970 100.518  1.00  0.00     0.221 C 
ENDROOT
BRANCH  19  20
HETATM   20  O1  UNL     1     -61.545  91.310  99.734  1.00  0.00    -0.360 OA
ATOM     21  H1  UNL     1     -61.249  90.633  99.137  1.00  0.00     0.213 HD
ENDBRANCH  19  20
BRANCH  19  22
HETATM   22  C8  UNL     1     -63.812  90.668  99.654  1.00  0.00     0.131 C 
BRANCH  22  23
HETATM   23  N6  UNL     1     -63.608  90.223  98.352  1.00  0.00    -0.366 N 
HETATM   24  C9  UNL     1     -63.782  91.085  97.254  1.00  0.00     0.090 C 
HETATM   25  C10 UNL     1     -64.557  90.494  96.101  1.00  0.00     0.277 C 
HETATM   26  N7  UNL     1     -65.436  89.426  96.532  1.00  0.00    -0.069 N 
HETATM   27  C11 UNL     1     -64.596  88.379  97.050  1.00  0.00     0.252 C 
ATOM     28  H72 UNL     1     -66.149  89.734  97.193  1.00  0.00     0.277 HD
ATOM     29  H71 UNL     1     -66.069  89.105  95.799  1.00  0.00     0.277 HD
HETATM   30  C12 UNL     1     -63.598  88.840  98.070  1.00  0.00     0.154 C 
ENDBRANCH  22  23
ENDBRANCH  19  22
TORSDOF 3
ENDMDL
