MODEL 1
REMARK VINA RESULT: -7.509402417      0.000      0.000
REMARK  7 active torsions:
REMARK  status: ('A' for Active; 'I' for Inactive)
REMARK       I    between atoms: C2_5  and  N3_6 
REMARK       I    between atoms: C2_5  and  N7_17 
REMARK    1  A    between atoms: N3_6  and  N4_8 
REMARK    2  A    between atoms: N4_8  and  C3_10 
REMARK    3  A    between atoms: C3_10  and  N5_12 
REMARK    4  A    between atoms: N5_12  and  N6_14 
REMARK    5  A    between atoms: N7_17  and  C4_19 
REMARK    6  A    between atoms: C7_22  and  O1_23 
REMARK    7  A    between atoms: C7_22  and  C8_25 
ROOT
HETATM    1  N1  UNL     1     -63.224  91.488  98.527  1.00  0.00    -0.171 NA
HETATM    2  C1  UNL     1     -63.168  90.514  97.868  1.00  0.00     0.196 C 
HETATM    3  N2  UNL     1     -63.111  89.356  97.112  1.00  0.00    -0.125 N 
ATOM      4  H2  UNL     1     -62.579  88.554  97.450  1.00  0.00     0.197 HD
HETATM    5  C2  UNL     1     -63.727  89.289  95.983  1.00  0.00     0.702 C 
HETATM    6  N3  UNL     1     -63.639  88.080  95.245  1.00  0.00    -0.129 N 
ATOM      7  H3  UNL     1     -62.756  87.863  94.782  1.00  0.00     0.205 HD
HETATM    8  N7  UNL     1     -64.477  90.401  95.492  1.00  0.00    -0.216 N 
ATOM      9  H7  UNL     1     -64.860  91.099  96.128  1.00  0.00     0.178 HD
ENDROOT
BRANCH   6  10
HETATM   10  N4  UNL     1     -64.688  87.171  95.114  1.00  0.00    -0.261 N 
ATOM     11  H4  UNL     1     -65.215  86.855  95.928  1.00  0.00     0.190 HD
BRANCH  10  12
HETATM   12  C3  UNL     1     -65.001  86.696  93.803  1.00  0.00     0.205 C 
HETATM   13  S1  UNL     1     -65.374  85.128  93.562  1.00  0.00    -0.038 SA
BRANCH  12  14
HETATM   14  N5  UNL     1     -64.992  87.574  92.693  1.00  0.00    -0.282 N 
ATOM     15  H5  UNL     1     -65.255  88.553  92.810  1.00  0.00     0.189 HD
BRANCH  14  16
HETATM   16  N6  UNL     1     -64.621  87.093  91.438  1.00  0.00    -0.343 N 
ATOM     17  H62 UNL     1     -64.456  86.094  91.317  1.00  0.00     0.176 HD
ATOM     18  H61 UNL     1     -64.521  87.744  90.659  1.00  0.00     0.176 HD
ENDBRANCH  14  16
ENDBRANCH  12  14
ENDBRANCH  10  12
ENDBRANCH   6  10
BRANCH   8  19
HETATM   19  C4  UNL     1     -64.674  90.502  94.087  1.00  0.00     0.143 C 
HETATM   20  C5  UNL     1     -64.184  91.886  93.594  1.00  0.00     0.033 C 
HETATM   21  C6  UNL     1     -65.622  92.334  93.908  1.00  0.00     0.052 C 
HETATM   22  C7  UNL     1     -66.007  90.892  93.544  1.00  0.00     0.156 C 
BRANCH  22  23
HETATM   23  O1  UNL     1     -66.014  90.768  92.138  1.00  0.00    -0.378 OA
ATOM     24  H1  UNL     1     -66.541  91.457  91.751  1.00  0.00     0.211 HD
ENDBRANCH  22  23
BRANCH  22  25
HETATM   25  C8  UNL     1     -67.224  90.381  94.148  1.00  0.00     0.267 C 
HETATM   26  N8  UNL     1     -67.162  89.312  95.076  1.00  0.00    -0.059 NA
HETATM   27  O2  UNL     1     -68.341  90.856  93.878  1.00  0.00    -0.273 OA
ENDBRANCH  22  25
ENDBRANCH   8  19
TORSDOF 7
ENDMDL
MODEL 2
REMARK VINA RESULT: -6.966317828      1.365      1.365
REMARK  7 active torsions:
REMARK  status: ('A' for Active; 'I' for Inactive)
REMARK       I    between atoms: C2_5  and  N3_6 
REMARK       I    between atoms: C2_5  and  N7_17 
REMARK    1  A    between atoms: N3_6  and  N4_8 
REMARK    2  A    between atoms: N4_8  and  C3_10 
REMARK    3  A    between atoms: C3_10  and  N5_12 
REMARK    4  A    between atoms: N5_12  and  N6_14 
REMARK    5  A    between atoms: N7_17  and  C4_19 
REMARK    6  A    between atoms: C7_22  and  O1_23 
REMARK    7  A    between atoms: C7_22  and  C8_25 
ROOT
HETATM    1  N1  UNL     1     -63.222  91.790  98.642  1.00  0.00    -0.171 NA
HETATM    2  C1  UNL     1     -63.163  90.783  98.036  1.00  0.00     0.196 C 
HETATM    3  N2  UNL     1     -63.101  89.586  97.343  1.00  0.00    -0.125 N 
ATOM      4  H2  UNL     1     -62.580  88.800  97.730  1.00  0.00     0.197 HD
HETATM    5  C2  UNL     1     -63.701  89.464  96.209  1.00  0.00     0.702 C 
HETATM    6  N3  UNL     1     -63.609  88.217  95.536  1.00  0.00    -0.129 N 
ATOM      7  H3  UNL     1     -62.721  87.972  95.099  1.00  0.00     0.205 HD
HETATM    8  N7  UNL     1     -64.437  90.552  95.649  1.00  0.00    -0.216 N 
ATOM      9  H7  UNL     1     -64.825  91.285  96.242  1.00  0.00     0.178 HD
ENDROOT
BRANCH   6  10
HETATM   10  N4  UNL     1     -64.662  87.308  95.438  1.00  0.00    -0.261 N 
ATOM     11  H4  UNL     1     -65.291  87.145  96.223  1.00  0.00     0.190 HD
BRANCH  10  12
HETATM   12  C3  UNL     1     -64.830  86.613  94.200  1.00  0.00     0.205 C 
HETATM   13  S1  UNL     1     -64.290  87.265  92.808  1.00  0.00    -0.038 SA
BRANCH  12  14
HETATM   14  N5  UNL     1     -65.466  85.348  94.160  1.00  0.00    -0.282 N 
ATOM     15  H5  UNL     1     -66.180  85.111  94.850  1.00  0.00     0.189 HD
BRANCH  14  16
HETATM   16  N6  UNL     1     -65.110  84.431  93.174  1.00  0.00    -0.343 N 
ATOM     17  H62 UNL     1     -64.126  84.323  92.926  1.00  0.00     0.176 HD
ATOM     18  H61 UNL     1     -65.834  83.880  92.714  1.00  0.00     0.176 HD
ENDBRANCH  14  16
ENDBRANCH  12  14
ENDBRANCH  10  12
ENDBRANCH   6  10
BRANCH   8  19
HETATM   19  C4  UNL     1     -64.612  90.581  94.238  1.00  0.00     0.143 C 
HETATM   20  C5  UNL     1     -64.220  91.978  93.696  1.00  0.00     0.033 C 
HETATM   21  C6  UNL     1     -65.695  92.325  93.966  1.00  0.00     0.052 C 
HETATM   22  C7  UNL     1     -65.959  90.843  93.656  1.00  0.00     0.156 C 
BRANCH  22  23
HETATM   23  O1  UNL     1     -65.928  90.662  92.257  1.00  0.00    -0.378 OA
ATOM     24  H1  UNL     1     -66.654  90.114  91.981  1.00  0.00     0.211 HD
ENDBRANCH  22  23
BRANCH  22  25
HETATM   25  C8  UNL     1     -67.146  90.264  94.260  1.00  0.00     0.267 C 
HETATM   26  N8  UNL     1     -68.422  90.820  93.995  1.00  0.00    -0.059 NA
HETATM   27  O2  UNL     1     -67.084  89.278  95.014  1.00  0.00    -0.273 OA
ENDBRANCH  22  25
ENDBRANCH   8  19
TORSDOF 7
ENDMDL
MODEL 3
REMARK VINA RESULT: -6.846081519      2.876      4.904
REMARK  7 active torsions:
REMARK  status: ('A' for Active; 'I' for Inactive)
REMARK       I    between atoms: C2_5  and  N3_6 
REMARK       I    between atoms: C2_5  and  N7_17 
REMARK    1  A    between atoms: N3_6  and  N4_8 
REMARK    2  A    between atoms: N4_8  and  C3_10 
REMARK    3  A    between atoms: C3_10  and  N5_12 
REMARK    4  A    between atoms: N5_12  and  N6_14 
REMARK    5  A    between atoms: N7_17  and  C4_19 
REMARK    6  A    between atoms: C7_22  and  O1_23 
REMARK    7  A    between atoms: C7_22  and  C8_25 
ROOT
HETATM    1  N1  UNL     1     -64.740  84.995  93.281  1.00  0.00    -0.171 NA
HETATM    2  C1  UNL     1     -64.811  86.092  92.859  1.00  0.00     0.196 C 
HETATM    3  N2  UNL     1     -64.915  87.375  92.350  1.00  0.00    -0.125 N 
ATOM      4  H2  UNL     1     -65.039  87.517  91.348  1.00  0.00     0.197 HD
HETATM    5  C2  UNL     1     -64.856  88.391  93.141  1.00  0.00     0.702 C 
HETATM    6  N3  UNL     1     -64.968  89.687  92.573  1.00  0.00    -0.129 N 
ATOM      7  H3  UNL     1     -64.176  90.048  92.041  1.00  0.00     0.205 HD
HETATM    8  N7  UNL     1     -64.683  88.214  94.548  1.00  0.00    -0.216 N 
ATOM      9  H7  UNL     1     -64.970  87.350  95.009  1.00  0.00     0.178 HD
ENDROOT
BRANCH   6  10
HETATM   10  N4  UNL     1     -66.096  90.496  92.700  1.00  0.00    -0.261 N 
ATOM     11  H4  UNL     1     -67.029  90.131  92.509  1.00  0.00     0.190 HD
BRANCH  10  12
HETATM   12  C3  UNL     1     -65.903  91.853  93.108  1.00  0.00     0.205 C 
HETATM   13  S1  UNL     1     -64.449  92.566  92.932  1.00  0.00    -0.038 SA
BRANCH  12  14
HETATM   14  N5  UNL     1     -66.967  92.598  93.669  1.00  0.00    -0.282 N 
ATOM     15  H5  UNL     1     -66.814  93.559  93.977  1.00  0.00     0.189 HD
BRANCH  14  16
HETATM   16  N6  UNL     1     -68.224  92.011  93.798  1.00  0.00    -0.343 N 
ATOM     17  H62 UNL     1     -68.538  91.345  93.092  1.00  0.00     0.176 HD
ATOM     18  H61 UNL     1     -68.813  92.254  94.595  1.00  0.00     0.176 HD
ENDBRANCH  14  16
ENDBRANCH  12  14
ENDBRANCH  10  12
ENDBRANCH   6  10
BRANCH   8  19
HETATM   19  C4  UNL     1     -64.098  89.280  95.286  1.00  0.00     0.143 C 
HETATM   20  C5  UNL     1     -63.127  88.705  96.346  1.00  0.00     0.033 C 
HETATM   21  C6  UNL     1     -64.377  88.663  97.242  1.00  0.00     0.052 C 
HETATM   22  C7  UNL     1     -64.833  89.887  96.433  1.00  0.00     0.156 C 
BRANCH  22  23
HETATM   23  O1  UNL     1     -64.142  91.024  96.905  1.00  0.00    -0.378 OA
ATOM     24  H1  UNL     1     -64.240  91.098  97.847  1.00  0.00     0.211 HD
ENDBRANCH  22  23
BRANCH  22  25
HETATM   25  C8  UNL     1     -66.266  90.106  96.354  1.00  0.00     0.267 C 
HETATM   26  N8  UNL     1     -66.943  90.767  97.410  1.00  0.00    -0.059 NA
HETATM   27  O2  UNL     1     -66.935  89.731  95.376  1.00  0.00    -0.273 OA
ENDBRANCH  22  25
ENDBRANCH   8  19
TORSDOF 7
ENDMDL
MODEL 4
REMARK VINA RESULT: -6.769486492      3.113      5.317
REMARK  7 active torsions:
REMARK  status: ('A' for Active; 'I' for Inactive)
REMARK       I    between atoms: C2_5  and  N3_6 
REMARK       I    between atoms: C2_5  and  N7_17 
REMARK    1  A    between atoms: N3_6  and  N4_8 
REMARK    2  A    between atoms: N4_8  and  C3_10 
REMARK    3  A    between atoms: C3_10  and  N5_12 
REMARK    4  A    between atoms: N5_12  and  N6_14 
REMARK    5  A    between atoms: N7_17  and  C4_19 
REMARK    6  A    between atoms: C7_22  and  O1_23 
REMARK    7  A    between atoms: C7_22  and  C8_25 
ROOT
HETATM    1  N1  UNL     1     -68.298  90.674  93.969  1.00  0.00    -0.171 NA
HETATM    2  C1  UNL     1     -67.316  90.674  94.618  1.00  0.00     0.196 C 
HETATM    3  N2  UNL     1     -66.175  90.676  95.402  1.00  0.00    -0.125 N 
ATOM      4  H2  UNL     1     -65.997  91.453  96.039  1.00  0.00     0.197 HD
HETATM    5  C2  UNL     1     -65.337  89.700  95.329  1.00  0.00     0.702 C 
HETATM    6  N3  UNL     1     -64.182  89.748  96.153  1.00  0.00    -0.129 N 
ATOM      7  H3  UNL     1     -63.444  90.407  95.907  1.00  0.00     0.205 HD
HETATM    8  N7  UNL     1     -65.568  88.603  94.444  1.00  0.00    -0.216 N 
ATOM      9  H7  UNL     1     -66.511  88.358  94.144  1.00  0.00     0.178 HD
ENDROOT
BRANCH   6  10
HETATM   10  N4  UNL     1     -63.998  88.946  97.278  1.00  0.00    -0.261 N 
ATOM     11  H4  UNL     1     -64.296  87.971  97.285  1.00  0.00     0.190 HD
BRANCH  10  12
HETATM   12  C3  UNL     1     -63.376  89.536  98.423  1.00  0.00     0.205 C 
HETATM   13  S1  UNL     1     -63.149  91.147  98.500  1.00  0.00    -0.038 SA
BRANCH  12  14
HETATM   14  N5  UNL     1     -62.948  88.733  99.508  1.00  0.00    -0.282 N 
ATOM     15  H5  UNL     1     -62.414  87.880  99.337  1.00  0.00     0.189 HD
BRANCH  14  16
HETATM   16  N6  UNL     1     -63.260  89.116 100.811  1.00  0.00    -0.343 N 
ATOM     17  H62 UNL     1     -62.876  89.985 101.181  1.00  0.00     0.176 HD
ATOM     18  H61 UNL     1     -63.868  88.524 101.378  1.00  0.00     0.176 HD
ENDBRANCH  14  16
ENDBRANCH  12  14
ENDBRANCH  10  12
ENDBRANCH   6  10
BRANCH   8  19
HETATM   19  C4  UNL     1     -64.440  87.862  93.995  1.00  0.00     0.143 C 
HETATM   20  C5  UNL     1     -64.025  88.353  92.587  1.00  0.00     0.033 C 
HETATM   21  C6  UNL     1     -65.021  87.290  92.092  1.00  0.00     0.052 C 
HETATM   22  C7  UNL     1     -64.627  86.524  93.364  1.00  0.00     0.156 C 
BRANCH  22  23
HETATM   23  O1  UNL     1     -63.375  85.908  93.151  1.00  0.00    -0.378 OA
ATOM     24  H1  UNL     1     -62.689  86.564  93.119  1.00  0.00     0.211 HD
ENDBRANCH  22  23
BRANCH  22  25
HETATM   25  C8  UNL     1     -65.615  85.597  93.886  1.00  0.00     0.267 C 
HETATM   26  N8  UNL     1     -65.203  84.377  94.477  1.00  0.00    -0.059 NA
HETATM   27  O2  UNL     1     -66.834  85.838  93.835  1.00  0.00    -0.273 OA
ENDBRANCH  22  25
ENDBRANCH   8  19
TORSDOF 7
ENDMDL
MODEL 5
REMARK VINA RESULT: -6.766814463      2.402      4.934
REMARK  7 active torsions:
REMARK  status: ('A' for Active; 'I' for Inactive)
REMARK       I    between atoms: C2_5  and  N3_6 
REMARK       I    between atoms: C2_5  and  N7_17 
REMARK    1  A    between atoms: N3_6  and  N4_8 
REMARK    2  A    between atoms: N4_8  and  C3_10 
REMARK    3  A    between atoms: C3_10  and  N5_12 
REMARK    4  A    between atoms: N5_12  and  N6_14 
REMARK    5  A    between atoms: N7_17  and  C4_19 
REMARK    6  A    between atoms: C7_22  and  O1_23 
REMARK    7  A    between atoms: C7_22  and  C8_25 
ROOT
HETATM    1  N1  UNL     1     -63.536  87.219  92.475  1.00  0.00    -0.171 NA
HETATM    2  C1  UNL     1     -63.393  87.432  93.624  1.00  0.00     0.196 C 
HETATM    3  N2  UNL     1     -63.199  87.679  94.972  1.00  0.00    -0.125 N 
ATOM      4  H2  UNL     1     -62.649  87.030  95.535  1.00  0.00     0.197 HD
HETATM    5  C2  UNL     1     -63.712  88.727  95.517  1.00  0.00     0.702 C 
HETATM    6  N3  UNL     1     -63.486  88.938  96.903  1.00  0.00    -0.129 N 
ATOM      7  H3  UNL     1     -63.982  88.343  97.567  1.00  0.00     0.205 HD
HETATM    8  N7  UNL     1     -64.486  89.649  94.748  1.00  0.00    -0.216 N 
ATOM      9  H7  UNL     1     -64.354  89.733  93.740  1.00  0.00     0.178 HD
ENDROOT
BRANCH   6  10
HETATM   10  N4  UNL     1     -62.626  89.911  97.410  1.00  0.00    -0.261 N 
ATOM     11  H4  UNL     1     -61.819  90.230  96.875  1.00  0.00     0.190 HD
BRANCH  10  12
HETATM   12  C3  UNL     1     -62.913  90.447  98.704  1.00  0.00     0.205 C 
HETATM   13  S1  UNL     1     -63.237  89.453  99.954  1.00  0.00    -0.038 SA
BRANCH  12  14
HETATM   14  N5  UNL     1     -62.921  91.845  98.923  1.00  0.00    -0.282 N 
ATOM     15  H5  UNL     1     -63.221  92.480  98.183  1.00  0.00     0.189 HD
BRANCH  14  16
HETATM   16  N6  UNL     1     -62.516  92.350 100.158  1.00  0.00    -0.343 N 
ATOM     17  H62 UNL     1     -62.594  91.761 100.987  1.00  0.00     0.176 HD
ATOM     18  H61 UNL     1     -62.146  93.299 100.217  1.00  0.00     0.176 HD
ENDBRANCH  14  16
ENDBRANCH  12  14
ENDBRANCH  10  12
ENDBRANCH   6  10
BRANCH   8  19
HETATM   19  C4  UNL     1     -65.445  90.446  95.430  1.00  0.00     0.143 C 
HETATM   20  C5  UNL     1     -66.486  89.529  96.119  1.00  0.00     0.033 C 
HETATM   21  C6  UNL     1     -67.234  89.633  94.779  1.00  0.00     0.052 C 
HETATM   22  C7  UNL     1     -66.599  91.029  94.687  1.00  0.00     0.156 C 
BRANCH  22  23
HETATM   23  O1  UNL     1     -67.320  91.909  95.522  1.00  0.00    -0.378 OA
ATOM     24  H1  UNL     1     -66.721  92.433  96.041  1.00  0.00     0.211 HD
ENDBRANCH  22  23
BRANCH  22  25
HETATM   25  C8  UNL     1     -66.417  91.563  93.349  1.00  0.00     0.267 C 
HETATM   26  N8  UNL     1     -67.011  92.799  92.991  1.00  0.00    -0.059 NA
HETATM   27  O2  UNL     1     -65.746  90.967  92.490  1.00  0.00    -0.273 OA
ENDBRANCH  22  25
ENDBRANCH   8  19
TORSDOF 7
ENDMDL
