MODEL 1
REMARK VINA RESULT: -7.685408646      0.000      0.000
REMARK  3 active torsions:
REMARK  status: ('A' for Active; 'I' for Inactive)
REMARK    1  A    between atoms: C2_2  and  N1_4 
REMARK       I    between atoms: C4_6  and  N3_8 
REMARK       I    between atoms: N3_8  and  C5_10 
REMARK       I    between atoms: C5_10  and  N4_12 
REMARK    2  A    between atoms: N4_12  and  N5_14 
REMARK    3  A    between atoms: N5_14  and  C6_16 
REMARK       I    between atoms: N7_20  and  C8_21 
ROOT
HETATM    1  N1  UNL     1      20.074  85.421  81.612  1.00  0.00    -0.360 N 
ATOM      2  H1  UNL     1      20.354  85.586  82.579  1.00  0.00     0.162 HD
HETATM    3  C4  UNL     1      20.544  86.246  80.791  1.00  0.00     0.192 C 
HETATM    4  N2  UNL     1      21.402  87.321  81.226  1.00  0.00    -0.063 NA
HETATM    5  N3  UNL     1      20.236  86.139  79.400  1.00  0.00    -0.282 N 
ATOM      6  H3  UNL     1      19.631  85.382  79.082  1.00  0.00     0.173 HD
HETATM    7  C5  UNL     1      20.749  87.054  78.450  1.00  0.00     0.341 C 
HETATM    8  O1  UNL     1      21.491  87.984  78.815  1.00  0.00    -0.245 OA
HETATM    9  N4  UNL     1      20.413  86.897  77.099  1.00  0.00    -0.250 N 
ATOM     10  H4  UNL     1      19.805  86.134  76.800  1.00  0.00     0.192 HD
ENDROOT
BRANCH   9  11
HETATM   11  N5  UNL     1      20.925  87.804  76.170  1.00  0.00    -0.284 N 
ATOM     12  H5  UNL     1      21.738  88.380  76.384  1.00  0.00     0.188 HD
BRANCH  11  13
HETATM   13  C6  UNL     1      20.269  87.891  74.915  1.00  0.00     0.111 C 
HETATM   14  N6  UNL     1      20.789  88.296  73.840  1.00  0.00    -0.361 N 
HETATM   15  C7  UNL     1      19.838  88.251  72.772  1.00  0.00     0.250 C 
ATOM     16  H6  UNL     1      21.753  88.612  73.745  1.00  0.00     0.162 HD
HETATM   17  N7  UNL     1      18.551  88.090  73.407  1.00  0.00    -0.333 N 
HETATM   18  C8  UNL     1      17.243  88.398  72.945  1.00  0.00     0.185 C 
HETATM   19  C9  UNL     1      18.868  87.515  74.697  1.00  0.00     0.204 C 
HETATM   20  N8  UNL     1      16.970  88.454  71.666  1.00  0.00    -0.374 N 
HETATM   21  N9  UNL     1      16.227  88.648  73.887  1.00  0.00    -0.064 NA
ATOM     22  H82 UNL     1      17.705  88.274  70.983  1.00  0.00     0.158 HD
ATOM     23  H81 UNL     1      16.030  88.676  71.334  1.00  0.00     0.158 HD
ENDBRANCH  11  13
ENDBRANCH   9  11
BRANCH   1  24
HETATM   24  C2  UNL     1      19.225  84.302  81.438  1.00  0.00     0.076 C 
HETATM   25  C1  UNL     1      18.127  84.297  82.495  1.00  0.00     0.032 C 
HETATM   26  C3  UNL     1      19.922  82.966  81.368  1.00  0.00     0.032 C 
ENDBRANCH   1  24
TORSDOF 3
ENDMDL
MODEL 2
REMARK VINA RESULT: -7.537562267      1.042      1.259
REMARK  3 active torsions:
REMARK  status: ('A' for Active; 'I' for Inactive)
REMARK    1  A    between atoms: C2_2  and  N1_4 
REMARK       I    between atoms: C4_6  and  N3_8 
REMARK       I    between atoms: N3_8  and  C5_10 
REMARK       I    between atoms: C5_10  and  N4_12 
REMARK    2  A    between atoms: N4_12  and  N5_14 
REMARK    3  A    between atoms: N5_14  and  C6_16 
REMARK       I    between atoms: N7_20  and  C8_21 
ROOT
HETATM    1  N1  UNL     1      20.063  85.474  81.717  1.00  0.00    -0.360 N 
ATOM      2  H1  UNL     1      20.254  85.648  82.704  1.00  0.00     0.162 HD
HETATM    3  C4  UNL     1      20.623  86.280  80.934  1.00  0.00     0.192 C 
HETATM    4  N2  UNL     1      21.454  87.347  81.435  1.00  0.00    -0.063 NA
HETATM    5  N3  UNL     1      20.446  86.158  79.521  1.00  0.00    -0.282 N 
ATOM      6  H3  UNL     1      19.860  85.407  79.157  1.00  0.00     0.173 HD
HETATM    7  C5  UNL     1      21.062  87.052  78.613  1.00  0.00     0.341 C 
HETATM    8  O1  UNL     1      21.782  87.975  79.036  1.00  0.00    -0.245 OA
HETATM    9  N4  UNL     1      20.853  86.882  77.238  1.00  0.00    -0.250 N 
ATOM     10  H4  UNL     1      20.263  86.125  76.892  1.00  0.00     0.192 HD
ENDROOT
BRANCH   9  11
HETATM   11  N5  UNL     1      21.465  87.767  76.351  1.00  0.00    -0.284 N 
ATOM     12  H5  UNL     1      22.456  87.997  76.430  1.00  0.00     0.188 HD
BRANCH  11  13
HETATM   13  C6  UNL     1      20.656  88.336  75.334  1.00  0.00     0.111 C 
HETATM   14  N6  UNL     1      19.959  89.380  75.446  1.00  0.00    -0.361 N 
HETATM   15  C7  UNL     1      19.271  89.661  74.223  1.00  0.00     0.250 C 
ATOM     16  H6  UNL     1      19.894  89.947  76.291  1.00  0.00     0.162 HD
HETATM   17  N7  UNL     1      19.364  88.451  73.441  1.00  0.00    -0.333 N 
HETATM   18  C8  UNL     1      18.557  87.970  72.375  1.00  0.00     0.185 C 
HETATM   19  C9  UNL     1      20.519  87.770  73.987  1.00  0.00     0.204 C 
HETATM   20  N8  UNL     1      17.862  88.789  71.626  1.00  0.00    -0.374 N 
HETATM   21  N9  UNL     1      18.507  86.584  72.127  1.00  0.00    -0.064 NA
ATOM     22  H82 UNL     1      17.897  89.792  71.805  1.00  0.00     0.158 HD
ATOM     23  H81 UNL     1      17.282  88.443  70.861  1.00  0.00     0.158 HD
ENDBRANCH  11  13
ENDBRANCH   9  11
BRANCH   1  24
HETATM   24  C2  UNL     1      19.216  84.367  81.477  1.00  0.00     0.076 C 
HETATM   25  C1  UNL     1      18.089  84.325  82.504  1.00  0.00     0.032 C 
HETATM   26  C3  UNL     1      19.910  83.030  81.373  1.00  0.00     0.032 C 
ENDBRANCH   1  24
TORSDOF 3
ENDMDL
MODEL 3
REMARK VINA RESULT: -7.510266309      2.126      3.376
REMARK  3 active torsions:
REMARK  status: ('A' for Active; 'I' for Inactive)
REMARK    1  A    between atoms: C2_2  and  N1_4 
REMARK       I    between atoms: C4_6  and  N3_8 
REMARK       I    between atoms: N3_8  and  C5_10 
REMARK       I    between atoms: C5_10  and  N4_12 
REMARK    2  A    between atoms: N4_12  and  N5_14 
REMARK    3  A    between atoms: N5_14  and  C6_16 
REMARK       I    between atoms: N7_20  and  C8_21 
ROOT
HETATM    1  N1  UNL     1      21.113  86.317  80.061  1.00  0.00    -0.360 N 
ATOM      2  H1  UNL     1      21.927  86.424  80.667  1.00  0.00     0.162 HD
HETATM    3  C4  UNL     1      21.106  87.084  79.067  1.00  0.00     0.192 C 
HETATM    4  N2  UNL     1      22.180  88.021  78.844  1.00  0.00    -0.063 NA
HETATM    5  N3  UNL     1      20.028  87.045  78.130  1.00  0.00    -0.282 N 
ATOM      6  H3  UNL     1      19.265  86.385  78.279  1.00  0.00     0.173 HD
HETATM    7  C5  UNL     1      19.991  87.897  77.001  1.00  0.00     0.341 C 
HETATM    8  O1  UNL     1      20.913  88.708  76.799  1.00  0.00    -0.245 OA
HETATM    9  N4  UNL     1      18.907  87.813  76.116  1.00  0.00    -0.250 N 
ATOM     10  H4  UNL     1      18.152  87.147  76.282  1.00  0.00     0.192 HD
ENDROOT
BRANCH   9  11
HETATM   11  N5  UNL     1      18.880  88.656  75.005  1.00  0.00    -0.284 N 
ATOM     12  H5  UNL     1      18.100  89.293  74.842  1.00  0.00     0.188 HD
BRANCH  11  13
HETATM   13  C6  UNL     1      19.980  88.594  74.112  1.00  0.00     0.111 C 
HETATM   14  N6  UNL     1      20.513  87.539  73.673  1.00  0.00    -0.361 N 
HETATM   15  C7  UNL     1      21.598  87.849  72.794  1.00  0.00     0.250 C 
ATOM     16  H6  UNL     1      20.211  86.594  73.911  1.00  0.00     0.162 HD
HETATM   17  N7  UNL     1      21.891  89.246  73.020  1.00  0.00    -0.333 N 
HETATM   18  C8  UNL     1      23.075  89.995  72.788  1.00  0.00     0.185 C 
HETATM   19  C9  UNL     1      20.661  89.775  73.570  1.00  0.00     0.204 C 
HETATM   20  N8  UNL     1      23.951  89.621  71.890  1.00  0.00    -0.374 N 
HETATM   21  N9  UNL     1      23.305  91.162  73.543  1.00  0.00    -0.064 NA
ATOM     22  H82 UNL     1      23.785  88.776  71.343  1.00  0.00     0.158 HD
ATOM     23  H81 UNL     1      24.801  90.159  71.723  1.00  0.00     0.158 HD
ENDBRANCH  11  13
ENDBRANCH   9  11
BRANCH   1  24
HETATM   24  C2  UNL     1      20.196  85.330  80.492  1.00  0.00     0.076 C 
HETATM   25  C1  UNL     1      19.432  85.813  81.721  1.00  0.00     0.032 C 
HETATM   26  C3  UNL     1      20.780  83.957  80.717  1.00  0.00     0.032 C 
ENDBRANCH   1  24
TORSDOF 3
ENDMDL
MODEL 4
REMARK VINA RESULT: -7.462992305      2.518      8.378
REMARK  3 active torsions:
REMARK  status: ('A' for Active; 'I' for Inactive)
REMARK    1  A    between atoms: C2_2  and  N1_4 
REMARK       I    between atoms: C4_6  and  N3_8 
REMARK       I    between atoms: N3_8  and  C5_10 
REMARK       I    between atoms: C5_10  and  N4_12 
REMARK    2  A    between atoms: N4_12  and  N5_14 
REMARK    3  A    between atoms: N5_14  and  C6_16 
REMARK       I    between atoms: N7_20  and  C8_21 
ROOT
HETATM    1  N1  UNL     1      20.827  89.798  73.373  1.00  0.00    -0.360 N 
ATOM      2  H1  UNL     1      20.294  90.153  72.579  1.00  0.00     0.162 HD
HETATM    3  C4  UNL     1      20.129  89.236  74.252  1.00  0.00     0.192 C 
HETATM    4  N2  UNL     1      18.698  89.126  74.106  1.00  0.00    -0.063 NA
HETATM    5  N3  UNL     1      20.740  88.690  75.422  1.00  0.00    -0.282 N 
ATOM      6  H3  UNL     1      21.751  88.762  75.534  1.00  0.00     0.173 HD
HETATM    7  C5  UNL     1      19.981  88.051  76.431  1.00  0.00     0.341 C 
HETATM    8  O1  UNL     1      18.746  87.950  76.314  1.00  0.00    -0.245 OA
HETATM    9  N4  UNL     1      20.637  87.534  77.556  1.00  0.00    -0.250 N 
ATOM     10  H4  UNL     1      21.649  87.616  77.651  1.00  0.00     0.192 HD
ENDROOT
BRANCH   9  11
HETATM   11  N5  UNL     1      19.879  86.905  78.545  1.00  0.00    -0.284 N 
ATOM     12  H5  UNL     1      18.887  87.109  78.663  1.00  0.00     0.188 HD
BRANCH  11  13
HETATM   13  C6  UNL     1      20.544  85.970  79.379  1.00  0.00     0.111 C 
HETATM   14  N6  UNL     1      20.004  85.276  80.283  1.00  0.00    -0.361 N 
HETATM   15  C7  UNL     1      20.973  84.441  80.924  1.00  0.00     0.250 C 
ATOM     16  H6  UNL     1      19.014  85.305  80.523  1.00  0.00     0.162 HD
HETATM   17  N7  UNL     1      22.259  84.967  80.529  1.00  0.00    -0.333 N 
HETATM   18  C8  UNL     1      23.536  84.857  81.142  1.00  0.00     0.185 C 
HETATM   19  C9  UNL     1      21.981  85.681  79.301  1.00  0.00     0.204 C 
HETATM   20  N8  UNL     1      23.824  83.856  81.936  1.00  0.00    -0.374 N 
HETATM   21  N9  UNL     1      24.504  85.847  80.888  1.00  0.00    -0.064 NA
ATOM     22  H82 UNL     1      23.123  83.138  82.120  1.00  0.00     0.158 HD
ATOM     23  H81 UNL     1      24.741  83.777  82.376  1.00  0.00     0.158 HD
ENDBRANCH  11  13
ENDBRANCH   9  11
BRANCH   1  24
HETATM   24  C2  UNL     1      22.220  90.029  73.286  1.00  0.00     0.076 C 
HETATM   25  C1  UNL     1      22.501  91.508  73.041  1.00  0.00     0.032 C 
HETATM   26  C3  UNL     1      22.959  89.162  72.296  1.00  0.00     0.032 C 
ENDBRANCH   1  24
TORSDOF 3
ENDMDL
MODEL 5
REMARK VINA RESULT: -7.403205868      2.292      3.291
REMARK  3 active torsions:
REMARK  status: ('A' for Active; 'I' for Inactive)
REMARK    1  A    between atoms: C2_2  and  N1_4 
REMARK       I    between atoms: C4_6  and  N3_8 
REMARK       I    between atoms: N3_8  and  C5_10 
REMARK       I    between atoms: C5_10  and  N4_12 
REMARK    2  A    between atoms: N4_12  and  N5_14 
REMARK    3  A    between atoms: N5_14  and  C6_16 
REMARK       I    between atoms: N7_20  and  C8_21 
ROOT
HETATM    1  N1  UNL     1      23.287  86.989  81.300  1.00  0.00    -0.360 N 
ATOM      2  H1  UNL     1      23.257  86.595  82.240  1.00  0.00     0.162 HD
HETATM    3  C4  UNL     1      22.235  86.821  80.637  1.00  0.00     0.192 C 
HETATM    4  N2  UNL     1      21.105  86.122  81.200  1.00  0.00    -0.063 NA
HETATM    5  N3  UNL     1      22.132  87.320  79.302  1.00  0.00    -0.282 N 
ATOM      6  H3  UNL     1      22.925  87.816  78.895  1.00  0.00     0.173 HD
HETATM    7  C5  UNL     1      20.960  87.146  78.529  1.00  0.00     0.341 C 
HETATM    8  O1  UNL     1      19.980  86.546  79.006  1.00  0.00    -0.245 OA
HETATM    9  N4  UNL     1      20.918  87.659  77.225  1.00  0.00    -0.250 N 
ATOM     10  H4  UNL     1      21.722  88.152  76.835  1.00  0.00     0.192 HD
ENDROOT
BRANCH   9  11
HETATM   11  N5  UNL     1      19.757  87.483  76.471  1.00  0.00    -0.284 N 
ATOM     12  H5  UNL     1      18.859  87.296  76.917  1.00  0.00     0.188 HD
BRANCH  11  13
HETATM   13  C6  UNL     1      19.876  87.574  75.061  1.00  0.00     0.111 C 
HETATM   14  N6  UNL     1      20.892  87.976  74.432  1.00  0.00    -0.361 N 
HETATM   15  C7  UNL     1      20.661  87.936  73.021  1.00  0.00     0.250 C 
ATOM     16  H6  UNL     1      21.760  88.286  74.869  1.00  0.00     0.162 HD
HETATM   17  N7  UNL     1      19.233  87.782  72.868  1.00  0.00    -0.333 N 
HETATM   18  C8  UNL     1      18.377  88.098  71.778  1.00  0.00     0.185 C 
HETATM   19  C9  UNL     1      18.807  87.206  74.125  1.00  0.00     0.204 C 
HETATM   20  N8  UNL     1      18.831  88.155  70.552  1.00  0.00    -0.374 N 
HETATM   21  N9  UNL     1      17.015  88.353  72.031  1.00  0.00    -0.064 NA
ATOM     22  H82 UNL     1      19.817  87.970  70.368  1.00  0.00     0.158 HD
ATOM     23  H81 UNL     1      18.216  88.382  69.770  1.00  0.00     0.158 HD
ENDBRANCH  11  13
ENDBRANCH   9  11
BRANCH   1  24
HETATM   24  C2  UNL     1      24.509  87.626  80.977  1.00  0.00     0.076 C 
HETATM   25  C1  UNL     1      25.592  86.591  80.695  1.00  0.00     0.032 C 
HETATM   26  C3  UNL     1      24.984  88.656  81.973  1.00  0.00     0.032 C 
ENDBRANCH   1  24
TORSDOF 3
ENDMDL
