MODEL 1
REMARK VINA RESULT: -7.620759762      0.000      0.000
REMARK  7 active torsions:
REMARK  status: ('A' for Active; 'I' for Inactive)
REMARK    1  A    between atoms: C2_2  and  C3_3 
REMARK    2  A    between atoms: C3_3  and  C4_4 
REMARK    3  A    between atoms: C4_4  and  C5_5 
REMARK    4  A    between atoms: C6_8  and  C7_9 
REMARK    5  A    between atoms: N4_24  and  C17_25 
REMARK    6  A    between atoms: C17_25  and  C18_26 
REMARK    7  A    between atoms: C18_26  and  C19_27 
ROOT
HETATM    1  C5  UNL     1      14.924   6.776  21.692  1.00  0.00     0.104 A 
HETATM    2  N1  UNL     1      13.650   6.999  21.620  1.00  0.00    -0.340 N 
ATOM      3  H1  UNL     1      13.229   7.923  21.523  1.00  0.00     0.167 HD
HETATM    4  C6  UNL     1      12.938   5.817  21.692  1.00  0.00     0.072 A 
HETATM    5  C14 UNL     1      13.860   4.811  21.825  1.00  0.00     0.087 A 
HETATM    6  C15 UNL     1      13.571   3.565  22.101  1.00  0.00     0.117 C 
HETATM    7  S1  UNL     1      14.648   2.096  22.295  1.00  0.00     0.008 SA
HETATM    8  N2  UNL     1      13.404   0.907  21.894  1.00  0.00    -0.058 NA
HETATM    9  N3  UNL     1      12.228   1.652  21.860  1.00  0.00    -0.258 N 
ATOM     10  H3  UNL     1      11.373   1.326  21.409  1.00  0.00     0.186 HD
HETATM   11  C16 UNL     1      12.331   2.910  22.515  1.00  0.00     0.278 C 
HETATM   12  O1  UNL     1      11.475   3.351  23.322  1.00  0.00    -0.266 OA
HETATM   13  N4  UNL     1      15.076   5.413  21.815  1.00  0.00    -0.330 N 
ENDROOT
BRANCH   4  14
HETATM   14  C7  UNL     1      11.485   5.844  21.545  1.00  0.00    -0.007 A 
HETATM   15  C8  UNL     1      10.777   5.145  20.586  1.00  0.00     0.014 A 
HETATM   16  C9  UNL     1       9.406   5.225  20.471  1.00  0.00     0.007 A 
HETATM   17  C10 UNL     1       8.668   6.020  21.320  1.00  0.00    -0.062 A 
HETATM   18  C11 UNL     1       7.193   6.076  21.159  1.00  0.00     0.048 C 
HETATM   19  C12 UNL     1       9.345   6.730  22.286  1.00  0.00     0.007 A 
HETATM   20  C13 UNL     1      10.718   6.647  22.398  1.00  0.00     0.014 A 
ENDBRANCH   4  14
BRANCH   1  21
HETATM   21  C4  UNL     1      15.895   7.696  21.657  1.00  0.00     0.022 C 
BRANCH  21  22
HETATM   22  C3  UNL     1      16.095   8.550  20.457  1.00  0.00     0.030 C 
BRANCH  22  23
HETATM   23  C2  UNL     1      16.328   7.693  19.232  1.00  0.00    -0.001 C 
HETATM   24  C1  UNL     1      16.692   8.572  18.061  1.00  0.00     0.005 C 
ENDBRANCH  22  23
ENDBRANCH  21  22
ENDBRANCH   1  21
BRANCH  13  25
HETATM   25  C17 UNL     1      16.372   4.840  21.916  1.00  0.00     0.131 C 
BRANCH  25  26
HETATM   26  C18 UNL     1      16.998   4.353  20.663  1.00  0.00     0.020 C 
BRANCH  26  27
HETATM   27  C19 UNL     1      17.946   3.221  20.705  1.00  0.00    -0.003 C 
HETATM   28  C20 UNL     1      17.690   2.238  19.547  1.00  0.00     0.005 C 
ENDBRANCH  26  27
ENDBRANCH  25  26
ENDBRANCH  13  25
TORSDOF 7
ENDMDL
MODEL 2
REMARK VINA RESULT: -7.452169749      2.820      5.812
REMARK  7 active torsions:
REMARK  status: ('A' for Active; 'I' for Inactive)
REMARK    1  A    between atoms: C2_2  and  C3_3 
REMARK    2  A    between atoms: C3_3  and  C4_4 
REMARK    3  A    between atoms: C4_4  and  C5_5 
REMARK    4  A    between atoms: C6_8  and  C7_9 
REMARK    5  A    between atoms: N4_24  and  C17_25 
REMARK    6  A    between atoms: C17_25  and  C18_26 
REMARK    7  A    between atoms: C18_26  and  C19_27 
ROOT
HETATM    1  C5  UNL     1      16.170   2.720  20.109  1.00  0.00     0.104 A 
HETATM    2  N1  UNL     1      16.675   3.892  19.888  1.00  0.00    -0.340 N 
ATOM      3  H1  UNL     1      17.616   4.059  19.530  1.00  0.00     0.167 HD
HETATM    4  C6  UNL     1      15.768   4.886  20.202  1.00  0.00     0.072 A 
HETATM    5  C14 UNL     1      14.636   4.257  20.651  1.00  0.00     0.087 A 
HETATM    6  C15 UNL     1      13.618   4.860  21.211  1.00  0.00     0.117 C 
HETATM    7  S1  UNL     1      12.032   4.202  21.847  1.00  0.00     0.008 SA
HETATM    8  N2  UNL     1      11.127   5.708  21.667  1.00  0.00    -0.058 NA
HETATM    9  N3  UNL     1      12.104   6.651  21.359  1.00  0.00    -0.258 N 
ATOM     10  H3  UNL     1      11.894   7.558  20.942  1.00  0.00     0.186 HD
HETATM   11  C16 UNL     1      13.423   6.230  21.682  1.00  0.00     0.278 C 
HETATM   12  O1  UNL     1      14.259   6.949  22.286  1.00  0.00    -0.266 OA
HETATM   13  N4  UNL     1      14.894   2.927  20.581  1.00  0.00    -0.330 N 
ENDROOT
BRANCH   4  14
HETATM   14  C7  UNL     1      16.115   6.281  19.945  1.00  0.00    -0.007 A 
HETATM   15  C8  UNL     1      15.889   6.942  18.752  1.00  0.00     0.014 A 
HETATM   16  C9  UNL     1      16.261   8.254  18.550  1.00  0.00     0.007 A 
HETATM   17  C10 UNL     1      16.884   8.976  19.542  1.00  0.00    -0.062 A 
HETATM   18  C11 UNL     1      17.266  10.388  19.280  1.00  0.00     0.048 C 
HETATM   19  C12 UNL     1      17.124   8.346  20.742  1.00  0.00     0.007 A 
HETATM   20  C13 UNL     1      16.751   7.032  20.942  1.00  0.00     0.014 A 
ENDBRANCH   4  14
BRANCH   1  21
HETATM   21  C4  UNL     1      16.778   1.543  19.916  1.00  0.00     0.022 C 
BRANCH  21  22
HETATM   22  C3  UNL     1      18.255   1.462  19.765  1.00  0.00     0.030 C 
BRANCH  22  23
HETATM   23  C2  UNL     1      18.917   1.338  21.120  1.00  0.00    -0.001 C 
HETATM   24  C1  UNL     1      19.773   2.554  21.378  1.00  0.00     0.005 C 
ENDBRANCH  22  23
ENDBRANCH  21  22
ENDBRANCH   1  21
BRANCH  13  25
HETATM   25  C17 UNL     1      14.064   1.823  20.920  1.00  0.00     0.131 C 
BRANCH  25  26
HETATM   26  C18 UNL     1      14.323   1.154  22.217  1.00  0.00     0.020 C 
BRANCH  26  27
HETATM   27  C19 UNL     1      14.494  -0.312  22.268  1.00  0.00    -0.003 C 
HETATM   28  C20 UNL     1      15.895  -0.692  22.783  1.00  0.00     0.005 C 
ENDBRANCH  26  27
ENDBRANCH  25  26
ENDBRANCH  13  25
TORSDOF 7
ENDMDL
MODEL 3
REMARK VINA RESULT: -7.449769046      2.838      5.864
REMARK  7 active torsions:
REMARK  status: ('A' for Active; 'I' for Inactive)
REMARK    1  A    between atoms: C2_2  and  C3_3 
REMARK    2  A    between atoms: C3_3  and  C4_4 
REMARK    3  A    between atoms: C4_4  and  C5_5 
REMARK    4  A    between atoms: C6_8  and  C7_9 
REMARK    5  A    between atoms: N4_24  and  C17_25 
REMARK    6  A    between atoms: C17_25  and  C18_26 
REMARK    7  A    between atoms: C18_26  and  C19_27 
ROOT
HETATM    1  C5  UNL     1      16.164   2.691  20.095  1.00  0.00     0.104 A 
HETATM    2  N1  UNL     1      16.701   3.856  19.915  1.00  0.00    -0.340 N 
ATOM      3  H1  UNL     1      17.649   4.010  19.573  1.00  0.00     0.167 HD
HETATM    4  C6  UNL     1      15.813   4.863  20.247  1.00  0.00     0.072 A 
HETATM    5  C14 UNL     1      14.661   4.248  20.664  1.00  0.00     0.087 A 
HETATM    6  C15 UNL     1      13.651   4.860  21.228  1.00  0.00     0.117 C 
HETATM    7  S1  UNL     1      12.042   4.223  21.827  1.00  0.00     0.008 SA
HETATM    8  N2  UNL     1      11.175   5.755  21.680  1.00  0.00    -0.058 NA
HETATM    9  N3  UNL     1      12.179   6.682  21.411  1.00  0.00    -0.258 N 
ATOM     10  H3  UNL     1      11.996   7.606  21.017  1.00  0.00     0.186 HD
HETATM   11  C16 UNL     1      13.484   6.220  21.737  1.00  0.00     0.278 C 
HETATM   12  O1  UNL     1      14.328   6.901  22.371  1.00  0.00    -0.266 OA
HETATM   13  N4  UNL     1      14.887   2.915  20.558  1.00  0.00    -0.330 N 
ENDROOT
BRANCH   4  14
HETATM   14  C7  UNL     1      16.198   6.256  20.034  1.00  0.00    -0.007 A 
HETATM   15  C8  UNL     1      16.797   7.061  20.984  1.00  0.00     0.014 A 
HETATM   16  C9  UNL     1      17.116   8.380  20.743  1.00  0.00     0.007 A 
HETATM   17  C10 UNL     1      16.847   8.964  19.525  1.00  0.00    -0.062 A 
HETATM   18  C11 UNL     1      17.209  10.389  19.310  1.00  0.00     0.048 C 
HETATM   19  C12 UNL     1      16.250   8.188  18.558  1.00  0.00     0.007 A 
HETATM   20  C13 UNL     1      15.931   6.867  18.803  1.00  0.00     0.014 A 
ENDBRANCH   4  14
BRANCH   1  21
HETATM   21  C4  UNL     1      16.746   1.505  19.876  1.00  0.00     0.022 C 
BRANCH  21  22
HETATM   22  C3  UNL     1      18.209   1.326  20.067  1.00  0.00     0.030 C 
BRANCH  22  23
HETATM   23  C2  UNL     1      18.927   1.395  18.737  1.00  0.00    -0.001 C 
HETATM   24  C1  UNL     1      20.214   2.169  18.896  1.00  0.00     0.005 C 
ENDBRANCH  22  23
ENDBRANCH  21  22
ENDBRANCH   1  21
BRANCH  13  25
HETATM   25  C17 UNL     1      14.027   1.823  20.855  1.00  0.00     0.131 C 
BRANCH  25  26
HETATM   26  C18 UNL     1      14.239   1.125  22.146  1.00  0.00     0.020 C 
BRANCH  26  27
HETATM   27  C19 UNL     1      14.378  -0.345  22.174  1.00  0.00    -0.003 C 
HETATM   28  C20 UNL     1      15.652  -0.769  22.928  1.00  0.00     0.005 C 
ENDBRANCH  26  27
ENDBRANCH  25  26
ENDBRANCH  13  25
TORSDOF 7
ENDMDL
MODEL 4
REMARK VINA RESULT: -7.445610717      2.008      6.258
REMARK  7 active torsions:
REMARK  status: ('A' for Active; 'I' for Inactive)
REMARK    1  A    between atoms: C2_2  and  C3_3 
REMARK    2  A    between atoms: C3_3  and  C4_4 
REMARK    3  A    between atoms: C4_4  and  C5_5 
REMARK    4  A    between atoms: C6_8  and  C7_9 
REMARK    5  A    between atoms: N4_24  and  C17_25 
REMARK    6  A    between atoms: C17_25  and  C18_26 
REMARK    7  A    between atoms: C18_26  and  C19_27 
ROOT
HETATM    1  C5  UNL     1      12.243   6.038  21.788  1.00  0.00     0.104 A 
HETATM    2  N1  UNL     1      12.935   6.916  21.133  1.00  0.00    -0.340 N 
ATOM      3  H1  UNL     1      12.575   7.817  20.817  1.00  0.00     0.167 HD
HETATM    4  C6  UNL     1      14.225   6.468  20.922  1.00  0.00     0.072 A 
HETATM    5  C14 UNL     1      14.306   5.223  21.490  1.00  0.00     0.087 A 
HETATM    6  C15 UNL     1      15.314   4.400  21.345  1.00  0.00     0.117 C 
HETATM    7  S1  UNL     1      15.610   2.728  22.030  1.00  0.00     0.008 SA
HETATM    8  N2  UNL     1      17.372   2.802  21.931  1.00  0.00    -0.058 NA
HETATM    9  N3  UNL     1      17.617   3.960  21.198  1.00  0.00    -0.258 N 
ATOM     10  H3  UNL     1      18.523   4.430  21.183  1.00  0.00     0.186 HD
HETATM   11  C16 UNL     1      16.487   4.425  20.472  1.00  0.00     0.278 C 
HETATM   12  O1  UNL     1      16.528   4.784  19.269  1.00  0.00    -0.266 OA
HETATM   13  N4  UNL     1      13.085   4.974  22.025  1.00  0.00    -0.330 N 
ENDROOT
BRANCH   4  14
HETATM   14  C7  UNL     1      15.192   7.349  20.273  1.00  0.00    -0.007 A 
HETATM   15  C8  UNL     1      15.924   8.327  20.918  1.00  0.00     0.014 A 
HETATM   16  C9  UNL     1      16.807   9.153  20.254  1.00  0.00     0.007 A 
HETATM   17  C10 UNL     1      17.000   9.038  18.896  1.00  0.00    -0.062 A 
HETATM   18  C11 UNL     1      17.961   9.949  18.223  1.00  0.00     0.048 C 
HETATM   19  C12 UNL     1      16.285   8.073  18.224  1.00  0.00     0.007 A 
HETATM   20  C13 UNL     1      15.402   7.248  18.892  1.00  0.00     0.014 A 
ENDBRANCH   4  14
BRANCH   1  21
HETATM   21  C4  UNL     1      10.961   6.148  22.155  1.00  0.00     0.022 C 
BRANCH  21  22
HETATM   22  C3  UNL     1       9.864   5.878  21.189  1.00  0.00     0.030 C 
BRANCH  22  23
HETATM   23  C2  UNL     1       8.554   5.680  21.920  1.00  0.00    -0.001 C 
HETATM   24  C1  UNL     1       7.423   6.243  21.094  1.00  0.00     0.005 C 
ENDBRANCH  22  23
ENDBRANCH  21  22
ENDBRANCH   1  21
BRANCH  13  25
HETATM   25  C17 UNL     1      12.621   3.833  22.734  1.00  0.00     0.131 C 
BRANCH  25  26
HETATM   26  C18 UNL     1      11.847   2.828  21.966  1.00  0.00     0.020 C 
BRANCH  26  27
HETATM   27  C19 UNL     1      10.530   2.377  22.462  1.00  0.00    -0.003 C 
HETATM   28  C20 UNL     1      10.273   2.880  23.895  1.00  0.00     0.005 C 
ENDBRANCH  26  27
ENDBRANCH  25  26
ENDBRANCH  13  25
TORSDOF 7
ENDMDL
MODEL 5
REMARK VINA RESULT: -7.422594360      1.374      2.075
REMARK  7 active torsions:
REMARK  status: ('A' for Active; 'I' for Inactive)
REMARK    1  A    between atoms: C2_2  and  C3_3 
REMARK    2  A    between atoms: C3_3  and  C4_4 
REMARK    3  A    between atoms: C4_4  and  C5_5 
REMARK    4  A    between atoms: C6_8  and  C7_9 
REMARK    5  A    between atoms: N4_24  and  C17_25 
REMARK    6  A    between atoms: C17_25  and  C18_26 
REMARK    7  A    between atoms: C18_26  and  C19_27 
ROOT
HETATM    1  C5  UNL     1      13.564   6.136  20.920  1.00  0.00     0.104 A 
HETATM    2  N1  UNL     1      12.355   6.589  21.014  1.00  0.00    -0.340 N 
ATOM      3  H1  UNL     1      12.097   7.572  20.930  1.00  0.00     0.167 HD
HETATM    4  C6  UNL     1      11.460   5.560  21.242  1.00  0.00     0.072 A 
HETATM    5  C14 UNL     1      12.196   4.405  21.295  1.00  0.00     0.087 A 
HETATM    6  C15 UNL     1      11.731   3.240  21.669  1.00  0.00     0.117 C 
HETATM    7  S1  UNL     1      12.542   1.602  21.784  1.00  0.00     0.008 SA
HETATM    8  N2  UNL     1      11.060   0.655  21.618  1.00  0.00    -0.058 NA
HETATM    9  N3  UNL     1      10.045   1.604  21.710  1.00  0.00    -0.258 N 
ATOM     10  H3  UNL     1       9.089   1.431  21.397  1.00  0.00     0.186 HD
HETATM   11  C16 UNL     1      10.466   2.835  22.282  1.00  0.00     0.278 C 
HETATM   12  O1  UNL     1       9.829   3.446  23.176  1.00  0.00    -0.266 OA
HETATM   13  N4  UNL     1      13.485   4.771  21.087  1.00  0.00    -0.330 N 
ENDROOT
BRANCH   4  14
HETATM   14  C7  UNL     1      10.030   5.853  21.295  1.00  0.00    -0.007 A 
HETATM   15  C8  UNL     1       9.414   6.591  22.288  1.00  0.00     0.014 A 
HETATM   16  C9  UNL     1       8.054   6.817  22.308  1.00  0.00     0.007 A 
HETATM   17  C10 UNL     1       7.236   6.308  21.324  1.00  0.00    -0.062 A 
HETATM   18  C11 UNL     1       5.776   6.577  21.387  1.00  0.00     0.048 C 
HETATM   19  C12 UNL     1       7.820   5.568  20.322  1.00  0.00     0.007 A 
HETATM   20  C13 UNL     1       9.181   5.343  20.305  1.00  0.00     0.014 A 
ENDBRANCH   4  14
BRANCH   1  21
HETATM   21  C4  UNL     1      14.670   6.859  20.707  1.00  0.00     0.022 C 
BRANCH  21  22
HETATM   22  C3  UNL     1      15.368   7.536  21.831  1.00  0.00     0.030 C 
BRANCH  22  23
HETATM   23  C2  UNL     1      16.765   7.945  21.414  1.00  0.00    -0.001 C 
HETATM   24  C1  UNL     1      16.683   8.951  20.292  1.00  0.00     0.005 C 
ENDBRANCH  22  23
ENDBRANCH  21  22
ENDBRANCH   1  21
BRANCH  13  25
HETATM   25  C17 UNL     1      14.659   3.970  21.037  1.00  0.00     0.131 C 
BRANCH  25  26
HETATM   26  C18 UNL     1      15.472   3.882  22.273  1.00  0.00     0.020 C 
BRANCH  26  27
HETATM   27  C19 UNL     1      16.905   4.242  22.239  1.00  0.00    -0.003 C 
HETATM   28  C20 UNL     1      17.537   3.878  20.883  1.00  0.00     0.005 C 
ENDBRANCH  26  27
ENDBRANCH  25  26
ENDBRANCH  13  25
TORSDOF 7
ENDMDL
