MODEL 1
REMARK VINA RESULT: -4.460788892      0.000      0.000
REMARK  2 active torsions:
REMARK  status: ('A' for Active; 'I' for Inactive)
REMARK    1  A    between atoms: N2_3  and  C2_5 
REMARK    2  A    between atoms: C2_5  and  O1_6 
ROOT
HETATM    1  N1  UNL     1      -4.734   0.244  14.546  1.00  0.00    -0.172 NA
HETATM    2  C1  UNL     1      -4.906   0.818  15.546  1.00  0.00     0.181 C 
HETATM    3  N2  UNL     1      -5.088   1.511  16.743  1.00  0.00    -0.269 N 
ATOM      4  H2  UNL     1      -4.521   2.337  16.934  1.00  0.00     0.177 HD
ENDROOT
BRANCH   3   5
HETATM    5  C2  UNL     1      -6.055   1.090  17.706  1.00  0.00     0.306 C 
HETATM    6 CL1  UNL     1      -7.664   1.167  16.904  1.00  0.00    -0.046 Cl
HETATM    7 CL2  UNL     1      -6.093   2.118  19.146  1.00  0.00    -0.046 Cl
BRANCH   5   8
HETATM    8  O1  UNL     1      -5.854  -0.245  18.048  1.00  0.00    -0.345 OA
ATOM      9  H1  UNL     1      -6.406  -0.488  18.782  1.00  0.00     0.215 HD
ENDBRANCH   5   8
ENDBRANCH   3   5
TORSDOF 2
ENDMDL
MODEL 2
REMARK VINA RESULT: -4.444742850      1.287      1.287
REMARK  2 active torsions:
REMARK  status: ('A' for Active; 'I' for Inactive)
REMARK    1  A    between atoms: N2_3  and  C2_5 
REMARK    2  A    between atoms: C2_5  and  O1_6 
ROOT
HETATM    1  N1  UNL     1      -4.814  -0.348  15.300  1.00  0.00    -0.172 NA
HETATM    2  C1  UNL     1      -4.963   0.539  16.042  1.00  0.00     0.181 C 
HETATM    3  N2  UNL     1      -5.118   1.598  16.936  1.00  0.00    -0.269 N 
ATOM      4  H2  UNL     1      -4.319   2.194  17.149  1.00  0.00     0.177 HD
ENDROOT
BRANCH   3   5
HETATM    5  C2  UNL     1      -6.375   1.866  17.560  1.00  0.00     0.306 C 
HETATM    6 CL1  UNL     1      -6.992   3.404  16.859  1.00  0.00    -0.046 Cl
HETATM    7 CL2  UNL     1      -6.251   2.057  19.315  1.00  0.00    -0.046 Cl
BRANCH   5   8
HETATM    8  O1  UNL     1      -7.305   0.885  17.226  1.00  0.00    -0.345 OA
ATOM      9  H1  UNL     1      -8.187   1.180  17.423  1.00  0.00     0.215 HD
ENDBRANCH   5   8
ENDBRANCH   3   5
TORSDOF 2
ENDMDL
MODEL 3
REMARK VINA RESULT: -4.232778371      3.035      3.607
REMARK  2 active torsions:
REMARK  status: ('A' for Active; 'I' for Inactive)
REMARK    1  A    between atoms: N2_3  and  C2_5 
REMARK    2  A    between atoms: C2_5  and  O1_6 
ROOT
HETATM    1  N1  UNL     1      -7.060   0.445  17.253  1.00  0.00    -0.172 NA
HETATM    2  C1  UNL     1      -6.467   1.313  16.750  1.00  0.00     0.181 C 
HETATM    3  N2  UNL     1      -5.777   2.362  16.141  1.00  0.00    -0.269 N 
ATOM      4  H2  UNL     1      -6.208   3.286  16.100  1.00  0.00     0.177 HD
ENDROOT
BRANCH   3   5
HETATM    5  C2  UNL     1      -4.481   2.170  15.575  1.00  0.00     0.306 C 
HETATM    6 CL1  UNL     1      -3.782   3.804  15.295  1.00  0.00    -0.046 Cl
HETATM    7 CL2  UNL     1      -4.520   1.301  14.033  1.00  0.00    -0.046 Cl
BRANCH   5   8
HETATM    8  O1  UNL     1      -3.639   1.537  16.486  1.00  0.00    -0.345 OA
ATOM      9  H1  UNL     1      -2.879   2.077  16.669  1.00  0.00     0.215 HD
ENDBRANCH   5   8
ENDBRANCH   3   5
TORSDOF 2
ENDMDL
MODEL 4
REMARK VINA RESULT: -4.207519706      1.677      2.281
REMARK  2 active torsions:
REMARK  status: ('A' for Active; 'I' for Inactive)
REMARK    1  A    between atoms: N2_3  and  C2_5 
REMARK    2  A    between atoms: C2_5  and  O1_6 
ROOT
HETATM    1  N1  UNL     1      -4.841  -0.299  15.491  1.00  0.00    -0.172 NA
HETATM    2  C1  UNL     1      -5.011   0.697  16.071  1.00  0.00     0.181 C 
HETATM    3  N2  UNL     1      -5.193   1.889  16.773  1.00  0.00    -0.269 N 
ATOM      4  H2  UNL     1      -4.406   2.526  16.888  1.00  0.00     0.177 HD
ENDROOT
BRANCH   3   5
HETATM    5  C2  UNL     1      -6.460   2.235  17.333  1.00  0.00     0.306 C 
HETATM    6 CL1  UNL     1      -6.255   2.261  19.120  1.00  0.00    -0.046 Cl
HETATM    7 CL2  UNL     1      -7.736   1.076  16.929  1.00  0.00    -0.046 Cl
BRANCH   5   8
HETATM    8  O1  UNL     1      -6.822   3.528  16.963  1.00  0.00    -0.345 OA
ATOM      9  H1  UNL     1      -6.049   4.052  16.785  1.00  0.00     0.215 HD
ENDBRANCH   5   8
ENDBRANCH   3   5
TORSDOF 2
ENDMDL
MODEL 5
REMARK VINA RESULT: -4.177494474      1.432      1.599
REMARK  2 active torsions:
REMARK  status: ('A' for Active; 'I' for Inactive)
REMARK    1  A    between atoms: N2_3  and  C2_5 
REMARK    2  A    between atoms: C2_5  and  O1_6 
ROOT
HETATM    1  N1  UNL     1      -6.268   3.399  14.781  1.00  0.00    -0.172 NA
HETATM    2  C1  UNL     1      -5.804   2.809  15.673  1.00  0.00     0.181 C 
HETATM    3  N2  UNL     1      -5.231   2.098  16.727  1.00  0.00    -0.269 N 
ATOM      4  H2  UNL     1      -4.216   2.086  16.828  1.00  0.00     0.177 HD
ENDROOT
BRANCH   3   5
HETATM    5  C2  UNL     1      -6.035   1.387  17.668  1.00  0.00     0.306 C 
HETATM    6 CL1  UNL     1      -7.652   1.159  16.912  1.00  0.00    -0.046 Cl
HETATM    7 CL2  UNL     1      -6.245   2.256  19.196  1.00  0.00    -0.046 Cl
BRANCH   5   8
HETATM    8  O1  UNL     1      -5.522   0.110  17.883  1.00  0.00    -0.345 OA
ATOM      9  H1  UNL     1      -5.287  -0.006  18.797  1.00  0.00     0.215 HD
ENDBRANCH   5   8
ENDBRANCH   3   5
TORSDOF 2
ENDMDL
