MODEL 1
REMARK VINA RESULT: -4.946733079      0.000      0.000
REMARK  4 active torsions:
REMARK  status: ('A' for Active; 'I' for Inactive)
REMARK    1  A    between atoms: N1_1  and  C1_4 
REMARK    2  A    between atoms: C3_9  and  O1_10 
REMARK    3  A    between atoms: O1_10  and  S1_11 
REMARK    4  A    between atoms: S1_11  and  N4_12 
ROOT
HETATM    1  C1  UNL     1      46.409  -4.634  22.864  1.00  0.00     0.680 A 
HETATM    2  N2  UNL     1      46.280  -4.464  21.539  1.00  0.00    -0.176 N 
ATOM      3  H2  UNL     1      46.112  -5.274  20.942  1.00  0.00     0.185 HD
HETATM    4  C2  UNL     1      46.369  -3.241  20.985  1.00  0.00     0.172 A 
HETATM    5  N3  UNL     1      46.223  -3.135  19.583  1.00  0.00    -0.079 NA
HETATM    6  C3  UNL     1      46.599  -2.103  21.759  1.00  0.00     0.200 A 
HETATM    7  C4  UNL     1      46.729  -2.304  23.113  1.00  0.00     0.298 A 
HETATM    8  O4  UNL     1      46.936  -1.298  23.835  1.00  0.00    -0.264 OA
HETATM    9  N5  UNL     1      46.634  -3.539  23.641  1.00  0.00    -0.154 N 
ATOM     10  H5  UNL     1      46.734  -3.657  24.649  1.00  0.00     0.187 HD
ENDROOT
BRANCH   6  11
HETATM   11  O1  UNL     1      46.676  -0.903  21.120  1.00  0.00    -0.208 OA
BRANCH  11  12
HETATM   12  S1  UNL     1      45.512   0.299  21.098  1.00  0.00     0.360 S 
HETATM   13  O2  UNL     1      45.927   1.322  20.051  1.00  0.00    -0.176 OA
HETATM   14  O3  UNL     1      44.160  -0.209  20.657  1.00  0.00    -0.176 OA
BRANCH  12  15
HETATM   15  N4  UNL     1      45.372   1.146  22.590  1.00  0.00    -0.305 N 
ATOM     16  H42 UNL     1      45.852   0.843  23.437  1.00  0.00     0.171 HD
ATOM     17  H41 UNL     1      44.769   1.968  22.536  1.00  0.00     0.171 HD
ENDBRANCH  12  15
ENDBRANCH  11  12
ENDBRANCH   6  11
BRANCH   1  18
HETATM   18  N1  UNL     1      46.321  -5.818  23.391  1.00  0.00    -0.234 N 
ATOM     19  H12 UNL     1      46.432  -6.655  22.819  1.00  0.00     0.174 HD
ATOM     20  H11 UNL     1      46.140  -5.931  24.389  1.00  0.00     0.174 HD
ENDBRANCH   1  18
TORSDOF 4
ENDMDL
MODEL 2
REMARK VINA RESULT: -4.920328986      1.195      1.485
REMARK  4 active torsions:
REMARK  status: ('A' for Active; 'I' for Inactive)
REMARK    1  A    between atoms: N1_1  and  C1_4 
REMARK    2  A    between atoms: C3_9  and  O1_10 
REMARK    3  A    between atoms: O1_10  and  S1_11 
REMARK    4  A    between atoms: S1_11  and  N4_12 
ROOT
HETATM    1  C1  UNL     1      46.404  -4.623  22.828  1.00  0.00     0.680 A 
HETATM    2  N2  UNL     1      46.360  -4.550  21.488  1.00  0.00    -0.176 N 
ATOM      3  H2  UNL     1      46.247  -5.404  20.942  1.00  0.00     0.185 HD
HETATM    4  C2  UNL     1      46.463  -3.368  20.854  1.00  0.00     0.172 A 
HETATM    5  N3  UNL     1      46.407  -3.365  19.442  1.00  0.00    -0.079 NA
HETATM    6  C3  UNL     1      46.620  -2.173  21.557  1.00  0.00     0.200 A 
HETATM    7  C4  UNL     1      46.663  -2.274  22.927  1.00  0.00     0.298 A 
HETATM    8  O4  UNL     1      46.803  -1.214  23.586  1.00  0.00    -0.264 OA
HETATM    9  N5  UNL     1      46.557  -3.470  23.536  1.00  0.00    -0.154 N 
ATOM     10  H5  UNL     1      46.592  -3.513  24.555  1.00  0.00     0.187 HD
ENDROOT
BRANCH   6  11
HETATM   11  O1  UNL     1      46.716  -1.020  20.838  1.00  0.00    -0.208 OA
BRANCH  11  12
HETATM   12  S1  UNL     1      45.452  -0.099  20.244  1.00  0.00     0.360 S 
HETATM   13  O2  UNL     1      44.403   0.005  21.341  1.00  0.00    -0.176 OA
HETATM   14  O3  UNL     1      45.863   1.322  19.939  1.00  0.00    -0.176 OA
BRANCH  12  15
HETATM   15  N4  UNL     1      44.673  -0.800  18.879  1.00  0.00    -0.305 N 
ATOM     16  H42 UNL     1      45.166  -1.401  18.218  1.00  0.00     0.171 HD
ATOM     17  H41 UNL     1      43.686  -0.555  18.803  1.00  0.00     0.171 HD
ENDBRANCH  12  15
ENDBRANCH  11  12
ENDBRANCH   6  11
BRANCH   1  18
HETATM   18  N1  UNL     1      46.304  -5.768  23.433  1.00  0.00    -0.234 N 
ATOM     19  H12 UNL     1      46.983  -6.509  23.264  1.00  0.00     0.174 HD
ATOM     20  H11 UNL     1      45.542  -5.945  24.088  1.00  0.00     0.174 HD
ENDBRANCH   1  18
TORSDOF 4
ENDMDL
MODEL 3
REMARK VINA RESULT: -4.914997827      2.487      3.092
REMARK  4 active torsions:
REMARK  status: ('A' for Active; 'I' for Inactive)
REMARK    1  A    between atoms: N1_1  and  C1_4 
REMARK    2  A    between atoms: C3_9  and  O1_10 
REMARK    3  A    between atoms: O1_10  and  S1_11 
REMARK    4  A    between atoms: S1_11  and  N4_12 
ROOT
HETATM    1  C1  UNL     1      48.698  -6.078  22.527  1.00  0.00     0.680 A 
HETATM    2  N2  UNL     1      49.424  -4.954  22.644  1.00  0.00    -0.176 N 
ATOM      3  H2  UNL     1      50.440  -5.003  22.572  1.00  0.00     0.185 HD
HETATM    4  C2  UNL     1      48.832  -3.765  22.855  1.00  0.00     0.172 A 
HETATM    5  N3  UNL     1      49.657  -2.623  22.968  1.00  0.00    -0.079 NA
HETATM    6  C3  UNL     1      47.445  -3.648  22.962  1.00  0.00     0.200 A 
HETATM    7  C4  UNL     1      46.725  -4.812  22.839  1.00  0.00     0.298 A 
HETATM    8  O4  UNL     1      45.474  -4.736  22.930  1.00  0.00    -0.264 OA
HETATM    9  N5  UNL     1      47.343  -5.989  22.627  1.00  0.00    -0.154 N 
ATOM     10  H5  UNL     1      46.782  -6.836  22.540  1.00  0.00     0.187 HD
ENDROOT
BRANCH   6  11
HETATM   11  O1  UNL     1      46.927  -2.407  23.176  1.00  0.00    -0.208 OA
BRANCH  11  12
HETATM   12  S1  UNL     1      46.491  -1.287  22.012  1.00  0.00     0.360 S 
HETATM   13  O2  UNL     1      46.000  -2.056  20.793  1.00  0.00    -0.176 OA
HETATM   14  O3  UNL     1      45.328  -0.425  22.442  1.00  0.00    -0.176 OA
BRANCH  12  15
HETATM   15  N4  UNL     1      47.798  -0.301  21.481  1.00  0.00    -0.305 N 
ATOM     16  H42 UNL     1      47.954   0.640  21.843  1.00  0.00     0.171 HD
ATOM     17  H41 UNL     1      48.389  -0.750  20.781  1.00  0.00     0.171 HD
ENDBRANCH  12  15
ENDBRANCH  11  12
ENDBRANCH   6  11
BRANCH   1  18
HETATM   18  N1  UNL     1      49.277  -7.222  22.323  1.00  0.00    -0.234 N 
ATOM     19  H12 UNL     1      49.261  -7.951  23.036  1.00  0.00     0.174 HD
ATOM     20  H11 UNL     1      49.759  -7.413  21.444  1.00  0.00     0.174 HD
ENDBRANCH   1  18
TORSDOF 4
ENDMDL
MODEL 4
REMARK VINA RESULT: -4.780926684      0.936      2.187
REMARK  4 active torsions:
REMARK  status: ('A' for Active; 'I' for Inactive)
REMARK    1  A    between atoms: N1_1  and  C1_4 
REMARK    2  A    between atoms: C3_9  and  O1_10 
REMARK    3  A    between atoms: O1_10  and  S1_11 
REMARK    4  A    between atoms: S1_11  and  N4_12 
ROOT
HETATM    1  C1  UNL     1      46.439  -4.595  22.872  1.00  0.00     0.680 A 
HETATM    2  N2  UNL     1      46.725  -3.578  23.699  1.00  0.00    -0.176 N 
ATOM      3  H2  UNL     1      46.851  -3.760  24.694  1.00  0.00     0.185 HD
HETATM    4  C2  UNL     1      46.847  -2.321  23.236  1.00  0.00     0.172 A 
HETATM    5  N3  UNL     1      47.150  -1.298  24.164  1.00  0.00    -0.079 NA
HETATM    6  C3  UNL     1      46.682  -2.021  21.883  1.00  0.00     0.200 A 
HETATM    7  C4  UNL     1      46.390  -3.079  21.057  1.00  0.00     0.298 A 
HETATM    8  O4  UNL     1      46.237  -2.840  19.834  1.00  0.00    -0.264 OA
HETATM    9  N5  UNL     1      46.274  -4.328  21.547  1.00  0.00    -0.154 N 
ATOM     10  H5  UNL     1      46.057  -5.094  20.909  1.00  0.00     0.187 HD
ENDROOT
BRANCH   6  11
HETATM   11  O1  UNL     1      46.823  -0.722  21.498  1.00  0.00    -0.208 OA
BRANCH  11  12
HETATM   12  S1  UNL     1      45.634   0.455  21.483  1.00  0.00     0.360 S 
HETATM   13  O2  UNL     1      46.069   1.536  20.505  1.00  0.00    -0.176 OA
HETATM   14  O3  UNL     1      44.314  -0.060  20.958  1.00  0.00    -0.176 OA
BRANCH  12  15
HETATM   15  N4  UNL     1      45.410   1.225  23.005  1.00  0.00    -0.305 N 
ATOM     16  H42 UNL     1      46.193   1.528  23.584  1.00  0.00     0.171 HD
ATOM     17  H41 UNL     1      44.429   1.344  23.261  1.00  0.00     0.171 HD
ENDBRANCH  12  15
ENDBRANCH  11  12
ENDBRANCH   6  11
BRANCH   1  18
HETATM   18  N1  UNL     1      46.323  -5.806  23.326  1.00  0.00    -0.234 N 
ATOM     19  H12 UNL     1      45.917  -5.984  24.245  1.00  0.00     0.174 HD
ATOM     20  H11 UNL     1      46.637  -6.603  22.771  1.00  0.00     0.174 HD
ENDBRANCH   1  18
TORSDOF 4
ENDMDL
MODEL 5
REMARK VINA RESULT: -4.763279866      1.348      2.642
REMARK  4 active torsions:
REMARK  status: ('A' for Active; 'I' for Inactive)
REMARK    1  A    between atoms: N1_1  and  C1_4 
REMARK    2  A    between atoms: C3_9  and  O1_10 
REMARK    3  A    between atoms: O1_10  and  S1_11 
REMARK    4  A    between atoms: S1_11  and  N4_12 
ROOT
HETATM    1  C1  UNL     1      46.397  -4.510  22.848  1.00  0.00     0.680 A 
HETATM    2  N2  UNL     1      46.573  -3.347  23.494  1.00  0.00    -0.176 N 
ATOM      3  H2  UNL     1      46.631  -3.342  24.513  1.00  0.00     0.185 HD
HETATM    4  C2  UNL     1      46.675  -2.187  22.821  1.00  0.00     0.172 A 
HETATM    5  N3  UNL     1      46.860  -1.000  23.566  1.00  0.00    -0.079 NA
HETATM    6  C3  UNL     1      46.601  -2.142  21.428  1.00  0.00     0.200 A 
HETATM    7  C4  UNL     1      46.419  -3.345  20.789  1.00  0.00     0.298 A 
HETATM    8  O4  UNL     1      46.350  -3.336  19.535  1.00  0.00    -0.264 OA
HETATM    9  N5  UNL     1      46.322  -4.492  21.488  1.00  0.00    -0.154 N 
ATOM     10  H5  UNL     1      46.189  -5.370  20.987  1.00  0.00     0.187 HD
ENDROOT
BRANCH   6  11
HETATM   11  O1  UNL     1      46.712  -0.927  20.824  1.00  0.00    -0.208 OA
BRANCH  11  12
HETATM   12  S1  UNL     1      45.479  -0.031  20.134  1.00  0.00     0.360 S 
HETATM   13  O2  UNL     1      44.314  -0.021  21.114  1.00  0.00    -0.176 OA
HETATM   14  O3  UNL     1      45.854   1.418  19.935  1.00  0.00    -0.176 OA
BRANCH  12  15
HETATM   15  N4  UNL     1      44.883  -0.699  18.665  1.00  0.00    -0.305 N 
ATOM     16  H42 UNL     1      44.497  -1.642  18.610  1.00  0.00     0.171 HD
ATOM     17  H41 UNL     1      44.955  -0.064  17.869  1.00  0.00     0.171 HD
ENDBRANCH  12  15
ENDBRANCH  11  12
ENDBRANCH   6  11
BRANCH   1  18
HETATM   18  N1  UNL     1      46.301  -5.625  23.506  1.00  0.00    -0.234 N 
ATOM     19  H12 UNL     1      45.868  -5.653  24.429  1.00  0.00     0.174 HD
ATOM     20  H11 UNL     1      46.657  -6.496  23.110  1.00  0.00     0.174 HD
ENDBRANCH   1  18
TORSDOF 4
ENDMDL
