MODEL 1
REMARK VINA RESULT: -6.519790275      0.000      0.000
REMARK  14 active torsions:
REMARK  status: ('A' for Active; 'I' for Inactive)
REMARK    1  A    between atoms: C2_2  and  C3_3 
REMARK    2  A    between atoms: C3_3  and  C4_4 
REMARK    3  A    between atoms: C5_5  and  C6_6 
REMARK    4  A    between atoms: C5_5  and  C33_40 
REMARK    5  A    between atoms: C7_7  and  C8_8 
REMARK    6  A    between atoms: C9_9  and  C10_10 
REMARK    7  A    between atoms: C19_19  and  N1_20 
REMARK    8  A    between atoms: N1_20  and  C20_21 
REMARK    9  A    between atoms: N1_20  and  C23_24 
REMARK   10  A    between atoms: C20_21  and  C21_22 
REMARK   11  A    between atoms: C23_24  and  C24_25 
REMARK   12  A    between atoms: C27_28  and  O1_29 
REMARK   13  A    between atoms: C28_31  and  O2_32 
REMARK   14  A    between atoms: C30_35  and  O3_36 
ROOT
HETATM    1  C10 UNL     1      -5.555  17.544  25.755  1.00  0.00     0.044 C 
HETATM    2  C11 UNL     1      -6.346  18.444  24.882  1.00  0.00     0.050 C 
HETATM    3  C12 UNL     1      -7.437  17.720  24.162  1.00  0.00    -0.051 A 
HETATM    4  C13 UNL     1      -7.177  17.958  22.808  1.00  0.00     0.015 A 
HETATM    5  C14 UNL     1      -7.981  17.438  21.850  1.00  0.00    -0.051 A 
HETATM    6  C15 UNL     1      -9.057  16.675  22.231  1.00  0.00    -0.049 A 
HETATM    7  C16 UNL     1      -9.304  16.448  23.562  1.00  0.00     0.015 A 
HETATM    8  C17 UNL     1      -8.493  16.969  24.586  1.00  0.00    -0.049 A 
HETATM    9  C18 UNL     1      -9.170  16.446  25.767  1.00  0.00     0.067 C 
HETATM   10  C19 UNL     1      -8.589  16.776  27.094  1.00  0.00     0.119 C 
HETATM   11  C27 UNL     1      -7.179  16.355  27.272  1.00  0.00     0.170 C 
HETATM   12  C28 UNL     1      -6.184  17.495  27.157  1.00  0.00     0.157 C 
HETATM   13  C29 UNL     1      -9.928  16.109  21.176  1.00  0.00     0.070 C 
HETATM   14  C30 UNL     1      -9.127  15.520  20.038  1.00  0.00     0.122 C 
HETATM   15  C31 UNL     1      -7.924  16.315  19.655  1.00  0.00     0.036 C 
HETATM   16  C32 UNL     1      -7.788  17.631  20.390  1.00  0.00     0.041 C 
ENDROOT
BRANCH   1  17
HETATM   17  C9  UNL     1      -4.118  17.756  25.818  1.00  0.00    -0.019 C 
HETATM   18  C8  UNL     1      -3.338  18.030  24.807  1.00  0.00    -0.004 C 
BRANCH  18  19
HETATM   19  C7  UNL     1      -1.867  18.226  25.006  1.00  0.00     0.001 C 
HETATM   20  C6  UNL     1      -1.175  18.861  24.119  1.00  0.00     0.018 C 
BRANCH  20  21
HETATM   21  C5  UNL     1       0.260  19.171  24.098  1.00  0.00     0.037 C 
HETATM   22  C4  UNL     1       0.659  20.286  24.721  1.00  0.00    -0.008 C 
BRANCH  22  23
HETATM   23  C3  UNL     1       1.980  20.862  24.875  1.00  0.00     0.028 C 
BRANCH  23  24
HETATM   24  C2  UNL     1       1.856  22.169  25.659  1.00  0.00    -0.001 C 
HETATM   25  C1  UNL     1       1.163  23.221  24.839  1.00  0.00     0.005 C 
ENDBRANCH  23  24
ENDBRANCH  22  23
BRANCH  21  26
HETATM   26  C33 UNL     1       1.231  18.324  23.470  1.00  0.00     0.209 C 
HETATM   27  O4  UNL     1       1.646  18.418  22.289  1.00  0.00    -0.644 OA
HETATM   28  O5  UNL     1       1.817  17.266  24.174  1.00  0.00    -0.644 OA
ENDBRANCH  21  26
ENDBRANCH  20  21
ENDBRANCH  18  19
ENDBRANCH   1  17
BRANCH  12  29
HETATM   29  O2  UNL     1      -6.730  18.740  27.356  1.00  0.00    -0.392 OA
ATOM     30  H2  UNL     1      -6.513  18.971  28.252  1.00  0.00     0.210 HD
ENDBRANCH  12  29
BRANCH  11  31
HETATM   31  O1  UNL     1      -6.878  15.651  28.410  1.00  0.00    -0.391 OA
ATOM     32  H1  UNL     1      -5.978  15.684  28.712  1.00  0.00     0.210 HD
ENDBRANCH  11  31
BRANCH  10  33
HETATM   33  N1  UNL     1      -9.519  16.383  28.110  1.00  0.00    -0.385 N 
BRANCH  33  34
HETATM   34  C20 UNL     1      -9.957  17.383  29.000  1.00  0.00     0.058 C 
BRANCH  34  35
HETATM   35  C21 UNL     1      -9.255  17.484  30.323  1.00  0.00     0.040 C 
HETATM   36  C22 UNL     1      -9.187  16.211  31.089  1.00  0.00     0.010 C 
ENDBRANCH  34  35
ENDBRANCH  33  34
BRANCH  33  37
HETATM   37  C23 UNL     1     -10.488  15.427  27.726  1.00  0.00     0.127 C 
BRANCH  37  38
HETATM   38  C24 UNL     1     -11.878  15.684  28.277  1.00  0.00     0.003 A 
HETATM   39  C25 UNL     1     -13.099  15.215  27.627  1.00  0.00     0.007 A 
HETATM   40  C26 UNL     1     -12.617  14.434  28.795  1.00  0.00     0.007 A 
ENDBRANCH  37  38
ENDBRANCH  33  37
ENDBRANCH  10  33
BRANCH  14  41
HETATM   41  O3  UNL     1      -9.992  15.290  18.982  1.00  0.00    -0.395 OA
ATOM     42  H3  UNL     1      -9.482  14.958  18.253  1.00  0.00     0.210 HD
ENDBRANCH  14  41
TORSDOF 14
ENDMDL
MODEL 2
REMARK VINA RESULT: -6.494840691      1.691      2.756
REMARK  14 active torsions:
REMARK  status: ('A' for Active; 'I' for Inactive)
REMARK    1  A    between atoms: C2_2  and  C3_3 
REMARK    2  A    between atoms: C3_3  and  C4_4 
REMARK    3  A    between atoms: C5_5  and  C6_6 
REMARK    4  A    between atoms: C5_5  and  C33_40 
REMARK    5  A    between atoms: C7_7  and  C8_8 
REMARK    6  A    between atoms: C9_9  and  C10_10 
REMARK    7  A    between atoms: C19_19  and  N1_20 
REMARK    8  A    between atoms: N1_20  and  C20_21 
REMARK    9  A    between atoms: N1_20  and  C23_24 
REMARK   10  A    between atoms: C20_21  and  C21_22 
REMARK   11  A    between atoms: C23_24  and  C24_25 
REMARK   12  A    between atoms: C27_28  and  O1_29 
REMARK   13  A    between atoms: C28_31  and  O2_32 
REMARK   14  A    between atoms: C30_35  and  O3_36 
ROOT
HETATM    1  C10 UNL     1      -5.631  16.885  25.551  1.00  0.00     0.044 C 
HETATM    2  C11 UNL     1      -6.300  17.903  24.707  1.00  0.00     0.050 C 
HETATM    3  C12 UNL     1      -7.518  17.366  24.029  1.00  0.00    -0.051 A 
HETATM    4  C13 UNL     1      -7.273  17.565  22.666  1.00  0.00     0.015 A 
HETATM    5  C14 UNL     1      -8.184  17.184  21.738  1.00  0.00    -0.051 A 
HETATM    6  C15 UNL     1      -9.352  16.601  22.160  1.00  0.00    -0.049 A 
HETATM    7  C16 UNL     1      -9.584  16.409  23.499  1.00  0.00     0.015 A 
HETATM    8  C17 UNL     1      -8.663  16.790  24.492  1.00  0.00    -0.049 A 
HETATM    9  C18 UNL     1      -9.371  16.376  25.698  1.00  0.00     0.067 C 
HETATM   10  C19 UNL     1      -8.697  16.603  27.002  1.00  0.00     0.119 C 
HETATM   11  C27 UNL     1      -7.366  15.962  27.128  1.00  0.00     0.170 C 
HETATM   12  C28 UNL     1      -6.207  16.930  26.975  1.00  0.00     0.157 C 
HETATM   13  C29 UNL     1     -10.341  16.185  21.138  1.00  0.00     0.070 C 
HETATM   14  C30 UNL     1      -9.685  15.482  19.972  1.00  0.00     0.122 C 
HETATM   15  C31 UNL     1      -8.386  16.078  19.544  1.00  0.00     0.036 C 
HETATM   16  C32 UNL     1      -8.016  17.352  20.272  1.00  0.00     0.041 C 
ENDROOT
BRANCH   1  17
HETATM   17  C9  UNL     1      -4.176  16.865  25.561  1.00  0.00    -0.019 C 
HETATM   18  C8  UNL     1      -3.400  17.053  24.528  1.00  0.00    -0.004 C 
BRANCH  18  19
HETATM   19  C7  UNL     1      -1.910  17.007  24.672  1.00  0.00     0.001 C 
HETATM   20  C6  UNL     1      -1.195  16.398  23.784  1.00  0.00     0.018 C 
BRANCH  20  21
HETATM   21  C5  UNL     1       0.261  16.225  23.715  1.00  0.00     0.037 C 
HETATM   22  C4  UNL     1       0.737  14.976  23.782  1.00  0.00    -0.008 C 
BRANCH  22  23
HETATM   23  C3  UNL     1       2.098  14.480  23.745  1.00  0.00     0.028 C 
BRANCH  23  24
HETATM   24  C2  UNL     1       2.202  13.263  24.666  1.00  0.00    -0.001 C 
HETATM   25  C1  UNL     1       0.839  12.812  25.111  1.00  0.00     0.005 C 
ENDBRANCH  23  24
ENDBRANCH  22  23
BRANCH  21  26
HETATM   26  C33 UNL     1       1.169  17.322  23.556  1.00  0.00     0.209 C 
HETATM   27  O4  UNL     1       1.650  18.028  24.475  1.00  0.00    -0.644 OA
HETATM   28  O5  UNL     1       1.607  17.707  22.284  1.00  0.00    -0.644 OA
ENDBRANCH  21  26
ENDBRANCH  20  21
ENDBRANCH  18  19
ENDBRANCH   1  17
BRANCH  12  29
HETATM   29  O2  UNL     1      -6.541  18.245  27.193  1.00  0.00    -0.392 OA
ATOM     30  H2  UNL     1      -5.998  18.527  27.920  1.00  0.00     0.210 HD
ENDBRANCH  12  29
BRANCH  11  31
HETATM   31  O1  UNL     1      -7.140  15.214  28.255  1.00  0.00    -0.391 OA
ATOM     32  H1  UNL     1      -7.120  15.678  29.084  1.00  0.00     0.210 HD
ENDBRANCH  11  31
BRANCH  10  33
HETATM   33  N1  UNL     1      -9.640  16.358  28.052  1.00  0.00    -0.385 N 
BRANCH  33  34
HETATM   34  C20 UNL     1      -9.817  17.379  29.006  1.00  0.00     0.058 C 
BRANCH  34  35
HETATM   35  C21 UNL     1      -8.864  17.412  30.165  1.00  0.00     0.040 C 
HETATM   36  C22 UNL     1      -9.034  16.304  31.142  1.00  0.00     0.010 C 
ENDBRANCH  34  35
ENDBRANCH  33  34
BRANCH  33  37
HETATM   37  C23 UNL     1     -10.805  15.644  27.684  1.00  0.00     0.127 C 
BRANCH  37  38
HETATM   38  C24 UNL     1     -11.641  15.161  28.854  1.00  0.00     0.003 A 
HETATM   39  C25 UNL     1     -12.977  14.591  28.704  1.00  0.00     0.007 A 
HETATM   40  C26 UNL     1     -11.859  13.636  28.916  1.00  0.00     0.007 A 
ENDBRANCH  37  38
ENDBRANCH  33  37
ENDBRANCH  10  33
BRANCH  14  41
HETATM   41  O3  UNL     1     -10.614  15.397  18.949  1.00  0.00    -0.395 OA
ATOM     42  H3  UNL     1     -10.156  15.140  18.158  1.00  0.00     0.210 HD
ENDBRANCH  14  41
TORSDOF 14
ENDMDL
MODEL 3
REMARK VINA RESULT: -6.258654201      5.194     13.934
REMARK  14 active torsions:
REMARK  status: ('A' for Active; 'I' for Inactive)
REMARK    1  A    between atoms: C2_2  and  C3_3 
REMARK    2  A    between atoms: C3_3  and  C4_4 
REMARK    3  A    between atoms: C5_5  and  C6_6 
REMARK    4  A    between atoms: C5_5  and  C33_40 
REMARK    5  A    between atoms: C7_7  and  C8_8 
REMARK    6  A    between atoms: C9_9  and  C10_10 
REMARK    7  A    between atoms: C19_19  and  N1_20 
REMARK    8  A    between atoms: N1_20  and  C20_21 
REMARK    9  A    between atoms: N1_20  and  C23_24 
REMARK   10  A    between atoms: C20_21  and  C21_22 
REMARK   11  A    between atoms: C23_24  and  C24_25 
REMARK   12  A    between atoms: C27_28  and  O1_29 
REMARK   13  A    between atoms: C28_31  and  O2_32 
REMARK   14  A    between atoms: C30_35  and  O3_36 
ROOT
HETATM    1  C10 UNL     1     -12.090  13.769  29.798  1.00  0.00     0.044 C 
HETATM    2  C11 UNL     1     -12.596  14.827  30.705  1.00  0.00     0.050 C 
HETATM    3  C12 UNL     1     -11.510  15.425  31.538  1.00  0.00    -0.051 A 
HETATM    4  C13 UNL     1     -11.929  15.218  32.857  1.00  0.00     0.015 A 
HETATM    5  C14 UNL     1     -11.169  15.639  33.896  1.00  0.00    -0.051 A 
HETATM    6  C15 UNL     1      -9.981  16.274  33.633  1.00  0.00    -0.049 A 
HETATM    7  C16 UNL     1      -9.578  16.472  32.336  1.00  0.00     0.015 A 
HETATM    8  C17 UNL     1     -10.337  16.050  31.230  1.00  0.00    -0.049 A 
HETATM    9  C18 UNL     1      -9.488  16.488  30.129  1.00  0.00     0.067 C 
HETATM   10  C19 UNL     1      -9.953  16.201  28.747  1.00  0.00     0.119 C 
HETATM   11  C27 UNL     1     -10.199  14.768  28.464  1.00  0.00     0.170 C 
HETATM   12  C28 UNL     1     -11.670  14.392  28.457  1.00  0.00     0.157 C 
HETATM   13  C29 UNL     1      -9.157  16.728  34.776  1.00  0.00     0.070 C 
HETATM   14  C30 UNL     1      -9.069  15.678  35.860  1.00  0.00     0.122 C 
HETATM   15  C31 UNL     1     -10.343  14.945  36.113  1.00  0.00     0.036 C 
HETATM   16  C32 UNL     1     -11.527  15.466  35.328  1.00  0.00     0.041 C 
ENDROOT
BRANCH   1  17
HETATM   17  C9  UNL     1     -12.921  12.591  29.605  1.00  0.00    -0.019 C 
HETATM   18  C8  UNL     1     -13.935  12.238  30.348  1.00  0.00    -0.004 C 
BRANCH  18  19
HETATM   19  C7  UNL     1     -14.712  10.995  30.043  1.00  0.00     0.001 C 
HETATM   20  C6  UNL     1     -15.316  10.362  30.994  1.00  0.00     0.018 C 
BRANCH  20  21
HETATM   21  C5  UNL     1     -16.126   9.139  30.935  1.00  0.00     0.037 C 
HETATM   22  C4  UNL     1     -17.243   9.174  30.200  1.00  0.00    -0.008 C 
BRANCH  22  23
HETATM   23  C3  UNL     1     -18.241   8.154  29.947  1.00  0.00     0.028 C 
BRANCH  23  24
HETATM   24  C2  UNL     1     -19.618   8.714  30.306  1.00  0.00    -0.001 C 
HETATM   25  C1  UNL     1     -19.695   9.046  31.769  1.00  0.00     0.005 C 
ENDBRANCH  23  24
ENDBRANCH  22  23
BRANCH  21  26
HETATM   26  C33 UNL     1     -15.755   7.927  31.604  1.00  0.00     0.209 C 
HETATM   27  O4  UNL     1     -14.937   7.070  31.190  1.00  0.00    -0.644 OA
HETATM   28  O5  UNL     1     -16.316   7.595  32.842  1.00  0.00    -0.644 OA
ENDBRANCH  21  26
ENDBRANCH  20  21
ENDBRANCH  18  19
ENDBRANCH   1  17
BRANCH  12  29
HETATM   29  O2  UNL     1     -12.520  15.455  28.264  1.00  0.00    -0.392 OA
ATOM     30  H2  UNL     1     -12.294  16.084  28.939  1.00  0.00     0.210 HD
ENDBRANCH  12  29
BRANCH  11  31
HETATM   31  O1  UNL     1      -9.631  14.251  27.328  1.00  0.00    -0.391 OA
ATOM     32  H1  UNL     1      -9.112  13.461  27.425  1.00  0.00     0.210 HD
ENDBRANCH  11  31
BRANCH  10  33
HETATM   33  N1  UNL     1      -9.117  16.913  27.827  1.00  0.00    -0.385 N 
BRANCH  33  34
HETATM   34  C20 UNL     1      -9.750  17.812  26.948  1.00  0.00     0.058 C 
BRANCH  34  35
HETATM   35  C21 UNL     1     -10.258  17.261  25.647  1.00  0.00     0.040 C 
HETATM   36  C22 UNL     1      -9.200  16.757  24.731  1.00  0.00     0.010 C 
ENDBRANCH  34  35
ENDBRANCH  33  34
BRANCH  33  37
HETATM   37  C23 UNL     1      -7.854  17.316  28.323  1.00  0.00     0.127 C 
BRANCH  37  38
HETATM   38  C24 UNL     1      -6.987  18.044  27.314  1.00  0.00     0.003 A 
HETATM   39  C25 UNL     1      -6.322  19.314  27.596  1.00  0.00     0.007 A 
HETATM   40  C26 UNL     1      -5.484  18.089  27.657  1.00  0.00     0.007 A 
ENDBRANCH  37  38
ENDBRANCH  33  37
ENDBRANCH  10  33
BRANCH  14  41
HETATM   41  O3  UNL     1      -8.546  16.278  36.993  1.00  0.00    -0.395 OA
ATOM     42  H3  UNL     1      -9.146  16.120  37.712  1.00  0.00     0.210 HD
ENDBRANCH  14  41
TORSDOF 14
ENDMDL
MODEL 4
REMARK VINA RESULT: -6.155662567      6.017     11.299
REMARK  14 active torsions:
REMARK  status: ('A' for Active; 'I' for Inactive)
REMARK    1  A    between atoms: C2_2  and  C3_3 
REMARK    2  A    between atoms: C3_3  and  C4_4 
REMARK    3  A    between atoms: C5_5  and  C6_6 
REMARK    4  A    between atoms: C5_5  and  C33_40 
REMARK    5  A    between atoms: C7_7  and  C8_8 
REMARK    6  A    between atoms: C9_9  and  C10_10 
REMARK    7  A    between atoms: C19_19  and  N1_20 
REMARK    8  A    between atoms: N1_20  and  C20_21 
REMARK    9  A    between atoms: N1_20  and  C23_24 
REMARK   10  A    between atoms: C20_21  and  C21_22 
REMARK   11  A    between atoms: C23_24  and  C24_25 
REMARK   12  A    between atoms: C27_28  and  O1_29 
REMARK   13  A    between atoms: C28_31  and  O2_32 
REMARK   14  A    between atoms: C30_35  and  O3_36 
ROOT
HETATM    1  C10 UNL     1     -12.635  13.947  30.641  1.00  0.00     0.044 C 
HETATM    2  C11 UNL     1     -14.096  13.909  30.891  1.00  0.00     0.050 C 
HETATM    3  C12 UNL     1     -14.506  12.700  31.668  1.00  0.00    -0.051 A 
HETATM    4  C13 UNL     1     -15.445  12.063  30.849  1.00  0.00     0.015 A 
HETATM    5  C14 UNL     1     -16.034  10.909  31.245  1.00  0.00    -0.051 A 
HETATM    6  C15 UNL     1     -15.696  10.378  32.464  1.00  0.00    -0.049 A 
HETATM    7  C16 UNL     1     -14.775  11.011  33.261  1.00  0.00     0.015 A 
HETATM    8  C17 UNL     1     -14.140  12.209  32.886  1.00  0.00    -0.049 A 
HETATM    9  C18 UNL     1     -13.287  12.443  34.045  1.00  0.00     0.067 C 
HETATM   10  C19 UNL     1     -12.417  13.648  34.024  1.00  0.00     0.119 C 
HETATM   11  C27 UNL     1     -11.487  13.718  32.873  1.00  0.00     0.170 C 
HETATM   12  C28 UNL     1     -11.931  14.685  31.790  1.00  0.00     0.157 C 
HETATM   13  C29 UNL     1     -16.344   9.115  32.887  1.00  0.00     0.070 C 
HETATM   14  C30 UNL     1     -16.393   8.104  31.765  1.00  0.00     0.122 C 
HETATM   15  C31 UNL     1     -16.705   8.682  30.426  1.00  0.00     0.036 C 
HETATM   16  C32 UNL     1     -17.039  10.158  30.449  1.00  0.00     0.041 C 
ENDROOT
BRANCH   1  17
HETATM   17  C9  UNL     1     -12.185  14.421  29.342  1.00  0.00    -0.019 C 
HETATM   18  C8  UNL     1     -12.945  14.903  28.396  1.00  0.00    -0.004 C 
BRANCH  18  19
HETATM   19  C7  UNL     1     -12.354  15.359  27.097  1.00  0.00     0.001 C 
HETATM   20  C6  UNL     1     -11.179  15.895  27.076  1.00  0.00     0.018 C 
BRANCH  20  21
HETATM   21  C5  UNL     1     -10.406  16.409  25.938  1.00  0.00     0.037 C 
HETATM   22  C4  UNL     1     -10.859  16.132  24.710  1.00  0.00    -0.008 C 
BRANCH  22  23
HETATM   23  C3  UNL     1     -10.333  16.486  23.407  1.00  0.00     0.028 C 
BRANCH  23  24
HETATM   24  C2  UNL     1      -9.494  15.319  22.883  1.00  0.00    -0.001 C 
HETATM   25  C1  UNL     1      -8.947  15.625  21.518  1.00  0.00     0.005 C 
ENDBRANCH  23  24
ENDBRANCH  22  23
BRANCH  21  26
HETATM   26  C33 UNL     1      -9.223  17.204  26.096  1.00  0.00     0.209 C 
HETATM   27  O4  UNL     1      -8.093  16.957  25.610  1.00  0.00    -0.644 OA
HETATM   28  O5  UNL     1      -9.250  18.381  26.851  1.00  0.00    -0.644 OA
ENDBRANCH  21  26
ENDBRANCH  20  21
ENDBRANCH  18  19
ENDBRANCH   1  17
BRANCH  12  29
HETATM   29  O2  UNL     1     -12.826  15.635  32.218  1.00  0.00    -0.392 OA
ATOM     30  H2  UNL     1     -12.346  16.174  32.837  1.00  0.00     0.210 HD
ENDBRANCH  12  29
BRANCH  11  31
HETATM   31  O1  UNL     1     -10.170  13.978  33.151  1.00  0.00    -0.391 OA
ATOM     32  H1  UNL     1      -9.927  14.887  33.276  1.00  0.00     0.210 HD
ENDBRANCH  11  31
BRANCH  10  33
HETATM   33  N1  UNL     1     -11.853  13.825  35.329  1.00  0.00    -0.385 N 
BRANCH  33  34
HETATM   34  C20 UNL     1     -11.848  15.132  35.853  1.00  0.00     0.058 C 
BRANCH  34  35
HETATM   35  C21 UNL     1     -10.831  16.091  35.306  1.00  0.00     0.040 C 
HETATM   36  C22 UNL     1      -9.435  15.839  35.755  1.00  0.00     0.010 C 
ENDBRANCH  34  35
ENDBRANCH  33  34
BRANCH  33  37
HETATM   37  C23 UNL     1     -12.099  12.785  36.257  1.00  0.00     0.127 C 
BRANCH  37  38
HETATM   38  C24 UNL     1     -12.894  13.208  37.477  1.00  0.00     0.003 A 
HETATM   39  C25 UNL     1     -14.279  12.806  37.710  1.00  0.00     0.007 A 
HETATM   40  C26 UNL     1     -13.232  12.070  38.462  1.00  0.00     0.007 A 
ENDBRANCH  37  38
ENDBRANCH  33  37
ENDBRANCH  10  33
BRANCH  14  41
HETATM   41  O3  UNL     1     -17.260   7.091  32.141  1.00  0.00    -0.395 OA
ATOM     42  H3  UNL     1     -16.793   6.509  32.729  1.00  0.00     0.210 HD
ENDBRANCH  14  41
TORSDOF 14
ENDMDL
MODEL 5
REMARK VINA RESULT: -6.136849903      1.839      3.300
REMARK  14 active torsions:
REMARK  status: ('A' for Active; 'I' for Inactive)
REMARK    1  A    between atoms: C2_2  and  C3_3 
REMARK    2  A    between atoms: C3_3  and  C4_4 
REMARK    3  A    between atoms: C5_5  and  C6_6 
REMARK    4  A    between atoms: C5_5  and  C33_40 
REMARK    5  A    between atoms: C7_7  and  C8_8 
REMARK    6  A    between atoms: C9_9  and  C10_10 
REMARK    7  A    between atoms: C19_19  and  N1_20 
REMARK    8  A    between atoms: N1_20  and  C20_21 
REMARK    9  A    between atoms: N1_20  and  C23_24 
REMARK   10  A    between atoms: C20_21  and  C21_22 
REMARK   11  A    between atoms: C23_24  and  C24_25 
REMARK   12  A    between atoms: C27_28  and  O1_29 
REMARK   13  A    between atoms: C28_31  and  O2_32 
REMARK   14  A    between atoms: C30_35  and  O3_36 
ROOT
HETATM    1  C10 UNL     1      -5.359  17.067  25.355  1.00  0.00     0.044 C 
HETATM    2  C11 UNL     1      -6.028  18.059  24.480  1.00  0.00     0.050 C 
HETATM    3  C12 UNL     1      -7.271  17.515  23.855  1.00  0.00    -0.051 A 
HETATM    4  C13 UNL     1      -7.054  17.647  22.479  1.00  0.00     0.015 A 
HETATM    5  C14 UNL     1      -7.994  17.243  21.591  1.00  0.00    -0.051 A 
HETATM    6  C15 UNL     1      -9.163  16.702  22.065  1.00  0.00    -0.049 A 
HETATM    7  C16 UNL     1      -9.367  16.577  23.416  1.00  0.00     0.015 A 
HETATM    8  C17 UNL     1      -8.416  16.984  24.370  1.00  0.00    -0.049 A 
HETATM    9  C18 UNL     1      -9.104  16.639  25.609  1.00  0.00     0.067 C 
HETATM   10  C19 UNL     1      -8.395  16.912  26.886  1.00  0.00     0.119 C 
HETATM   11  C27 UNL     1      -7.075  16.251  27.012  1.00  0.00     0.170 C 
HETATM   12  C28 UNL     1      -5.901  17.188  26.788  1.00  0.00     0.157 C 
HETATM   13  C29 UNL     1     -10.182  16.260  21.086  1.00  0.00     0.070 C 
HETATM   14  C30 UNL     1      -9.568  15.491  19.939  1.00  0.00     0.122 C 
HETATM   15  C31 UNL     1      -8.268  16.041  19.455  1.00  0.00     0.036 C 
HETATM   16  C32 UNL     1      -7.857  17.340  20.115  1.00  0.00     0.041 C 
ENDROOT
BRANCH   1  17
HETATM   17  C9  UNL     1      -3.905  17.019  25.334  1.00  0.00    -0.019 C 
HETATM   18  C8  UNL     1      -3.146  17.265  24.301  1.00  0.00    -0.004 C 
BRANCH  18  19
HETATM   19  C7  UNL     1      -1.654  17.181  24.410  1.00  0.00     0.001 C 
HETATM   20  C6  UNL     1      -1.008  16.292  23.731  1.00  0.00     0.018 C 
BRANCH  20  21
HETATM   21  C5  UNL     1       0.435  16.024  23.678  1.00  0.00     0.037 C 
HETATM   22  C4  UNL     1       0.846  14.794  24.008  1.00  0.00    -0.008 C 
BRANCH  22  23
HETATM   23  C3  UNL     1       2.178  14.224  24.059  1.00  0.00     0.028 C 
BRANCH  23  24
HETATM   24  C2  UNL     1       2.110  12.884  24.792  1.00  0.00    -0.001 C 
HETATM   25  C1  UNL     1       0.722  12.627  25.309  1.00  0.00     0.005 C 
ENDBRANCH  23  24
ENDBRANCH  22  23
BRANCH  21  26
HETATM   26  C33 UNL     1       1.395  17.006  23.267  1.00  0.00     0.209 C 
HETATM   27  O4  UNL     1       2.009  17.803  24.017  1.00  0.00    -0.644 OA
HETATM   28  O5  UNL     1       1.732  17.153  21.917  1.00  0.00    -0.644 OA
ENDBRANCH  21  26
ENDBRANCH  20  21
ENDBRANCH  18  19
ENDBRANCH   1  17
BRANCH  12  29
HETATM   29  O2  UNL     1      -6.206  18.518  26.953  1.00  0.00    -0.392 OA
ATOM     30  H2  UNL     1      -7.026  18.533  27.432  1.00  0.00     0.210 HD
ENDBRANCH  12  29
BRANCH  11  31
HETATM   31  O1  UNL     1      -6.836  15.552  28.167  1.00  0.00    -0.391 OA
ATOM     32  H1  UNL     1      -5.935  15.502  28.463  1.00  0.00     0.210 HD
ENDBRANCH  11  31
BRANCH  10  33
HETATM   33  N1  UNL     1      -9.318  16.735  27.967  1.00  0.00    -0.385 N 
BRANCH  33  34
HETATM   34  C20 UNL     1     -10.037  15.524  28.005  1.00  0.00     0.058 C 
BRANCH  34  35
HETATM   35  C21 UNL     1     -11.536  15.612  28.007  1.00  0.00     0.040 C 
HETATM   36  C22 UNL     1     -12.223  14.495  28.707  1.00  0.00     0.010 C 
ENDBRANCH  34  35
ENDBRANCH  33  34
BRANCH  33  37
HETATM   37  C23 UNL     1      -8.913  17.255  29.219  1.00  0.00     0.127 C 
BRANCH  37  38
HETATM   38  C24 UNL     1      -8.903  16.241  30.347  1.00  0.00     0.003 A 
HETATM   39  C25 UNL     1      -8.525  16.571  31.719  1.00  0.00     0.007 A 
HETATM   40  C26 UNL     1      -9.978  16.459  31.430  1.00  0.00     0.007 A 
ENDBRANCH  37  38
ENDBRANCH  33  37
ENDBRANCH  10  33
BRANCH  14  41
HETATM   41  O3  UNL     1     -10.521  15.378  18.942  1.00  0.00    -0.395 OA
ATOM     42  H3  UNL     1     -11.358  15.643  19.305  1.00  0.00     0.210 HD
ENDBRANCH  14  41
TORSDOF 14
ENDMDL
