MODEL 1
REMARK VINA RESULT: -7.827877533      0.000      0.000
REMARK  11 active torsions:
REMARK  status: ('A' for Active; 'I' for Inactive)
REMARK       I    between atoms: C2_2  and  N1_4 
REMARK    1  A    between atoms: N1_4  and  C3_6 
REMARK    2  A    between atoms: C3_6  and  C4_7 
REMARK    3  A    between atoms: C3_6  and  C19_39 
REMARK       I    between atoms: C4_7  and  N2_9 
REMARK    4  A    between atoms: N2_9  and  C5_11 
REMARK    5  A    between atoms: C5_11  and  C6_12 
REMARK    6  A    between atoms: C5_11  and  C10_20 
REMARK    7  A    between atoms: C6_12  and  C7_13 
REMARK    8  A    between atoms: C10_20  and  N5_22 
REMARK       I    between atoms: N6_26  and  C14_27 
REMARK    9  A    between atoms: C18_32  and  N7_33 
REMARK   10  A    between atoms: N7_33  and  N8_34 
REMARK   11  A    between atoms: N8_34  and  N9_36 
ROOT
HETATM    1  C5  UNL     1      13.612 -14.257  22.139  1.00  0.00     0.113 C 
ENDROOT
BRANCH   1   2
HETATM    2  N2  UNL     1      13.249 -15.392  21.214  1.00  0.00    -0.352 N 
HETATM    3  C4  UNL     1      13.201 -16.718  21.652  1.00  0.00     0.241 C 
HETATM    4  O2  UNL     1      13.498 -16.898  22.883  1.00  0.00    -0.271 OA
ATOM      5  H2  UNL     1      13.030 -15.185  20.239  1.00  0.00     0.163 HD
BRANCH   3   6
HETATM    6  C3  UNL     1      12.859 -17.924  20.888  1.00  0.00     0.179 C 
BRANCH   6   7
HETATM    7  N1  UNL     1      13.763 -18.048  19.732  1.00  0.00    -0.348 N 
HETATM    8  C2  UNL     1      13.322 -18.229  18.407  1.00  0.00     0.214 C 
HETATM    9  C1  UNL     1      14.317 -18.343  17.314  1.00  0.00     0.117 C 
HETATM   10  O1  UNL     1      12.110 -18.303  18.075  1.00  0.00    -0.274 OA
ATOM     11  H1  UNL     1      14.768 -18.002  19.902  1.00  0.00     0.163 HD
ENDBRANCH   6   7
BRANCH   6  12
HETATM   12  C19 UNL     1      12.894 -19.211  21.678  1.00  0.00     0.009 C 
HETATM   13  C20 UNL     1      14.242 -19.918  21.452  1.00  0.00     0.012 C 
HETATM   14  C21 UNL     1      11.805 -20.175  21.400  1.00  0.00     0.012 C 
ENDBRANCH   6  12
ENDBRANCH   3   6
ENDBRANCH   1   2
BRANCH   1  15
HETATM   15  C6  UNL     1      12.483 -13.305  21.814  1.00  0.00     0.085 C 
BRANCH  15  16
HETATM   16  C7  UNL     1      11.943 -12.476  22.880  1.00  0.00     0.027 A 
HETATM   17  C8  UNL     1      10.839 -12.755  23.648  1.00  0.00     0.114 A 
HETATM   18  N3  UNL     1      10.659 -11.716  24.472  1.00  0.00    -0.360 N 
HETATM   19  C9  UNL     1      11.605 -10.814  24.242  1.00  0.00     0.180 A 
ATOM     20  H3  UNL     1       9.915 -11.631  25.164  1.00  0.00     0.166 HD
HETATM   21  N4  UNL     1      12.385 -11.277  23.272  1.00  0.00    -0.355 N 
ATOM     22  H4  UNL     1      13.196 -10.793  22.887  1.00  0.00     0.166 HD
ENDBRANCH  15  16
ENDBRANCH   1  15
BRANCH   1  23
HETATM   23  C10 UNL     1      14.957 -13.775  21.818  1.00  0.00     0.114 C 
HETATM   24  C11 UNL     1      16.054 -14.496  22.568  1.00  0.00     0.035 C 
BRANCH  23  25
HETATM   25  N5  UNL     1      15.347 -13.725  20.455  1.00  0.00    -0.285 N 
HETATM   26  C12 UNL     1      15.602 -14.817  19.616  1.00  0.00     0.244 C 
HETATM   27  O3  UNL     1      15.874 -15.914  20.080  1.00  0.00    -0.271 OA
HETATM   28  C13 UNL     1      15.545 -14.648  18.155  1.00  0.00     0.229 C 
HETATM   29  N6  UNL     1      16.017 -13.371  17.714  1.00  0.00    -0.331 N 
HETATM   30  C14 UNL     1      16.004 -13.074  16.317  1.00  0.00     0.216 C 
HETATM   31  C16 UNL     1      16.493 -12.427  18.673  1.00  0.00     0.168 C 
HETATM   32  C15 UNL     1      16.479 -11.777  15.786  1.00  0.00     0.117 C 
HETATM   33  O4  UNL     1      15.579 -13.930  15.505  1.00  0.00    -0.274 OA
HETATM   34  C17 UNL     1      17.858 -12.868  19.148  1.00  0.00     0.042 C 
HETATM   35  C18 UNL     1      15.509 -12.414  19.849  1.00  0.00     0.209 C 
BRANCH  35  36
HETATM   36  N7  UNL     1      14.945 -11.405  20.210  1.00  0.00    -0.294 NA
BRANCH  36  37
HETATM   37  N8  UNL     1      14.254 -10.397  20.575  1.00  0.00    -0.181 N 
ATOM     38  H8  UNL     1      14.698  -9.742  21.218  1.00  0.00     0.223 HD
BRANCH  37  39
HETATM   39  N9  UNL     1      13.035 -10.123  20.205  1.00  0.00    -0.320 N 
ATOM     40  H92 UNL     1      12.801 -10.361  19.241  1.00  0.00     0.179 HD
ATOM     41  H91 UNL     1      12.310  -9.698  20.783  1.00  0.00     0.179 HD
ENDBRANCH  37  39
ENDBRANCH  36  37
ENDBRANCH  35  36
ENDBRANCH  23  25
ENDBRANCH   1  23
TORSDOF 11
ENDMDL
MODEL 2
REMARK VINA RESULT: -7.646685084      3.068      6.236
REMARK  11 active torsions:
REMARK  status: ('A' for Active; 'I' for Inactive)
REMARK       I    between atoms: C2_2  and  N1_4 
REMARK    1  A    between atoms: N1_4  and  C3_6 
REMARK    2  A    between atoms: C3_6  and  C4_7 
REMARK    3  A    between atoms: C3_6  and  C19_39 
REMARK       I    between atoms: C4_7  and  N2_9 
REMARK    4  A    between atoms: N2_9  and  C5_11 
REMARK    5  A    between atoms: C5_11  and  C6_12 
REMARK    6  A    between atoms: C5_11  and  C10_20 
REMARK    7  A    between atoms: C6_12  and  C7_13 
REMARK    8  A    between atoms: C10_20  and  N5_22 
REMARK       I    between atoms: N6_26  and  C14_27 
REMARK    9  A    between atoms: C18_32  and  N7_33 
REMARK   10  A    between atoms: N7_33  and  N8_34 
REMARK   11  A    between atoms: N8_34  and  N9_36 
ROOT
HETATM    1  C5  UNL     1      15.021 -16.154  20.510  1.00  0.00     0.113 C 
ENDROOT
BRANCH   1   2
HETATM    2  N2  UNL     1      16.487 -16.505  20.525  1.00  0.00    -0.352 N 
HETATM    3  C4  UNL     1      17.303 -16.229  21.625  1.00  0.00     0.241 C 
HETATM    4  O2  UNL     1      16.721 -15.651  22.607  1.00  0.00    -0.271 OA
ATOM      5  H2  UNL     1      16.896 -16.958  19.708  1.00  0.00     0.163 HD
BRANCH   3   6
HETATM    6  C3  UNL     1      18.733 -16.513  21.801  1.00  0.00     0.179 C 
BRANCH   6   7
HETATM    7  N1  UNL     1      19.205 -15.906  23.057  1.00  0.00    -0.348 N 
HETATM    8  C2  UNL     1      19.847 -14.655  23.131  1.00  0.00     0.214 C 
HETATM    9  C1  UNL     1      20.284 -14.134  24.448  1.00  0.00     0.117 C 
HETATM   10  O1  UNL     1      20.084 -13.928  22.130  1.00  0.00    -0.274 OA
ATOM     11  H1  UNL     1      19.059 -16.423  23.924  1.00  0.00     0.163 HD
ENDBRANCH   6   7
BRANCH   6  12
HETATM   12  C19 UNL     1      19.097 -17.979  21.799  1.00  0.00     0.009 C 
HETATM   13  C20 UNL     1      18.748 -18.600  23.163  1.00  0.00     0.012 C 
HETATM   14  C21 UNL     1      20.508 -18.298  21.484  1.00  0.00     0.012 C 
ENDBRANCH   6  12
ENDBRANCH   3   6
ENDBRANCH   1   2
BRANCH   1  15
HETATM   15  C6  UNL     1      14.506 -17.287  19.650  1.00  0.00     0.085 C 
BRANCH  15  16
HETATM   16  C7  UNL     1      13.248 -17.920  20.012  1.00  0.00     0.027 A 
HETATM   17  C8  UNL     1      12.644 -18.966  19.358  1.00  0.00     0.114 A 
HETATM   18  N3  UNL     1      11.486 -19.205  19.983  1.00  0.00    -0.360 N 
HETATM   19  C9  UNL     1      11.354 -18.353  20.991  1.00  0.00     0.180 A 
ATOM     20  H3  UNL     1      10.812 -19.927  19.726  1.00  0.00     0.166 HD
HETATM   21  N4  UNL     1      12.427 -17.570  21.008  1.00  0.00    -0.355 N 
ATOM     22  H4  UNL     1      12.598 -16.819  21.676  1.00  0.00     0.166 HD
ENDBRANCH  15  16
ENDBRANCH   1  15
BRANCH   1  23
HETATM   23  C10 UNL     1      14.843 -14.810  19.956  1.00  0.00     0.114 C 
HETATM   24  C11 UNL     1      14.365 -14.805  18.522  1.00  0.00     0.035 C 
BRANCH  23  25
HETATM   25  N5  UNL     1      14.034 -13.890  20.670  1.00  0.00    -0.285 N 
HETATM   26  C12 UNL     1      12.654 -13.982  20.888  1.00  0.00     0.244 C 
HETATM   27  O3  UNL     1      11.950 -14.674  20.169  1.00  0.00    -0.271 OA
HETATM   28  C13 UNL     1      12.035 -13.237  21.997  1.00  0.00     0.229 C 
HETATM   29  N6  UNL     1      12.642 -11.961  22.229  1.00  0.00    -0.331 N 
HETATM   30  C14 UNL     1      12.143 -11.141  23.287  1.00  0.00     0.216 C 
HETATM   31  C16 UNL     1      13.724 -11.536  21.402  1.00  0.00     0.168 C 
HETATM   32  C15 UNL     1      12.717  -9.810  23.585  1.00  0.00     0.117 C 
HETATM   33  O4  UNL     1      11.189 -11.549  23.991  1.00  0.00    -0.274 OA
HETATM   34  C17 UNL     1      13.171 -11.128  20.056  1.00  0.00     0.042 C 
HETATM   35  C18 UNL     1      14.684 -12.720  21.236  1.00  0.00     0.209 C 
BRANCH  35  36
HETATM   36  N7  UNL     1      15.852 -12.655  21.551  1.00  0.00    -0.294 NA
BRANCH  36  37
HETATM   37  N8  UNL     1      17.105 -12.641  21.786  1.00  0.00    -0.181 N 
ATOM     38  H8  UNL     1      17.447 -13.279  22.506  1.00  0.00     0.223 HD
BRANCH  37  39
HETATM   39  N9  UNL     1      17.992 -11.891  21.197  1.00  0.00    -0.320 N 
ATOM     40  H92 UNL     1      18.124 -10.962  21.599  1.00  0.00     0.179 HD
ATOM     41  H91 UNL     1      18.554 -12.145  20.384  1.00  0.00     0.179 HD
ENDBRANCH  37  39
ENDBRANCH  36  37
ENDBRANCH  35  36
ENDBRANCH  23  25
ENDBRANCH   1  23
TORSDOF 11
ENDMDL
MODEL 3
REMARK VINA RESULT: -7.631078828      2.416      4.235
REMARK  11 active torsions:
REMARK  status: ('A' for Active; 'I' for Inactive)
REMARK       I    between atoms: C2_2  and  N1_4 
REMARK    1  A    between atoms: N1_4  and  C3_6 
REMARK    2  A    between atoms: C3_6  and  C4_7 
REMARK    3  A    between atoms: C3_6  and  C19_39 
REMARK       I    between atoms: C4_7  and  N2_9 
REMARK    4  A    between atoms: N2_9  and  C5_11 
REMARK    5  A    between atoms: C5_11  and  C6_12 
REMARK    6  A    between atoms: C5_11  and  C10_20 
REMARK    7  A    between atoms: C6_12  and  C7_13 
REMARK    8  A    between atoms: C10_20  and  N5_22 
REMARK       I    between atoms: N6_26  and  C14_27 
REMARK    9  A    between atoms: C18_32  and  N7_33 
REMARK   10  A    between atoms: N7_33  and  N8_34 
REMARK   11  A    between atoms: N8_34  and  N9_36 
ROOT
HETATM    1  C5  UNL     1      14.046 -14.016  21.525  1.00  0.00     0.113 C 
ENDROOT
BRANCH   1   2
HETATM    2  N2  UNL     1      15.162 -14.669  22.302  1.00  0.00    -0.352 N 
HETATM    3  C4  UNL     1      16.432 -14.096  22.397  1.00  0.00     0.241 C 
HETATM    4  O2  UNL     1      16.582 -12.990  21.771  1.00  0.00    -0.271 OA
ATOM      5  H2  UNL     1      14.983 -15.556  22.773  1.00  0.00     0.163 HD
BRANCH   3   6
HETATM    6  C3  UNL     1      17.611 -14.594  23.116  1.00  0.00     0.179 C 
BRANCH   6   7
HETATM    7  N1  UNL     1      17.443 -16.029  23.404  1.00  0.00    -0.348 N 
HETATM    8  C2  UNL     1      17.691 -16.611  24.662  1.00  0.00     0.214 C 
HETATM    9  C1  UNL     1      17.490 -18.068  24.846  1.00  0.00     0.117 C 
HETATM   10  O1  UNL     1      18.082 -15.965  25.669  1.00  0.00    -0.274 OA
ATOM     11  H1  UNL     1      17.130 -16.636  22.647  1.00  0.00     0.163 HD
ENDBRANCH   6   7
BRANCH   6  12
HETATM   12  C19 UNL     1      18.927 -14.389  22.404  1.00  0.00     0.009 C 
HETATM   13  C20 UNL     1      19.135 -15.511  21.372  1.00  0.00     0.012 C 
HETATM   14  C21 UNL     1      20.129 -14.313  23.265  1.00  0.00     0.012 C 
ENDBRANCH   6  12
ENDBRANCH   3   6
ENDBRANCH   1   2
BRANCH   1  15
HETATM   15  C6  UNL     1      12.956 -14.066  22.572  1.00  0.00     0.085 C 
BRANCH  15  16
HETATM   16  C7  UNL     1      12.357 -12.816  23.012  1.00  0.00     0.027 A 
HETATM   17  C8  UNL     1      11.076 -12.646  23.480  1.00  0.00     0.114 A 
HETATM   18  N3  UNL     1      10.916 -11.341  23.725  1.00  0.00    -0.360 N 
HETATM   19  C9  UNL     1      12.042 -10.704  23.429  1.00  0.00     0.180 A 
ATOM     20  H3  UNL     1      10.065 -10.906  24.083  1.00  0.00     0.166 HD
HETATM   21  N4  UNL     1      12.918 -11.602  22.994  1.00  0.00    -0.355 N 
ATOM     22  H4  UNL     1      13.871 -11.399  22.694  1.00  0.00     0.166 HD
ENDBRANCH  15  16
ENDBRANCH   1  15
BRANCH   1  23
HETATM   23  C10 UNL     1      13.785 -14.783  20.305  1.00  0.00     0.114 C 
HETATM   24  C11 UNL     1      12.318 -14.886  19.957  1.00  0.00     0.035 C 
BRANCH  23  25
HETATM   25  N5  UNL     1      14.470 -14.413  19.118  1.00  0.00    -0.285 N 
HETATM   26  C12 UNL     1      14.995 -15.277  18.150  1.00  0.00     0.244 C 
HETATM   27  O3  UNL     1      15.238 -16.444  18.417  1.00  0.00    -0.271 OA
HETATM   28  C13 UNL     1      15.260 -14.781  16.790  1.00  0.00     0.229 C 
HETATM   29  N6  UNL     1      15.720 -13.425  16.761  1.00  0.00    -0.331 N 
HETATM   30  C14 UNL     1      16.002 -12.818  15.501  1.00  0.00     0.216 C 
HETATM   31  C16 UNL     1      15.888 -12.714  17.987  1.00  0.00     0.168 C 
HETATM   32  C15 UNL     1      16.483 -11.422  15.392  1.00  0.00     0.117 C 
HETATM   33  O4  UNL     1      15.842 -13.476  14.446  1.00  0.00    -0.274 OA
HETATM   34  C17 UNL     1      17.139 -13.218  18.670  1.00  0.00     0.042 C 
HETATM   35  C18 UNL     1      14.664 -12.994  18.867  1.00  0.00     0.209 C 
BRANCH  35  36
HETATM   36  N7  UNL     1      13.955 -12.108  19.291  1.00  0.00    -0.294 NA
BRANCH  36  37
HETATM   37  N8  UNL     1      13.189 -11.147  19.631  1.00  0.00    -0.181 N 
ATOM     38  H8  UNL     1      12.225 -11.187  19.299  1.00  0.00     0.223 HD
BRANCH  37  39
HETATM   39  N9  UNL     1      13.518 -10.119  20.360  1.00  0.00    -0.320 N 
ATOM     40  H92 UNL     1      13.691 -10.314  21.346  1.00  0.00     0.179 HD
ATOM     41  H91 UNL     1      13.614  -9.156  20.038  1.00  0.00     0.179 HD
ENDBRANCH  37  39
ENDBRANCH  36  37
ENDBRANCH  35  36
ENDBRANCH  23  25
ENDBRANCH   1  23
TORSDOF 11
ENDMDL
MODEL 4
REMARK VINA RESULT: -7.433038640      2.650      5.842
REMARK  11 active torsions:
REMARK  status: ('A' for Active; 'I' for Inactive)
REMARK       I    between atoms: C2_2  and  N1_4 
REMARK    1  A    between atoms: N1_4  and  C3_6 
REMARK    2  A    between atoms: C3_6  and  C4_7 
REMARK    3  A    between atoms: C3_6  and  C19_39 
REMARK       I    between atoms: C4_7  and  N2_9 
REMARK    4  A    between atoms: N2_9  and  C5_11 
REMARK    5  A    between atoms: C5_11  and  C6_12 
REMARK    6  A    between atoms: C5_11  and  C10_20 
REMARK    7  A    between atoms: C6_12  and  C7_13 
REMARK    8  A    between atoms: C10_20  and  N5_22 
REMARK       I    between atoms: N6_26  and  C14_27 
REMARK    9  A    between atoms: C18_32  and  N7_33 
REMARK   10  A    between atoms: N7_33  and  N8_34 
REMARK   11  A    between atoms: N8_34  and  N9_36 
ROOT
HETATM    1  C5  UNL     1      14.245 -16.260  20.256  1.00  0.00     0.113 C 
ENDROOT
BRANCH   1   2
HETATM    2  N2  UNL     1      15.410 -16.913  20.956  1.00  0.00    -0.352 N 
HETATM    3  C4  UNL     1      15.296 -17.450  22.240  1.00  0.00     0.241 C 
HETATM    4  O2  UNL     1      14.141 -17.337  22.780  1.00  0.00    -0.271 OA
ATOM      5  H2  UNL     1      16.310 -16.965  20.477  1.00  0.00     0.163 HD
BRANCH   3   6
HETATM    6  C3  UNL     1      16.322 -18.121  23.048  1.00  0.00     0.179 C 
BRANCH   6   7
HETATM    7  N1  UNL     1      16.957 -17.144  23.949  1.00  0.00    -0.348 N 
HETATM    8  C2  UNL     1      17.747 -16.066  23.504  1.00  0.00     0.214 C 
HETATM    9  C1  UNL     1      18.342 -15.138  24.495  1.00  0.00     0.117 C 
HETATM   10  O1  UNL     1      17.992 -15.829  22.293  1.00  0.00    -0.274 OA
ATOM     11  H1  UNL     1      16.817 -17.255  24.953  1.00  0.00     0.163 HD
ENDBRANCH   6   7
BRANCH   6  12
HETATM   12  C19 UNL     1      15.825 -19.289  23.867  1.00  0.00     0.009 C 
HETATM   13  C20 UNL     1      16.351 -19.171  25.308  1.00  0.00     0.012 C 
HETATM   14  C21 UNL     1      16.166 -20.635  23.352  1.00  0.00     0.012 C 
ENDBRANCH   6  12
ENDBRANCH   3   6
ENDBRANCH   1   2
BRANCH   1  15
HETATM   15  C6  UNL     1      14.184 -17.129  19.018  1.00  0.00     0.085 C 
BRANCH  15  16
HETATM   16  C7  UNL     1      12.898 -17.672  18.612  1.00  0.00     0.027 A 
HETATM   17  C8  UNL     1      12.688 -18.849  17.936  1.00  0.00     0.114 A 
HETATM   18  N3  UNL     1      11.372 -18.948  17.717  1.00  0.00    -0.360 N 
HETATM   19  C9  UNL     1      10.767 -17.884  18.230  1.00  0.00     0.180 A 
ATOM     20  H3  UNL     1      10.908 -19.718  17.234  1.00  0.00     0.166 HD
HETATM   21  N4  UNL     1      11.697 -17.108  18.774  1.00  0.00    -0.355 N 
ATOM     22  H4  UNL     1      11.522 -16.219  19.242  1.00  0.00     0.166 HD
ENDBRANCH  15  16
ENDBRANCH   1  15
BRANCH   1  23
HETATM   23  C10 UNL     1      14.544 -14.846  20.020  1.00  0.00     0.114 C 
HETATM   24  C11 UNL     1      14.495 -14.451  18.562  1.00  0.00     0.035 C 
BRANCH  23  25
HETATM   25  N5  UNL     1      13.804 -13.873  20.741  1.00  0.00    -0.285 N 
HETATM   26  C12 UNL     1      12.426 -13.883  20.988  1.00  0.00     0.244 C 
HETATM   27  O3  UNL     1      11.668 -14.539  20.291  1.00  0.00    -0.271 OA
HETATM   28  C13 UNL     1      11.875 -13.093  22.101  1.00  0.00     0.229 C 
HETATM   29  N6  UNL     1      12.559 -11.853  22.309  1.00  0.00    -0.331 N 
HETATM   30  C14 UNL     1      12.131 -10.996  23.368  1.00  0.00     0.216 C 
HETATM   31  C16 UNL     1      13.647 -11.499  21.456  1.00  0.00     0.168 C 
HETATM   32  C15 UNL     1      12.788  -9.698  23.641  1.00  0.00     0.117 C 
HETATM   33  O4  UNL     1      11.170 -11.342  24.095  1.00  0.00    -0.274 OA
HETATM   34  C17 UNL     1      13.091 -11.071  20.117  1.00  0.00     0.042 C 
HETATM   35  C18 UNL     1      14.533 -12.738  21.282  1.00  0.00     0.209 C 
BRANCH  35  36
HETATM   36  N7  UNL     1      15.709 -12.739  21.573  1.00  0.00    -0.294 NA
BRANCH  36  37
HETATM   37  N8  UNL     1      16.969 -12.757  21.770  1.00  0.00    -0.181 N 
ATOM     38  H8  UNL     1      17.326 -13.466  22.410  1.00  0.00     0.223 HD
BRANCH  37  39
HETATM   39  N9  UNL     1      17.844 -11.956  21.232  1.00  0.00    -0.320 N 
ATOM     40  H92 UNL     1      17.530 -11.447  20.406  1.00  0.00     0.179 HD
ATOM     41  H91 UNL     1      18.799 -11.798  21.557  1.00  0.00     0.179 HD
ENDBRANCH  37  39
ENDBRANCH  36  37
ENDBRANCH  35  36
ENDBRANCH  23  25
ENDBRANCH   1  23
TORSDOF 11
ENDMDL
MODEL 5
REMARK VINA RESULT: -7.258325258      3.326      6.651
REMARK  11 active torsions:
REMARK  status: ('A' for Active; 'I' for Inactive)
REMARK       I    between atoms: C2_2  and  N1_4 
REMARK    1  A    between atoms: N1_4  and  C3_6 
REMARK    2  A    between atoms: C3_6  and  C4_7 
REMARK    3  A    between atoms: C3_6  and  C19_39 
REMARK       I    between atoms: C4_7  and  N2_9 
REMARK    4  A    between atoms: N2_9  and  C5_11 
REMARK    5  A    between atoms: C5_11  and  C6_12 
REMARK    6  A    between atoms: C5_11  and  C10_20 
REMARK    7  A    between atoms: C6_12  and  C7_13 
REMARK    8  A    between atoms: C10_20  and  N5_22 
REMARK       I    between atoms: N6_26  and  C14_27 
REMARK    9  A    between atoms: C18_32  and  N7_33 
REMARK   10  A    between atoms: N7_33  and  N8_34 
REMARK   11  A    between atoms: N8_34  and  N9_36 
ROOT
HETATM    1  C5  UNL     1      15.914 -16.412  20.984  1.00  0.00     0.113 C 
ENDROOT
BRANCH   1   2
HETATM    2  N2  UNL     1      17.405 -16.521  21.185  1.00  0.00    -0.352 N 
HETATM    3  C4  UNL     1      18.047 -15.954  22.289  1.00  0.00     0.241 C 
HETATM    4  O2  UNL     1      17.284 -15.330  23.104  1.00  0.00    -0.271 OA
ATOM      5  H2  UNL     1      17.962 -17.024  20.494  1.00  0.00     0.163 HD
BRANCH   3   6
HETATM    6  C3  UNL     1      19.474 -15.978  22.632  1.00  0.00     0.179 C 
BRANCH   6   7
HETATM    7  N1  UNL     1      19.697 -15.209  23.868  1.00  0.00    -0.348 N 
HETATM    8  C2  UNL     1      20.871 -14.480  24.138  1.00  0.00     0.214 C 
HETATM    9  C1  UNL     1      20.994 -13.738  25.415  1.00  0.00     0.117 C 
HETATM   10  O1  UNL     1      21.851 -14.412  23.350  1.00  0.00    -0.274 OA
ATOM     11  H1  UNL     1      18.957 -15.205  24.570  1.00  0.00     0.163 HD
ENDBRANCH   6   7
BRANCH   6  12
HETATM   12  C19 UNL     1      20.066 -17.357  22.800  1.00  0.00     0.009 C 
HETATM   13  C20 UNL     1      20.544 -17.884  21.436  1.00  0.00     0.012 C 
HETATM   14  C21 UNL     1      19.182 -18.374  23.413  1.00  0.00     0.012 C 
ENDBRANCH   6  12
ENDBRANCH   3   6
ENDBRANCH   1   2
BRANCH   1  15
HETATM   15  C6  UNL     1      15.680 -17.683  20.197  1.00  0.00     0.085 C 
BRANCH  15  16
HETATM   16  C7  UNL     1      14.516 -18.495  20.517  1.00  0.00     0.027 A 
HETATM   17  C8  UNL     1      14.124 -19.644  19.875  1.00  0.00     0.114 A 
HETATM   18  N3  UNL     1      12.982 -20.044  20.447  1.00  0.00    -0.360 N 
HETATM   19  C9  UNL     1      12.659 -19.191  21.410  1.00  0.00     0.180 A 
ATOM     20  H3  UNL     1      12.447 -20.872  20.185  1.00  0.00     0.166 HD
HETATM   21  N4  UNL     1      13.593 -18.247  21.452  1.00  0.00    -0.355 N 
ATOM     22  H4  UNL     1      13.604 -17.457  22.096  1.00  0.00     0.166 HD
ENDBRANCH  15  16
ENDBRANCH   1  15
BRANCH   1  23
HETATM   23  C10 UNL     1      15.603 -15.167  20.280  1.00  0.00     0.114 C 
HETATM   24  C11 UNL     1      15.158 -15.374  18.851  1.00  0.00     0.035 C 
BRANCH  23  25
HETATM   25  N5  UNL     1      14.683 -14.268  20.878  1.00  0.00    -0.285 N 
HETATM   26  C12 UNL     1      13.343 -14.526  21.191  1.00  0.00     0.244 C 
HETATM   27  O3  UNL     1      12.733 -15.431  20.640  1.00  0.00    -0.271 OA
HETATM   28  C13 UNL     1      12.651 -13.701  22.195  1.00  0.00     0.229 C 
HETATM   29  N6  UNL     1      13.056 -12.328  22.175  1.00  0.00    -0.331 N 
HETATM   30  C14 UNL     1      12.469 -11.421  23.109  1.00  0.00     0.216 C 
HETATM   31  C16 UNL     1      14.030 -11.896  21.225  1.00  0.00     0.168 C 
HETATM   32  C15 UNL     1      12.835  -9.987  23.146  1.00  0.00     0.117 C 
HETATM   33  O4  UNL     1      11.616 -11.839  23.927  1.00  0.00    -0.274 OA
HETATM   34  C17 UNL     1      13.375 -11.816  19.865  1.00  0.00     0.042 C 
HETATM   35  C18 UNL     1      15.158 -12.933  21.202  1.00  0.00     0.209 C 
BRANCH  35  36
HETATM   36  N7  UNL     1      16.311 -12.641  21.431  1.00  0.00    -0.294 NA
BRANCH  36  37
HETATM   37  N8  UNL     1      17.549 -12.368  21.568  1.00  0.00    -0.181 N 
ATOM     38  H8  UNL     1      17.836 -11.962  22.459  1.00  0.00     0.223 HD
BRANCH  37  39
HETATM   39  N9  UNL     1      18.484 -12.557  20.681  1.00  0.00    -0.320 N 
ATOM     40  H92 UNL     1      18.511 -11.883  19.916  1.00  0.00     0.179 HD
ATOM     41  H91 UNL     1      19.177 -13.306  20.684  1.00  0.00     0.179 HD
ENDBRANCH  37  39
ENDBRANCH  36  37
ENDBRANCH  35  36
ENDBRANCH  23  25
ENDBRANCH   1  23
TORSDOF 11
ENDMDL
