MODEL 1
REMARK VINA RESULT: -7.043486071      0.000      0.000
REMARK  6 active torsions:
REMARK  status: ('A' for Active; 'I' for Inactive)
REMARK    1  A    between atoms: C2_2  and  N1_5 
REMARK       I    between atoms: N1_5  and  C5_7 
REMARK    2  A    between atoms: C5_7  and  C6_9 
REMARK    3  A    between atoms: C6_9  and  N2_12 
REMARK       I    between atoms: N2_12  and  C9_14 
REMARK       I    between atoms: C9_14  and  N3_16 
REMARK    4  A    between atoms: N3_16  and  C10_18 
REMARK    5  A    between atoms: C10_18  and  C11_19 
REMARK       I    between atoms: C11_19  and  N4_21 
REMARK    6  A    between atoms: N4_21  and  C12_23 
ROOT
HETATM    1  N2  UNL     1       1.334  19.868  14.171  1.00  0.00    -0.326 N 
ATOM      2  H2  UNL     1       1.120  18.999  13.681  1.00  0.00     0.165 HD
HETATM    3  C9  UNL     1       1.217  19.941  15.580  1.00  0.00     0.317 C 
HETATM    4  O2  UNL     1       1.487  20.997  16.225  1.00  0.00    -0.247 OA
HETATM    5  N3  UNL     1       0.784  18.799  16.302  1.00  0.00    -0.334 N 
ATOM      6  H3  UNL     1       0.559  17.935  15.809  1.00  0.00     0.164 HD
ENDROOT
BRANCH   1   7
HETATM    7  C6  UNL     1       1.756  21.028  13.440  1.00  0.00     0.108 C 
HETATM    8  C7  UNL     1       1.856  20.610  11.986  1.00  0.00     0.049 C 
HETATM    9  C8  UNL     1       0.789  22.181  13.617  1.00  0.00     0.049 C 
BRANCH   7  10
HETATM   10  C5  UNL     1       3.069  21.474  13.942  1.00  0.00     0.246 C 
HETATM   11  N1  UNL     1       4.103  20.525  14.125  1.00  0.00    -0.351 N 
ATOM     12  H1  UNL     1       3.925  19.545  13.907  1.00  0.00     0.163 HD
HETATM   13  O1  UNL     1       3.257  22.680  14.202  1.00  0.00    -0.271 OA
BRANCH  11  14
HETATM   14  C2  UNL     1       5.408  20.917  14.614  1.00  0.00     0.022 C 
HETATM   15  C1  UNL     1       6.390  19.761  14.483  1.00  0.00     0.037 C 
HETATM   16  C3  UNL     1       5.293  21.305  16.069  1.00  0.00     0.037 C 
HETATM   17  C4  UNL     1       5.997  22.084  13.859  1.00  0.00     0.037 C 
ENDBRANCH  11  14
ENDBRANCH   7  10
ENDBRANCH   1   7
BRANCH   5  18
HETATM   18  C10 UNL     1       0.666  18.870  17.731  1.00  0.00     0.227 C 
BRANCH  18  19
HETATM   19  C11 UNL     1      -0.329  17.882  18.204  1.00  0.00     0.235 C 
HETATM   20  O3  UNL     1      -1.016  18.122  19.240  1.00  0.00    -0.272 OA
HETATM   21  N4  UNL     1      -0.488  16.678  17.478  1.00  0.00    -0.355 N 
ATOM     22  H4  UNL     1       0.071  16.494  16.645  1.00  0.00     0.162 HD
BRANCH  21  23
HETATM   23  C12 UNL     1      -1.461  15.717  17.944  1.00  0.00     0.084 C 
HETATM   24  C13 UNL     1      -0.746  14.405  18.184  1.00  0.00     0.025 C 
HETATM   25  C14 UNL     1      -1.466  13.237  17.541  1.00  0.00     0.002 C 
HETATM   26  C15 UNL     1      -1.608  13.448  16.048  1.00  0.00     0.000 C 
HETATM   27  C16 UNL     1      -2.029  14.849  15.729  1.00  0.00     0.002 C 
HETATM   28  C17 UNL     1      -2.572  15.528  16.955  1.00  0.00     0.025 C 
ENDBRANCH  21  23
ENDBRANCH  18  19
ENDBRANCH   5  18
TORSDOF 6
ENDMDL
MODEL 2
REMARK VINA RESULT: -6.627723186      1.305      1.340
REMARK  6 active torsions:
REMARK  status: ('A' for Active; 'I' for Inactive)
REMARK    1  A    between atoms: C2_2  and  N1_5 
REMARK       I    between atoms: N1_5  and  C5_7 
REMARK    2  A    between atoms: C5_7  and  C6_9 
REMARK    3  A    between atoms: C6_9  and  N2_12 
REMARK       I    between atoms: N2_12  and  C9_14 
REMARK       I    between atoms: C9_14  and  N3_16 
REMARK    4  A    between atoms: N3_16  and  C10_18 
REMARK    5  A    between atoms: C10_18  and  C11_19 
REMARK       I    between atoms: C11_19  and  N4_21 
REMARK    6  A    between atoms: N4_21  and  C12_23 
ROOT
HETATM    1  N2  UNL     1       1.045  20.856  16.194  1.00  0.00    -0.326 N 
ATOM      2  H2  UNL     1       0.196  21.326  16.510  1.00  0.00     0.165 HD
HETATM    3  C9  UNL     1       1.632  19.836  16.979  1.00  0.00     0.317 C 
HETATM    4  O2  UNL     1       2.677  19.220  16.614  1.00  0.00    -0.247 OA
HETATM    5  N3  UNL     1       1.039  19.485  18.219  1.00  0.00    -0.334 N 
ATOM      6  H3  UNL     1       0.198  19.964  18.540  1.00  0.00     0.164 HD
ENDROOT
BRANCH   1   7
HETATM    7  C6  UNL     1       1.655  21.222  14.948  1.00  0.00     0.108 C 
HETATM    8  C7  UNL     1       1.601  19.991  14.063  1.00  0.00     0.049 C 
HETATM    9  C8  UNL     1       0.946  22.395  14.303  1.00  0.00     0.049 C 
BRANCH   7  10
HETATM   10  C5  UNL     1       3.052  21.629  15.185  1.00  0.00     0.246 C 
HETATM   11  N1  UNL     1       4.105  20.831  14.678  1.00  0.00    -0.351 N 
ATOM     12  H1  UNL     1       3.881  19.983  14.155  1.00  0.00     0.163 HD
HETATM   13  O1  UNL     1       3.294  22.669  15.830  1.00  0.00    -0.271 OA
BRANCH  11  14
HETATM   14  C2  UNL     1       5.492  21.190  14.885  1.00  0.00     0.022 C 
HETATM   15  C1  UNL     1       6.397  20.006  14.578  1.00  0.00     0.037 C 
HETATM   16  C3  UNL     1       5.685  21.598  16.327  1.00  0.00     0.037 C 
HETATM   17  C4  UNL     1       5.944  22.331  14.007  1.00  0.00     0.037 C 
ENDBRANCH  11  14
ENDBRANCH   7  10
ENDBRANCH   1   7
BRANCH   5  18
HETATM   18  C10 UNL     1       1.632  18.449  19.018  1.00  0.00     0.227 C 
BRANCH  18  19
HETATM   19  C11 UNL     1       0.618  17.422  19.346  1.00  0.00     0.235 C 
HETATM   20  O3  UNL     1       0.177  17.324  20.528  1.00  0.00    -0.272 OA
HETATM   21  N4  UNL     1       0.164  16.565  18.316  1.00  0.00    -0.355 N 
ATOM     22  H4  UNL     1       0.526  16.652  17.367  1.00  0.00     0.162 HD
BRANCH  21  23
HETATM   23  C12 UNL     1      -0.826  15.564  18.642  1.00  0.00     0.084 C 
HETATM   24  C13 UNL     1      -0.259  14.209  18.279  1.00  0.00     0.025 C 
HETATM   25  C14 UNL     1      -1.232  13.382  17.462  1.00  0.00     0.002 C 
HETATM   26  C15 UNL     1      -1.614  14.106  16.187  1.00  0.00     0.000 C 
HETATM   27  C16 UNL     1      -1.897  15.555  16.442  1.00  0.00     0.002 C 
HETATM   28  C17 UNL     1      -2.114  15.798  17.910  1.00  0.00     0.025 C 
ENDBRANCH  21  23
ENDBRANCH  18  19
ENDBRANCH   5  18
TORSDOF 6
ENDMDL
MODEL 3
REMARK VINA RESULT: -6.601807326      1.609      3.000
REMARK  6 active torsions:
REMARK  status: ('A' for Active; 'I' for Inactive)
REMARK    1  A    between atoms: C2_2  and  N1_5 
REMARK       I    between atoms: N1_5  and  C5_7 
REMARK    2  A    between atoms: C5_7  and  C6_9 
REMARK    3  A    between atoms: C6_9  and  N2_12 
REMARK       I    between atoms: N2_12  and  C9_14 
REMARK       I    between atoms: C9_14  and  N3_16 
REMARK    4  A    between atoms: N3_16  and  C10_18 
REMARK    5  A    between atoms: C10_18  and  C11_19 
REMARK       I    between atoms: C11_19  and  N4_21 
REMARK    6  A    between atoms: N4_21  and  C12_23 
ROOT
HETATM    1  N2  UNL     1       2.357  20.008  15.751  1.00  0.00    -0.326 N 
ATOM      2  H2  UNL     1       1.761  19.471  15.121  1.00  0.00     0.165 HD
HETATM    3  C9  UNL     1       2.375  19.721  17.137  1.00  0.00     0.317 C 
HETATM    4  O2  UNL     1       3.112  20.355  17.948  1.00  0.00    -0.247 OA
HETATM    5  N3  UNL     1       1.543  18.689  17.643  1.00  0.00    -0.334 N 
ATOM      6  H3  UNL     1       0.938  18.161  17.014  1.00  0.00     0.164 HD
ENDROOT
BRANCH   1   7
HETATM    7  C6  UNL     1       3.186  21.063  15.242  1.00  0.00     0.108 C 
HETATM    8  C7  UNL     1       2.671  22.351  15.855  1.00  0.00     0.049 C 
HETATM    9  C8  UNL     1       4.645  20.837  15.580  1.00  0.00     0.049 C 
BRANCH   7  10
HETATM   10  C5  UNL     1       3.076  21.109  13.772  1.00  0.00     0.246 C 
HETATM   11  N1  UNL     1       1.881  21.581  13.178  1.00  0.00    -0.351 N 
ATOM     12  H1  UNL     1       1.112  21.883  13.777  1.00  0.00     0.163 HD
HETATM   13  O1  UNL     1       4.033  20.732  13.066  1.00  0.00    -0.271 OA
BRANCH  11  14
HETATM   14  C2  UNL     1       1.728  21.646  11.740  1.00  0.00     0.022 C 
HETATM   15  C1  UNL     1       2.741  22.611  11.143  1.00  0.00     0.037 C 
HETATM   16  C3  UNL     1       0.334  22.128  11.414  1.00  0.00     0.037 C 
HETATM   17  C4  UNL     1       1.937  20.312  11.063  1.00  0.00     0.037 C 
ENDBRANCH  11  14
ENDBRANCH   7  10
ENDBRANCH   1   7
BRANCH   5  18
HETATM   18  C10 UNL     1       1.559  18.393  19.049  1.00  0.00     0.227 C 
BRANCH  18  19
HETATM   19  C11 UNL     1       0.560  17.347  19.356  1.00  0.00     0.235 C 
HETATM   20  O3  UNL     1       0.125  17.215  20.537  1.00  0.00    -0.272 OA
HETATM   21  N4  UNL     1       0.110  16.510  18.308  1.00  0.00    -0.355 N 
ATOM     22  H4  UNL     1       0.468  16.623  17.359  1.00  0.00     0.162 HD
BRANCH  21  23
HETATM   23  C12 UNL     1      -0.866  15.489  18.613  1.00  0.00     0.084 C 
HETATM   24  C13 UNL     1      -0.278  14.148  18.232  1.00  0.00     0.025 C 
HETATM   25  C14 UNL     1      -1.235  13.321  17.398  1.00  0.00     0.002 C 
HETATM   26  C15 UNL     1      -1.622  14.059  16.133  1.00  0.00     0.000 C 
HETATM   27  C16 UNL     1      -1.928  15.499  16.409  1.00  0.00     0.002 C 
HETATM   28  C17 UNL     1      -2.154  15.716  17.879  1.00  0.00     0.025 C 
ENDBRANCH  21  23
ENDBRANCH  18  19
ENDBRANCH   5  18
TORSDOF 6
ENDMDL
MODEL 4
REMARK VINA RESULT: -6.569634421      6.366     10.410
REMARK  6 active torsions:
REMARK  status: ('A' for Active; 'I' for Inactive)
REMARK    1  A    between atoms: C2_2  and  N1_5 
REMARK       I    between atoms: N1_5  and  C5_7 
REMARK    2  A    between atoms: C5_7  and  C6_9 
REMARK    3  A    between atoms: C6_9  and  N2_12 
REMARK       I    between atoms: N2_12  and  C9_14 
REMARK       I    between atoms: C9_14  and  N3_16 
REMARK    4  A    between atoms: N3_16  and  C10_18 
REMARK    5  A    between atoms: C10_18  and  C11_19 
REMARK       I    between atoms: C11_19  and  N4_21 
REMARK    6  A    between atoms: N4_21  and  C12_23 
ROOT
HETATM    1  N2  UNL     1      -0.391  17.732  24.982  1.00  0.00    -0.326 N 
ATOM      2  H2  UNL     1       0.149  16.870  25.067  1.00  0.00     0.165 HD
HETATM    3  C9  UNL     1      -1.088  18.023  23.784  1.00  0.00     0.317 C 
HETATM    4  O2  UNL     1      -1.780  19.074  23.646  1.00  0.00    -0.247 OA
HETATM    5  N3  UNL     1      -1.014  17.113  22.699  1.00  0.00    -0.334 N 
ATOM      6  H3  UNL     1      -0.463  16.259  22.781  1.00  0.00     0.164 HD
ENDROOT
BRANCH   1   7
HETATM    7  C6  UNL     1      -0.453  18.660  26.074  1.00  0.00     0.108 C 
HETATM    8  C7  UNL     1       0.295  18.020  27.228  1.00  0.00     0.049 C 
HETATM    9  C8  UNL     1       0.150  19.999  25.702  1.00  0.00     0.049 C 
BRANCH   7  10
HETATM   10  C5  UNL     1      -1.862  18.898  26.438  1.00  0.00     0.246 C 
HETATM   11  N1  UNL     1      -2.752  17.801  26.525  1.00  0.00    -0.351 N 
ATOM     12  H1  UNL     1      -2.406  16.860  26.333  1.00  0.00     0.163 HD
HETATM   13  O1  UNL     1      -2.257  20.059  26.664  1.00  0.00    -0.271 OA
BRANCH  11  14
HETATM   14  C2  UNL     1      -4.144  17.985  26.879  1.00  0.00     0.022 C 
HETATM   15  C1  UNL     1      -4.853  16.641  26.954  1.00  0.00     0.037 C 
HETATM   16  C3  UNL     1      -4.812  18.838  25.826  1.00  0.00     0.037 C 
HETATM   17  C4  UNL     1      -4.329  18.657  28.218  1.00  0.00     0.037 C 
ENDBRANCH  11  14
ENDBRANCH   7  10
ENDBRANCH   1   7
BRANCH   5  18
HETATM   18  C10 UNL     1      -1.720  17.405  21.483  1.00  0.00     0.227 C 
BRANCH  18  19
HETATM   19  C11 UNL     1      -0.908  16.995  20.316  1.00  0.00     0.235 C 
HETATM   20  O3  UNL     1       0.348  17.155  20.333  1.00  0.00    -0.272 OA
HETATM   21  N4  UNL     1      -1.563  16.427  19.199  1.00  0.00    -0.355 N 
ATOM     22  H4  UNL     1      -2.576  16.303  19.195  1.00  0.00     0.162 HD
BRANCH  21  23
HETATM   23  C12 UNL     1      -0.765  16.028  18.062  1.00  0.00     0.084 C 
HETATM   24  C13 UNL     1      -1.599  16.217  16.814  1.00  0.00     0.025 C 
HETATM   25  C14 UNL     1      -1.574  14.993  15.920  1.00  0.00     0.002 C 
HETATM   26  C15 UNL     1      -2.080  13.774  16.663  1.00  0.00     0.000 C 
HETATM   27  C16 UNL     1      -1.510  13.698  18.046  1.00  0.00     0.002 C 
HETATM   28  C17 UNL     1      -0.315  14.601  18.173  1.00  0.00     0.025 C 
ENDBRANCH  21  23
ENDBRANCH  18  19
ENDBRANCH   5  18
TORSDOF 6
ENDMDL
MODEL 5
REMARK VINA RESULT: -6.451732628      1.927      2.875
REMARK  6 active torsions:
REMARK  status: ('A' for Active; 'I' for Inactive)
REMARK    1  A    between atoms: C2_2  and  N1_5 
REMARK       I    between atoms: N1_5  and  C5_7 
REMARK    2  A    between atoms: C5_7  and  C6_9 
REMARK    3  A    between atoms: C6_9  and  N2_12 
REMARK       I    between atoms: N2_12  and  C9_14 
REMARK       I    between atoms: C9_14  and  N3_16 
REMARK    4  A    between atoms: N3_16  and  C10_18 
REMARK    5  A    between atoms: C10_18  and  C11_19 
REMARK       I    between atoms: C11_19  and  N4_21 
REMARK    6  A    between atoms: N4_21  and  C12_23 
ROOT
HETATM    1  N2  UNL     1      -0.272  21.192  17.569  1.00  0.00    -0.326 N 
ATOM      2  H2  UNL     1      -0.444  21.797  18.372  1.00  0.00     0.165 HD
HETATM    3  C9  UNL     1       0.383  19.948  17.739  1.00  0.00     0.317 C 
HETATM    4  O2  UNL     1       0.602  19.164  16.769  1.00  0.00    -0.247 OA
HETATM    5  N3  UNL     1       0.811  19.559  19.034  1.00  0.00    -0.334 N 
ATOM      6  H3  UNL     1       0.649  20.171  19.834  1.00  0.00     0.164 HD
ENDROOT
BRANCH   1   7
HETATM    7  C6  UNL     1      -0.690  21.592  16.257  1.00  0.00     0.108 C 
HETATM    8  C7  UNL     1      -1.601  20.495  15.741  1.00  0.00     0.049 C 
HETATM    9  C8  UNL     1      -1.398  22.931  16.281  1.00  0.00     0.049 C 
BRANCH   7  10
HETATM   10  C5  UNL     1       0.492  21.736  15.386  1.00  0.00     0.246 C 
HETATM   11  N1  UNL     1       0.625  20.902  14.250  1.00  0.00    -0.351 N 
ATOM     12  H1  UNL     1      -0.100  20.212  14.050  1.00  0.00     0.163 HD
HETATM   13  O1  UNL     1       1.363  22.587  15.658  1.00  0.00    -0.271 OA
BRANCH  11  14
HETATM   14  C2  UNL     1       1.767  21.006  13.367  1.00  0.00     0.022 C 
HETATM   15  C1  UNL     1       1.563  20.137  12.134  1.00  0.00     0.037 C 
HETATM   16  C3  UNL     1       3.003  20.541  14.101  1.00  0.00     0.037 C 
HETATM   17  C4  UNL     1       2.010  22.414  12.879  1.00  0.00     0.037 C 
ENDBRANCH  11  14
ENDBRANCH   7  10
ENDBRANCH   1   7
BRANCH   5  18
HETATM   18  C10 UNL     1       1.474  18.298  19.210  1.00  0.00     0.227 C 
BRANCH  18  19
HETATM   19  C11 UNL     1       0.477  17.233  19.456  1.00  0.00     0.235 C 
HETATM   20  O3  UNL     1       0.004  17.068  20.619  1.00  0.00    -0.272 OA
HETATM   21  N4  UNL     1       0.072  16.418  18.373  1.00  0.00    -0.355 N 
ATOM     22  H4  UNL     1       0.460  16.559  17.441  1.00  0.00     0.162 HD
BRANCH  21  23
HETATM   23  C12 UNL     1      -0.903  15.380  18.620  1.00  0.00     0.084 C 
HETATM   24  C13 UNL     1      -0.307  14.062  18.176  1.00  0.00     0.025 C 
HETATM   25  C14 UNL     1      -1.255  13.275  17.294  1.00  0.00     0.002 C 
HETATM   26  C15 UNL     1      -1.636  14.075  16.065  1.00  0.00     0.000 C 
HETATM   27  C16 UNL     1      -1.949  15.498  16.412  1.00  0.00     0.002 C 
HETATM   28  C17 UNL     1      -2.186  15.640  17.890  1.00  0.00     0.025 C 
ENDBRANCH  21  23
ENDBRANCH  18  19
ENDBRANCH   5  18
TORSDOF 6
ENDMDL
