MODEL 1
REMARK VINA RESULT: -5.992781097      0.000      0.000
REMARK  3 active torsions:
REMARK  status: ('A' for Active; 'I' for Inactive)
REMARK    1  A    between atoms: C2_2  and  C3_3 
REMARK    2  A    between atoms: C3_3  and  N1_4 
REMARK       I    between atoms: N1_4  and  C4_6 
REMARK       I    between atoms: C4_6  and  N2_8 
REMARK    3  A    between atoms: N2_8  and  C5_10 
ROOT
HETATM    1  N1  UNL     1      21.134  41.229   3.932  1.00  0.00    -0.343 N 
ATOM      2  H1  UNL     1      21.380  40.243   4.023  1.00  0.00     0.164 HD
HETATM    3  C4  UNL     1      21.212  42.095   5.101  1.00  0.00     0.321 C 
HETATM    4  O1  UNL     1      20.891  43.263   4.876  1.00  0.00    -0.247 OA
HETATM    5  N2  UNL     1      21.616  41.597   6.322  1.00  0.00    -0.301 N 
ATOM      6  H2  UNL     1      21.836  40.601   6.290  1.00  0.00     0.171 HD
ENDROOT
BRANCH   5   7
HETATM    7  C5  UNL     1      21.792  42.158   7.608  1.00  0.00     0.103 A 
HETATM    8  S1  UNL     1      22.410  43.783   7.883  1.00  0.00    -0.057 SA
HETATM    9  C6  UNL     1      22.374  43.822   9.571  1.00  0.00     0.100 A 
HETATM   10 CL1  UNL     1      22.846  45.133  10.682  1.00  0.00    -0.074 Cl
HETATM   11  C7  UNL     1      21.891  42.591   9.896  1.00  0.00     0.087 A 
HETATM   12 CL2  UNL     1      21.675  42.168  11.633  1.00  0.00    -0.080 Cl
HETATM   13  C8  UNL     1      21.594  41.743   8.885  1.00  0.00     0.091 A 
HETATM   14 CL3  UNL     1      20.952  40.104   9.251  1.00  0.00    -0.079 Cl
ENDBRANCH   5   7
BRANCH   1  15
HETATM   15  C3  UNL     1      20.714  41.737   2.652  1.00  0.00     0.124 C 
BRANCH  15  16
HETATM   16  C2  UNL     1      19.549  40.924   2.108  1.00  0.00     0.015 C 
HETATM   17  C1  UNL     1      18.313  41.357   2.888  1.00  0.00     0.006 C 
ENDBRANCH  15  16
ENDBRANCH   1  15
TORSDOF 3
ENDMDL
MODEL 2
REMARK VINA RESULT: -5.991806481      2.323      3.506
REMARK  3 active torsions:
REMARK  status: ('A' for Active; 'I' for Inactive)
REMARK    1  A    between atoms: C2_2  and  C3_3 
REMARK    2  A    between atoms: C3_3  and  N1_4 
REMARK       I    between atoms: N1_4  and  C4_6 
REMARK       I    between atoms: C4_6  and  N2_8 
REMARK    3  A    between atoms: N2_8  and  C5_10 
ROOT
HETATM    1  N1  UNL     1      22.026  44.102   3.933  1.00  0.00    -0.343 N 
ATOM      2  H1  UNL     1      21.757  45.082   4.021  1.00  0.00     0.164 HD
HETATM    3  C4  UNL     1      21.960  43.235   5.103  1.00  0.00     0.321 C 
HETATM    4  O1  UNL     1      22.309  42.075   4.882  1.00  0.00    -0.247 OA
HETATM    5  N2  UNL     1      21.538  43.726   6.321  1.00  0.00    -0.301 N 
ATOM      6  H2  UNL     1      21.295  44.717   6.286  1.00  0.00     0.171 HD
ENDROOT
BRANCH   5   7
HETATM    7  C5  UNL     1      21.365  43.163   7.607  1.00  0.00     0.103 A 
HETATM    8  S1  UNL     1      20.715  41.550   7.882  1.00  0.00    -0.057 SA
HETATM    9  C6  UNL     1      20.773  41.502   9.569  1.00  0.00     0.100 A 
HETATM   10 CL1  UNL     1      20.287  40.197  10.680  1.00  0.00    -0.074 Cl
HETATM   11  C7  UNL     1      21.288  42.720   9.894  1.00  0.00     0.087 A 
HETATM   12 CL2  UNL     1      21.536  43.130  11.629  1.00  0.00    -0.080 Cl
HETATM   13  C8  UNL     1      21.590  43.566   8.883  1.00  0.00     0.091 A 
HETATM   14 CL3  UNL     1      22.274  45.189   9.248  1.00  0.00    -0.079 Cl
ENDBRANCH   5   7
BRANCH   1  15
HETATM   15  C3  UNL     1      22.465  43.602   2.657  1.00  0.00     0.124 C 
BRANCH  15  16
HETATM   16  C2  UNL     1      23.616  44.438   2.121  1.00  0.00     0.015 C 
HETATM   17  C1  UNL     1      24.867  43.991   2.868  1.00  0.00     0.006 C 
ENDBRANCH  15  16
ENDBRANCH   1  15
TORSDOF 3
ENDMDL
MODEL 3
REMARK VINA RESULT: -5.252496931      2.560      3.155
REMARK  3 active torsions:
REMARK  status: ('A' for Active; 'I' for Inactive)
REMARK    1  A    between atoms: C2_2  and  C3_3 
REMARK    2  A    between atoms: C3_3  and  N1_4 
REMARK       I    between atoms: N1_4  and  C4_6 
REMARK       I    between atoms: C4_6  and  N2_8 
REMARK    3  A    between atoms: N2_8  and  C5_10 
ROOT
HETATM    1  N1  UNL     1      23.166  44.219   4.197  1.00  0.00    -0.343 N 
ATOM      2  H1  UNL     1      23.921  44.865   4.431  1.00  0.00     0.164 HD
HETATM    3  C4  UNL     1      22.521  43.461   5.261  1.00  0.00     0.321 C 
HETATM    4  O1  UNL     1      21.627  42.713   4.865  1.00  0.00    -0.247 OA
HETATM    5  N2  UNL     1      22.920  43.608   6.573  1.00  0.00    -0.301 N 
ATOM      6  H2  UNL     1      23.681  44.279   6.684  1.00  0.00     0.171 HD
ENDROOT
BRANCH   5   7
HETATM    7  C5  UNL     1      22.510  43.036   7.800  1.00  0.00     0.103 A 
HETATM    8  S1  UNL     1      22.184  43.979   9.251  1.00  0.00    -0.057 SA
HETATM    9  C6  UNL     1      21.756  42.736  10.311  1.00  0.00     0.100 A 
HETATM   10 CL1  UNL     1      21.271  42.826  12.023  1.00  0.00    -0.074 Cl
HETATM   11  C7  UNL     1      21.871  41.620   9.538  1.00  0.00     0.087 A 
HETATM   12 CL2  UNL     1      21.505  40.013  10.262  1.00  0.00    -0.080 Cl
HETATM   13  C8  UNL     1      22.257  41.781   8.251  1.00  0.00     0.091 A 
HETATM   14 CL3  UNL     1      22.426  40.346   7.181  1.00  0.00    -0.079 Cl
ENDBRANCH   5   7
BRANCH   1  15
HETATM   15  C3  UNL     1      22.760  44.075   2.824  1.00  0.00     0.124 C 
BRANCH  15  16
HETATM   16  C2  UNL     1      23.864  44.539   1.886  1.00  0.00     0.015 C 
HETATM   17  C1  UNL     1      25.177  44.036   2.474  1.00  0.00     0.006 C 
ENDBRANCH  15  16
ENDBRANCH   1  15
TORSDOF 3
ENDMDL
MODEL 4
REMARK VINA RESULT: -5.242234485      1.615      2.228
REMARK  3 active torsions:
REMARK  status: ('A' for Active; 'I' for Inactive)
REMARK    1  A    between atoms: C2_2  and  C3_3 
REMARK    2  A    between atoms: C3_3  and  N1_4 
REMARK       I    between atoms: N1_4  and  C4_6 
REMARK       I    between atoms: C4_6  and  N2_8 
REMARK    3  A    between atoms: N2_8  and  C5_10 
ROOT
HETATM    1  N1  UNL     1      20.036  41.138   4.206  1.00  0.00    -0.343 N 
ATOM      2  H1  UNL     1      19.272  40.501   4.432  1.00  0.00     0.164 HD
HETATM    3  C4  UNL     1      20.683  41.886   5.277  1.00  0.00     0.321 C 
HETATM    4  O1  UNL     1      21.590  42.623   4.891  1.00  0.00    -0.247 OA
HETATM    5  N2  UNL     1      20.272  41.739   6.586  1.00  0.00    -0.301 N 
ATOM      6  H2  UNL     1      19.503  41.077   6.688  1.00  0.00     0.171 HD
ENDROOT
BRANCH   5   7
HETATM    7  C5  UNL     1      20.680  42.302   7.818  1.00  0.00     0.103 A 
HETATM    8  S1  UNL     1      21.005  41.349   9.262  1.00  0.00    -0.057 SA
HETATM    9  C6  UNL     1      21.430  42.584  10.332  1.00  0.00     0.100 A 
HETATM   10 CL1  UNL     1      21.913  42.481  12.044  1.00  0.00    -0.074 Cl
HETATM   11  C7  UNL     1      21.315  43.705   9.567  1.00  0.00     0.087 A 
HETATM   12 CL2  UNL     1      21.678  45.307  10.305  1.00  0.00    -0.080 Cl
HETATM   13  C8  UNL     1      20.931  43.554   8.279  1.00  0.00     0.091 A 
HETATM   14 CL3  UNL     1      20.762  44.997   7.219  1.00  0.00    -0.079 Cl
ENDBRANCH   5   7
BRANCH   1  15
HETATM   15  C3  UNL     1      20.455  41.282   2.837  1.00  0.00     0.124 C 
BRANCH  15  16
HETATM   16  C2  UNL     1      19.386  40.757   1.891  1.00  0.00     0.015 C 
HETATM   17  C1  UNL     1      18.044  41.221   2.447  1.00  0.00     0.006 C 
ENDBRANCH  15  16
ENDBRANCH   1  15
TORSDOF 3
ENDMDL
MODEL 5
REMARK VINA RESULT: -5.033468415      2.748      3.611
REMARK  3 active torsions:
REMARK  status: ('A' for Active; 'I' for Inactive)
REMARK    1  A    between atoms: C2_2  and  C3_3 
REMARK    2  A    between atoms: C3_3  and  N1_4 
REMARK       I    between atoms: N1_4  and  C4_6 
REMARK       I    between atoms: C4_6  and  N2_8 
REMARK    3  A    between atoms: N2_8  and  C5_10 
ROOT
HETATM    1  N1  UNL     1      22.122  44.539   3.798  1.00  0.00    -0.343 N 
ATOM      2  H1  UNL     1      21.161  44.610   3.462  1.00  0.00     0.164 HD
HETATM    3  C4  UNL     1      22.375  44.006   5.131  1.00  0.00     0.321 C 
HETATM    4  O1  UNL     1      23.568  43.967   5.432  1.00  0.00    -0.247 OA
HETATM    5  N2  UNL     1      21.332  43.599   5.936  1.00  0.00    -0.301 N 
ATOM      6  H2  UNL     1      20.419  43.718   5.495  1.00  0.00     0.171 HD
ENDROOT
BRANCH   5   7
HETATM    7  C5  UNL     1      21.244  43.054   7.239  1.00  0.00     0.103 A 
HETATM    8  S1  UNL     1      20.843  41.371   7.563  1.00  0.00    -0.057 SA
HETATM    9  C6  UNL     1      20.905  41.381   9.251  1.00  0.00     0.100 A 
HETATM   10 CL1  UNL     1      20.619  40.051  10.401  1.00  0.00    -0.074 Cl
HETATM   11  C7  UNL     1      21.230  42.672   9.538  1.00  0.00     0.087 A 
HETATM   12 CL2  UNL     1      21.411  43.166  11.260  1.00  0.00    -0.080 Cl
HETATM   13  C8  UNL     1      21.403  43.524   8.502  1.00  0.00     0.091 A 
HETATM   14 CL3  UNL     1      21.835  45.242   8.818  1.00  0.00    -0.079 Cl
ENDBRANCH   5   7
BRANCH   1  15
HETATM   15  C3  UNL     1      23.201  44.967   2.948  1.00  0.00     0.124 C 
BRANCH  15  16
HETATM   16  C2  UNL     1      23.142  44.252   1.606  1.00  0.00     0.015 C 
HETATM   17  C1  UNL     1      23.101  45.336   0.535  1.00  0.00     0.006 C 
ENDBRANCH  15  16
ENDBRANCH   1  15
TORSDOF 3
ENDMDL
