MODEL 1
REMARK VINA RESULT: -6.981668610      0.000      0.000
REMARK  13 active torsions:
REMARK  status: ('A' for Active; 'I' for Inactive)
REMARK    1  A    between atoms: C1_2  and  C2_3 
REMARK       I    between atoms: C1_2  and  N1_13 
REMARK    2  A    between atoms: C2_3  and  C3_4 
REMARK    3  A    between atoms: C3_4  and  C4_5 
REMARK    4  A    between atoms: N1_13  and  C10_15 
REMARK    5  A    between atoms: C10_15  and  C11_16 
REMARK    6  A    between atoms: C11_16  and  C12_17 
REMARK    7  A    between atoms: C12_17  and  N2_18 
REMARK    8  A    between atoms: N2_18  and  C13_19 
REMARK    9  A    between atoms: C16_25  and  N4_26 
REMARK   10  A    between atoms: N4_26  and  C17_28 
REMARK   11  A    between atoms: C17_28  and  C18_29 
REMARK   12  A    between atoms: C18_29  and  C19_30 
REMARK   13  A    between atoms: C19_30  and  N5_31 
ROOT
HETATM    1  C13 UNL     1      39.603  21.788  36.302  1.00  0.00     0.195 A 
HETATM    2  C14 UNL     1      39.983  23.087  36.693  1.00  0.00     0.107 A 
HETATM    3  C15 UNL     1      40.840  23.290  37.722  1.00  0.00     0.124 A 
HETATM    4 CL3  UNL     1      41.237  24.964  38.118  1.00  0.00    -0.064 Cl
HETATM    5  N3  UNL     1      41.343  22.262  38.388  1.00  0.00    -0.181 N 
ATOM      6  H3  UNL     1      41.987  22.430  39.161  1.00  0.00     0.185 HD
HETATM    7  C16 UNL     1      41.011  20.977  38.053  1.00  0.00     0.685 A 
HETATM    8  N6  UNL     1      40.178  20.778  37.051  1.00  0.00    -0.164 N 
ATOM      9  H6  UNL     1      39.942  19.814  36.814  1.00  0.00     0.187 HD
ENDROOT
BRANCH   1  10
HETATM   10  N2  UNL     1      38.826  21.535  35.426  1.00  0.00    -0.403 NA
BRANCH  10  11
HETATM   11  C12 UNL     1      37.959  21.269  34.449  1.00  0.00     0.159 C 
BRANCH  11  12
HETATM   12  C11 UNL     1      36.551  20.988  34.904  1.00  0.00     0.079 C 
BRANCH  12  13
HETATM   13  C10 UNL     1      36.269  19.649  35.442  1.00  0.00     0.128 C 
BRANCH  13  14
HETATM   14  N1  UNL     1      36.344  19.553  36.873  1.00  0.00    -0.361 N 
HETATM   15  C1  UNL     1      37.430  18.853  37.468  1.00  0.00     0.217 C 
HETATM   16  O1  UNL     1      38.281  18.330  36.699  1.00  0.00    -0.274 OA
ATOM     17  H1  UNL     1      35.627  19.984  37.457  1.00  0.00     0.162 HD
BRANCH  15  18
HETATM   18  C2  UNL     1      37.515  18.756  38.922  1.00  0.00     0.107 C 
BRANCH  18  19
HETATM   19  C3  UNL     1      37.137  17.466  39.544  1.00  0.00     0.049 C 
BRANCH  19  20
HETATM   20  C4  UNL     1      35.830  17.315  40.148  1.00  0.00    -0.036 A 
HETATM   21  C5  UNL     1      35.689  17.584  41.520  1.00  0.00     0.010 A 
HETATM   22  C6  UNL     1      34.492  17.442  42.172  1.00  0.00     0.024 A 
HETATM   23  C7  UNL     1      33.384  17.032  41.499  1.00  0.00     0.035 A 
HETATM   24 CL1  UNL     1      31.884  16.849  42.363  1.00  0.00    -0.084 Cl
HETATM   25  C8  UNL     1      33.496  16.760  40.138  1.00  0.00     0.048 A 
HETATM   26  C9  UNL     1      34.703  16.901  39.478  1.00  0.00     0.042 A 
HETATM   27 CL2  UNL     1      34.774  16.521  37.744  1.00  0.00    -0.084 Cl
ENDBRANCH  19  20
ENDBRANCH  18  19
ENDBRANCH  15  18
ENDBRANCH  13  14
ENDBRANCH  12  13
ENDBRANCH  11  12
ENDBRANCH  10  11
ENDBRANCH   1  10
BRANCH   7  28
HETATM   28  N4  UNL     1      41.535  20.062  38.753  1.00  0.00    -0.205 N 
ATOM     29  H4  UNL     1      41.960  20.337  39.638  1.00  0.00     0.183 HD
BRANCH  28  30
HETATM   30  C17 UNL     1      41.580  18.694  38.413  1.00  0.00     0.080 C 
BRANCH  30  31
HETATM   31  C18 UNL     1      41.098  17.729  39.465  1.00  0.00     0.075 C 
BRANCH  31  32
HETATM   32  C19 UNL     1      40.669  16.469  38.774  1.00  0.00     0.277 C 
BRANCH  32  33
HETATM   33  N5  UNL     1      41.225  15.264  39.269  1.00  0.00     0.088 N 
HETATM   34  C20 UNL     1      42.466  15.264  39.907  1.00  0.00     0.272 C 
HETATM   35  C21 UNL     1      43.426  14.965  38.784  1.00  0.00     0.032 C 
HETATM   36  C22 UNL     1      42.608  14.114  37.790  1.00  0.00     0.032 C 
HETATM   37  C23 UNL     1      41.219  14.168  38.371  1.00  0.00     0.272 C 
ENDBRANCH  32  33
ENDBRANCH  31  32
ENDBRANCH  30  31
ENDBRANCH  28  30
ENDBRANCH   7  28
TORSDOF 13
ENDMDL
MODEL 2
REMARK VINA RESULT: -6.857513680      1.155      1.439
REMARK  13 active torsions:
REMARK  status: ('A' for Active; 'I' for Inactive)
REMARK    1  A    between atoms: C1_2  and  C2_3 
REMARK       I    between atoms: C1_2  and  N1_13 
REMARK    2  A    between atoms: C2_3  and  C3_4 
REMARK    3  A    between atoms: C3_4  and  C4_5 
REMARK    4  A    between atoms: N1_13  and  C10_15 
REMARK    5  A    between atoms: C10_15  and  C11_16 
REMARK    6  A    between atoms: C11_16  and  C12_17 
REMARK    7  A    between atoms: C12_17  and  N2_18 
REMARK    8  A    between atoms: N2_18  and  C13_19 
REMARK    9  A    between atoms: C16_25  and  N4_26 
REMARK   10  A    between atoms: N4_26  and  C17_28 
REMARK   11  A    between atoms: C17_28  and  C18_29 
REMARK   12  A    between atoms: C18_29  and  C19_30 
REMARK   13  A    between atoms: C19_30  and  N5_31 
ROOT
HETATM    1  C13 UNL     1      39.420  21.833  36.538  1.00  0.00     0.195 A 
HETATM    2  C14 UNL     1      39.864  23.130  36.858  1.00  0.00     0.107 A 
HETATM    3  C15 UNL     1      40.837  23.335  37.779  1.00  0.00     0.124 A 
HETATM    4 CL3  UNL     1      41.305  25.007  38.095  1.00  0.00    -0.064 Cl
HETATM    5  N3  UNL     1      41.396  22.309  38.402  1.00  0.00    -0.181 N 
ATOM      6  H3  UNL     1      42.126  22.477  39.093  1.00  0.00     0.185 HD
HETATM    7  C16 UNL     1      41.005  21.025  38.132  1.00  0.00     0.685 A 
HETATM    8  N6  UNL     1      40.060  20.824  37.236  1.00  0.00    -0.164 N 
ATOM      9  H6  UNL     1      39.781  19.862  37.046  1.00  0.00     0.187 HD
ENDROOT
BRANCH   1  10
HETATM   10  N2  UNL     1      38.543  21.580  35.761  1.00  0.00    -0.403 NA
BRANCH  10  11
HETATM   11  C12 UNL     1      37.574  21.286  34.895  1.00  0.00     0.159 C 
BRANCH  11  12
HETATM   12  C11 UNL     1      36.389  20.567  35.484  1.00  0.00     0.079 C 
BRANCH  12  13
HETATM   13  C10 UNL     1      36.479  19.104  35.611  1.00  0.00     0.128 C 
BRANCH  13  14
HETATM   14  N1  UNL     1      36.174  18.600  36.921  1.00  0.00    -0.361 N 
HETATM   15  C1  UNL     1      37.238  18.278  37.809  1.00  0.00     0.217 C 
HETATM   16  O1  UNL     1      38.417  18.442  37.393  1.00  0.00    -0.274 OA
ATOM     17  H1  UNL     1      35.205  18.475  37.212  1.00  0.00     0.162 HD
BRANCH  15  18
HETATM   18  C2  UNL     1      36.935  17.770  39.143  1.00  0.00     0.107 C 
BRANCH  18  19
HETATM   19  C3  UNL     1      36.086  18.610  40.018  1.00  0.00     0.049 C 
BRANCH  19  20
HETATM   20  C4  UNL     1      34.751  18.168  40.362  1.00  0.00    -0.036 A 
HETATM   21  C5  UNL     1      33.697  18.465  39.481  1.00  0.00     0.010 A 
HETATM   22  C6  UNL     1      32.401  18.103  39.745  1.00  0.00     0.024 A 
HETATM   23  C7  UNL     1      32.092  17.433  40.886  1.00  0.00     0.035 A 
HETATM   24 CL1  UNL     1      30.433  17.003  41.195  1.00  0.00    -0.084 Cl
HETATM   25  C8  UNL     1      33.118  17.125  41.776  1.00  0.00     0.048 A 
HETATM   26  C9  UNL     1      34.425  17.490  41.513  1.00  0.00     0.042 A 
HETATM   27 CL2  UNL     1      35.679  17.077  42.701  1.00  0.00    -0.084 Cl
ENDBRANCH  19  20
ENDBRANCH  18  19
ENDBRANCH  15  18
ENDBRANCH  13  14
ENDBRANCH  12  13
ENDBRANCH  11  12
ENDBRANCH  10  11
ENDBRANCH   1  10
BRANCH   7  28
HETATM   28  N4  UNL     1      41.590  20.112  38.785  1.00  0.00    -0.205 N 
ATOM     29  H4  UNL     1      42.061  20.384  39.648  1.00  0.00     0.183 HD
BRANCH  28  30
HETATM   30  C17 UNL     1      41.646  18.751  38.421  1.00  0.00     0.080 C 
BRANCH  30  31
HETATM   31  C18 UNL     1      41.436  17.754  39.532  1.00  0.00     0.075 C 
BRANCH  31  32
HETATM   32  C19 UNL     1      40.826  16.520  38.936  1.00  0.00     0.277 C 
BRANCH  32  33
HETATM   33  N5  UNL     1      41.365  15.284  39.370  1.00  0.00     0.088 N 
HETATM   34  C20 UNL     1      42.651  15.220  39.907  1.00  0.00     0.272 C 
HETATM   35  C21 UNL     1      43.506  14.898  38.708  1.00  0.00     0.032 C 
HETATM   36  C22 UNL     1      42.576  14.101  37.771  1.00  0.00     0.032 C 
HETATM   37  C23 UNL     1      41.240  14.205  38.460  1.00  0.00     0.272 C 
ENDBRANCH  32  33
ENDBRANCH  31  32
ENDBRANCH  30  31
ENDBRANCH  28  30
ENDBRANCH   7  28
TORSDOF 13
ENDMDL
MODEL 3
REMARK VINA RESULT: -6.495421459      1.558      2.163
REMARK  13 active torsions:
REMARK  status: ('A' for Active; 'I' for Inactive)
REMARK    1  A    between atoms: C1_2  and  C2_3 
REMARK       I    between atoms: C1_2  and  N1_13 
REMARK    2  A    between atoms: C2_3  and  C3_4 
REMARK    3  A    between atoms: C3_4  and  C4_5 
REMARK    4  A    between atoms: N1_13  and  C10_15 
REMARK    5  A    between atoms: C10_15  and  C11_16 
REMARK    6  A    between atoms: C11_16  and  C12_17 
REMARK    7  A    between atoms: C12_17  and  N2_18 
REMARK    8  A    between atoms: N2_18  and  C13_19 
REMARK    9  A    between atoms: C16_25  and  N4_26 
REMARK   10  A    between atoms: N4_26  and  C17_28 
REMARK   11  A    between atoms: C17_28  and  C18_29 
REMARK   12  A    between atoms: C18_29  and  C19_30 
REMARK   13  A    between atoms: C19_30  and  N5_31 
ROOT
HETATM    1  C13 UNL     1      39.569  21.884  36.284  1.00  0.00     0.195 A 
HETATM    2  C14 UNL     1      39.921  23.175  36.722  1.00  0.00     0.107 A 
HETATM    3  C15 UNL     1      40.799  23.359  37.738  1.00  0.00     0.124 A 
HETATM    4 CL3  UNL     1      41.159  25.026  38.196  1.00  0.00    -0.064 Cl
HETATM    5  N3  UNL     1      41.347  22.319  38.347  1.00  0.00    -0.181 N 
ATOM      6  H3  UNL     1      42.005  22.472  39.110  1.00  0.00     0.185 HD
HETATM    7  C16 UNL     1      41.042  21.040  37.965  1.00  0.00     0.685 A 
HETATM    8  N6  UNL     1      40.190  20.859  36.976  1.00  0.00    -0.164 N 
ATOM      9  H6  UNL     1      39.974  19.900  36.703  1.00  0.00     0.187 HD
ENDROOT
BRANCH   1  10
HETATM   10  N2  UNL     1      38.776  21.646  35.417  1.00  0.00    -0.403 NA
BRANCH  10  11
HETATM   11  C12 UNL     1      37.893  21.367  34.459  1.00  0.00     0.159 C 
BRANCH  11  12
HETATM   12  C11 UNL     1      36.502  21.053  34.946  1.00  0.00     0.079 C 
BRANCH  12  13
HETATM   13  C10 UNL     1      36.263  19.707  35.488  1.00  0.00     0.128 C 
BRANCH  13  14
HETATM   14  N1  UNL     1      36.289  19.629  36.922  1.00  0.00    -0.361 N 
HETATM   15  C1  UNL     1      37.346  18.925  37.562  1.00  0.00     0.217 C 
HETATM   16  O1  UNL     1      38.216  18.383  36.829  1.00  0.00    -0.274 OA
ATOM     17  H1  UNL     1      35.557  20.075  37.475  1.00  0.00     0.162 HD
BRANCH  15  18
HETATM   18  C2  UNL     1      37.380  18.845  39.019  1.00  0.00     0.107 C 
BRANCH  18  19
HETATM   19  C3  UNL     1      36.196  18.274  39.701  1.00  0.00     0.049 C 
BRANCH  19  20
HETATM   20  C4  UNL     1      36.242  16.919  40.207  1.00  0.00    -0.036 A 
HETATM   21  C5  UNL     1      37.023  15.972  39.522  1.00  0.00     0.010 A 
HETATM   22  C6  UNL     1      37.101  14.663  39.922  1.00  0.00     0.024 A 
HETATM   23  C7  UNL     1      36.414  14.234  41.014  1.00  0.00     0.035 A 
HETATM   24 CL1  UNL     1      36.526  12.562  41.484  1.00  0.00    -0.084 Cl
HETATM   25  C8  UNL     1      35.634  15.152  41.712  1.00  0.00     0.048 A 
HETATM   26  C9  UNL     1      35.552  16.472  41.310  1.00  0.00     0.042 A 
HETATM   27 CL2  UNL     1      34.525  17.583  42.239  1.00  0.00    -0.084 Cl
ENDBRANCH  19  20
ENDBRANCH  18  19
ENDBRANCH  15  18
ENDBRANCH  13  14
ENDBRANCH  12  13
ENDBRANCH  11  12
ENDBRANCH  10  11
ENDBRANCH   1  10
BRANCH   7  28
HETATM   28  N4  UNL     1      41.608  20.112  38.612  1.00  0.00    -0.205 N 
ATOM     29  H4  UNL     1      42.596  20.235  38.838  1.00  0.00     0.183 HD
BRANCH  28  30
HETATM   30  C17 UNL     1      40.991  18.921  39.048  1.00  0.00     0.080 C 
BRANCH  30  31
HETATM   31  C18 UNL     1      41.910  17.845  39.566  1.00  0.00     0.075 C 
BRANCH  31  32
HETATM   32  C19 UNL     1      42.423  17.069  38.389  1.00  0.00     0.277 C 
BRANCH  32  33
HETATM   33  N5  UNL     1      42.615  15.680  38.591  1.00  0.00     0.088 N 
HETATM   34  C20 UNL     1      42.280  14.766  37.593  1.00  0.00     0.272 C 
HETATM   35  C21 UNL     1      40.866  14.378  37.946  1.00  0.00     0.032 C 
HETATM   36  C22 UNL     1      40.794  14.534  39.479  1.00  0.00     0.032 C 
HETATM   37  C23 UNL     1      42.122  15.162  39.814  1.00  0.00     0.272 C 
ENDBRANCH  32  33
ENDBRANCH  31  32
ENDBRANCH  30  31
ENDBRANCH  28  30
ENDBRANCH   7  28
TORSDOF 13
ENDMDL
MODEL 4
REMARK VINA RESULT: -6.487154027      1.209      1.386
REMARK  13 active torsions:
REMARK  status: ('A' for Active; 'I' for Inactive)
REMARK    1  A    between atoms: C1_2  and  C2_3 
REMARK       I    between atoms: C1_2  and  N1_13 
REMARK    2  A    between atoms: C2_3  and  C3_4 
REMARK    3  A    between atoms: C3_4  and  C4_5 
REMARK    4  A    between atoms: N1_13  and  C10_15 
REMARK    5  A    between atoms: C10_15  and  C11_16 
REMARK    6  A    between atoms: C11_16  and  C12_17 
REMARK    7  A    between atoms: C12_17  and  N2_18 
REMARK    8  A    between atoms: N2_18  and  C13_19 
REMARK    9  A    between atoms: C16_25  and  N4_26 
REMARK   10  A    between atoms: N4_26  and  C17_28 
REMARK   11  A    between atoms: C17_28  and  C18_29 
REMARK   12  A    between atoms: C18_29  and  C19_30 
REMARK   13  A    between atoms: C19_30  and  N5_31 
ROOT
HETATM    1  C13 UNL     1      39.433  21.968  36.341  1.00  0.00     0.195 A 
HETATM    2  C14 UNL     1      39.897  23.229  36.761  1.00  0.00     0.107 A 
HETATM    3  C15 UNL     1      40.853  23.346  37.715  1.00  0.00     0.124 A 
HETATM    4 CL3  UNL     1      41.350  24.980  38.158  1.00  0.00    -0.064 Cl
HETATM    5  N3  UNL     1      41.374  22.266  38.276  1.00  0.00    -0.181 N 
ATOM      6  H3  UNL     1      42.093  22.368  38.993  1.00  0.00     0.185 HD
HETATM    7  C16 UNL     1      40.963  21.013  37.908  1.00  0.00     0.685 A 
HETATM    8  N6  UNL     1      40.034  20.898  36.980  1.00  0.00    -0.164 N 
ATOM      9  H6  UNL     1      39.739  19.958  36.716  1.00  0.00     0.187 HD
ENDROOT
BRANCH   1  10
HETATM   10  N2  UNL     1      38.568  21.790  35.530  1.00  0.00    -0.403 NA
BRANCH  10  11
HETATM   11  C12 UNL     1      37.610  21.578  34.629  1.00  0.00     0.159 C 
BRANCH  11  12
HETATM   12  C11 UNL     1      37.816  20.371  33.751  1.00  0.00     0.079 C 
BRANCH  12  13
HETATM   13  C10 UNL     1      37.653  19.047  34.372  1.00  0.00     0.128 C 
BRANCH  13  14
HETATM   14  N1  UNL     1      36.703  19.007  35.448  1.00  0.00    -0.361 N 
HETATM   15  C1  UNL     1      37.138  18.626  36.748  1.00  0.00     0.217 C 
HETATM   16  O1  UNL     1      38.354  18.325  36.893  1.00  0.00    -0.274 OA
ATOM     17  H1  UNL     1      35.727  19.250  35.283  1.00  0.00     0.162 HD
BRANCH  15  18
HETATM   18  C2  UNL     1      36.179  18.587  37.847  1.00  0.00     0.107 C 
BRANCH  18  19
HETATM   19  C3  UNL     1      36.717  18.431  39.218  1.00  0.00     0.049 C 
BRANCH  19  20
HETATM   20  C4  UNL     1      36.079  17.517  40.140  1.00  0.00    -0.036 A 
HETATM   21  C5  UNL     1      35.153  18.030  41.065  1.00  0.00     0.010 A 
HETATM   22  C6  UNL     1      34.524  17.235  41.987  1.00  0.00     0.024 A 
HETATM   23  C7  UNL     1      34.780  15.900  42.034  1.00  0.00     0.035 A 
HETATM   24 CL1  UNL     1      33.973  14.924  43.229  1.00  0.00    -0.084 Cl
HETATM   25  C8  UNL     1      35.692  15.365  41.129  1.00  0.00     0.048 A 
HETATM   26  C9  UNL     1      36.329  16.165  40.199  1.00  0.00     0.042 A 
HETATM   27 CL2  UNL     1      37.492  15.416  39.085  1.00  0.00    -0.084 Cl
ENDBRANCH  19  20
ENDBRANCH  18  19
ENDBRANCH  15  18
ENDBRANCH  13  14
ENDBRANCH  12  13
ENDBRANCH  11  12
ENDBRANCH  10  11
ENDBRANCH   1  10
BRANCH   7  28
HETATM   28  N4  UNL     1      41.512  20.043  38.507  1.00  0.00    -0.205 N 
ATOM     29  H4  UNL     1      42.532  20.013  38.507  1.00  0.00     0.183 HD
BRANCH  28  30
HETATM   30  C17 UNL     1      40.836  19.002  39.174  1.00  0.00     0.080 C 
BRANCH  30  31
HETATM   31  C18 UNL     1      41.692  18.055  39.974  1.00  0.00     0.075 C 
BRANCH  31  32
HETATM   32  C19 UNL     1      42.278  17.050  39.027  1.00  0.00     0.277 C 
BRANCH  32  33
HETATM   33  N5  UNL     1      42.364  15.718  39.502  1.00  0.00     0.088 N 
HETATM   34  C20 UNL     1      43.403  14.884  39.089  1.00  0.00     0.272 C 
HETATM   35  C21 UNL     1      42.814  14.168  37.900  1.00  0.00     0.032 C 
HETATM   36  C22 UNL     1      41.300  14.115  38.190  1.00  0.00     0.032 C 
HETATM   37  C23 UNL     1      41.168  14.961  39.430  1.00  0.00     0.272 C 
ENDBRANCH  32  33
ENDBRANCH  31  32
ENDBRANCH  30  31
ENDBRANCH  28  30
ENDBRANCH   7  28
TORSDOF 13
ENDMDL
MODEL 5
REMARK VINA RESULT: -6.340165353      4.137      6.407
REMARK  13 active torsions:
REMARK  status: ('A' for Active; 'I' for Inactive)
REMARK    1  A    between atoms: C1_2  and  C2_3 
REMARK       I    between atoms: C1_2  and  N1_13 
REMARK    2  A    between atoms: C2_3  and  C3_4 
REMARK    3  A    between atoms: C3_4  and  C4_5 
REMARK    4  A    between atoms: N1_13  and  C10_15 
REMARK    5  A    between atoms: C10_15  and  C11_16 
REMARK    6  A    between atoms: C11_16  and  C12_17 
REMARK    7  A    between atoms: C12_17  and  N2_18 
REMARK    8  A    between atoms: N2_18  and  C13_19 
REMARK    9  A    between atoms: C16_25  and  N4_26 
REMARK   10  A    between atoms: N4_26  and  C17_28 
REMARK   11  A    between atoms: C17_28  and  C18_29 
REMARK   12  A    between atoms: C18_29  and  C19_30 
REMARK   13  A    between atoms: C19_30  and  N5_31 
ROOT
HETATM    1  C13 UNL     1      41.558  20.412  37.936  1.00  0.00     0.195 A 
HETATM    2  C14 UNL     1      40.931  21.671  37.999  1.00  0.00     0.107 A 
HETATM    3  C15 UNL     1      41.184  22.632  37.077  1.00  0.00     0.124 A 
HETATM    4 CL3  UNL     1      40.338  24.169  37.265  1.00  0.00    -0.064 Cl
HETATM    5  N3  UNL     1      42.035  22.403  36.088  1.00  0.00    -0.181 N 
ATOM      6  H3  UNL     1      42.217  23.135  35.402  1.00  0.00     0.185 HD
HETATM    7  C16 UNL     1      42.674  21.198  35.975  1.00  0.00     0.685 A 
HETATM    8  N6  UNL     1      42.428  20.263  36.871  1.00  0.00    -0.164 N 
ATOM      9  H6  UNL     1      42.912  19.370  36.772  1.00  0.00     0.187 HD
ENDROOT
BRANCH   1  10
HETATM   10  N2  UNL     1      41.408  19.531  38.734  1.00  0.00    -0.403 NA
BRANCH  10  11
HETATM   11  C12 UNL     1      41.233  18.543  39.611  1.00  0.00     0.159 C 
BRANCH  11  12
HETATM   12  C11 UNL     1      41.292  17.155  39.028  1.00  0.00     0.079 C 
BRANCH  12  13
HETATM   13  C10 UNL     1      40.103  16.671  38.309  1.00  0.00     0.128 C 
BRANCH  13  14
HETATM   14  N1  UNL     1      39.010  17.602  38.273  1.00  0.00    -0.361 N 
HETATM   15  C1  UNL     1      37.769  17.244  38.868  1.00  0.00     0.217 C 
HETATM   16  O1  UNL     1      37.682  16.103  39.397  1.00  0.00    -0.274 OA
ATOM     17  H1  UNL     1      39.122  18.512  37.825  1.00  0.00     0.162 HD
BRANCH  15  18
HETATM   18  C2  UNL     1      36.655  18.186  38.838  1.00  0.00     0.107 C 
BRANCH  18  19
HETATM   19  C3  UNL     1      36.050  18.571  40.134  1.00  0.00     0.049 C 
BRANCH  19  20
HETATM   20  C4  UNL     1      34.709  18.136  40.458  1.00  0.00    -0.036 A 
HETATM   21  C5  UNL     1      33.665  18.455  39.572  1.00  0.00     0.010 A 
HETATM   22  C6  UNL     1      32.365  18.101  39.818  1.00  0.00     0.024 A 
HETATM   23  C7  UNL     1      32.038  17.415  40.945  1.00  0.00     0.035 A 
HETATM   24 CL1  UNL     1      30.373  16.995  41.232  1.00  0.00    -0.084 Cl
HETATM   25  C8  UNL     1      33.053  17.084  41.840  1.00  0.00     0.048 A 
HETATM   26  C9  UNL     1      34.366  17.442  41.595  1.00  0.00     0.042 A 
HETATM   27 CL2  UNL     1      35.605  17.000  42.788  1.00  0.00    -0.084 Cl
ENDBRANCH  19  20
ENDBRANCH  18  19
ENDBRANCH  15  18
ENDBRANCH  13  14
ENDBRANCH  12  13
ENDBRANCH  11  12
ENDBRANCH  10  11
ENDBRANCH   1  10
BRANCH   7  28
HETATM   28  N4  UNL     1      43.476  21.077  35.003  1.00  0.00    -0.205 N 
ATOM     29  H4  UNL     1      43.479  20.184  34.509  1.00  0.00     0.183 HD
BRANCH  28  30
HETATM   30  C17 UNL     1      44.365  22.071  34.545  1.00  0.00     0.080 C 
BRANCH  30  31
HETATM   31  C18 UNL     1      44.391  22.307  33.057  1.00  0.00     0.075 C 
BRANCH  31  32
HETATM   32  C19 UNL     1      45.772  22.757  32.685  1.00  0.00     0.277 C 
BRANCH  32  33
HETATM   33  N5  UNL     1      45.961  23.148  31.336  1.00  0.00     0.088 N 
HETATM   34  C20 UNL     1      47.110  23.841  30.953  1.00  0.00     0.272 C 
HETATM   35  C21 UNL     1      46.690  25.285  31.062  1.00  0.00     0.032 C 
HETATM   36  C22 UNL     1      45.173  25.269  30.787  1.00  0.00     0.032 C 
HETATM   37  C23 UNL     1      44.860  23.796  30.724  1.00  0.00     0.272 C 
ENDBRANCH  32  33
ENDBRANCH  31  32
ENDBRANCH  30  31
ENDBRANCH  28  30
ENDBRANCH   7  28
TORSDOF 13
ENDMDL
