MODEL 1
REMARK VINA RESULT: -7.041936045      0.000      0.000
REMARK  11 active torsions:
REMARK  status: ('A' for Active; 'I' for Inactive)
REMARK       I    between atoms: C1_2  and  N1_3 
REMARK    1  A    between atoms: C1_2  and  C11_16 
REMARK    2  A    between atoms: N1_3  and  C2_5 
REMARK    3  A    between atoms: C2_5  and  C3_6 
REMARK    4  A    between atoms: C3_6  and  C4_7 
REMARK    5  A    between atoms: C4_7  and  C5_8 
REMARK    6  A    between atoms: C16_24  and  C17_25 
REMARK    7  A    between atoms: C17_25  and  N3_26 
REMARK    8  A    between atoms: N3_26  and  C18_29 
REMARK    9  A    between atoms: C18_29  and  C19_30 
REMARK   10  A    between atoms: C19_30  and  C20_31 
REMARK   11  A    between atoms: C20_31  and  N4_32 
ROOT
HETATM    1  C11 UNL     1      41.497  20.839  37.877  1.00  0.00     0.180 C 
HETATM    2  N2  UNL     1      41.445  22.163  38.407  1.00  0.00    -0.371 N 
ATOM      3  H2  UNL     1      41.931  22.258  39.299  1.00  0.00     0.161 HD
HETATM    4  C12 UNL     1      40.861  23.378  37.955  1.00  0.00     0.074 C 
HETATM    5  S1  UNL     1      40.982  24.685  38.937  1.00  0.00    -0.066 SA
HETATM    6  C13 UNL     1      40.142  23.583  36.668  1.00  0.00     0.069 C 
HETATM    7  C14 UNL     1      39.497  22.318  36.187  1.00  0.00     0.007 C 
HETATM    8  C15 UNL     1      39.106  21.362  37.293  1.00  0.00     0.009 C 
HETATM    9  C16 UNL     1      40.107  20.293  37.564  1.00  0.00     0.043 C 
ENDROOT
BRANCH   1  10
HETATM   10  C1  UNL     1      42.324  20.693  36.652  1.00  0.00     0.240 C 
HETATM   11  O1  UNL     1      43.343  21.377  36.513  1.00  0.00    -0.271 OA
HETATM   12  N1  UNL     1      41.926  19.772  35.672  1.00  0.00    -0.359 N 
ATOM     13  H1  UNL     1      41.081  19.237  35.874  1.00  0.00     0.162 HD
BRANCH  12  14
HETATM   14  C2  UNL     1      42.565  19.493  34.418  1.00  0.00     0.123 C 
BRANCH  14  15
HETATM   15  C3  UNL     1      42.412  20.616  33.454  1.00  0.00     0.024 C 
BRANCH  15  16
HETATM   16  C4  UNL     1      43.329  20.402  32.235  1.00  0.00     0.042 C 
BRANCH  16  17
HETATM   17  C5  UNL     1      44.216  21.556  32.051  1.00  0.00    -0.036 A 
HETATM   18  C6  UNL     1      43.850  22.530  31.125  1.00  0.00     0.010 A 
HETATM   19  C7  UNL     1      44.603  23.638  30.866  1.00  0.00     0.024 A 
HETATM   20  C8  UNL     1      45.778  23.801  31.551  1.00  0.00     0.035 A 
HETATM   21 CL1  UNL     1      46.769  25.224  31.235  1.00  0.00    -0.084 Cl
HETATM   22  C9  UNL     1      46.181  22.865  32.478  1.00  0.00     0.048 A 
HETATM   23  C10 UNL     1      45.388  21.728  32.729  1.00  0.00     0.042 A 
HETATM   24 CL2  UNL     1      45.919  20.549  33.897  1.00  0.00    -0.084 Cl
ENDBRANCH  16  17
ENDBRANCH  15  16
ENDBRANCH  14  15
ENDBRANCH  12  14
ENDBRANCH   1  10
BRANCH   9  25
HETATM   25  C17 UNL     1      39.660  19.449  38.724  1.00  0.00     0.239 C 
BRANCH  25  26
HETATM   26  N3  UNL     1      40.802  18.942  39.418  1.00  0.00    -0.075 N 
ATOM     27  H32 UNL     1      41.661  19.299  38.999  1.00  0.00     0.277 HD
ATOM     28  H31 UNL     1      40.872  19.363  40.345  1.00  0.00     0.277 HD
BRANCH  26  29
HETATM   29  C18 UNL     1      40.849  17.517  39.513  1.00  0.00     0.234 C 
BRANCH  29  30
HETATM   30  C19 UNL     1      42.216  16.954  39.357  1.00  0.00     0.057 C 
BRANCH  30  31
HETATM   31  C20 UNL     1      42.762  17.205  37.968  1.00  0.00     0.274 C 
BRANCH  31  32
HETATM   32  N4  UNL     1      42.676  15.971  37.218  1.00  0.00     0.088 N 
HETATM   33  C21 UNL     1      43.420  14.967  37.935  1.00  0.00     0.275 C 
HETATM   34  C22 UNL     1      44.523  14.432  37.029  1.00  0.00     0.067 C 
HETATM   35  C23 UNL     1      45.376  15.635  36.633  1.00  0.00     0.173 C 
HETATM   36  F1  UNL     1      46.479  15.182  35.926  1.00  0.00    -0.249 F 
HETATM   37  C24 UNL     1      44.584  16.532  35.746  1.00  0.00     0.067 C 
HETATM   38  C25 UNL     1      43.108  16.206  35.880  1.00  0.00     0.275 C 
ENDBRANCH  31  32
ENDBRANCH  30  31
ENDBRANCH  29  30
ENDBRANCH  26  29
ENDBRANCH  25  26
ENDBRANCH   9  25
TORSDOF 11
ENDMDL
MODEL 2
REMARK VINA RESULT: -6.981529457      3.325      4.294
REMARK  11 active torsions:
REMARK  status: ('A' for Active; 'I' for Inactive)
REMARK       I    between atoms: C1_2  and  N1_3 
REMARK    1  A    between atoms: C1_2  and  C11_16 
REMARK    2  A    between atoms: N1_3  and  C2_5 
REMARK    3  A    between atoms: C2_5  and  C3_6 
REMARK    4  A    between atoms: C3_6  and  C4_7 
REMARK    5  A    between atoms: C4_7  and  C5_8 
REMARK    6  A    between atoms: C16_24  and  C17_25 
REMARK    7  A    between atoms: C17_25  and  N3_26 
REMARK    8  A    between atoms: N3_26  and  C18_29 
REMARK    9  A    between atoms: C18_29  and  C19_30 
REMARK   10  A    between atoms: C19_30  and  C20_31 
REMARK   11  A    between atoms: C20_31  and  N4_32 
ROOT
HETATM    1  C11 UNL     1      41.744  20.852  37.777  1.00  0.00     0.180 C 
HETATM    2  N2  UNL     1      41.537  22.175  38.269  1.00  0.00    -0.371 N 
ATOM      3  H2  UNL     1      42.058  22.372  39.124  1.00  0.00     0.161 HD
HETATM    4  C12 UNL     1      40.759  23.278  37.820  1.00  0.00     0.074 C 
HETATM    5  S1  UNL     1      40.753  24.626  38.752  1.00  0.00    -0.066 SA
HETATM    6  C13 UNL     1      39.942  23.329  36.577  1.00  0.00     0.069 C 
HETATM    7  C14 UNL     1      39.456  21.968  36.178  1.00  0.00     0.007 C 
HETATM    8  C15 UNL     1      39.273  21.011  37.335  1.00  0.00     0.009 C 
HETATM    9  C16 UNL     1      40.431  20.104  37.572  1.00  0.00     0.043 C 
ENDROOT
BRANCH   1  10
HETATM   10  C1  UNL     1      42.508  20.774  36.505  1.00  0.00     0.240 C 
HETATM   11  O1  UNL     1      43.390  21.605  36.267  1.00  0.00    -0.271 OA
HETATM   12  N1  UNL     1      42.208  19.750  35.595  1.00  0.00    -0.359 N 
ATOM     13  H1  UNL     1      41.476  19.098  35.878  1.00  0.00     0.162 HD
BRANCH  12  14
HETATM   14  C2  UNL     1      42.807  19.511  34.313  1.00  0.00     0.123 C 
BRANCH  14  15
HETATM   15  C3  UNL     1      41.827  18.968  33.335  1.00  0.00     0.024 C 
BRANCH  15  16
HETATM   16  C4  UNL     1      40.752  18.136  34.062  1.00  0.00     0.042 C 
BRANCH  16  17
HETATM   17  C5  UNL     1      39.451  18.812  33.998  1.00  0.00    -0.036 A 
HETATM   18  C6  UNL     1      39.269  19.808  33.042  1.00  0.00     0.010 A 
HETATM   19  C7  UNL     1      38.106  20.508  32.901  1.00  0.00     0.024 A 
HETATM   20  C8  UNL     1      37.065  20.216  33.742  1.00  0.00     0.035 A 
HETATM   21 CL1  UNL     1      35.552  21.105  33.580  1.00  0.00    -0.084 Cl
HETATM   22  C9  UNL     1      37.198  19.238  34.703  1.00  0.00     0.048 A 
HETATM   23  C10 UNL     1      38.407  18.528  34.830  1.00  0.00     0.042 A 
HETATM   24 CL2  UNL     1      38.560  17.301  36.059  1.00  0.00    -0.084 Cl
ENDBRANCH  16  17
ENDBRANCH  15  16
ENDBRANCH  14  15
ENDBRANCH  12  14
ENDBRANCH   1  10
BRANCH   9  25
HETATM   25  C17 UNL     1      40.179  19.252  38.785  1.00  0.00     0.239 C 
BRANCH  25  26
HETATM   26  N3  UNL     1      41.368  19.180  39.576  1.00  0.00    -0.075 N 
ATOM     27  H32 UNL     1      42.137  19.659  39.108  1.00  0.00     0.277 HD
ATOM     28  H31 UNL     1      41.278  19.765  40.407  1.00  0.00     0.277 HD
BRANCH  26  29
HETATM   29  C18 UNL     1      41.754  17.853  39.939  1.00  0.00     0.234 C 
BRANCH  29  30
HETATM   30  C19 UNL     1      41.253  16.811  39.006  1.00  0.00     0.057 C 
BRANCH  30  31
HETATM   31  C20 UNL     1      42.239  15.669  38.873  1.00  0.00     0.274 C 
BRANCH  31  32
HETATM   32  N4  UNL     1      42.252  15.240  37.492  1.00  0.00     0.088 N 
HETATM   33  C21 UNL     1      43.066  14.054  37.406  1.00  0.00     0.275 C 
HETATM   34  C22 UNL     1      44.211  14.314  36.435  1.00  0.00     0.067 C 
HETATM   35  C23 UNL     1      44.972  15.520  36.979  1.00  0.00     0.173 C 
HETATM   36  F1  UNL     1      46.110  15.710  36.210  1.00  0.00    -0.249 F 
HETATM   37  C24 UNL     1      44.119  16.736  36.864  1.00  0.00     0.067 C 
HETATM   38  C25 UNL     1      42.671  16.325  36.669  1.00  0.00     0.275 C 
ENDBRANCH  31  32
ENDBRANCH  30  31
ENDBRANCH  29  30
ENDBRANCH  26  29
ENDBRANCH  25  26
ENDBRANCH   9  25
TORSDOF 11
ENDMDL
MODEL 3
REMARK VINA RESULT: -6.972356823      4.525      7.760
REMARK  11 active torsions:
REMARK  status: ('A' for Active; 'I' for Inactive)
REMARK       I    between atoms: C1_2  and  N1_3 
REMARK    1  A    between atoms: C1_2  and  C11_16 
REMARK    2  A    between atoms: N1_3  and  C2_5 
REMARK    3  A    between atoms: C2_5  and  C3_6 
REMARK    4  A    between atoms: C3_6  and  C4_7 
REMARK    5  A    between atoms: C4_7  and  C5_8 
REMARK    6  A    between atoms: C16_24  and  C17_25 
REMARK    7  A    between atoms: C17_25  and  N3_26 
REMARK    8  A    between atoms: N3_26  and  C18_29 
REMARK    9  A    between atoms: C18_29  and  C19_30 
REMARK   10  A    between atoms: C19_30  and  C20_31 
REMARK   11  A    between atoms: C20_31  and  N4_32 
ROOT
HETATM    1  C11 UNL     1      40.936  20.659  38.107  1.00  0.00     0.180 C 
HETATM    2  N2  UNL     1      40.927  22.011  38.565  1.00  0.00    -0.371 N 
ATOM      3  H2  UNL     1      41.228  22.109  39.535  1.00  0.00     0.161 HD
HETATM    4  C12 UNL     1      40.588  23.250  37.955  1.00  0.00     0.074 C 
HETATM    5  S1  UNL     1      40.653  24.594  38.891  1.00  0.00    -0.066 SA
HETATM    6  C13 UNL     1      40.175  23.449  36.539  1.00  0.00     0.069 C 
HETATM    7  C14 UNL     1      39.503  22.231  35.982  1.00  0.00     0.007 C 
HETATM    8  C15 UNL     1      38.790  21.388  37.016  1.00  0.00     0.009 C 
HETATM    9  C16 UNL     1      39.587  20.241  37.531  1.00  0.00     0.043 C 
ENDROOT
BRANCH   1  10
HETATM   10  C1  UNL     1      41.974  20.355  37.089  1.00  0.00     0.240 C 
HETATM   11  O1  UNL     1      42.851  21.187  36.839  1.00  0.00    -0.271 OA
HETATM   12  N1  UNL     1      41.934  19.118  36.430  1.00  0.00    -0.359 N 
ATOM     13  H1  UNL     1      41.185  18.484  36.709  1.00  0.00     0.162 HD
BRANCH  12  14
HETATM   14  C2  UNL     1      42.821  18.638  35.409  1.00  0.00     0.123 C 
BRANCH  14  15
HETATM   15  C3  UNL     1      43.166  17.204  35.602  1.00  0.00     0.024 C 
BRANCH  15  16
HETATM   16  C4  UNL     1      43.475  16.924  37.085  1.00  0.00     0.042 C 
BRANCH  16  17
HETATM   17  C5  UNL     1      42.505  15.974  37.640  1.00  0.00    -0.036 A 
HETATM   18  C6  UNL     1      42.281  14.781  36.957  1.00  0.00     0.010 A 
HETATM   19  C7  UNL     1      41.395  13.832  37.376  1.00  0.00     0.024 A 
HETATM   20  C8  UNL     1      40.690  14.065  38.528  1.00  0.00     0.035 A 
HETATM   21 CL1  UNL     1      39.539  12.854  39.090  1.00  0.00    -0.084 Cl
HETATM   22  C9  UNL     1      40.877  15.230  39.238  1.00  0.00     0.048 A 
HETATM   23  C10 UNL     1      41.797  16.195  38.786  1.00  0.00     0.042 A 
HETATM   24 CL2  UNL     1      42.014  17.668  39.693  1.00  0.00    -0.084 Cl
ENDBRANCH  16  17
ENDBRANCH  15  16
ENDBRANCH  14  15
ENDBRANCH  12  14
ENDBRANCH   1  10
BRANCH   9  25
HETATM   25  C17 UNL     1      38.820  19.518  38.603  1.00  0.00     0.239 C 
BRANCH  25  26
HETATM   26  N3  UNL     1      37.419  19.611  38.337  1.00  0.00    -0.075 N 
ATOM     27  H32 UNL     1      36.920  19.943  39.162  1.00  0.00     0.277 HD
ATOM     28  H31 UNL     1      37.228  20.381  37.696  1.00  0.00     0.277 HD
BRANCH  26  29
HETATM   29  C18 UNL     1      36.831  18.402  37.852  1.00  0.00     0.234 C 
BRANCH  29  30
HETATM   30  C19 UNL     1      35.425  18.205  38.292  1.00  0.00     0.057 C 
BRANCH  30  31
HETATM   31  C20 UNL     1      35.170  16.769  38.699  1.00  0.00     0.274 C 
BRANCH  31  32
HETATM   32  N4  UNL     1      34.105  16.759  39.679  1.00  0.00     0.088 N 
HETATM   33  C21 UNL     1      34.079  18.052  40.314  1.00  0.00     0.275 C 
HETATM   34  C22 UNL     1      34.290  17.868  41.812  1.00  0.00     0.067 C 
HETATM   35  C23 UNL     1      35.629  17.152  41.973  1.00  0.00     0.173 C 
HETATM   36  F1  UNL     1      35.938  17.089  43.324  1.00  0.00    -0.249 F 
HETATM   37  C24 UNL     1      35.513  15.762  41.451  1.00  0.00     0.067 C 
HETATM   38  C25 UNL     1      34.290  15.654  40.559  1.00  0.00     0.275 C 
ENDBRANCH  31  32
ENDBRANCH  30  31
ENDBRANCH  29  30
ENDBRANCH  26  29
ENDBRANCH  25  26
ENDBRANCH   9  25
TORSDOF 11
ENDMDL
MODEL 4
REMARK VINA RESULT: -6.881695427      2.011      2.870
REMARK  11 active torsions:
REMARK  status: ('A' for Active; 'I' for Inactive)
REMARK       I    between atoms: C1_2  and  N1_3 
REMARK    1  A    between atoms: C1_2  and  C11_16 
REMARK    2  A    between atoms: N1_3  and  C2_5 
REMARK    3  A    between atoms: C2_5  and  C3_6 
REMARK    4  A    between atoms: C3_6  and  C4_7 
REMARK    5  A    between atoms: C4_7  and  C5_8 
REMARK    6  A    between atoms: C16_24  and  C17_25 
REMARK    7  A    between atoms: C17_25  and  N3_26 
REMARK    8  A    between atoms: N3_26  and  C18_29 
REMARK    9  A    between atoms: C18_29  and  C19_30 
REMARK   10  A    between atoms: C19_30  and  C20_31 
REMARK   11  A    between atoms: C20_31  and  N4_32 
ROOT
HETATM    1  C11 UNL     1      41.593  20.907  37.736  1.00  0.00     0.180 C 
HETATM    2  N2  UNL     1      41.523  22.232  38.261  1.00  0.00    -0.371 N 
ATOM      3  H2  UNL     1      42.108  22.369  39.086  1.00  0.00     0.161 HD
HETATM    4  C12 UNL     1      40.811  23.403  37.879  1.00  0.00     0.074 C 
HETATM    5  S1  UNL     1      40.969  24.727  38.831  1.00  0.00    -0.066 SA
HETATM    6  C13 UNL     1      39.927  23.544  36.689  1.00  0.00     0.069 C 
HETATM    7  C14 UNL     1      39.310  22.236  36.299  1.00  0.00     0.007 C 
HETATM    8  C15 UNL     1      39.120  21.272  37.450  1.00  0.00     0.009 C 
HETATM    9  C16 UNL     1      40.213  20.271  37.600  1.00  0.00     0.043 C 
ENDROOT
BRANCH   1  10
HETATM   10  C1  UNL     1      42.271  20.797  36.419  1.00  0.00     0.240 C 
HETATM   11  O1  UNL     1      42.006  19.852  35.669  1.00  0.00    -0.271 OA
HETATM   12  N1  UNL     1      43.205  21.777  36.054  1.00  0.00    -0.359 N 
ATOM     13  H1  UNL     1      43.352  22.530  36.726  1.00  0.00     0.162 HD
BRANCH  12  14
HETATM   14  C2  UNL     1      43.979  21.846  34.847  1.00  0.00     0.123 C 
BRANCH  14  15
HETATM   15  C3  UNL     1      45.418  21.556  35.093  1.00  0.00     0.024 C 
BRANCH  15  16
HETATM   16  C4  UNL     1      46.180  21.468  33.757  1.00  0.00     0.042 C 
BRANCH  16  17
HETATM   17  C5  UNL     1      46.432  20.067  33.402  1.00  0.00    -0.036 A 
HETATM   18  C6  UNL     1      45.689  19.502  32.368  1.00  0.00     0.010 A 
HETATM   19  C7  UNL     1      45.833  18.207  31.962  1.00  0.00     0.024 A 
HETATM   20  C8  UNL     1      46.755  17.423  32.604  1.00  0.00     0.035 A 
HETATM   21 CL1  UNL     1      46.960  15.747  32.098  1.00  0.00    -0.084 Cl
HETATM   22  C9  UNL     1      47.513  17.937  33.632  1.00  0.00     0.048 A 
HETATM   23  C10 UNL     1      47.348  19.277  34.034  1.00  0.00     0.042 A 
HETATM   24 CL2  UNL     1      48.310  19.907  35.344  1.00  0.00    -0.084 Cl
ENDBRANCH  16  17
ENDBRANCH  15  16
ENDBRANCH  14  15
ENDBRANCH  12  14
ENDBRANCH   1  10
BRANCH   9  25
HETATM   25  C17 UNL     1      39.968  19.416  38.812  1.00  0.00     0.239 C 
BRANCH  25  26
HETATM   26  N3  UNL     1      41.214  18.945  39.329  1.00  0.00    -0.075 N 
ATOM     27  H32 UNL     1      41.973  19.164  38.684  1.00  0.00     0.277 HD
ATOM     28  H31 UNL     1      41.501  19.504  40.132  1.00  0.00     0.277 HD
BRANCH  26  29
HETATM   29  C18 UNL     1      41.227  17.555  39.659  1.00  0.00     0.234 C 
BRANCH  29  30
HETATM   30  C19 UNL     1      42.418  16.831  39.144  1.00  0.00     0.057 C 
BRANCH  30  31
HETATM   31  C20 UNL     1      42.701  17.189  37.701  1.00  0.00     0.274 C 
BRANCH  31  32
HETATM   32  N4  UNL     1      42.721  15.968  36.926  1.00  0.00     0.088 N 
HETATM   33  C21 UNL     1      43.524  15.007  37.639  1.00  0.00     0.275 C 
HETATM   34  C22 UNL     1      44.680  14.573  36.744  1.00  0.00     0.067 C 
HETATM   35  C23 UNL     1      45.447  15.843  36.387  1.00  0.00     0.173 C 
HETATM   36  F1  UNL     1      46.594  15.488  35.692  1.00  0.00    -0.249 F 
HETATM   37  C24 UNL     1      44.607  16.697  35.502  1.00  0.00     0.067 C 
HETATM   38  C25 UNL     1      43.157  16.261  35.602  1.00  0.00     0.275 C 
ENDBRANCH  31  32
ENDBRANCH  30  31
ENDBRANCH  29  30
ENDBRANCH  26  29
ENDBRANCH  25  26
ENDBRANCH   9  25
TORSDOF 11
ENDMDL
MODEL 5
REMARK VINA RESULT: -6.876030090      4.630      6.564
REMARK  11 active torsions:
REMARK  status: ('A' for Active; 'I' for Inactive)
REMARK       I    between atoms: C1_2  and  N1_3 
REMARK    1  A    between atoms: C1_2  and  C11_16 
REMARK    2  A    between atoms: N1_3  and  C2_5 
REMARK    3  A    between atoms: C2_5  and  C3_6 
REMARK    4  A    between atoms: C3_6  and  C4_7 
REMARK    5  A    between atoms: C4_7  and  C5_8 
REMARK    6  A    between atoms: C16_24  and  C17_25 
REMARK    7  A    between atoms: C17_25  and  N3_26 
REMARK    8  A    between atoms: N3_26  and  C18_29 
REMARK    9  A    between atoms: C18_29  and  C19_30 
REMARK   10  A    between atoms: C19_30  and  C20_31 
REMARK   11  A    between atoms: C20_31  and  N4_32 
ROOT
HETATM    1  C11 UNL     1      41.577  20.704  37.846  1.00  0.00     0.180 C 
HETATM    2  N2  UNL     1      41.461  22.040  38.334  1.00  0.00    -0.371 N 
ATOM      3  H2  UNL     1      41.978  22.197  39.200  1.00  0.00     0.161 HD
HETATM    4  C12 UNL     1      40.778  23.198  37.871  1.00  0.00     0.074 C 
HETATM    5  S1  UNL     1      40.856  24.544  38.803  1.00  0.00    -0.066 SA
HETATM    6  C13 UNL     1      39.992  23.310  36.612  1.00  0.00     0.069 C 
HETATM    7  C14 UNL     1      39.412  21.990  36.203  1.00  0.00     0.007 C 
HETATM    8  C15 UNL     1      39.134  21.050  37.355  1.00  0.00     0.009 C 
HETATM    9  C16 UNL     1      40.215  20.059  37.614  1.00  0.00     0.043 C 
ENDROOT
BRANCH   1  10
HETATM   10  C1  UNL     1      42.358  20.568  36.589  1.00  0.00     0.240 C 
HETATM   11  O1  UNL     1      43.331  21.302  36.388  1.00  0.00    -0.271 OA
HETATM   12  N1  UNL     1      41.969  19.601  35.651  1.00  0.00    -0.359 N 
ATOM     13  H1  UNL     1      41.164  19.027  35.905  1.00  0.00     0.162 HD
BRANCH  12  14
HETATM   14  C2  UNL     1      42.569  19.322  34.378  1.00  0.00     0.123 C 
BRANCH  14  15
HETATM   15  C3  UNL     1      41.556  18.928  33.361  1.00  0.00     0.024 C 
BRANCH  15  16
HETATM   16  C4  UNL     1      40.410  18.143  34.027  1.00  0.00     0.042 C 
BRANCH  16  17
HETATM   17  C5  UNL     1      39.150  18.889  33.922  1.00  0.00    -0.036 A 
HETATM   18  C6  UNL     1      39.080  19.947  33.019  1.00  0.00     0.010 A 
HETATM   19  C7  UNL     1      37.965  20.714  32.847  1.00  0.00     0.024 A 
HETATM   20  C8  UNL     1      36.858  20.429  33.603  1.00  0.00     0.035 A 
HETATM   21 CL1  UNL     1      35.404  21.405  33.400  1.00  0.00    -0.084 Cl
HETATM   22  C9  UNL     1      36.879  19.393  34.509  1.00  0.00     0.048 A 
HETATM   23  C10 UNL     1      38.041  18.614  34.669  1.00  0.00     0.042 A 
HETATM   24 CL2  UNL     1      38.053  17.313  35.829  1.00  0.00    -0.084 Cl
ENDBRANCH  16  17
ENDBRANCH  15  16
ENDBRANCH  14  15
ENDBRANCH  12  14
ENDBRANCH   1  10
BRANCH   9  25
HETATM   25  C17 UNL     1      39.876  19.229  38.821  1.00  0.00     0.239 C 
BRANCH  25  26
HETATM   26  N3  UNL     1      40.453  17.928  38.688  1.00  0.00    -0.075 N 
ATOM     27  H32 UNL     1      40.866  17.815  37.762  1.00  0.00     0.277 HD
ATOM     28  H31 UNL     1      41.291  17.849  39.264  1.00  0.00     0.277 HD
BRANCH  26  29
HETATM   29  C18 UNL     1      39.553  16.853  38.966  1.00  0.00     0.234 C 
BRANCH  29  30
HETATM   30  C19 UNL     1      38.197  17.302  39.376  1.00  0.00     0.057 C 
BRANCH  30  31
HETATM   31  C20 UNL     1      37.181  16.188  39.238  1.00  0.00     0.274 C 
BRANCH  31  32
HETATM   32  N4  UNL     1      35.898  16.782  38.930  1.00  0.00     0.088 N 
HETATM   33  C21 UNL     1      35.959  18.175  39.293  1.00  0.00     0.275 C 
HETATM   34  C22 UNL     1      34.872  18.461  40.323  1.00  0.00     0.067 C 
HETATM   35  C23 UNL     1      35.139  17.527  41.500  1.00  0.00     0.173 C 
HETATM   36  F1  UNL     1      34.265  17.848  42.528  1.00  0.00    -0.249 F 
HETATM   37  C24 UNL     1      34.880  16.120  41.085  1.00  0.00     0.067 C 
HETATM   38  C25 UNL     1      34.870  16.031  39.570  1.00  0.00     0.275 C 
ENDBRANCH  31  32
ENDBRANCH  30  31
ENDBRANCH  29  30
ENDBRANCH  26  29
ENDBRANCH  25  26
ENDBRANCH   9  25
TORSDOF 11
ENDMDL
