MODEL 1
REMARK VINA RESULT: -7.038712720      0.000      0.000
REMARK  5 active torsions:
REMARK  status: ('A' for Active; 'I' for Inactive)
REMARK    1  A    between atoms: O1_2  and  C2_3 
REMARK    2  A    between atoms: C6_9  and  C7_10 
REMARK    3  A    between atoms: C7_10  and  C8_11 
REMARK    4  A    between atoms: C9_12  and  C10_13 
REMARK    5  A    between atoms: C10_13  and  N1_14 
REMARK       I    between atoms: N1_14  and  C12_16 
ROOT
HETATM    1  C2  UNL     1      -4.387   2.813  13.285  1.00  0.00     0.162 C 
HETATM    2  C3  UNL     1      -3.390   3.829  12.891  1.00  0.00     0.075 C 
HETATM    3  C4  UNL     1      -2.697   4.540  14.020  1.00  0.00     0.188 C 
HETATM    4  O2  UNL     1      -1.357   4.913  13.680  1.00  0.00    -0.321 OA
HETATM    5  C5  UNL     1      -0.836   4.821  12.406  1.00  0.00     0.265 C 
HETATM    6  O3  UNL     1       0.209   5.415  12.134  1.00  0.00    -0.265 OA
HETATM    7  C6  UNL     1      -1.539   4.018  11.401  1.00  0.00     0.123 C 
HETATM    8  C13 UNL     1      -2.326   3.002  12.195  1.00  0.00     0.246 C 
HETATM    9  N4  UNL     1      -3.059   2.045  11.461  1.00  0.00     0.101 N 
HETATM   10  C14 UNL     1      -2.313   0.798  11.391  1.00  0.00     0.273 C 
HETATM   11  C15 UNL     1      -3.128  -0.352  10.865  1.00  0.00     0.030 C 
HETATM   12  C16 UNL     1      -4.326  -0.629  11.750  1.00  0.00     0.004 C 
HETATM   13  C17 UNL     1      -4.345   0.432  12.813  1.00  0.00     0.038 C 
HETATM   14  C18 UNL     1      -4.296   1.798  12.166  1.00  0.00     0.252 C 
ENDROOT
BRANCH   7  15
HETATM   15  C7  UNL     1      -0.743   3.450  10.301  1.00  0.00     0.043 C 
BRANCH  15  16
HETATM   16  C8  UNL     1      -1.199   4.007   9.003  1.00  0.00    -0.028 C 
HETATM   17  C9  UNL     1      -2.149   4.893   8.849  1.00  0.00    -0.011 C 
BRANCH  17  18
HETATM   18  C10 UNL     1      -2.500   5.363   7.487  1.00  0.00     0.152 C 
BRANCH  18  19
HETATM   19  N1  UNL     1      -3.720   6.123   7.465  1.00  0.00    -0.357 N 
HETATM   20  C11 UNL     1      -3.766   7.425   8.066  1.00  0.00     0.152 C 
HETATM   21  C12 UNL     1      -4.863   5.570   6.845  1.00  0.00     0.183 C 
HETATM   22  N2  UNL     1      -5.660   6.300   6.099  1.00  0.00    -0.374 N 
HETATM   23  N3  UNL     1      -5.247   4.201   6.970  1.00  0.00    -0.064 NA
ATOM     24  H22 UNL     1      -5.385   7.278   6.009  1.00  0.00     0.158 HD
ATOM     25  H21 UNL     1      -6.485   5.901   5.652  1.00  0.00     0.158 HD
ENDBRANCH  18  19
ENDBRANCH  17  18
ENDBRANCH  15  16
ENDBRANCH   7  15
BRANCH   1  26
HETATM   26  O1  UNL     1      -5.684   3.355  13.321  1.00  0.00    -0.388 OA
HETATM   27  C1  UNL     1      -6.081   3.606  14.628  1.00  0.00     0.202 C 
ENDBRANCH   1  26
TORSDOF 5
ENDMDL
MODEL 2
REMARK VINA RESULT: -6.863191674      1.101      1.205
REMARK  5 active torsions:
REMARK  status: ('A' for Active; 'I' for Inactive)
REMARK    1  A    between atoms: O1_2  and  C2_3 
REMARK    2  A    between atoms: C6_9  and  C7_10 
REMARK    3  A    between atoms: C7_10  and  C8_11 
REMARK    4  A    between atoms: C9_12  and  C10_13 
REMARK    5  A    between atoms: C10_13  and  N1_14 
REMARK       I    between atoms: N1_14  and  C12_16 
ROOT
HETATM    1  C2  UNL     1      -4.448   2.625  13.965  1.00  0.00     0.162 C 
HETATM    2  C3  UNL     1      -3.677   3.815  13.550  1.00  0.00     0.075 C 
HETATM    3  C4  UNL     1      -2.815   4.439  14.611  1.00  0.00     0.188 C 
HETATM    4  O2  UNL     1      -1.635   5.039  14.062  1.00  0.00    -0.321 OA
HETATM    5  C5  UNL     1      -1.420   5.208  12.710  1.00  0.00     0.265 C 
HETATM    6  O3  UNL     1      -0.532   5.974  12.329  1.00  0.00    -0.265 OA
HETATM    7  C6  UNL     1      -2.255   4.473  11.755  1.00  0.00     0.123 C 
HETATM    8  C13 UNL     1      -2.729   3.253  12.508  1.00  0.00     0.246 C 
HETATM    9  N4  UNL     1      -3.514   2.324  11.793  1.00  0.00     0.101 N 
HETATM   10  C14 UNL     1      -2.684   1.215  11.348  1.00  0.00     0.273 C 
HETATM   11  C15 UNL     1      -3.480   0.055  10.816  1.00  0.00     0.030 C 
HETATM   12  C16 UNL     1      -4.403  -0.511  11.875  1.00  0.00     0.004 C 
HETATM   13  C17 UNL     1      -4.279   0.368  13.085  1.00  0.00     0.038 C 
HETATM   14  C18 UNL     1      -4.520   1.808  12.692  1.00  0.00     0.252 C 
ENDROOT
BRANCH   7  15
HETATM   15  C7  UNL     1      -1.685   4.189  10.427  1.00  0.00     0.043 C 
BRANCH  15  16
HETATM   16  C8  UNL     1      -2.470   4.885   9.377  1.00  0.00    -0.028 C 
HETATM   17  C9  UNL     1      -3.214   5.945   9.563  1.00  0.00    -0.011 C 
BRANCH  17  18
HETATM   18  C10 UNL     1      -3.945   6.538   8.417  1.00  0.00     0.152 C 
BRANCH  18  19
HETATM   19  N1  UNL     1      -5.342   6.200   8.421  1.00  0.00    -0.357 N 
HETATM   20  C11 UNL     1      -6.215   6.761   9.411  1.00  0.00     0.152 C 
HETATM   21  C12 UNL     1      -5.836   5.312   7.439  1.00  0.00     0.183 C 
HETATM   22  N2  UNL     1      -6.991   5.515   6.849  1.00  0.00    -0.374 N 
HETATM   23  N3  UNL     1      -5.142   4.141   7.010  1.00  0.00    -0.064 NA
ATOM     24  H22 UNL     1      -7.487   6.352   7.156  1.00  0.00     0.158 HD
ATOM     25  H21 UNL     1      -7.348   4.873   6.141  1.00  0.00     0.158 HD
ENDBRANCH  18  19
ENDBRANCH  17  18
ENDBRANCH  15  16
ENDBRANCH   7  15
BRANCH   1  26
HETATM   26  O1  UNL     1      -5.748   2.973  14.372  1.00  0.00    -0.388 OA
HETATM   27  C1  UNL     1      -5.965   2.617  15.697  1.00  0.00     0.202 C 
ENDBRANCH   1  26
TORSDOF 5
ENDMDL
MODEL 3
REMARK VINA RESULT: -6.786457673      3.704      5.353
REMARK  5 active torsions:
REMARK  status: ('A' for Active; 'I' for Inactive)
REMARK    1  A    between atoms: O1_2  and  C2_3 
REMARK    2  A    between atoms: C6_9  and  C7_10 
REMARK    3  A    between atoms: C7_10  and  C8_11 
REMARK    4  A    between atoms: C9_12  and  C10_13 
REMARK    5  A    between atoms: C10_13  and  N1_14 
REMARK       I    between atoms: N1_14  and  C12_16 
ROOT
HETATM    1  C2  UNL     1      -4.878   1.963  14.893  1.00  0.00     0.162 C 
HETATM    2  C3  UNL     1      -3.971   1.470  13.836  1.00  0.00     0.075 C 
HETATM    3  C4  UNL     1      -4.430   0.243  13.099  1.00  0.00     0.188 C 
HETATM    4  O2  UNL     1      -3.980   0.233  11.739  1.00  0.00    -0.321 OA
HETATM    5  C5  UNL     1      -3.066   1.130  11.228  1.00  0.00     0.265 C 
HETATM    6  O3  UNL     1      -2.519   0.890  10.149  1.00  0.00    -0.265 OA
HETATM    7  C6  UNL     1      -2.761   2.349  11.982  1.00  0.00     0.123 C 
HETATM    8  C13 UNL     1      -3.986   2.603  12.827  1.00  0.00     0.246 C 
HETATM    9  N4  UNL     1      -3.987   3.770  13.620  1.00  0.00     0.101 N 
HETATM   10  C14 UNL     1      -4.741   4.820  12.951  1.00  0.00     0.273 C 
HETATM   11  C15 UNL     1      -5.022   6.003  13.837  1.00  0.00     0.030 C 
HETATM   12  C16 UNL     1      -5.841   5.604  15.047  1.00  0.00     0.004 C 
HETATM   13  C17 UNL     1      -6.003   4.112  14.997  1.00  0.00     0.038 C 
HETATM   14  C18 UNL     1      -4.646   3.459  14.867  1.00  0.00     0.252 C 
ENDROOT
BRANCH   7  15
HETATM   15  C7  UNL     1      -2.288   3.521  11.224  1.00  0.00     0.043 C 
BRANCH  15  16
HETATM   16  C8  UNL     1      -0.893   3.848  11.612  1.00  0.00    -0.028 C 
HETATM   17  C9  UNL     1       0.084   4.106  10.782  1.00  0.00    -0.011 C 
BRANCH  17  18
HETATM   18  C10 UNL     1       1.433   4.420  11.312  1.00  0.00     0.152 C 
BRANCH  18  19
HETATM   19  N1  UNL     1       2.199   5.241  10.415  1.00  0.00    -0.357 N 
HETATM   20  C11 UNL     1       1.893   6.637  10.279  1.00  0.00     0.152 C 
HETATM   21  C12 UNL     1       3.251   4.655   9.676  1.00  0.00     0.183 C 
HETATM   22  N2  UNL     1       4.395   5.276   9.501  1.00  0.00    -0.374 N 
HETATM   23  N3  UNL     1       3.169   3.367   9.067  1.00  0.00    -0.064 NA
ATOM     24  H22 UNL     1       4.454   6.196   9.937  1.00  0.00     0.158 HD
ATOM     25  H21 UNL     1       5.155   4.853   8.967  1.00  0.00     0.158 HD
ENDBRANCH  18  19
ENDBRANCH  17  18
ENDBRANCH  15  16
ENDBRANCH   7  15
BRANCH   1  26
HETATM   26  O1  UNL     1      -4.519   1.455  16.154  1.00  0.00    -0.388 OA
HETATM   27  C1  UNL     1      -5.612   0.874  16.784  1.00  0.00     0.202 C 
ENDBRANCH   1  26
TORSDOF 5
ENDMDL
MODEL 4
REMARK VINA RESULT: -6.766605950      2.507      3.903
REMARK  5 active torsions:
REMARK  status: ('A' for Active; 'I' for Inactive)
REMARK    1  A    between atoms: O1_2  and  C2_3 
REMARK    2  A    between atoms: C6_9  and  C7_10 
REMARK    3  A    between atoms: C7_10  and  C8_11 
REMARK    4  A    between atoms: C9_12  and  C10_13 
REMARK    5  A    between atoms: C10_13  and  N1_14 
REMARK       I    between atoms: N1_14  and  C12_16 
ROOT
HETATM    1  C2  UNL     1      -4.957   1.958  14.962  1.00  0.00     0.162 C 
HETATM    2  C3  UNL     1      -4.029   1.522  13.899  1.00  0.00     0.075 C 
HETATM    3  C4  UNL     1      -4.428   0.281  13.150  1.00  0.00     0.188 C 
HETATM    4  O2  UNL     1      -3.982   0.307  11.789  1.00  0.00    -0.321 OA
HETATM    5  C5  UNL     1      -3.115   1.253  11.285  1.00  0.00     0.265 C 
HETATM    6  O3  UNL     1      -2.560   1.051  10.202  1.00  0.00    -0.265 OA
HETATM    7  C6  UNL     1      -2.869   2.479  12.050  1.00  0.00     0.123 C 
HETATM    8  C13 UNL     1      -4.104   2.662  12.901  1.00  0.00     0.246 C 
HETATM    9  N4  UNL     1      -4.161   3.820  13.705  1.00  0.00     0.101 N 
HETATM   10  C14 UNL     1      -4.969   4.837  13.048  1.00  0.00     0.273 C 
HETATM   11  C15 UNL     1      -5.307   5.996  13.946  1.00  0.00     0.030 C 
HETATM   12  C16 UNL     1      -6.101   5.544  15.154  1.00  0.00     0.004 C 
HETATM   13  C17 UNL     1      -6.188   4.047  15.091  1.00  0.00     0.038 C 
HETATM   14  C18 UNL     1      -4.800   3.464  14.951  1.00  0.00     0.252 C 
ENDROOT
BRANCH   7  15
HETATM   15  C7  UNL     1      -2.459   3.680  11.303  1.00  0.00     0.043 C 
BRANCH  15  16
HETATM   16  C8  UNL     1      -3.489   4.028  10.293  1.00  0.00    -0.028 C 
HETATM   17  C9  UNL     1      -3.591   5.178   9.679  1.00  0.00    -0.011 C 
BRANCH  17  18
HETATM   18  C10 UNL     1      -4.675   5.387   8.688  1.00  0.00     0.152 C 
BRANCH  18  19
HETATM   19  N1  UNL     1      -5.582   6.432   9.077  1.00  0.00    -0.357 N 
HETATM   20  C11 UNL     1      -5.189   7.393  10.068  1.00  0.00     0.152 C 
HETATM   21  C12 UNL     1      -6.857   6.497   8.471  1.00  0.00     0.183 C 
HETATM   22  N2  UNL     1      -7.390   7.643   8.115  1.00  0.00    -0.374 N 
HETATM   23  N3  UNL     1      -7.662   5.351   8.196  1.00  0.00    -0.064 NA
ATOM     24  H22 UNL     1      -6.814   8.462   8.311  1.00  0.00     0.158 HD
ATOM     25  H21 UNL     1      -8.310   7.690   7.678  1.00  0.00     0.158 HD
ENDBRANCH  18  19
ENDBRANCH  17  18
ENDBRANCH  15  16
ENDBRANCH   7  15
BRANCH   1  26
HETATM   26  O1  UNL     1      -4.569   1.457  16.218  1.00  0.00    -0.388 OA
HETATM   27  C1  UNL     1      -5.629   0.815  16.844  1.00  0.00     0.202 C 
ENDBRANCH   1  26
TORSDOF 5
ENDMDL
MODEL 5
REMARK VINA RESULT: -6.759723771      3.453      7.348
REMARK  5 active torsions:
REMARK  status: ('A' for Active; 'I' for Inactive)
REMARK    1  A    between atoms: O1_2  and  C2_3 
REMARK    2  A    between atoms: C6_9  and  C7_10 
REMARK    3  A    between atoms: C7_10  and  C8_11 
REMARK    4  A    between atoms: C9_12  and  C10_13 
REMARK    5  A    between atoms: C10_13  and  N1_14 
REMARK       I    between atoms: N1_14  and  C12_16 
ROOT
HETATM    1  C2  UNL     1      -4.530   5.355   9.243  1.00  0.00     0.162 C 
HETATM    2  C3  UNL     1      -3.857   4.643  10.348  1.00  0.00     0.075 C 
HETATM    3  C4  UNL     1      -2.424   4.258  10.103  1.00  0.00     0.188 C 
HETATM    4  O2  UNL     1      -1.653   4.263  11.310  1.00  0.00    -0.321 OA
HETATM    5  C5  UNL     1      -2.200   4.397  12.568  1.00  0.00     0.265 C 
HETATM    6  O3  UNL     1      -1.522   4.110  13.558  1.00  0.00    -0.265 OA
HETATM    7  C6  UNL     1      -3.579   4.876  12.703  1.00  0.00     0.123 C 
HETATM    8  C13 UNL     1      -3.835   5.683  11.452  1.00  0.00     0.246 C 
HETATM    9  N4  UNL     1      -5.089   6.322  11.348  1.00  0.00     0.101 N 
HETATM   10  C14 UNL     1      -4.962   7.722  11.725  1.00  0.00     0.273 C 
HETATM   11  C15 UNL     1      -6.179   8.539  11.388  1.00  0.00     0.030 C 
HETATM   12  C16 UNL     1      -6.454   8.529   9.898  1.00  0.00     0.004 C 
HETATM   13  C17 UNL     1      -5.456   7.599   9.271  1.00  0.00     0.038 C 
HETATM   14  C18 UNL     1      -5.506   6.258   9.966  1.00  0.00     0.252 C 
ENDROOT
BRANCH   7  15
HETATM   15  C7  UNL     1      -3.946   5.558  13.955  1.00  0.00     0.043 C 
BRANCH  15  16
HETATM   16  C8  UNL     1      -4.957   4.758  14.692  1.00  0.00    -0.028 C 
HETATM   17  C9  UNL     1      -4.899   3.469  14.900  1.00  0.00    -0.011 C 
BRANCH  17  18
HETATM   18  C10 UNL     1      -5.985   2.798  15.656  1.00  0.00     0.152 C 
BRANCH  18  19
HETATM   19  N1  UNL     1      -5.607   1.491  16.118  1.00  0.00    -0.357 N 
HETATM   20  C11 UNL     1      -4.442   0.847  15.582  1.00  0.00     0.152 C 
HETATM   21  C12 UNL     1      -6.398   0.854  17.101  1.00  0.00     0.183 C 
HETATM   22  N2  UNL     1      -5.854   0.180  18.088  1.00  0.00    -0.374 N 
HETATM   23  N3  UNL     1      -7.825   0.886  17.112  1.00  0.00    -0.064 NA
ATOM     24  H22 UNL     1      -4.834   0.158  18.081  1.00  0.00     0.158 HD
ATOM     25  H21 UNL     1      -6.425  -0.280  18.798  1.00  0.00     0.158 HD
ENDBRANCH  18  19
ENDBRANCH  17  18
ENDBRANCH  15  16
ENDBRANCH   7  15
BRANCH   1  26
HETATM   26  O1  UNL     1      -5.239   4.465   8.416  1.00  0.00    -0.388 OA
HETATM   27  C1  UNL     1      -5.126   4.832   7.082  1.00  0.00     0.202 C 
ENDBRANCH   1  26
TORSDOF 5
ENDMDL
