MODEL 1
REMARK VINA RESULT: -7.015598502      0.000      0.000
REMARK  6 active torsions:
REMARK  status: ('A' for Active; 'I' for Inactive)
REMARK    1  A    between atoms: O1_2  and  C2_3 
REMARK    2  A    between atoms: C2_3  and  C3_5 
REMARK    3  A    between atoms: C3_5  and  C4_6 
REMARK    4  A    between atoms: C4_6  and  C5_7 
REMARK    5  A    between atoms: C5_7  and  N1_8 
REMARK    6  A    between atoms: C15_19  and  C16_20 
ROOT
HETATM    1  N1  UNL     1      -2.061   2.031  11.439  1.00  0.00    -0.365 N 
HETATM    2  C6  UNL     1      -2.533   0.725  11.533  1.00  0.00     0.066 C 
HETATM    3  C7  UNL     1      -3.942   0.670  10.980  1.00  0.00     0.079 C 
HETATM    4  C8  UNL     1      -4.393   2.107  11.109  1.00  0.00     0.151 C 
HETATM    5  O3  UNL     1      -5.345   2.250  12.075  1.00  0.00    -0.383 OA
HETATM    6  C9  UNL     1      -4.907   2.308  13.365  1.00  0.00     0.175 C 
HETATM    7  C10 UNL     1      -3.747   3.195  13.637  1.00  0.00     0.035 C 
HETATM    8  C11 UNL     1      -3.981   4.189  14.741  1.00  0.00     0.020 C 
HETATM    9  C12 UNL     1      -4.753   5.402  14.349  1.00  0.00    -0.019 C 
HETATM   10  C13 UNL     1      -6.041   5.368  15.170  1.00  0.00     0.017 C 
HETATM   11  C14 UNL     1      -4.024   6.653  14.815  1.00  0.00     0.017 C 
HETATM   12  C15 UNL     1      -5.126   5.453  12.915  1.00  0.00     0.174 C 
HETATM   13  N3  UNL     1      -4.161   4.964  11.997  1.00  0.00    -0.402 N 
ATOM     14  H3  UNL     1      -4.092   5.351  11.055  1.00  0.00     0.154 HD
HETATM   15  C17 UNL     1      -3.295   3.923  12.423  1.00  0.00     0.109 C 
HETATM   16  C18 UNL     1      -3.157   2.942  11.276  1.00  0.00     0.140 C 
ENDROOT
BRANCH   1  17
HETATM   17  C5  UNL     1      -0.871   2.367  10.801  1.00  0.00     0.064 C 
BRANCH  17  18
HETATM   18  C4  UNL     1      -0.821   3.341   9.708  1.00  0.00     0.054 C 
BRANCH  18  19
HETATM   19  C3  UNL     1       0.228   4.375   9.665  1.00  0.00     0.116 C 
BRANCH  19  20
HETATM   20  C2  UNL     1       1.573   3.958  10.122  1.00  0.00     0.258 C 
HETATM   21  O2  UNL     1       2.366   3.360   9.382  1.00  0.00    -0.265 OA
BRANCH  20  22
HETATM   22  O1  UNL     1       1.976   4.240  11.431  1.00  0.00    -0.326 OA
HETATM   23  C1  UNL     1       1.831   5.534  11.987  1.00  0.00     0.213 C 
ENDBRANCH  20  22
ENDBRANCH  19  20
ENDBRANCH  18  19
ENDBRANCH  17  18
ENDBRANCH   1  17
BRANCH  12  24
HETATM   24  C16 UNL     1      -5.418   6.866  12.476  1.00  0.00     0.254 C 
HETATM   25  N2  UNL     1      -6.785   7.216  12.403  1.00  0.00    -0.060 NA
HETATM   26  O4  UNL     1      -4.539   7.699  12.188  1.00  0.00    -0.275 OA
ENDBRANCH  12  24
TORSDOF 6
ENDMDL
MODEL 2
REMARK VINA RESULT: -6.968771972      2.676      5.512
REMARK  6 active torsions:
REMARK  status: ('A' for Active; 'I' for Inactive)
REMARK    1  A    between atoms: O1_2  and  C2_3 
REMARK    2  A    between atoms: C2_3  and  C3_5 
REMARK    3  A    between atoms: C3_5  and  C4_6 
REMARK    4  A    between atoms: C4_6  and  C5_7 
REMARK    5  A    between atoms: C5_7  and  N1_8 
REMARK    6  A    between atoms: C15_19  and  C16_20 
ROOT
HETATM    1  N1  UNL     1      -3.097   2.084  11.507  1.00  0.00    -0.365 N 
HETATM    2  C6  UNL     1      -1.751   1.862  11.230  1.00  0.00     0.066 C 
HETATM    3  C7  UNL     1      -0.927   2.943  11.896  1.00  0.00     0.079 C 
HETATM    4  C8  UNL     1      -1.936   4.057  12.066  1.00  0.00     0.151 C 
HETATM    5  O3  UNL     1      -1.671   5.105  11.235  1.00  0.00    -0.383 OA
HETATM    6  C9  UNL     1      -2.078   4.980   9.940  1.00  0.00     0.175 C 
HETATM    7  C10 UNL     1      -3.457   4.472   9.720  1.00  0.00     0.035 C 
HETATM    8  C11 UNL     1      -4.299   5.349   8.836  1.00  0.00     0.020 C 
HETATM    9  C12 UNL     1      -4.899   6.537   9.507  1.00  0.00    -0.019 C 
HETATM   10  C13 UNL     1      -4.296   7.761   8.819  1.00  0.00     0.017 C 
HETATM   11  C14 UNL     1      -6.387   6.609   9.202  1.00  0.00     0.017 C 
HETATM   12  C15 UNL     1      -4.602   6.635  10.956  1.00  0.00     0.174 C 
HETATM   13  N3  UNL     1      -4.583   5.414  11.678  1.00  0.00    -0.402 N 
ATOM     14  H3  UNL     1      -4.851   5.383  12.662  1.00  0.00     0.154 HD
HETATM   15  C17 UNL     1      -4.182   4.235  10.995  1.00  0.00     0.109 C 
HETATM   16  C18 UNL     1      -3.297   3.440  11.932  1.00  0.00     0.140 C 
ENDROOT
BRANCH   1  17
HETATM   17  C5  UNL     1      -3.926   1.123  12.080  1.00  0.00     0.064 C 
BRANCH  17  18
HETATM   18  C4  UNL     1      -4.394   1.222  13.464  1.00  0.00     0.054 C 
BRANCH  18  19
HETATM   19  C3  UNL     1      -4.439   0.033  14.334  1.00  0.00     0.116 C 
BRANCH  19  20
HETATM   20  C2  UNL     1      -4.554   0.294  15.787  1.00  0.00     0.258 C 
HETATM   21  O2  UNL     1      -3.631   0.794  16.443  1.00  0.00    -0.265 OA
BRANCH  20  22
HETATM   22  O1  UNL     1      -5.739  -0.029  16.455  1.00  0.00    -0.326 OA
HETATM   23  C1  UNL     1      -6.196   0.729  17.561  1.00  0.00     0.213 C 
ENDBRANCH  20  22
ENDBRANCH  19  20
ENDBRANCH  18  19
ENDBRANCH  17  18
ENDBRANCH   1  17
BRANCH  12  24
HETATM   24  C16 UNL     1      -5.613   7.503  11.664  1.00  0.00     0.254 C 
HETATM   25  N2  UNL     1      -6.524   6.823  12.503  1.00  0.00    -0.060 NA
HETATM   26  O4  UNL     1      -5.673   8.740  11.541  1.00  0.00    -0.275 OA
ENDBRANCH  12  24
TORSDOF 6
ENDMDL
MODEL 3
REMARK VINA RESULT: -6.924899198      2.532      5.236
REMARK  6 active torsions:
REMARK  status: ('A' for Active; 'I' for Inactive)
REMARK    1  A    between atoms: O1_2  and  C2_3 
REMARK    2  A    between atoms: C2_3  and  C3_5 
REMARK    3  A    between atoms: C3_5  and  C4_6 
REMARK    4  A    between atoms: C4_6  and  C5_7 
REMARK    5  A    between atoms: C5_7  and  N1_8 
REMARK    6  A    between atoms: C15_19  and  C16_20 
ROOT
HETATM    1  N1  UNL     1      -3.721   1.426  11.372  1.00  0.00    -0.365 N 
HETATM    2  C6  UNL     1      -2.835   1.015  10.380  1.00  0.00     0.066 C 
HETATM    3  C7  UNL     1      -1.448   1.515  10.722  1.00  0.00     0.079 C 
HETATM    4  C8  UNL     1      -1.743   2.678  11.641  1.00  0.00     0.151 C 
HETATM    5  O3  UNL     1      -1.452   3.872  11.051  1.00  0.00    -0.383 OA
HETATM    6  C9  UNL     1      -2.378   4.369  10.181  1.00  0.00     0.175 C 
HETATM    7  C10 UNL     1      -3.795   4.334  10.625  1.00  0.00     0.035 C 
HETATM    8  C11 UNL     1      -4.495   5.663  10.542  1.00  0.00     0.020 C 
HETATM    9  C12 UNL     1      -4.217   6.597  11.671  1.00  0.00    -0.019 C 
HETATM   10  C13 UNL     1      -3.521   7.810  11.055  1.00  0.00     0.017 C 
HETATM   11  C14 UNL     1      -5.525   7.138  12.230  1.00  0.00     0.017 C 
HETATM   12  C15 UNL     1      -3.328   6.042  12.719  1.00  0.00     0.174 C 
HETATM   13  N3  UNL     1      -3.505   4.670  13.032  1.00  0.00    -0.402 N 
ATOM     14  H3  UNL     1      -3.320   4.319  13.972  1.00  0.00     0.154 HD
HETATM   15  C17 UNL     1      -3.944   3.797  12.002  1.00  0.00     0.109 C 
HETATM   16  C18 UNL     1      -3.155   2.510  12.123  1.00  0.00     0.140 C 
ENDROOT
BRANCH   1  17
HETATM   17  C5  UNL     1      -4.543   0.547  12.071  1.00  0.00     0.064 C 
BRANCH  17  18
HETATM   18  C4  UNL     1      -4.320   0.226  13.483  1.00  0.00     0.054 C 
BRANCH  18  19
HETATM   19  C3  UNL     1      -4.750   1.151  14.546  1.00  0.00     0.116 C 
BRANCH  19  20
HETATM   20  C2  UNL     1      -4.584   0.667  15.936  1.00  0.00     0.258 C 
HETATM   21  O2  UNL     1      -3.543   0.853  16.580  1.00  0.00    -0.265 OA
BRANCH  20  22
HETATM   22  O1  UNL     1      -5.628  -0.026  16.555  1.00  0.00    -0.326 OA
HETATM   23  C1  UNL     1      -6.474   0.602  17.502  1.00  0.00     0.213 C 
ENDBRANCH  20  22
ENDBRANCH  19  20
ENDBRANCH  18  19
ENDBRANCH  17  18
ENDBRANCH   1  17
BRANCH  12  24
HETATM   24  C16 UNL     1      -3.499   6.777  14.026  1.00  0.00     0.254 C 
HETATM   25  N2  UNL     1      -4.304   6.131  14.991  1.00  0.00    -0.060 NA
HETATM   26  O4  UNL     1      -2.981   7.880  14.275  1.00  0.00    -0.275 OA
ENDBRANCH  12  24
TORSDOF 6
ENDMDL
MODEL 4
REMARK VINA RESULT: -6.916108349      2.614      6.635
REMARK  6 active torsions:
REMARK  status: ('A' for Active; 'I' for Inactive)
REMARK    1  A    between atoms: O1_2  and  C2_3 
REMARK    2  A    between atoms: C2_3  and  C3_5 
REMARK    3  A    between atoms: C3_5  and  C4_6 
REMARK    4  A    between atoms: C4_6  and  C5_7 
REMARK    5  A    between atoms: C5_7  and  N1_8 
REMARK    6  A    between atoms: C15_19  and  C16_20 
ROOT
HETATM    1  N1  UNL     1      -3.726   3.520  13.226  1.00  0.00    -0.365 N 
HETATM    2  C6  UNL     1      -4.889   3.221  12.521  1.00  0.00     0.066 C 
HETATM    3  C7  UNL     1      -4.562   2.218  11.436  1.00  0.00     0.079 C 
HETATM    4  C8  UNL     1      -3.077   2.428  11.241  1.00  0.00     0.151 C 
HETATM    5  O3  UNL     1      -2.807   3.018  10.042  1.00  0.00    -0.383 OA
HETATM    6  C9  UNL     1      -2.972   4.370   9.971  1.00  0.00     0.175 C 
HETATM    7  C10 UNL     1      -2.410   5.170  11.089  1.00  0.00     0.035 C 
HETATM    8  C11 UNL     1      -1.496   6.280  10.648  1.00  0.00     0.020 C 
HETATM    9  C12 UNL     1      -0.104   5.861  10.314  1.00  0.00    -0.019 C 
HETATM   10  C13 UNL     1       0.087   6.171   8.830  1.00  0.00     0.017 C 
HETATM   11  C14 UNL     1       0.893   6.756  11.034  1.00  0.00     0.017 C 
HETATM   12  C15 UNL     1       0.165   4.417  10.517  1.00  0.00     0.174 C 
HETATM   13  N3  UNL     1      -0.448   3.817  11.647  1.00  0.00    -0.402 N 
ATOM     14  H3  UNL     1      -0.003   3.037  12.132  1.00  0.00     0.154 HD
HETATM   15  C17 UNL     1      -1.698   4.329  12.085  1.00  0.00     0.109 C 
HETATM   16  C18 UNL     1      -2.573   3.149  12.457  1.00  0.00     0.140 C 
ENDROOT
BRANCH   1  17
HETATM   17  C5  UNL     1      -3.620   3.396  14.608  1.00  0.00     0.064 C 
BRANCH  17  18
HETATM   18  C4  UNL     1      -4.670   2.774  15.418  1.00  0.00     0.054 C 
BRANCH  18  19
HETATM   19  C3  UNL     1      -4.358   1.666  16.339  1.00  0.00     0.116 C 
BRANCH  19  20
HETATM   20  C2  UNL     1      -5.024   0.375  16.052  1.00  0.00     0.258 C 
HETATM   21  O2  UNL     1      -4.659  -0.365  15.129  1.00  0.00    -0.265 OA
BRANCH  20  22
HETATM   22  O1  UNL     1      -6.103  -0.036  16.841  1.00  0.00    -0.326 OA
HETATM   23  C1  UNL     1      -6.942   0.900  17.494  1.00  0.00     0.213 C 
ENDBRANCH  20  22
ENDBRANCH  19  20
ENDBRANCH  18  19
ENDBRANCH  17  18
ENDBRANCH   1  17
BRANCH  12  24
HETATM   24  C16 UNL     1       1.642   4.153  10.675  1.00  0.00     0.254 C 
HETATM   25  N2  UNL     1       2.304   3.669   9.525  1.00  0.00    -0.060 NA
HETATM   26  O4  UNL     1       2.270   4.339  11.733  1.00  0.00    -0.275 OA
ENDBRANCH  12  24
TORSDOF 6
ENDMDL
MODEL 5
REMARK VINA RESULT: -6.779972369      2.688      5.501
REMARK  6 active torsions:
REMARK  status: ('A' for Active; 'I' for Inactive)
REMARK    1  A    between atoms: O1_2  and  C2_3 
REMARK    2  A    between atoms: C2_3  and  C3_5 
REMARK    3  A    between atoms: C3_5  and  C4_6 
REMARK    4  A    between atoms: C4_6  and  C5_7 
REMARK    5  A    between atoms: C5_7  and  N1_8 
REMARK    6  A    between atoms: C15_19  and  C16_20 
ROOT
HETATM    1  N1  UNL     1      -3.744   2.021  12.201  1.00  0.00    -0.365 N 
HETATM    2  C6  UNL     1      -3.133   1.256  11.212  1.00  0.00     0.066 C 
HETATM    3  C7  UNL     1      -1.682   1.673  11.093  1.00  0.00     0.079 C 
HETATM    4  C8  UNL     1      -1.702   3.071  11.668  1.00  0.00     0.151 C 
HETATM    5  O3  UNL     1      -1.502   4.014  10.704  1.00  0.00    -0.383 OA
HETATM    6  C9  UNL     1      -2.581   4.350   9.940  1.00  0.00     0.175 C 
HETATM    7  C10 UNL     1      -3.857   4.598  10.660  1.00  0.00     0.035 C 
HETATM    8  C11 UNL     1      -4.495   5.921  10.338  1.00  0.00     0.020 C 
HETATM    9  C12 UNL     1      -3.920   7.095  11.056  1.00  0.00    -0.019 C 
HETATM   10  C13 UNL     1      -3.331   8.003   9.977  1.00  0.00     0.017 C 
HETATM   11  C14 UNL     1      -5.035   7.911  11.691  1.00  0.00     0.017 C 
HETATM   12  C15 UNL     1      -2.837   6.757  12.010  1.00  0.00     0.174 C 
HETATM   13  N3  UNL     1      -2.999   5.553  12.744  1.00  0.00    -0.402 N 
ATOM     14  H3  UNL     1      -2.617   5.459  13.686  1.00  0.00     0.154 HD
HETATM   15  C17 UNL     1      -3.705   4.484  12.134  1.00  0.00     0.109 C 
HETATM   16  C18 UNL     1      -2.969   3.201  12.462  1.00  0.00     0.140 C 
ENDROOT
BRANCH   1  17
HETATM   17  C5  UNL     1      -4.420   1.468  13.284  1.00  0.00     0.064 C 
BRANCH  17  18
HETATM   18  C4  UNL     1      -5.218   2.281  14.203  1.00  0.00     0.054 C 
BRANCH  18  19
HETATM   19  C3  UNL     1      -4.982   2.233  15.657  1.00  0.00     0.116 C 
BRANCH  19  20
HETATM   20  C2  UNL     1      -4.835   0.884  16.248  1.00  0.00     0.258 C 
HETATM   21  O2  UNL     1      -3.729   0.358  16.427  1.00  0.00    -0.265 OA
BRANCH  20  22
HETATM   22  O1  UNL     1      -5.975   0.166  16.622  1.00  0.00    -0.326 OA
HETATM   23  C1  UNL     1      -6.971   0.737  17.451  1.00  0.00     0.213 C 
ENDBRANCH  20  22
ENDBRANCH  19  20
ENDBRANCH  18  19
ENDBRANCH  17  18
ENDBRANCH   1  17
BRANCH  12  24
HETATM   24  C16 UNL     1      -2.666   7.839  13.047  1.00  0.00     0.254 C 
HETATM   25  N2  UNL     1      -3.013   7.481  14.370  1.00  0.00    -0.060 NA
HETATM   26  O4  UNL     1      -2.249   8.984  12.794  1.00  0.00    -0.275 OA
ENDBRANCH  12  24
TORSDOF 6
ENDMDL
