MODEL 1
REMARK VINA RESULT: -7.660936886      0.000      0.000
REMARK  7 active torsions:
REMARK  status: ('A' for Active; 'I' for Inactive)
REMARK    1  A    between atoms: C2_2  and  C3_3 
REMARK    2  A    between atoms: C3_3  and  N1_4 
REMARK    3  A    between atoms: N2_13  and  C11_14 
REMARK    4  A    between atoms: C11_14  and  C12_15 
REMARK    5  A    between atoms: C12_15  and  N3_16 
REMARK    6  A    between atoms: C12_15  and  C17_25 
REMARK       I    between atoms: N3_16  and  C13_18 
REMARK       I    between atoms: C13_18  and  N4_20 
REMARK    7  A    between atoms: N4_20  and  C14_22 
ROOT
HETATM    1  C3  UNL     1      -2.566   5.309  12.262  1.00  0.00     0.388 C 
HETATM    2  O1  UNL     1      -1.703   5.415  11.206  1.00  0.00    -0.329 OA
HETATM    3  C9  UNL     1      -0.802   4.416  11.015  1.00  0.00     0.190 C 
HETATM    4  C10 UNL     1      -0.695   3.481  12.178  1.00  0.00     0.147 C 
HETATM    5  N2  UNL     1      -2.009   3.086  12.556  1.00  0.00    -0.187 NA
HETATM    6  O4  UNL     1      -2.861   4.067  12.721  1.00  0.00    -0.235 OA
ENDROOT
BRANCH   5   7
HETATM    7  C11 UNL     1      -2.577   2.006  11.848  1.00  0.00     0.154 C 
BRANCH   7   8
HETATM    8  C12 UNL     1      -3.597   1.189  12.558  1.00  0.00     0.170 C 
BRANCH   8   9
HETATM    9  N3  UNL     1      -4.070   1.821  13.776  1.00  0.00    -0.330 N 
HETATM   10  C13 UNL     1      -4.647   1.017  14.802  1.00  0.00     0.317 C 
HETATM   11  O2  UNL     1      -4.765  -0.224  14.693  1.00  0.00    -0.247 OA
HETATM   12  N4  UNL     1      -5.104   1.642  15.988  1.00  0.00    -0.339 N 
ATOM     13  H4  UNL     1      -5.016   2.652  16.097  1.00  0.00     0.164 HD
ATOM     14  H3  UNL     1      -3.990   2.831  13.897  1.00  0.00     0.165 HD
BRANCH  12  15
HETATM   15  C14 UNL     1      -5.692   0.857  17.036  1.00  0.00     0.086 A 
HETATM   16  C15 UNL     1      -7.196   1.022  17.290  1.00  0.00     0.027 A 
HETATM   17  C16 UNL     1      -6.193   1.473  18.293  1.00  0.00     0.027 A 
ENDBRANCH  12  15
ENDBRANCH   8   9
BRANCH   8  18
HETATM   18  C17 UNL     1      -4.800   1.090  11.652  1.00  0.00     0.146 C 
HETATM   19  C18 UNL     1      -4.971  -0.050  10.707  1.00  0.00     0.093 C 
HETATM   20  O3  UNL     1      -5.684   1.930  11.650  1.00  0.00    -0.296 OA
ENDBRANCH   8  18
ENDBRANCH   7   8
ENDBRANCH   5   7
BRANCH   1  21
HETATM   21  C2  UNL     1      -3.905   5.862  11.726  1.00  0.00     0.101 C 
HETATM   22  C1  UNL     1      -4.272   4.992  10.513  1.00  0.00     0.013 C 
ENDBRANCH   1  21
BRANCH   1  23
HETATM   23  N1  UNL     1      -2.124   6.229  13.294  1.00  0.00     0.153 N 
HETATM   24  C4  UNL     1      -3.154   6.659  14.186  1.00  0.00     0.279 C 
HETATM   25  C5  UNL     1      -2.505   7.622  15.179  1.00  0.00     0.030 C 
HETATM   26  C6  UNL     1      -2.087   8.901  14.492  1.00  0.00     0.003 C 
HETATM   27  C7  UNL     1      -1.994   8.666  12.999  1.00  0.00     0.030 C 
HETATM   28  C8  UNL     1      -1.357   7.322  12.740  1.00  0.00     0.279 C 
ENDBRANCH   1  23
TORSDOF 7
ENDMDL
MODEL 2
REMARK VINA RESULT: -7.003874087      1.154      1.432
REMARK  7 active torsions:
REMARK  status: ('A' for Active; 'I' for Inactive)
REMARK    1  A    between atoms: C2_2  and  C3_3 
REMARK    2  A    between atoms: C3_3  and  N1_4 
REMARK    3  A    between atoms: N2_13  and  C11_14 
REMARK    4  A    between atoms: C11_14  and  C12_15 
REMARK    5  A    between atoms: C12_15  and  N3_16 
REMARK    6  A    between atoms: C12_15  and  C17_25 
REMARK       I    between atoms: N3_16  and  C13_18 
REMARK       I    between atoms: C13_18  and  N4_20 
REMARK    7  A    between atoms: N4_20  and  C14_22 
ROOT
HETATM    1  C3  UNL     1      -2.361   4.796  10.774  1.00  0.00     0.388 C 
HETATM    2  O1  UNL     1      -1.090   4.556  10.328  1.00  0.00    -0.329 OA
HETATM    3  C9  UNL     1      -0.320   3.684  11.032  1.00  0.00     0.190 C 
HETATM    4  C10 UNL     1      -0.887   3.338  12.372  1.00  0.00     0.147 C 
HETATM    5  N2  UNL     1      -2.255   2.981  12.200  1.00  0.00    -0.187 NA
HETATM    6  O4  UNL     1      -2.970   3.832  11.508  1.00  0.00    -0.235 OA
ENDROOT
BRANCH   5   7
HETATM    7  C11 UNL     1      -2.522   1.644  11.836  1.00  0.00     0.154 C 
BRANCH   7   8
HETATM    8  C12 UNL     1      -3.633   0.956  12.545  1.00  0.00     0.170 C 
BRANCH   8   9
HETATM    9  N3  UNL     1      -4.060   1.665  13.738  1.00  0.00    -0.330 N 
HETATM   10  C13 UNL     1      -4.633   0.934  14.817  1.00  0.00     0.317 C 
HETATM   11  O2  UNL     1      -4.788  -0.307  14.779  1.00  0.00    -0.247 OA
HETATM   12  N4  UNL     1      -5.045   1.633  15.978  1.00  0.00    -0.339 N 
ATOM     13  H4  UNL     1      -4.927   2.645  16.031  1.00  0.00     0.164 HD
ATOM     14  H3  UNL     1      -3.949   2.677  13.802  1.00  0.00     0.165 HD
BRANCH  12  15
HETATM   15  C14 UNL     1      -5.629   0.923  17.080  1.00  0.00     0.086 A 
HETATM   16  C15 UNL     1      -7.149   1.018  17.263  1.00  0.00     0.027 A 
HETATM   17  C16 UNL     1      -6.216   1.629  18.249  1.00  0.00     0.027 A 
ENDBRANCH  12  15
ENDBRANCH   8   9
BRANCH   8  18
HETATM   18  C17 UNL     1      -4.824   0.957  11.618  1.00  0.00     0.146 C 
HETATM   19  C18 UNL     1      -4.990  -0.082  10.562  1.00  0.00     0.093 C 
HETATM   20  O3  UNL     1      -5.702   1.801  11.687  1.00  0.00    -0.296 OA
ENDBRANCH   8  18
ENDBRANCH   7   8
ENDBRANCH   5   7
BRANCH   1  21
HETATM   21  C2  UNL     1      -3.208   4.910   9.488  1.00  0.00     0.101 C 
HETATM   22  C1  UNL     1      -4.577   4.297   9.822  1.00  0.00     0.013 C 
ENDBRANCH   1  21
BRANCH   1  23
HETATM   23  N1  UNL     1      -2.376   6.107  11.395  1.00  0.00     0.153 N 
HETATM   24  C4  UNL     1      -3.438   6.309  12.330  1.00  0.00     0.279 C 
HETATM   25  C5  UNL     1      -3.296   7.735  12.860  1.00  0.00     0.030 C 
HETATM   26  C6  UNL     1      -3.594   8.743  11.774  1.00  0.00     0.003 C 
HETATM   27  C7  UNL     1      -3.474   8.078  10.419  1.00  0.00     0.030 C 
HETATM   28  C8  UNL     1      -2.273   7.163  10.413  1.00  0.00     0.279 C 
ENDBRANCH   1  23
TORSDOF 7
ENDMDL
MODEL 3
REMARK VINA RESULT: -6.963963461      3.074      4.422
REMARK  7 active torsions:
REMARK  status: ('A' for Active; 'I' for Inactive)
REMARK    1  A    between atoms: C2_2  and  C3_3 
REMARK    2  A    between atoms: C3_3  and  N1_4 
REMARK    3  A    between atoms: N2_13  and  C11_14 
REMARK    4  A    between atoms: C11_14  and  C12_15 
REMARK    5  A    between atoms: C12_15  and  N3_16 
REMARK    6  A    between atoms: C12_15  and  C17_25 
REMARK       I    between atoms: N3_16  and  C13_18 
REMARK       I    between atoms: C13_18  and  N4_20 
REMARK    7  A    between atoms: N4_20  and  C14_22 
ROOT
HETATM    1  C3  UNL     1      -5.252   5.572   8.958  1.00  0.00     0.388 C 
HETATM    2  O1  UNL     1      -3.982   6.078   8.913  1.00  0.00    -0.329 OA
HETATM    3  C9  UNL     1      -3.195   5.928  10.011  1.00  0.00     0.190 C 
HETATM    4  C10 UNL     1      -3.947   5.483  11.225  1.00  0.00     0.147 C 
HETATM    5  N2  UNL     1      -4.756   4.368  10.866  1.00  0.00    -0.187 NA
HETATM    6  O4  UNL     1      -5.494   4.535   9.797  1.00  0.00    -0.235 OA
ENDROOT
BRANCH   5   7
HETATM    7  C11 UNL     1      -4.137   3.100  10.889  1.00  0.00     0.154 C 
BRANCH   7   8
HETATM    8  C12 UNL     1      -3.242   2.801  12.038  1.00  0.00     0.170 C 
BRANCH   8   9
HETATM    9  N3  UNL     1      -3.816   1.833  12.956  1.00  0.00    -0.330 N 
HETATM   10  C13 UNL     1      -4.246   2.263  14.244  1.00  0.00     0.317 C 
HETATM   11  O2  UNL     1      -4.147   3.452  14.622  1.00  0.00    -0.247 OA
HETATM   12  N4  UNL     1      -4.805   1.312  15.133  1.00  0.00    -0.339 N 
ATOM     13  H4  UNL     1      -4.896   0.338  14.845  1.00  0.00     0.164 HD
ATOM     14  H3  UNL     1      -3.910   0.855  12.681  1.00  0.00     0.165 HD
BRANCH  12  15
HETATM   15  C14 UNL     1      -5.245   1.716  16.439  1.00  0.00     0.086 A 
HETATM   16  C15 UNL     1      -6.109   0.730  17.235  1.00  0.00     0.027 A 
HETATM   17  C16 UNL     1      -6.672   2.013  16.732  1.00  0.00     0.027 A 
ENDBRANCH  12  15
ENDBRANCH   8   9
BRANCH   8  18
HETATM   18  C17 UNL     1      -1.999   2.152  11.480  1.00  0.00     0.146 C 
HETATM   19  C18 UNL     1      -1.142   2.846  10.477  1.00  0.00     0.093 C 
HETATM   20  O3  UNL     1      -1.638   1.038  11.821  1.00  0.00    -0.296 OA
ENDBRANCH   8  18
ENDBRANCH   7   8
ENDBRANCH   5   7
BRANCH   1  21
HETATM   21  C2  UNL     1      -5.493   5.001   7.543  1.00  0.00     0.101 C 
HETATM   22  C1  UNL     1      -4.232   5.331   6.728  1.00  0.00     0.013 C 
ENDBRANCH   1  21
BRANCH   1  23
HETATM   23  N1  UNL     1      -6.171   6.684   9.115  1.00  0.00     0.153 N 
HETATM   24  C4  UNL     1      -7.425   6.516   8.451  1.00  0.00     0.279 C 
HETATM   25  C5  UNL     1      -8.239   7.781   8.717  1.00  0.00     0.030 C 
HETATM   26  C6  UNL     1      -7.630   8.971   8.011  1.00  0.00     0.003 C 
HETATM   27  C7  UNL     1      -6.188   8.668   7.664  1.00  0.00     0.030 C 
HETATM   28  C8  UNL     1      -5.534   7.948   8.818  1.00  0.00     0.279 C 
ENDBRANCH   1  23
TORSDOF 7
ENDMDL
MODEL 4
REMARK VINA RESULT: -6.911912884      2.074      2.615
REMARK  7 active torsions:
REMARK  status: ('A' for Active; 'I' for Inactive)
REMARK    1  A    between atoms: C2_2  and  C3_3 
REMARK    2  A    between atoms: C3_3  and  N1_4 
REMARK    3  A    between atoms: N2_13  and  C11_14 
REMARK    4  A    between atoms: C11_14  and  C12_15 
REMARK    5  A    between atoms: C12_15  and  N3_16 
REMARK    6  A    between atoms: C12_15  and  C17_25 
REMARK       I    between atoms: N3_16  and  C13_18 
REMARK       I    between atoms: C13_18  and  N4_20 
REMARK    7  A    between atoms: N4_20  and  C14_22 
ROOT
HETATM    1  C3  UNL     1      -4.373   6.058  10.883  1.00  0.00     0.388 C 
HETATM    2  O1  UNL     1      -3.099   6.472  10.602  1.00  0.00    -0.329 OA
HETATM    3  C9  UNL     1      -2.100   6.069  11.430  1.00  0.00     0.190 C 
HETATM    4  C10 UNL     1      -2.592   5.467  12.708  1.00  0.00     0.147 C 
HETATM    5  N2  UNL     1      -3.584   4.496  12.391  1.00  0.00    -0.187 NA
HETATM    6  O4  UNL     1      -4.528   4.906  11.581  1.00  0.00    -0.235 OA
ENDROOT
BRANCH   5   7
HETATM    7  C11 UNL     1      -3.125   3.204  12.057  1.00  0.00     0.154 C 
BRANCH   7   8
HETATM    8  C12 UNL     1      -3.739   2.057  12.778  1.00  0.00     0.170 C 
BRANCH   8   9
HETATM    9  N3  UNL     1      -4.591   2.479  13.875  1.00  0.00    -0.330 N 
HETATM   10  C13 UNL     1      -4.831   1.583  14.957  1.00  0.00     0.317 C 
HETATM   11  O2  UNL     1      -4.333   0.436  15.000  1.00  0.00    -0.247 OA
HETATM   12  N4  UNL     1      -5.663   2.003  16.024  1.00  0.00    -0.339 N 
ATOM     13  H4  UNL     1      -6.078   2.934  16.010  1.00  0.00     0.164 HD
ATOM     14  H3  UNL     1      -5.014   3.407  13.872  1.00  0.00     0.165 HD
BRANCH  12  15
HETATM   15  C14 UNL     1      -5.924   1.120  17.126  1.00  0.00     0.086 A 
HETATM   16  C15 UNL     1      -7.388   0.894  17.524  1.00  0.00     0.027 A 
HETATM   17  C16 UNL     1      -6.450   1.618  18.424  1.00  0.00     0.027 A 
ENDBRANCH  12  15
ENDBRANCH   8   9
BRANCH   8  18
HETATM   18  C17 UNL     1      -4.645   1.348  11.802  1.00  0.00     0.146 C 
HETATM   19  C18 UNL     1      -4.256   0.051  11.180  1.00  0.00     0.093 C 
HETATM   20  O3  UNL     1      -5.731   1.798  11.477  1.00  0.00    -0.296 OA
ENDBRANCH   8  18
ENDBRANCH   7   8
ENDBRANCH   5   7
BRANCH   1  21
HETATM   21  C2  UNL     1      -5.001   5.771   9.501  1.00  0.00     0.101 C 
HETATM   22  C1  UNL     1      -3.877   5.180   8.634  1.00  0.00     0.013 C 
ENDBRANCH   1  21
BRANCH   1  23
HETATM   23  N1  UNL     1      -5.097   7.186  11.438  1.00  0.00     0.153 N 
HETATM   24  C4  UNL     1      -6.494   7.200  11.138  1.00  0.00     0.279 C 
HETATM   25  C5  UNL     1      -7.073   8.456  11.789  1.00  0.00     0.030 C 
HETATM   26  C6  UNL     1      -6.559   9.701  11.103  1.00  0.00     0.003 C 
HETATM   27  C7  UNL     1      -5.303   9.369  10.327  1.00  0.00     0.030 C 
HETATM   28  C8  UNL     1      -4.438   8.439  11.144  1.00  0.00     0.279 C 
ENDBRANCH   1  23
TORSDOF 7
ENDMDL
MODEL 5
REMARK VINA RESULT: -6.882151000      2.122      3.850
REMARK  7 active torsions:
REMARK  status: ('A' for Active; 'I' for Inactive)
REMARK    1  A    between atoms: C2_2  and  C3_3 
REMARK    2  A    between atoms: C3_3  and  N1_4 
REMARK    3  A    between atoms: N2_13  and  C11_14 
REMARK    4  A    between atoms: C11_14  and  C12_15 
REMARK    5  A    between atoms: C12_15  and  N3_16 
REMARK    6  A    between atoms: C12_15  and  C17_25 
REMARK       I    between atoms: N3_16  and  C13_18 
REMARK       I    between atoms: C13_18  and  N4_20 
REMARK    7  A    between atoms: N4_20  and  C14_22 
ROOT
HETATM    1  C3  UNL     1      -2.720   4.797   9.453  1.00  0.00     0.388 C 
HETATM    2  O1  UNL     1      -2.114   5.667  10.317  1.00  0.00    -0.329 OA
HETATM    3  C9  UNL     1      -2.455   5.603  11.631  1.00  0.00     0.190 C 
HETATM    4  C10 UNL     1      -3.676   4.777  11.890  1.00  0.00     0.147 C 
HETATM    5  N2  UNL     1      -3.525   3.534  11.212  1.00  0.00    -0.187 NA
HETATM    6  O4  UNL     1      -3.183   3.624   9.951  1.00  0.00    -0.235 OA
ENDROOT
BRANCH   5   7
HETATM    7  C11 UNL     1      -2.803   2.525  11.885  1.00  0.00     0.154 C 
BRANCH   7   8
HETATM    8  C12 UNL     1      -3.590   1.514  12.639  1.00  0.00     0.170 C 
BRANCH   8   9
HETATM    9  N3  UNL     1      -4.183   2.055  13.849  1.00  0.00    -0.330 N 
HETATM   10  C13 UNL     1      -4.697   1.163  14.834  1.00  0.00     0.317 C 
HETATM   11  O2  UNL     1      -4.660  -0.080  14.697  1.00  0.00    -0.247 OA
HETATM   12  N4  UNL     1      -5.272   1.700  16.012  1.00  0.00    -0.339 N 
ATOM     13  H4  UNL     1      -5.311   2.710  16.144  1.00  0.00     0.164 HD
ATOM     14  H3  UNL     1      -4.230   3.064  13.992  1.00  0.00     0.165 HD
BRANCH  12  15
HETATM   15  C14 UNL     1      -5.800   0.825  17.020  1.00  0.00     0.086 A 
HETATM   16  C15 UNL     1      -7.283   0.975  17.386  1.00  0.00     0.027 A 
HETATM   17  C16 UNL     1      -6.211   1.326  18.358  1.00  0.00     0.027 A 
ENDBRANCH  12  15
ENDBRANCH   8   9
BRANCH   8  18
HETATM   18  C17 UNL     1      -4.748   1.103  11.762  1.00  0.00     0.146 C 
HETATM   19  C18 UNL     1      -4.711  -0.154  10.962  1.00  0.00     0.093 C 
HETATM   20  O3  UNL     1      -5.761   1.774  11.666  1.00  0.00    -0.296 OA
ENDBRANCH   8  18
ENDBRANCH   7   8
ENDBRANCH   5   7
BRANCH   1  21
HETATM   21  C2  UNL     1      -1.606   4.395   8.462  1.00  0.00     0.101 C 
HETATM   22  C1  UNL     1      -0.413   3.944   9.320  1.00  0.00     0.013 C 
ENDBRANCH   1  21
BRANCH   1  23
HETATM   23  N1  UNL     1      -3.703   5.541   8.687  1.00  0.00     0.153 N 
HETATM   24  C4  UNL     1      -4.997   4.936   8.636  1.00  0.00     0.279 C 
HETATM   25  C5  UNL     1      -5.878   5.848   7.784  1.00  0.00     0.030 C 
HETATM   26  C6  UNL     1      -5.430   5.831   6.340  1.00  0.00     0.003 C 
HETATM   27  C7  UNL     1      -4.007   5.322   6.258  1.00  0.00     0.030 C 
HETATM   28  C8  UNL     1      -3.195   5.912   7.385  1.00  0.00     0.279 C 
ENDBRANCH   1  23
TORSDOF 7
ENDMDL
