MODEL 1
REMARK VINA RESULT: -7.470188496      0.000      0.000
REMARK  7 active torsions:
REMARK  status: ('A' for Active; 'I' for Inactive)
REMARK       I    between atoms: N2_5  and  C4_6 
REMARK    1  A    between atoms: C4_6  and  C5_8 
REMARK    2  A    between atoms: C5_8  and  N3_9 
REMARK    3  A    between atoms: C5_8  and  C12_23 
REMARK    4  A    between atoms: N3_9  and  C6_12 
REMARK    5  A    between atoms: C6_12  and  C7_13 
REMARK       I    between atoms: C7_13  and  N4_15 
REMARK    6  A    between atoms: N4_15  and  C8_17 
REMARK    7  A    between atoms: C8_17  and  C9_18 
ROOT
HETATM    1  C5  UNL     1      -4.885   2.855  14.887  1.00  0.00     0.281 C 
ENDROOT
BRANCH   1   2
HETATM    2  C4  UNL     1      -3.921   3.956  14.904  1.00  0.00     0.251 C 
HETATM    3  N2  UNL     1      -4.156   5.294  14.498  1.00  0.00    -0.347 N 
HETATM    4  C3  UNL     1      -3.100   6.317  14.617  1.00  0.00     0.156 C 
HETATM    5  C17 UNL     1      -5.376   5.798  13.921  1.00  0.00     0.156 C 
HETATM    6  C2  UNL     1      -3.438   7.551  13.848  1.00  0.00     0.291 C 
HETATM    7  N1  UNL     1      -3.867   7.176  12.524  1.00  0.00     0.087 N 
HETATM    8  C1  UNL     1      -3.988   8.333  11.657  1.00  0.00     0.310 C 
HETATM    9  C18 UNL     1      -5.091   6.398  12.540  1.00  0.00     0.291 C 
HETATM   10  O1  UNL     1      -2.727   3.721  15.325  1.00  0.00    -0.271 OA
ENDBRANCH   1   2
BRANCH   1  11
HETATM   11  N3  UNL     1      -4.351   1.680  14.187  1.00  0.00    -0.054 N 
ATOM     12  H32 UNL     1      -3.357   1.558  14.382  1.00  0.00     0.278 HD
ATOM     13  H31 UNL     1      -4.706   0.817  14.599  1.00  0.00     0.278 HD
BRANCH  11  14
HETATM   14  C6  UNL     1      -4.598   1.718  12.780  1.00  0.00     0.335 C 
BRANCH  14  15
HETATM   15  C7  UNL     1      -3.319   1.525  12.064  1.00  0.00     0.243 C 
HETATM   16  O2  UNL     1      -3.216   0.522  11.339  1.00  0.00    -0.272 OA
HETATM   17  N4  UNL     1      -2.275   2.454  12.214  1.00  0.00    -0.355 N 
ATOM     18  H4  UNL     1      -2.467   3.231  12.845  1.00  0.00     0.162 HD
BRANCH  17  19
HETATM   19  C8  UNL     1      -0.989   2.462  11.610  1.00  0.00     0.183 C 
BRANCH  19  20
HETATM   20  C9  UNL     1      -0.835   3.416  10.464  1.00  0.00     0.277 C 
HETATM   21  O3  UNL     1      -1.499   2.895   9.347  1.00  0.00    -0.358 OA
HETATM   22  C10 UNL     1      -1.030   3.660   8.288  1.00  0.00     0.197 C 
HETATM   23  C11 UNL     1       0.259   4.250   8.777  1.00  0.00     0.197 C 
HETATM   24  O4  UNL     1       0.429   3.626  10.021  1.00  0.00    -0.358 OA
ENDBRANCH  19  20
ENDBRANCH  17  19
ENDBRANCH  14  15
ENDBRANCH  11  14
ENDBRANCH   1  11
BRANCH   1  25
HETATM   25  C12 UNL     1      -5.333   2.334  16.200  1.00  0.00     0.026 C 
HETATM   26  C13 UNL     1      -6.760   2.525  16.567  1.00  0.00     0.007 C 
HETATM   27  C14 UNL     1      -7.158   1.344  17.463  1.00  0.00     0.000 C 
HETATM   28  C15 UNL     1      -5.808   0.730  17.805  1.00  0.00     0.000 C 
HETATM   29  C16 UNL     1      -5.129   0.856  16.426  1.00  0.00     0.007 C 
ENDBRANCH   1  25
TORSDOF 7
ENDMDL
MODEL 2
REMARK VINA RESULT: -7.331723029      1.174      1.530
REMARK  7 active torsions:
REMARK  status: ('A' for Active; 'I' for Inactive)
REMARK       I    between atoms: N2_5  and  C4_6 
REMARK    1  A    between atoms: C4_6  and  C5_8 
REMARK    2  A    between atoms: C5_8  and  N3_9 
REMARK    3  A    between atoms: C5_8  and  C12_23 
REMARK    4  A    between atoms: N3_9  and  C6_12 
REMARK    5  A    between atoms: C6_12  and  C7_13 
REMARK       I    between atoms: C7_13  and  N4_15 
REMARK    6  A    between atoms: N4_15  and  C8_17 
REMARK    7  A    between atoms: C8_17  and  C9_18 
ROOT
HETATM    1  C5  UNL     1      -4.836   3.021  14.789  1.00  0.00     0.281 C 
ENDROOT
BRANCH   1   2
HETATM    2  C4  UNL     1      -3.849   4.099  14.856  1.00  0.00     0.251 C 
HETATM    3  N2  UNL     1      -4.046   5.452  14.479  1.00  0.00    -0.347 N 
HETATM    4  C3  UNL     1      -2.970   6.448  14.647  1.00  0.00     0.156 C 
HETATM    5  C17 UNL     1      -5.241   5.998  13.889  1.00  0.00     0.156 C 
HETATM    6  C2  UNL     1      -3.263   7.707  13.903  1.00  0.00     0.291 C 
HETATM    7  N1  UNL     1      -3.671   7.377  12.561  1.00  0.00     0.087 N 
HETATM    8  C1  UNL     1      -3.748   8.557  11.722  1.00  0.00     0.310 C 
HETATM    9  C18 UNL     1      -4.912   6.626  12.530  1.00  0.00     0.291 C 
HETATM   10  O1  UNL     1      -2.671   3.827  15.296  1.00  0.00    -0.271 OA
ENDBRANCH   1   2
BRANCH   1  11
HETATM   11  N3  UNL     1      -4.335   1.875  14.021  1.00  0.00    -0.054 N 
ATOM     12  H32 UNL     1      -3.317   1.815  14.074  1.00  0.00     0.278 HD
ATOM     13  H31 UNL     1      -4.574   0.995  14.478  1.00  0.00     0.278 HD
BRANCH  11  14
HETATM   14  C6  UNL     1      -4.778   1.886  12.662  1.00  0.00     0.335 C 
BRANCH  14  15
HETATM   15  C7  UNL     1      -3.601   1.998  11.775  1.00  0.00     0.243 C 
HETATM   16  O2  UNL     1      -3.790   1.870  10.555  1.00  0.00    -0.272 OA
HETATM   17  N4  UNL     1      -2.326   2.242  12.316  1.00  0.00    -0.355 N 
ATOM     18  H4  UNL     1      -2.289   2.316  13.332  1.00  0.00     0.162 HD
BRANCH  17  19
HETATM   19  C8  UNL     1      -1.083   2.398  11.646  1.00  0.00     0.183 C 
BRANCH  19  20
HETATM   20  C9  UNL     1      -0.607   3.814  11.521  1.00  0.00     0.277 C 
HETATM   21  O3  UNL     1       0.784   3.840  11.664  1.00  0.00    -0.358 OA
HETATM   22  C10 UNL     1       1.079   5.182  11.862  1.00  0.00     0.197 C 
HETATM   23  C11 UNL     1      -0.208   5.797  12.325  1.00  0.00     0.197 C 
HETATM   24  O4  UNL     1      -1.047   4.683  12.465  1.00  0.00    -0.358 OA
ENDBRANCH  19  20
ENDBRANCH  17  19
ENDBRANCH  14  15
ENDBRANCH  11  14
ENDBRANCH   1  11
BRANCH   1  25
HETATM   25  C12 UNL     1      -5.282   2.439  16.077  1.00  0.00     0.026 C 
HETATM   26  C13 UNL     1      -6.708   2.619  16.457  1.00  0.00     0.007 C 
HETATM   27  C14 UNL     1      -7.109   1.397  17.296  1.00  0.00     0.000 C 
HETATM   28  C15 UNL     1      -5.761   0.760  17.603  1.00  0.00     0.000 C 
HETATM   29  C16 UNL     1      -5.085   0.951  16.230  1.00  0.00     0.007 C 
ENDBRANCH   1  25
TORSDOF 7
ENDMDL
MODEL 3
REMARK VINA RESULT: -7.159140150      0.886      1.316
REMARK  7 active torsions:
REMARK  status: ('A' for Active; 'I' for Inactive)
REMARK       I    between atoms: N2_5  and  C4_6 
REMARK    1  A    between atoms: C4_6  and  C5_8 
REMARK    2  A    between atoms: C5_8  and  N3_9 
REMARK    3  A    between atoms: C5_8  and  C12_23 
REMARK    4  A    between atoms: N3_9  and  C6_12 
REMARK    5  A    between atoms: C6_12  and  C7_13 
REMARK       I    between atoms: C7_13  and  N4_15 
REMARK    6  A    between atoms: N4_15  and  C8_17 
REMARK    7  A    between atoms: C8_17  and  C9_18 
ROOT
HETATM    1  C5  UNL     1      -4.786   2.859  14.249  1.00  0.00     0.281 C 
ENDROOT
BRANCH   1   2
HETATM    2  C4  UNL     1      -3.915   3.981  14.597  1.00  0.00     0.251 C 
HETATM    3  N2  UNL     1      -4.117   5.345  14.264  1.00  0.00    -0.347 N 
HETATM    4  C3  UNL     1      -3.176   6.383  14.727  1.00  0.00     0.156 C 
HETATM    5  C17 UNL     1      -5.187   5.866  13.453  1.00  0.00     0.156 C 
HETATM    6  C2  UNL     1      -3.384   7.675  14.010  1.00  0.00     0.291 C 
HETATM    7  N1  UNL     1      -3.462   7.419  12.593  1.00  0.00     0.087 N 
HETATM    8  C1  UNL     1      -3.432   8.650  11.828  1.00  0.00     0.310 C 
HETATM    9  C18 UNL     1      -4.610   6.606  12.241  1.00  0.00     0.291 C 
HETATM   10  O1  UNL     1      -2.847   3.743  15.275  1.00  0.00    -0.271 OA
ENDBRANCH   1   2
BRANCH   1  11
HETATM   11  N3  UNL     1      -4.016   1.705  13.768  1.00  0.00    -0.054 N 
ATOM     12  H32 UNL     1      -3.017   1.910  13.759  1.00  0.00     0.278 HD
ATOM     13  H31 UNL     1      -4.023   0.949  14.452  1.00  0.00     0.278 HD
BRANCH  11  14
HETATM   14  C6  UNL     1      -4.457   1.244  12.488  1.00  0.00     0.335 C 
BRANCH  14  15
HETATM   15  C7  UNL     1      -3.340   1.363  11.526  1.00  0.00     0.243 C 
HETATM   16  O2  UNL     1      -3.487   0.835  10.412  1.00  0.00    -0.272 OA
HETATM   17  N4  UNL     1      -2.168   2.052  11.882  1.00  0.00    -0.355 N 
ATOM     18  H4  UNL     1      -2.154   2.433  12.827  1.00  0.00     0.162 HD
BRANCH  17  19
HETATM   19  C8  UNL     1      -1.000   2.292  11.110  1.00  0.00     0.183 C 
BRANCH  19  20
HETATM   20  C9  UNL     1      -1.083   3.472  10.188  1.00  0.00     0.277 C 
HETATM   21  O3  UNL     1      -1.899   4.448  10.771  1.00  0.00    -0.358 OA
HETATM   22  C10 UNL     1      -2.175   5.324   9.731  1.00  0.00     0.197 C 
HETATM   23  C11 UNL     1      -1.917   4.536   8.482  1.00  0.00     0.197 C 
HETATM   24  O4  UNL     1      -1.656   3.251   8.979  1.00  0.00    -0.358 OA
ENDBRANCH  19  20
ENDBRANCH  17  19
ENDBRANCH  14  15
ENDBRANCH  11  14
ENDBRANCH   1  11
BRANCH   1  25
HETATM   25  C12 UNL     1      -5.640   2.311  15.329  1.00  0.00     0.026 C 
HETATM   26  C13 UNL     1      -5.016   1.361  16.286  1.00  0.00     0.007 C 
HETATM   27  C14 UNL     1      -5.735   1.537  17.631  1.00  0.00     0.000 C 
HETATM   28  C15 UNL     1      -6.952   2.364  17.240  1.00  0.00     0.000 C 
HETATM   29  C16 UNL     1      -6.279   3.328  16.243  1.00  0.00     0.007 C 
ENDBRANCH   1  25
TORSDOF 7
ENDMDL
MODEL 4
REMARK VINA RESULT: -7.105243363      1.288      1.517
REMARK  7 active torsions:
REMARK  status: ('A' for Active; 'I' for Inactive)
REMARK       I    between atoms: N2_5  and  C4_6 
REMARK    1  A    between atoms: C4_6  and  C5_8 
REMARK    2  A    between atoms: C5_8  and  N3_9 
REMARK    3  A    between atoms: C5_8  and  C12_23 
REMARK    4  A    between atoms: N3_9  and  C6_12 
REMARK    5  A    between atoms: C6_12  and  C7_13 
REMARK       I    between atoms: C7_13  and  N4_15 
REMARK    6  A    between atoms: N4_15  and  C8_17 
REMARK    7  A    between atoms: C8_17  and  C9_18 
ROOT
HETATM    1  C5  UNL     1      -4.794   2.882  14.758  1.00  0.00     0.281 C 
ENDROOT
BRANCH   1   2
HETATM    2  C4  UNL     1      -3.861   4.008  14.792  1.00  0.00     0.251 C 
HETATM    3  N2  UNL     1      -4.078   5.305  14.262  1.00  0.00    -0.347 N 
HETATM    4  C3  UNL     1      -3.063   6.364  14.412  1.00  0.00     0.156 C 
HETATM    5  C17 UNL     1      -5.239   5.730  13.523  1.00  0.00     0.156 C 
HETATM    6  C2  UNL     1      -3.341   7.527  13.519  1.00  0.00     0.291 C 
HETATM    7  N1  UNL     1      -3.618   7.043  12.190  1.00  0.00     0.087 N 
HETATM    8  C1  UNL     1      -3.670   8.128  11.229  1.00  0.00     0.310 C 
HETATM    9  C18 UNL     1      -4.820   6.233  12.137  1.00  0.00     0.291 C 
HETATM   10  O1  UNL     1      -2.714   3.840  15.353  1.00  0.00    -0.271 OA
ENDBRANCH   1   2
BRANCH   1  11
HETATM   11  N3  UNL     1      -4.215   1.720  14.072  1.00  0.00    -0.054 N 
ATOM     12  H32 UNL     1      -3.208   1.666  14.229  1.00  0.00     0.278 HD
ATOM     13  H31 UNL     1      -4.498   0.850  14.523  1.00  0.00     0.278 HD
BRANCH  11  14
HETATM   14  C6  UNL     1      -4.519   1.699  12.675  1.00  0.00     0.335 C 
BRANCH  14  15
HETATM   15  C7  UNL     1      -3.288   2.000  11.913  1.00  0.00     0.243 C 
HETATM   16  O2  UNL     1      -2.362   1.175  11.975  1.00  0.00    -0.272 OA
HETATM   17  N4  UNL     1      -3.194   3.179  11.155  1.00  0.00    -0.355 N 
ATOM     18  H4  UNL     1      -4.011   3.788  11.189  1.00  0.00     0.162 HD
BRANCH  17  19
HETATM   19  C8  UNL     1      -2.121   3.643  10.348  1.00  0.00     0.183 C 
BRANCH  19  20
HETATM   20  C9  UNL     1      -2.512   4.611   9.272  1.00  0.00     0.277 C 
HETATM   21  O3  UNL     1      -3.901   4.575   9.111  1.00  0.00    -0.358 OA
HETATM   22  C10 UNL     1      -4.119   5.232   7.908  1.00  0.00     0.197 C 
HETATM   23  C11 UNL     1      -2.805   5.171   7.189  1.00  0.00     0.197 C 
HETATM   24  O4  UNL     1      -2.034   4.354   8.029  1.00  0.00    -0.358 OA
ENDBRANCH  19  20
ENDBRANCH  17  19
ENDBRANCH  14  15
ENDBRANCH  11  14
ENDBRANCH   1  11
BRANCH   1  25
HETATM   25  C12 UNL     1      -5.253   2.352  16.064  1.00  0.00     0.026 C 
HETATM   26  C13 UNL     1      -6.654   2.640  16.470  1.00  0.00     0.007 C 
HETATM   27  C14 UNL     1      -7.124   1.462  17.336  1.00  0.00     0.000 C 
HETATM   28  C15 UNL     1      -5.820   0.733  17.624  1.00  0.00     0.000 C 
HETATM   29  C16 UNL     1      -5.161   0.855  16.235  1.00  0.00     0.007 C 
ENDBRANCH   1  25
TORSDOF 7
ENDMDL
MODEL 5
REMARK VINA RESULT: -7.055168815      2.634      5.187
REMARK  7 active torsions:
REMARK  status: ('A' for Active; 'I' for Inactive)
REMARK       I    between atoms: N2_5  and  C4_6 
REMARK    1  A    between atoms: C4_6  and  C5_8 
REMARK    2  A    between atoms: C5_8  and  N3_9 
REMARK    3  A    between atoms: C5_8  and  C12_23 
REMARK    4  A    between atoms: N3_9  and  C6_12 
REMARK    5  A    between atoms: C6_12  and  C7_13 
REMARK       I    between atoms: C7_13  and  N4_15 
REMARK    6  A    between atoms: N4_15  and  C8_17 
REMARK    7  A    between atoms: C8_17  and  C9_18 
ROOT
HETATM    1  C5  UNL     1      -3.645   3.488  12.898  1.00  0.00     0.281 C 
ENDROOT
BRANCH   1   2
HETATM    2  C4  UNL     1      -4.816   3.858  13.694  1.00  0.00     0.251 C 
HETATM    3  N2  UNL     1      -5.128   3.407  15.002  1.00  0.00    -0.347 N 
HETATM    4  C3  UNL     1      -6.324   3.904  15.708  1.00  0.00     0.156 C 
HETATM    5  C17 UNL     1      -4.380   2.437  15.760  1.00  0.00     0.156 C 
HETATM    6  C2  UNL     1      -6.640   3.076  16.909  1.00  0.00     0.291 C 
HETATM    7  N1  UNL     1      -6.605   1.682  16.542  1.00  0.00     0.087 N 
HETATM    8  C1  UNL     1      -7.125   0.840  17.601  1.00  0.00     0.310 C 
HETATM    9  C18 UNL     1      -5.282   1.254  16.128  1.00  0.00     0.291 C 
HETATM   10  O1  UNL     1      -5.671   4.675  13.187  1.00  0.00    -0.271 OA
ENDBRANCH   1   2
BRANCH   1  11
HETATM   11  N3  UNL     1      -2.395   3.738  13.626  1.00  0.00    -0.054 N 
ATOM     12  H32 UNL     1      -2.502   3.531  14.620  1.00  0.00     0.278 HD
ATOM     13  H31 UNL     1      -1.688   3.042  13.389  1.00  0.00     0.278 HD
BRANCH  11  14
HETATM   14  C6  UNL     1      -1.898   5.063  13.428  1.00  0.00     0.335 C 
BRANCH  14  15
HETATM   15  C7  UNL     1      -0.933   5.050  12.308  1.00  0.00     0.243 C 
HETATM   16  O2  UNL     1      -1.129   5.845  11.375  1.00  0.00    -0.272 OA
HETATM   17  N4  UNL     1       0.157   4.163  12.322  1.00  0.00    -0.355 N 
ATOM     18  H4  UNL     1       0.210   3.547  13.132  1.00  0.00     0.162 HD
BRANCH  17  19
HETATM   19  C8  UNL     1       1.195   4.003  11.365  1.00  0.00     0.183 C 
BRANCH  19  20
HETATM   20  C9  UNL     1       2.423   4.823  11.622  1.00  0.00     0.277 C 
HETATM   21  O3  UNL     1       3.311   4.661  10.553  1.00  0.00    -0.358 OA
HETATM   22  C10 UNL     1       4.510   5.173  11.028  1.00  0.00     0.197 C 
HETATM   23  C11 UNL     1       4.380   5.143  12.521  1.00  0.00     0.197 C 
HETATM   24  O4  UNL     1       3.159   4.480  12.709  1.00  0.00    -0.358 OA
ENDBRANCH  19  20
ENDBRANCH  17  19
ENDBRANCH  14  15
ENDBRANCH  11  14
ENDBRANCH   1  11
BRANCH   1  25
HETATM   25  C12 UNL     1      -3.548   2.074  12.465  1.00  0.00     0.026 C 
HETATM   26  C13 UNL     1      -4.780   1.426  11.945  1.00  0.00     0.007 C 
HETATM   27  C14 UNL     1      -4.338   0.379  10.913  1.00  0.00     0.000 C 
HETATM   28  C15 UNL     1      -2.840   0.289  11.166  1.00  0.00     0.000 C 
HETATM   29  C16 UNL     1      -2.540   1.787  11.380  1.00  0.00     0.007 C 
ENDBRANCH   1  25
TORSDOF 7
ENDMDL
