MODEL 1
REMARK VINA RESULT: -7.826626750      0.000      0.000
REMARK  5 active torsions:
REMARK  status: ('A' for Active; 'I' for Inactive)
REMARK    1  A    between atoms: C2_3  and  C3_4 
REMARK    2  A    between atoms: C3_4  and  N2_5 
REMARK    3  A    between atoms: N3_13  and  C10_14 
REMARK    4  A    between atoms: C10_14  and  O2_15 
REMARK    5  A    between atoms: C10_14  and  C11_17 
ROOT
HETATM    1  N1  UNL     1      -3.126   1.611  16.467  1.00  0.00    -0.196 NA
HETATM    2  C1  UNL     1      -4.250   1.884  16.417  1.00  0.00     0.071 C 
HETATM    3  C2  UNL     1      -5.649   2.216  16.387  1.00  0.00     0.065 C 
HETATM    4  C16 UNL     1      -6.002   2.827  17.729  1.00  0.00     0.026 C 
HETATM    5  C17 UNL     1      -6.719   1.686  18.464  1.00  0.00     0.002 C 
HETATM    6  C18 UNL     1      -7.570   1.155  17.300  1.00  0.00     0.002 C 
HETATM    7  C19 UNL     1      -6.486   0.943  16.269  1.00  0.00     0.026 C 
ENDROOT
BRANCH   3   8
HETATM    8  C3  UNL     1      -6.068   3.129  15.288  1.00  0.00     0.148 C 
BRANCH   8   9
HETATM    9  N2  UNL     1      -5.107   4.060  14.837  1.00  0.00    -0.369 N 
HETATM   10  C4  UNL     1      -5.184   5.393  15.229  1.00  0.00     0.224 C 
HETATM   11  O1  UNL     1      -4.837   6.345  14.283  1.00  0.00    -0.346 OA
HETATM   12  C5  UNL     1      -4.946   5.871  12.988  1.00  0.00     0.189 C 
HETATM   13  C6  UNL     1      -3.866   4.814  12.845  1.00  0.00     0.014 C 
HETATM   14  C7  UNL     1      -2.537   5.319  13.382  1.00  0.00     0.016 C 
HETATM   15  C14 UNL     1      -3.701   4.358  11.440  1.00  0.00     0.138 C 
HETATM   16  C15 UNL     1      -4.299   3.679  13.744  1.00  0.00     0.137 C 
HETATM   17  C8  UNL     1      -1.734   5.811  12.223  1.00  0.00     0.021 C 
HETATM   18  C9  UNL     1      -1.210   4.530  11.520  1.00  0.00     0.125 C 
HETATM   19  N3  UNL     1      -2.372   3.762  11.175  1.00  0.00    -0.358 N 
BRANCH  19  20
HETATM   20  C10 UNL     1      -2.331   2.489  10.596  1.00  0.00     0.184 C 
BRANCH  20  21
HETATM   21  O2  UNL     1      -1.464   2.344   9.605  1.00  0.00    -0.343 OA
ATOM     22  H2  UNL     1      -1.531   1.528   9.121  1.00  0.00     0.219 HD
ENDBRANCH  20  21
BRANCH  20  23
HETATM   23  C11 UNL     1      -3.082   1.315  10.907  1.00  0.00     0.173 A 
HETATM   24  N4  UNL     1      -2.356   0.172  11.139  1.00  0.00    -0.172 N 
HETATM   25  C12 UNL     1      -2.901  -0.996  11.415  1.00  0.00     0.678 A 
ATOM     26  H4  UNL     1      -1.339   0.230  11.094  1.00  0.00     0.186 HD
HETATM   27  N5  UNL     1      -2.173  -2.044  11.624  1.00  0.00    -0.234 N 
HETATM   28  N6  UNL     1      -4.228  -1.132  11.487  1.00  0.00    -0.188 N 
ATOM     29  H52 UNL     1      -1.159  -1.939  11.569  1.00  0.00     0.174 HD
ATOM     30  H51 UNL     1      -2.595  -2.947  11.838  1.00  0.00     0.174 HD
HETATM   31  C13 UNL     1      -4.987  -0.042  11.270  1.00  0.00     0.199 A 
ATOM     32  H6  UNL     1      -4.653  -2.035  11.700  1.00  0.00     0.185 HD
HETATM   33  N7  UNL     1      -4.402   1.156  10.985  1.00  0.00    -0.334 N 
ATOM     34  H7  UNL     1      -5.002   1.966  10.825  1.00  0.00     0.168 HD
ENDBRANCH  20  23
ENDBRANCH  19  20
ENDBRANCH   8   9
ENDBRANCH   3   8
TORSDOF 5
ENDMDL
MODEL 2
REMARK VINA RESULT: -7.623799930      2.494      5.831
REMARK  5 active torsions:
REMARK  status: ('A' for Active; 'I' for Inactive)
REMARK    1  A    between atoms: C2_3  and  C3_4 
REMARK    2  A    between atoms: C3_4  and  N2_5 
REMARK    3  A    between atoms: N3_13  and  C10_14 
REMARK    4  A    between atoms: C10_14  and  O2_15 
REMARK    5  A    between atoms: C10_14  and  C11_17 
ROOT
HETATM    1  N1  UNL     1      -6.316   6.145   9.889  1.00  0.00    -0.196 NA
HETATM    2  C1  UNL     1      -5.160   6.074   9.871  1.00  0.00     0.071 C 
HETATM    3  C2  UNL     1      -3.725   5.994   9.817  1.00  0.00     0.065 C 
HETATM    4  C16 UNL     1      -3.250   6.994   8.782  1.00  0.00     0.026 C 
HETATM    5  C17 UNL     1      -2.926   6.120   7.562  1.00  0.00     0.002 C 
HETATM    6  C18 UNL     1      -2.233   4.955   8.286  1.00  0.00     0.002 C 
HETATM    7  C19 UNL     1      -3.298   4.620   9.304  1.00  0.00     0.026 C 
ENDROOT
BRANCH   3   8
HETATM    8  C3  UNL     1      -3.020   6.226  11.108  1.00  0.00     0.148 C 
BRANCH   8   9
HETATM    9  N2  UNL     1      -3.814   6.201  12.276  1.00  0.00    -0.369 N 
HETATM   10  C4  UNL     1      -4.005   7.362  13.018  1.00  0.00     0.224 C 
HETATM   11  O1  UNL     1      -4.047   7.223  14.397  1.00  0.00    -0.346 OA
HETATM   12  C5  UNL     1      -3.413   6.074  14.834  1.00  0.00     0.189 C 
HETATM   13  C6  UNL     1      -4.263   4.920  14.334  1.00  0.00     0.014 C 
HETATM   14  C7  UNL     1      -5.733   5.161  14.629  1.00  0.00     0.016 C 
HETATM   15  C14 UNL     1      -3.840   3.615  14.907  1.00  0.00     0.138 C 
HETATM   16  C15 UNL     1      -4.109   4.936  12.830  1.00  0.00     0.137 C 
HETATM   17  C8  UNL     1      -6.074   4.423  15.883  1.00  0.00     0.021 C 
HETATM   18  C9  UNL     1      -6.179   2.933  15.460  1.00  0.00     0.125 C 
HETATM   19  N3  UNL     1      -4.913   2.594  14.878  1.00  0.00    -0.358 N 
BRANCH  19  20
HETATM   20  C10 UNL     1      -4.621   1.357  14.291  1.00  0.00     0.184 C 
BRANCH  20  21
HETATM   21  O2  UNL     1      -4.805   0.302  15.070  1.00  0.00    -0.343 OA
ATOM     22  H2  UNL     1      -5.336  -0.392  14.697  1.00  0.00     0.219 HD
ENDBRANCH  20  21
BRANCH  20  23
HETATM   23  C11 UNL     1      -4.152   1.054  12.977  1.00  0.00     0.173 A 
HETATM   24  N4  UNL     1      -2.936   1.590  12.626  1.00  0.00    -0.172 N 
HETATM   25  C12 UNL     1      -2.379   1.423  11.444  1.00  0.00     0.678 A 
ATOM     26  H4  UNL     1      -2.439   2.149  13.318  1.00  0.00     0.186 HD
HETATM   27  N5  UNL     1      -1.233   1.950  11.161  1.00  0.00    -0.234 N 
HETATM   28  N6  UNL     1      -2.984   0.700  10.497  1.00  0.00    -0.188 N 
ATOM     29  H52 UNL     1      -0.770   2.503  11.885  1.00  0.00     0.174 HD
ATOM     30  H51 UNL     1      -0.800   1.820  10.247  1.00  0.00     0.174 HD
HETATM   31  C13 UNL     1      -4.177   0.151  10.790  1.00  0.00     0.199 A 
ATOM     32  H6  UNL     1      -2.555   0.569   9.580  1.00  0.00     0.185 HD
HETATM   33  N7  UNL     1      -4.736   0.337  12.018  1.00  0.00    -0.334 N 
ATOM     34  H7  UNL     1      -5.641  -0.092  12.213  1.00  0.00     0.168 HD
ENDBRANCH  20  23
ENDBRANCH  19  20
ENDBRANCH   8   9
ENDBRANCH   3   8
TORSDOF 5
ENDMDL
MODEL 3
REMARK VINA RESULT: -7.589194541      2.398      5.425
REMARK  5 active torsions:
REMARK  status: ('A' for Active; 'I' for Inactive)
REMARK    1  A    between atoms: C2_3  and  C3_4 
REMARK    2  A    between atoms: C3_4  and  N2_5 
REMARK    3  A    between atoms: N3_13  and  C10_14 
REMARK    4  A    between atoms: C10_14  and  O2_15 
REMARK    5  A    between atoms: C10_14  and  C11_17 
ROOT
HETATM    1  N1  UNL     1      -3.741   7.386  11.199  1.00  0.00    -0.196 NA
HETATM    2  C1  UNL     1      -3.158   7.312  12.197  1.00  0.00     0.071 C 
HETATM    3  C2  UNL     1      -2.462   7.214  13.452  1.00  0.00     0.065 C 
HETATM    4  C16 UNL     1      -3.232   6.245  14.327  1.00  0.00     0.026 C 
HETATM    5  C17 UNL     1      -3.990   7.163  15.297  1.00  0.00     0.002 C 
HETATM    6  C18 UNL     1      -2.868   8.171  15.590  1.00  0.00     0.002 C 
HETATM    7  C19 UNL     1      -2.501   8.559  14.176  1.00  0.00     0.026 C 
ENDROOT
BRANCH   3   8
HETATM    8  C3  UNL     1      -1.036   6.795  13.365  1.00  0.00     0.148 C 
BRANCH   8   9
HETATM    9  N2  UNL     1      -0.751   5.694  12.529  1.00  0.00    -0.369 N 
HETATM   10  C4  UNL     1       0.319   5.748  11.640  1.00  0.00     0.224 C 
HETATM   11  O1  UNL     1       0.138   5.142  10.406  1.00  0.00    -0.346 OA
HETATM   12  C5  UNL     1      -1.197   5.021  10.065  1.00  0.00     0.189 C 
HETATM   13  C6  UNL     1      -1.781   4.018  11.043  1.00  0.00     0.014 C 
HETATM   14  C7  UNL     1      -0.891   2.792  11.162  1.00  0.00     0.016 C 
HETATM   15  C14 UNL     1      -3.161   3.605  10.676  1.00  0.00     0.138 C 
HETATM   16  C15 UNL     1      -1.754   4.711  12.386  1.00  0.00     0.137 C 
HETATM   17  C8  UNL     1      -1.450   1.734  10.268  1.00  0.00     0.021 C 
HETATM   18  C9  UNL     1      -2.686   1.177  11.024  1.00  0.00     0.125 C 
HETATM   19  N3  UNL     1      -3.550   2.299  11.256  1.00  0.00    -0.358 N 
BRANCH  19  20
HETATM   20  C10 UNL     1      -4.742   2.238  11.987  1.00  0.00     0.184 C 
BRANCH  20  21
HETATM   21  O2  UNL     1      -5.835   2.020  11.272  1.00  0.00    -0.343 OA
ATOM     22  H2  UNL     1      -6.280   1.199  11.448  1.00  0.00     0.219 HD
ENDBRANCH  20  21
BRANCH  20  23
HETATM   23  C11 UNL     1      -4.964   2.374  13.391  1.00  0.00     0.173 A 
HETATM   24  N4  UNL     1      -4.590   1.308  14.173  1.00  0.00    -0.172 N 
HETATM   25  C12 UNL     1      -4.750   1.269  15.480  1.00  0.00     0.678 A 
ATOM     26  H4  UNL     1      -4.165   0.502  13.715  1.00  0.00     0.186 HD
HETATM   27  N5  UNL     1      -4.382   0.241  16.171  1.00  0.00    -0.234 N 
HETATM   28  N6  UNL     1      -5.300   2.297  16.134  1.00  0.00    -0.188 N 
ATOM     29  H52 UNL     1      -3.961  -0.544  15.672  1.00  0.00     0.174 HD
ATOM     30  H51 UNL     1      -4.505   0.211  17.183  1.00  0.00     0.174 HD
HETATM   31  C13 UNL     1      -5.684   3.368  15.414  1.00  0.00     0.199 A 
ATOM     32  H6  UNL     1      -5.426   2.270  17.145  1.00  0.00     0.185 HD
HETATM   33  N7  UNL     1      -5.509   3.387  14.063  1.00  0.00    -0.334 N 
ATOM     34  H7  UNL     1      -5.809   4.212  13.543  1.00  0.00     0.168 HD
ENDBRANCH  20  23
ENDBRANCH  19  20
ENDBRANCH   8   9
ENDBRANCH   3   8
TORSDOF 5
ENDMDL
MODEL 4
REMARK VINA RESULT: -7.532751458      3.639      6.476
REMARK  5 active torsions:
REMARK  status: ('A' for Active; 'I' for Inactive)
REMARK    1  A    between atoms: C2_3  and  C3_4 
REMARK    2  A    between atoms: C3_4  and  N2_5 
REMARK    3  A    between atoms: N3_13  and  C10_14 
REMARK    4  A    between atoms: C10_14  and  O2_15 
REMARK    5  A    between atoms: C10_14  and  C11_17 
ROOT
HETATM    1  N1  UNL     1      -1.590   2.861   9.526  1.00  0.00    -0.196 NA
HETATM    2  C1  UNL     1      -2.264   2.390  10.340  1.00  0.00     0.071 C 
HETATM    3  C2  UNL     1      -3.094   1.774  11.340  1.00  0.00     0.065 C 
HETATM    4  C16 UNL     1      -2.481   0.430  11.680  1.00  0.00     0.026 C 
HETATM    5  C17 UNL     1      -3.369  -0.570  10.927  1.00  0.00     0.002 C 
HETATM    6  C18 UNL     1      -4.738   0.060  11.228  1.00  0.00     0.002 C 
HETATM    7  C19 UNL     1      -4.475   1.472  10.759  1.00  0.00     0.026 C 
ENDROOT
BRANCH   3   8
HETATM    8  C3  UNL     1      -3.297   2.567  12.584  1.00  0.00     0.148 C 
BRANCH   8   9
HETATM    9  N2  UNL     1      -2.811   3.893  12.575  1.00  0.00    -0.369 N 
HETATM   10  C4  UNL     1      -1.609   4.202  13.205  1.00  0.00     0.224 C 
HETATM   11  O1  UNL     1      -1.541   5.424  13.856  1.00  0.00    -0.346 OA
HETATM   12  C5  UNL     1      -2.789   5.912  14.201  1.00  0.00     0.189 C 
HETATM   13  C6  UNL     1      -3.475   6.246  12.888  1.00  0.00     0.014 C 
HETATM   14  C7  UNL     1      -2.552   7.036  11.977  1.00  0.00     0.016 C 
HETATM   15  C14 UNL     1      -4.746   6.991  13.087  1.00  0.00     0.138 C 
HETATM   16  C15 UNL     1      -3.718   4.914  12.217  1.00  0.00     0.137 C 
HETATM   17  C8  UNL     1      -2.888   8.483  12.130  1.00  0.00     0.021 C 
HETATM   18  C9  UNL     1      -4.203   8.680  11.328  1.00  0.00     0.125 C 
HETATM   19  N3  UNL     1      -5.155   7.769  11.895  1.00  0.00    -0.358 N 
BRANCH  19  20
HETATM   20  C10 UNL     1      -6.450   7.573  11.401  1.00  0.00     0.184 C 
BRANCH  20  21
HETATM   21  O2  UNL     1      -7.344   7.175  12.293  1.00  0.00    -0.343 OA
ATOM     22  H2  UNL     1      -7.641   6.277  12.199  1.00  0.00     0.219 HD
ENDBRANCH  20  21
BRANCH  20  23
HETATM   23  C11 UNL     1      -6.960   7.736  10.077  1.00  0.00     0.173 A 
HETATM   24  N4  UNL     1      -6.646   6.745   9.178  1.00  0.00    -0.172 N 
HETATM   25  C12 UNL     1      -7.021   6.759   7.915  1.00  0.00     0.678 A 
ATOM     26  H4  UNL     1      -6.092   5.954   9.507  1.00  0.00     0.186 HD
HETATM   27  N5  UNL     1      -6.698   5.802   7.108  1.00  0.00    -0.234 N 
HETATM   28  N6  UNL     1      -7.748   7.769   7.428  1.00  0.00    -0.188 N 
ATOM     29  H52 UNL     1      -6.143   5.031   7.480  1.00  0.00     0.174 HD
ATOM     30  H51 UNL     1      -6.989   5.813   6.130  1.00  0.00     0.174 HD
HETATM   31  C13 UNL     1      -8.084   8.766   8.267  1.00  0.00     0.199 A 
ATOM     32  H6  UNL     1      -8.039   7.784   6.450  1.00  0.00     0.185 HD
HETATM   33  N7  UNL     1      -7.686   8.731   9.570  1.00  0.00    -0.334 N 
ATOM     34  H7  UNL     1      -7.955   9.500  10.184  1.00  0.00     0.168 HD
ENDBRANCH  20  23
ENDBRANCH  19  20
ENDBRANCH   8   9
ENDBRANCH   3   8
TORSDOF 5
ENDMDL
MODEL 5
REMARK VINA RESULT: -7.515610966      2.705      5.806
REMARK  5 active torsions:
REMARK  status: ('A' for Active; 'I' for Inactive)
REMARK    1  A    between atoms: C2_3  and  C3_4 
REMARK    2  A    between atoms: C3_4  and  N2_5 
REMARK    3  A    between atoms: N3_13  and  C10_14 
REMARK    4  A    between atoms: C10_14  and  O2_15 
REMARK    5  A    between atoms: C10_14  and  C11_17 
ROOT
HETATM    1  N1  UNL     1       1.061   8.706  13.376  1.00  0.00    -0.196 NA
HETATM    2  C1  UNL     1      -0.078   8.498  13.391  1.00  0.00     0.071 C 
HETATM    3  C2  UNL     1      -1.496   8.262  13.432  1.00  0.00     0.065 C 
HETATM    4  C16 UNL     1      -2.164   9.561  13.839  1.00  0.00     0.026 C 
HETATM    5  C17 UNL     1      -2.507   9.339  15.319  1.00  0.00     0.002 C 
HETATM    6  C18 UNL     1      -3.008   7.889  15.229  1.00  0.00     0.002 C 
HETATM    7  C19 UNL     1      -1.825   7.255  14.534  1.00  0.00     0.026 C 
ENDROOT
BRANCH   3   8
HETATM    8  C3  UNL     1      -2.100   7.755  12.170  1.00  0.00     0.148 C 
BRANCH   8   9
HETATM    9  N2  UNL     1      -1.544   6.573  11.632  1.00  0.00    -0.369 N 
HETATM   10  C4  UNL     1      -0.470   6.642  10.750  1.00  0.00     0.224 C 
HETATM   11  O1  UNL     1      -0.457   5.729   9.708  1.00  0.00    -0.346 OA
HETATM   12  C5  UNL     1      -1.716   5.237   9.417  1.00  0.00     0.189 C 
HETATM   13  C6  UNL     1      -2.117   4.401  10.618  1.00  0.00     0.014 C 
HETATM   14  C7  UNL     1      -0.991   3.468  11.032  1.00  0.00     0.016 C 
HETATM   15  C14 UNL     1      -3.357   3.617  10.375  1.00  0.00     0.138 C 
HETATM   16  C15 UNL     1      -2.305   5.389  11.746  1.00  0.00     0.137 C 
HETATM   17  C8  UNL     1      -1.266   2.128  10.434  1.00  0.00     0.021 C 
HETATM   18  C9  UNL     1      -2.388   1.514  11.314  1.00  0.00     0.125 C 
HETATM   19  N3  UNL     1      -3.483   2.440  11.264  1.00  0.00    -0.358 N 
BRANCH  19  20
HETATM   20  C10 UNL     1      -4.668   2.298  11.996  1.00  0.00     0.184 C 
BRANCH  20  21
HETATM   21  O2  UNL     1      -5.746   2.013  11.281  1.00  0.00    -0.343 OA
ATOM     22  H2  UNL     1      -6.575   2.234  11.689  1.00  0.00     0.219 HD
ENDBRANCH  20  21
BRANCH  20  23
HETATM   23  C11 UNL     1      -4.898   2.414  13.400  1.00  0.00     0.173 A 
HETATM   24  N4  UNL     1      -4.606   1.306  14.158  1.00  0.00    -0.172 N 
HETATM   25  C12 UNL     1      -4.784   1.245  15.462  1.00  0.00     0.678 A 
ATOM     26  H4  UNL     1      -4.230   0.484  13.685  1.00  0.00     0.186 HD
HETATM   27  N5  UNL     1      -4.495   0.177  16.131  1.00  0.00    -0.234 N 
HETATM   28  N6  UNL     1      -5.271   2.291  16.137  1.00  0.00    -0.188 N 
ATOM     29  H52 UNL     1      -4.122  -0.622  15.616  1.00  0.00     0.174 HD
ATOM     30  H51 UNL     1      -4.632   0.130  17.141  1.00  0.00     0.174 HD
HETATM   31  C13 UNL     1      -5.573   3.403  15.442  1.00  0.00     0.199 A 
ATOM     32  H6  UNL     1      -5.411   2.247  17.146  1.00  0.00     0.185 HD
HETATM   33  N7  UNL     1      -5.381   3.444  14.093  1.00  0.00    -0.334 N 
ATOM     34  H7  UNL     1      -5.618   4.301  13.592  1.00  0.00     0.168 HD
ENDBRANCH  20  23
ENDBRANCH  19  20
ENDBRANCH   8   9
ENDBRANCH   3   8
TORSDOF 5
ENDMDL
