MODEL 1
REMARK VINA RESULT: -7.469268795      0.000      0.000
REMARK  7 active torsions:
REMARK  status: ('A' for Active; 'I' for Inactive)
REMARK    1  A    between atoms: C2_2  and  O2_4 
REMARK    2  A    between atoms: O2_4  and  C3_5 
REMARK    3  A    between atoms: C10_13  and  O3_14 
REMARK    4  A    between atoms: C13_18  and  O4_19 
REMARK    5  A    between atoms: C14_21  and  O5_22 
REMARK    6  A    between atoms: O5_22  and  C15_23 
REMARK    7  A    between atoms: C15_23  and  C16_25 
ROOT
HETATM    1  C3  UNL     1      -1.514   4.158  13.307  1.00  0.00     0.159 C 
HETATM    2  C4  UNL     1      -1.477   5.689  13.227  1.00  0.00     0.075 C 
HETATM    3  C5  UNL     1      -2.674   6.151  13.925  1.00  0.00     0.260 C 
HETATM    4  N1  UNL     1      -2.872   7.412  14.496  1.00  0.00     0.092 N 
HETATM    5  C6  UNL     1      -1.784   7.977  15.226  1.00  0.00     0.310 C 
HETATM    6  C7  UNL     1      -4.073   7.198  15.342  1.00  0.00     0.273 C 
HETATM    7  C8  UNL     1      -4.780   5.932  15.178  1.00  0.00     0.052 C 
HETATM    8  C9  UNL     1      -4.681   5.135  13.883  1.00  0.00     0.069 C 
HETATM    9  C10 UNL     1      -5.976   5.190  13.184  1.00  0.00     0.136 C 
HETATM   10  C11 UNL     1      -6.069   6.711  12.943  1.00  0.00     0.036 C 
HETATM   11  C12 UNL     1      -4.639   7.121  12.573  1.00  0.00     0.044 C 
HETATM   12  C13 UNL     1      -3.805   5.966  12.983  1.00  0.00     0.105 C 
HETATM   13  C14 UNL     1      -3.998   3.821  14.038  1.00  0.00     0.070 C 
HETATM   14  C20 UNL     1      -2.780   3.458  13.321  1.00  0.00     0.039 C 
ENDROOT
BRANCH  13  15
HETATM   15  O5  UNL     1      -3.874   3.436  15.410  1.00  0.00    -0.282 OA
BRANCH  15  16
HETATM   16  C15 UNL     1      -4.244   2.232  15.930  1.00  0.00     0.268 C 
HETATM   17  O6  UNL     1      -3.343   1.472  16.369  1.00  0.00    -0.264 OA
BRANCH  16  18
HETATM   18  C16 UNL     1      -5.645   1.747  16.019  1.00  0.00     0.086 C 
HETATM   19  C17 UNL     1      -5.892   0.758  17.129  1.00  0.00     0.014 C 
HETATM   20  C18 UNL     1      -6.457   1.850  18.031  1.00  0.00     0.002 C 
HETATM   21  C19 UNL     1      -6.540   2.723  16.774  1.00  0.00     0.014 C 
ENDBRANCH  16  18
ENDBRANCH  15  16
ENDBRANCH  13  15
BRANCH   9  22
HETATM   22  O3  UNL     1      -7.059   4.837  13.982  1.00  0.00    -0.394 OA
ATOM     23  H3  UNL     1      -7.081   5.288  14.819  1.00  0.00     0.210 HD
ENDBRANCH   9  22
BRANCH  12  24
HETATM   24  O4  UNL     1      -3.453   5.351  11.782  1.00  0.00    -0.386 OA
ATOM     25  H4  UNL     1      -4.190   5.010  11.288  1.00  0.00     0.210 HD
ENDBRANCH  12  24
BRANCH   1  26
HETATM   26  O2  UNL     1      -0.714   3.581  12.293  1.00  0.00    -0.312 OA
BRANCH  26  27
HETATM   27  C2  UNL     1      -0.092   4.282  11.306  1.00  0.00     0.255 C 
HETATM   28  C1  UNL     1       1.349   4.620  11.275  1.00  0.00     0.126 C 
HETATM   29  O1  UNL     1      -0.815   4.661  10.363  1.00  0.00    -0.266 OA
ENDBRANCH  26  27
ENDBRANCH   1  26
TORSDOF 7
ENDMDL
MODEL 2
REMARK VINA RESULT: -6.948650312      2.236      5.929
REMARK  7 active torsions:
REMARK  status: ('A' for Active; 'I' for Inactive)
REMARK    1  A    between atoms: C2_2  and  O2_4 
REMARK    2  A    between atoms: O2_4  and  C3_5 
REMARK    3  A    between atoms: C10_13  and  O3_14 
REMARK    4  A    between atoms: C13_18  and  O4_19 
REMARK    5  A    between atoms: C14_21  and  O5_22 
REMARK    6  A    between atoms: O5_22  and  C15_23 
REMARK    7  A    between atoms: C15_23  and  C16_25 
ROOT
HETATM    1  C3  UNL     1      -6.265   6.146  13.717  1.00  0.00     0.159 C 
HETATM    2  C4  UNL     1      -6.737   4.709  13.976  1.00  0.00     0.075 C 
HETATM    3  C5  UNL     1      -5.560   3.985  14.447  1.00  0.00     0.260 C 
HETATM    4  N1  UNL     1      -5.552   2.813  15.209  1.00  0.00     0.092 N 
HETATM    5  C6  UNL     1      -6.488   2.723  16.281  1.00  0.00     0.310 C 
HETATM    6  C7  UNL     1      -4.144   2.740  15.676  1.00  0.00     0.273 C 
HETATM    7  C8  UNL     1      -3.202   3.683  15.081  1.00  0.00     0.052 C 
HETATM    8  C9  UNL     1      -3.456   4.294  13.710  1.00  0.00     0.069 C 
HETATM    9  C10 UNL     1      -2.489   3.739  12.749  1.00  0.00     0.136 C 
HETATM   10  C11 UNL     1      -2.886   2.251  12.821  1.00  0.00     0.036 C 
HETATM   11  C12 UNL     1      -4.417   2.273  12.901  1.00  0.00     0.044 C 
HETATM   12  C13 UNL     1      -4.749   3.676  13.244  1.00  0.00     0.105 C 
HETATM   13  C14 UNL     1      -3.682   5.766  13.741  1.00  0.00     0.070 C 
HETATM   14  C20 UNL     1      -4.911   6.402  13.278  1.00  0.00     0.039 C 
ENDROOT
BRANCH  13  15
HETATM   15  O5  UNL     1      -3.289   6.345  14.989  1.00  0.00    -0.282 OA
BRANCH  15  16
HETATM   16  C15 UNL     1      -3.209   7.680  15.251  1.00  0.00     0.268 C 
HETATM   17  O6  UNL     1      -3.761   8.115  16.295  1.00  0.00    -0.264 OA
BRANCH  16  18
HETATM   18  C16 UNL     1      -2.510   8.668  14.389  1.00  0.00     0.086 C 
HETATM   19  C17 UNL     1      -2.131   9.947  15.090  1.00  0.00     0.014 C 
HETATM   20  C18 UNL     1      -0.701   9.459  15.295  1.00  0.00     0.002 C 
HETATM   21  C19 UNL     1      -1.021   8.365  14.269  1.00  0.00     0.014 C 
ENDBRANCH  16  18
ENDBRANCH  15  16
ENDBRANCH  13  15
BRANCH   9  22
HETATM   22  O3  UNL     1      -1.166   3.829  13.169  1.00  0.00    -0.394 OA
ATOM     23  H3  UNL     1      -0.534   3.625  12.490  1.00  0.00     0.210 HD
ENDBRANCH   9  22
BRANCH  12  24
HETATM   24  O4  UNL     1      -5.257   4.211  12.060  1.00  0.00    -0.386 OA
ATOM     25  H4  UNL     1      -5.596   5.095  12.146  1.00  0.00     0.210 HD
ENDBRANCH  12  24
BRANCH   1  26
HETATM   26  O2  UNL     1      -7.140   6.811  12.826  1.00  0.00    -0.312 OA
BRANCH  26  27
HETATM   27  C2  UNL     1      -6.775   7.314  11.615  1.00  0.00     0.255 C 
HETATM   28  C1  UNL     1      -6.691   8.753  11.276  1.00  0.00     0.126 C 
HETATM   29  O1  UNL     1      -6.493   6.476  10.735  1.00  0.00    -0.266 OA
ENDBRANCH  26  27
ENDBRANCH   1  26
TORSDOF 7
ENDMDL
MODEL 3
REMARK VINA RESULT: -6.874179138      2.197      3.463
REMARK  7 active torsions:
REMARK  status: ('A' for Active; 'I' for Inactive)
REMARK    1  A    between atoms: C2_2  and  O2_4 
REMARK    2  A    between atoms: O2_4  and  C3_5 
REMARK    3  A    between atoms: C10_13  and  O3_14 
REMARK    4  A    between atoms: C13_18  and  O4_19 
REMARK    5  A    between atoms: C14_21  and  O5_22 
REMARK    6  A    between atoms: O5_22  and  C15_23 
REMARK    7  A    between atoms: C15_23  and  C16_25 
ROOT
HETATM    1  C3  UNL     1      -2.887   5.741  14.869  1.00  0.00     0.159 C 
HETATM    2  C4  UNL     1      -3.895   6.238  13.823  1.00  0.00     0.075 C 
HETATM    3  C5  UNL     1      -4.867   5.160  13.668  1.00  0.00     0.260 C 
HETATM    4  N1  UNL     1      -6.175   5.279  13.189  1.00  0.00     0.092 N 
HETATM    5  C6  UNL     1      -6.939   6.395  13.644  1.00  0.00     0.310 C 
HETATM    6  C7  UNL     1      -6.782   3.980  13.577  1.00  0.00     0.273 C 
HETATM    7  C8  UNL     1      -5.876   2.955  14.085  1.00  0.00     0.052 C 
HETATM    8  C9  UNL     1      -4.395   2.960  13.726  1.00  0.00     0.069 C 
HETATM    9  C10 UNL     1      -4.114   1.827  12.828  1.00  0.00     0.136 C 
HETATM   10  C11 UNL     1      -5.018   2.216  11.640  1.00  0.00     0.036 C 
HETATM   11  C12 UNL     1      -4.854   3.735  11.523  1.00  0.00     0.044 C 
HETATM   12  C13 UNL     1      -4.225   4.139  12.804  1.00  0.00     0.105 C 
HETATM   13  C14 UNL     1      -3.497   3.203  14.888  1.00  0.00     0.070 C 
HETATM   14  C20 UNL     1      -2.577   4.333  14.972  1.00  0.00     0.039 C 
ENDROOT
BRANCH  13  15
HETATM   15  O5  UNL     1      -4.178   3.051  16.137  1.00  0.00    -0.282 OA
BRANCH  15  16
HETATM   16  C15 UNL     1      -4.479   1.863  16.734  1.00  0.00     0.268 C 
HETATM   17  O6  UNL     1      -3.846   0.839  16.371  1.00  0.00    -0.264 OA
BRANCH  16  18
HETATM   18  C16 UNL     1      -5.507   1.688  17.791  1.00  0.00     0.086 C 
HETATM   19  C17 UNL     1      -6.784   2.451  17.551  1.00  0.00     0.014 C 
HETATM   20  C18 UNL     1      -7.472   1.207  16.998  1.00  0.00     0.002 C 
HETATM   21  C19 UNL     1      -6.310   0.406  17.598  1.00  0.00     0.014 C 
ENDBRANCH  16  18
ENDBRANCH  15  16
ENDBRANCH  13  15
BRANCH   9  22
HETATM   22  O3  UNL     1      -4.574   0.605  13.307  1.00  0.00    -0.394 OA
ATOM     23  H3  UNL     1      -4.695  -0.051  12.630  1.00  0.00     0.210 HD
ENDBRANCH   9  22
BRANCH  12  24
HETATM   24  O4  UNL     1      -2.904   4.428  12.464  1.00  0.00    -0.386 OA
ATOM     25  H4  UNL     1      -2.261   3.880  12.901  1.00  0.00     0.210 HD
ENDBRANCH  12  24
BRANCH   1  26
HETATM   26  O2  UNL     1      -1.664   6.445  14.764  1.00  0.00    -0.312 OA
BRANCH  26  27
HETATM   27  C2  UNL     1      -1.547   7.801  14.791  1.00  0.00     0.255 C 
HETATM   28  C1  UNL     1      -1.983   8.674  15.905  1.00  0.00     0.126 C 
HETATM   29  O1  UNL     1      -1.029   8.328  13.786  1.00  0.00    -0.266 OA
ENDBRANCH  26  27
ENDBRANCH   1  26
TORSDOF 7
ENDMDL
MODEL 4
REMARK VINA RESULT: -6.680747347      2.321      3.348
REMARK  7 active torsions:
REMARK  status: ('A' for Active; 'I' for Inactive)
REMARK    1  A    between atoms: C2_2  and  O2_4 
REMARK    2  A    between atoms: O2_4  and  C3_5 
REMARK    3  A    between atoms: C10_13  and  O3_14 
REMARK    4  A    between atoms: C13_18  and  O4_19 
REMARK    5  A    between atoms: C14_21  and  O5_22 
REMARK    6  A    between atoms: O5_22  and  C15_23 
REMARK    7  A    between atoms: C15_23  and  C16_25 
ROOT
HETATM    1  C3  UNL     1      -4.541   2.210  12.697  1.00  0.00     0.159 C 
HETATM    2  C4  UNL     1      -3.530   3.027  11.883  1.00  0.00     0.075 C 
HETATM    3  C5  UNL     1      -2.997   4.028  12.803  1.00  0.00     0.260 C 
HETATM    4  N1  UNL     1      -1.777   4.701  12.688  1.00  0.00     0.092 N 
HETATM    5  C6  UNL     1      -0.642   3.934  12.287  1.00  0.00     0.310 C 
HETATM    6  C7  UNL     1      -1.609   5.301  14.036  1.00  0.00     0.273 C 
HETATM    7  C8  UNL     1      -2.755   5.227  14.937  1.00  0.00     0.052 C 
HETATM    8  C9  UNL     1      -4.174   5.087  14.401  1.00  0.00     0.069 C 
HETATM    9  C10 UNL     1      -4.905   6.343  14.640  1.00  0.00     0.136 C 
HETATM   10  C11 UNL     1      -4.041   7.302  13.796  1.00  0.00     0.036 C 
HETATM   11  C12 UNL     1      -3.694   6.492  12.542  1.00  0.00     0.044 C 
HETATM   12  C13 UNL     1      -4.024   5.093  12.902  1.00  0.00     0.105 C 
HETATM   13  C14 UNL     1      -4.824   3.794  14.753  1.00  0.00     0.070 C 
HETATM   14  C20 UNL     1      -5.296   2.834  13.761  1.00  0.00     0.039 C 
ENDROOT
BRANCH  13  15
HETATM   15  O5  UNL     1      -4.118   3.100  15.787  1.00  0.00    -0.282 OA
BRANCH  15  16
HETATM   16  C15 UNL     1      -4.461   1.886  16.300  1.00  0.00     0.268 C 
HETATM   17  O6  UNL     1      -3.541   1.065  16.550  1.00  0.00    -0.264 OA
BRANCH  16  18
HETATM   18  C16 UNL     1      -5.853   1.455  16.590  1.00  0.00     0.086 C 
HETATM   19  C17 UNL     1      -5.998   0.610  17.829  1.00  0.00     0.014 C 
HETATM   20  C18 UNL     1      -6.445   1.816  18.649  1.00  0.00     0.002 C 
HETATM   21  C19 UNL     1      -6.645   2.540  17.312  1.00  0.00     0.014 C 
ENDBRANCH  16  18
ENDBRANCH  15  16
ENDBRANCH  13  15
BRANCH   9  22
HETATM   22  O3  UNL     1      -4.841   6.787  15.956  1.00  0.00    -0.394 OA
ATOM     23  H3  UNL     1      -5.550   6.469  16.503  1.00  0.00     0.210 HD
ENDBRANCH   9  22
BRANCH  12  24
HETATM   24  O4  UNL     1      -5.197   4.822  12.198  1.00  0.00    -0.386 OA
ATOM     25  H4  UNL     1      -5.880   4.417  12.720  1.00  0.00     0.210 HD
ENDBRANCH  12  24
BRANCH   1  26
HETATM   26  O2  UNL     1      -5.459   1.551  11.846  1.00  0.00    -0.312 OA
BRANCH  26  27
HETATM   27  C2  UNL     1      -5.230   0.355  11.239  1.00  0.00     0.255 C 
HETATM   28  C1  UNL     1      -4.758  -0.873  11.918  1.00  0.00     0.126 C 
HETATM   29  O1  UNL     1      -5.440   0.315  10.009  1.00  0.00    -0.266 OA
ENDBRANCH  26  27
ENDBRANCH   1  26
TORSDOF 7
ENDMDL
MODEL 5
REMARK VINA RESULT: -6.614965093      2.030      2.989
REMARK  7 active torsions:
REMARK  status: ('A' for Active; 'I' for Inactive)
REMARK    1  A    between atoms: C2_2  and  O2_4 
REMARK    2  A    between atoms: O2_4  and  C3_5 
REMARK    3  A    between atoms: C10_13  and  O3_14 
REMARK    4  A    between atoms: C13_18  and  O4_19 
REMARK    5  A    between atoms: C14_21  and  O5_22 
REMARK    6  A    between atoms: O5_22  and  C15_23 
REMARK    7  A    between atoms: C15_23  and  C16_25 
ROOT
HETATM    1  C3  UNL     1      -3.822   2.885  13.186  1.00  0.00     0.159 C 
HETATM    2  C4  UNL     1      -2.883   3.958  12.618  1.00  0.00     0.075 C 
HETATM    3  C5  UNL     1      -3.410   5.235  13.089  1.00  0.00     0.260 C 
HETATM    4  N1  UNL     1      -2.702   6.434  13.218  1.00  0.00     0.092 N 
HETATM    5  C6  UNL     1      -1.386   6.360  13.763  1.00  0.00     0.310 C 
HETATM    6  C7  UNL     1      -3.614   7.262  14.046  1.00  0.00     0.273 C 
HETATM    7  C8  UNL     1      -4.958   6.738  14.274  1.00  0.00     0.052 C 
HETATM    8  C9  UNL     1      -5.592   5.744  13.309  1.00  0.00     0.069 C 
HETATM    9  C10 UNL     1      -6.689   6.408  12.586  1.00  0.00     0.136 C 
HETATM   10  C11 UNL     1      -5.885   7.511  11.865  1.00  0.00     0.036 C 
HETATM   11  C12 UNL     1      -4.592   6.811  11.432  1.00  0.00     0.044 C 
HETATM   12  C13 UNL     1      -4.568   5.556  12.219  1.00  0.00     0.105 C 
HETATM   13  C14 UNL     1      -5.826   4.398  13.901  1.00  0.00     0.070 C 
HETATM   14  C20 UNL     1      -5.226   3.174  13.382  1.00  0.00     0.039 C 
ENDROOT
BRANCH  13  15
HETATM   15  O5  UNL     1      -5.719   4.411  15.328  1.00  0.00    -0.282 OA
BRANCH  15  16
HETATM   16  C15 UNL     1      -6.416   3.609  16.181  1.00  0.00     0.268 C 
HETATM   17  O6  UNL     1      -7.203   4.153  16.998  1.00  0.00    -0.264 OA
BRANCH  16  18
HETATM   18  C16 UNL     1      -6.318   2.128  16.215  1.00  0.00     0.086 C 
HETATM   19  C17 UNL     1      -5.220   1.597  17.101  1.00  0.00     0.014 C 
HETATM   20  C18 UNL     1      -6.207   1.328  18.232  1.00  0.00     0.002 C 
HETATM   21  C19 UNL     1      -7.317   1.514  17.190  1.00  0.00     0.014 C 
ENDBRANCH  16  18
ENDBRANCH  15  16
ENDBRANCH  13  15
BRANCH   9  22
HETATM   22  O3  UNL     1      -7.602   7.047  13.418  1.00  0.00    -0.394 OA
ATOM     23  H3  UNL     1      -8.247   7.567  12.951  1.00  0.00     0.210 HD
ENDBRANCH   9  22
BRANCH  12  24
HETATM   24  O4  UNL     1      -4.879   4.560  11.293  1.00  0.00    -0.386 OA
ATOM     25  H4  UNL     1      -5.443   4.850  10.584  1.00  0.00     0.210 HD
ENDBRANCH  12  24
BRANCH   1  26
HETATM   26  O2  UNL     1      -3.728   1.687  12.439  1.00  0.00    -0.312 OA
BRANCH  26  27
HETATM   27  C2  UNL     1      -4.343   0.519  12.771  1.00  0.00     0.255 C 
HETATM   28  C1  UNL     1      -4.355  -0.088  14.121  1.00  0.00     0.126 C 
HETATM   29  O1  UNL     1      -4.938  -0.070  11.846  1.00  0.00    -0.266 OA
ENDBRANCH  26  27
ENDBRANCH   1  26
TORSDOF 7
ENDMDL
