MODEL 1
REMARK VINA RESULT: -6.560148227      0.000      0.000
REMARK  5 active torsions:
REMARK  status: ('A' for Active; 'I' for Inactive)
REMARK    1  A    between atoms: C2_2  and  N1_3 
REMARK    2  A    between atoms: N2_7  and  C6_8 
REMARK    3  A    between atoms: C6_8  and  C7_9 
REMARK    4  A    between atoms: N4_13  and  C9_14 
REMARK    5  A    between atoms: C14_22  and  C15_23 
ROOT
HETATM    1  C7  UNL     1      -3.068   2.197  11.731  1.00  0.00     0.022 A 
HETATM    2  C8  UNL     1      -1.957   1.444  11.457  1.00  0.00     0.118 A 
HETATM    3  N3  UNL     1      -1.009   2.238  10.973  1.00  0.00    -0.308 N 
ATOM      4  H3  UNL     1      -0.075   1.949  10.681  1.00  0.00     0.186 HD
HETATM    5  N4  UNL     1      -1.498   3.491  10.935  1.00  0.00    -0.279 N 
HETATM    6  C14 UNL     1      -2.747   3.523  11.384  1.00  0.00     0.137 A 
ENDROOT
BRANCH   1   7
HETATM    7  C6  UNL     1      -4.376   1.770  12.256  1.00  0.00     0.315 C 
BRANCH   7   8
HETATM    8  N2  UNL     1      -4.615   2.225  13.586  1.00  0.00     0.094 N 
HETATM    9  C5  UNL     1      -5.742   3.080  13.733  1.00  0.00     0.274 C 
HETATM   10  C4  UNL     1      -5.643   4.047  14.911  1.00  0.00     0.050 C 
HETATM   11  C3  UNL     1      -6.364   3.404  16.072  1.00  0.00     0.123 C 
HETATM   12  N1  UNL     1      -5.903   2.080  16.229  1.00  0.00    -0.392 N 
HETATM   13  C17 UNL     1      -4.552   1.786  15.950  1.00  0.00     0.152 C 
HETATM   14  C16 UNL     1      -4.499   1.171  14.550  1.00  0.00     0.292 C 
BRANCH  12  15
HETATM   15  C2  UNL     1      -6.608   1.246  17.120  1.00  0.00     0.054 C 
HETATM   16  C1  UNL     1      -6.447   1.580  18.579  1.00  0.00     0.054 C 
ENDBRANCH  12  15
ENDBRANCH   7   8
ENDBRANCH   1   7
BRANCH   6  17
HETATM   17  C15 UNL     1      -3.638   4.670  11.491  1.00  0.00     0.229 C 
HETATM   18  O1  UNL     1      -3.510   5.598  12.295  1.00  0.00    -0.643 OA
HETATM   19  O2  UNL     1      -4.740   4.748  10.621  1.00  0.00    -0.643 OA
ENDBRANCH   6  17
BRANCH   5  20
HETATM   20  C9  UNL     1      -0.662   4.567  10.450  1.00  0.00     0.134 C 
HETATM   21  C10 UNL     1       0.410   3.979   9.562  1.00  0.00     0.030 C 
HETATM   22  C11 UNL     1       1.625   4.868   9.626  1.00  0.00     0.029 C 
HETATM   23  C12 UNL     1       2.218   4.754  11.014  1.00  0.00     0.232 C 
HETATM   24  N5  UNL     1       1.183   4.522  12.011  1.00  0.00    -0.073 N 
HETATM   25  C13 UNL     1      -0.026   5.252  11.657  1.00  0.00     0.259 C 
ATOM     26  H52 UNL     1       1.001   3.527  12.148  1.00  0.00     0.277 HD
ATOM     27  H51 UNL     1       1.503   4.747  12.953  1.00  0.00     0.277 HD
ENDBRANCH   5  20
TORSDOF 5
ENDMDL
MODEL 2
REMARK VINA RESULT: -6.494742068      1.775      2.241
REMARK  5 active torsions:
REMARK  status: ('A' for Active; 'I' for Inactive)
REMARK    1  A    between atoms: C2_2  and  N1_3 
REMARK    2  A    between atoms: N2_7  and  C6_8 
REMARK    3  A    between atoms: C6_8  and  C7_9 
REMARK    4  A    between atoms: N4_13  and  C9_14 
REMARK    5  A    between atoms: C14_22  and  C15_23 
ROOT
HETATM    1  C7  UNL     1      -3.225   3.306  12.172  1.00  0.00     0.022 A 
HETATM    2  C8  UNL     1      -2.854   4.608  12.386  1.00  0.00     0.118 A 
HETATM    3  N3  UNL     1      -1.645   4.799  11.871  1.00  0.00    -0.308 N 
ATOM      4  H3  UNL     1      -1.118   5.673  11.884  1.00  0.00     0.186 HD
HETATM    5  N4  UNL     1      -1.237   3.637  11.329  1.00  0.00    -0.279 N 
HETATM    6  C14 UNL     1      -2.159   2.695  11.486  1.00  0.00     0.137 A 
ENDROOT
BRANCH   1   7
HETATM    7  C6  UNL     1      -4.459   2.611  12.577  1.00  0.00     0.315 C 
BRANCH   7   8
HETATM    8  N2  UNL     1      -4.827   2.879  13.928  1.00  0.00     0.094 N 
HETATM    9  C5  UNL     1      -6.018   3.641  14.085  1.00  0.00     0.274 C 
HETATM   10  C4  UNL     1      -6.074   4.455  15.376  1.00  0.00     0.050 C 
HETATM   11  C3  UNL     1      -6.835   3.629  16.386  1.00  0.00     0.123 C 
HETATM   12  N1  UNL     1      -6.297   2.325  16.418  1.00  0.00    -0.392 N 
HETATM   13  C17 UNL     1      -4.913   2.148  16.219  1.00  0.00     0.152 C 
HETATM   14  C16 UNL     1      -4.713   1.720  14.763  1.00  0.00     0.292 C 
BRANCH  12  15
HETATM   15  C2  UNL     1      -7.009   1.345  17.139  1.00  0.00     0.054 C 
HETATM   16  C1  UNL     1      -6.159   0.358  17.895  1.00  0.00     0.054 C 
ENDBRANCH  12  15
ENDBRANCH   7   8
ENDBRANCH   1   7
BRANCH   6  17
HETATM   17  C15 UNL     1      -2.107   1.302  11.064  1.00  0.00     0.229 C 
HETATM   18  O1  UNL     1      -1.385   0.434  11.563  1.00  0.00    -0.643 OA
HETATM   19  O2  UNL     1      -2.935   0.889  10.006  1.00  0.00    -0.643 OA
ENDBRANCH   6  17
BRANCH   5  20
HETATM   20  C9  UNL     1       0.058   3.565  10.689  1.00  0.00     0.134 C 
HETATM   21  C10 UNL     1       1.013   4.469  11.435  1.00  0.00     0.030 C 
HETATM   22  C11 UNL     1       2.061   4.958  10.470  1.00  0.00     0.029 C 
HETATM   23  C12 UNL     1       1.393   5.892   9.484  1.00  0.00     0.232 C 
HETATM   24  N5  UNL     1       0.014   5.497   9.236  1.00  0.00    -0.073 N 
HETATM   25  C13 UNL     1      -0.101   4.045   9.248  1.00  0.00     0.259 C 
ATOM     26  H52 UNL     1      -0.633   5.936   9.892  1.00  0.00     0.277 HD
ATOM     27  H51 UNL     1      -0.350   5.901   8.373  1.00  0.00     0.277 HD
ENDBRANCH   5  20
TORSDOF 5
ENDMDL
MODEL 3
REMARK VINA RESULT: -6.416757988      1.672      7.398
REMARK  5 active torsions:
REMARK  status: ('A' for Active; 'I' for Inactive)
REMARK    1  A    between atoms: C2_2  and  N1_3 
REMARK    2  A    between atoms: N2_7  and  C6_8 
REMARK    3  A    between atoms: C6_8  and  C7_9 
REMARK    4  A    between atoms: N4_13  and  C9_14 
REMARK    5  A    between atoms: C14_22  and  C15_23 
ROOT
HETATM    1  C7  UNL     1      -4.430   2.103  12.526  1.00  0.00     0.022 A 
HETATM    2  C8  UNL     1      -4.387   0.791  12.918  1.00  0.00     0.118 A 
HETATM    3  N3  UNL     1      -4.573   0.729  14.232  1.00  0.00    -0.308 N 
ATOM      4  H3  UNL     1      -4.589  -0.120  14.796  1.00  0.00     0.186 HD
HETATM    5  N4  UNL     1      -4.736   1.985  14.686  1.00  0.00    -0.279 N 
HETATM    6  C14 UNL     1      -4.657   2.860  13.691  1.00  0.00     0.137 A 
ENDROOT
BRANCH   1   7
HETATM    7  C6  UNL     1      -4.253   2.680  11.182  1.00  0.00     0.315 C 
BRANCH   7   8
HETATM    8  N2  UNL     1      -3.016   3.373  11.036  1.00  0.00     0.094 N 
HETATM    9  C5  UNL     1      -1.878   2.538  10.861  1.00  0.00     0.274 C 
HETATM   10  C4  UNL     1      -0.567   3.159  11.338  1.00  0.00     0.050 C 
HETATM   11  C3  UNL     1       0.089   3.786  10.131  1.00  0.00     0.123 C 
HETATM   12  N1  UNL     1      -0.851   4.596   9.460  1.00  0.00    -0.392 N 
HETATM   13  C17 UNL     1      -1.820   5.291  10.212  1.00  0.00     0.152 C 
HETATM   14  C16 UNL     1      -3.119   4.485  10.139  1.00  0.00     0.292 C 
BRANCH  12  15
HETATM   15  C2  UNL     1      -0.494   5.094   8.191  1.00  0.00     0.054 C 
HETATM   16  C1  UNL     1      -0.238   4.048   7.138  1.00  0.00     0.054 C 
ENDBRANCH  12  15
ENDBRANCH   7   8
ENDBRANCH   1   7
BRANCH   6  17
HETATM   17  C15 UNL     1      -4.759   4.311  13.755  1.00  0.00     0.229 C 
HETATM   18  O1  UNL     1      -3.870   5.071  14.149  1.00  0.00    -0.643 OA
HETATM   19  O2  UNL     1      -5.958   4.919  13.341  1.00  0.00    -0.643 OA
ENDBRANCH   6  17
BRANCH   5  20
HETATM   20  C9  UNL     1      -4.964   2.208  16.096  1.00  0.00     0.134 C 
HETATM   21  C10 UNL     1      -4.988   0.868  16.796  1.00  0.00     0.030 C 
HETATM   22  C11 UNL     1      -5.871   0.979  18.012  1.00  0.00     0.029 C 
HETATM   23  C12 UNL     1      -7.299   1.152  17.541  1.00  0.00     0.232 C 
HETATM   24  N5  UNL     1      -7.352   1.884  16.283  1.00  0.00    -0.073 N 
HETATM   25  C13 UNL     1      -6.314   2.904  16.252  1.00  0.00     0.259 C 
ATOM     26  H52 UNL     1      -7.299   1.262  15.476  1.00  0.00     0.277 HD
ATOM     27  H51 UNL     1      -8.278   2.276  16.109  1.00  0.00     0.277 HD
ENDBRANCH   5  20
TORSDOF 5
ENDMDL
MODEL 4
REMARK VINA RESULT: -6.322968920      2.621      7.295
REMARK  5 active torsions:
REMARK  status: ('A' for Active; 'I' for Inactive)
REMARK    1  A    between atoms: C2_2  and  N1_3 
REMARK    2  A    between atoms: N2_7  and  C6_8 
REMARK    3  A    between atoms: C6_8  and  C7_9 
REMARK    4  A    between atoms: N4_13  and  C9_14 
REMARK    5  A    between atoms: C14_22  and  C15_23 
ROOT
HETATM    1  C7  UNL     1      -2.103   3.236  11.762  1.00  0.00     0.022 A 
HETATM    2  C8  UNL     1      -2.042   4.100  12.824  1.00  0.00     0.118 A 
HETATM    3  N3  UNL     1      -3.049   3.838  13.649  1.00  0.00    -0.308 N 
ATOM      4  H3  UNL     1      -3.253   4.324  14.522  1.00  0.00     0.186 HD
HETATM    5  N4  UNL     1      -3.754   2.815  13.130  1.00  0.00    -0.279 N 
HETATM    6  C14 UNL     1      -3.223   2.412  11.982  1.00  0.00     0.137 A 
ENDROOT
BRANCH   1   7
HETATM    7  C6  UNL     1      -1.227   3.150  10.581  1.00  0.00     0.315 C 
BRANCH   7   8
HETATM    8  N2  UNL     1      -1.457   4.200   9.644  1.00  0.00     0.094 N 
HETATM    9  C5  UNL     1      -0.817   4.029   8.385  1.00  0.00     0.274 C 
HETATM   10  C4  UNL     1      -0.509   5.336   7.657  1.00  0.00     0.050 C 
HETATM   11  C3  UNL     1      -1.649   5.586   6.699  1.00  0.00     0.123 C 
HETATM   12  N1  UNL     1      -2.873   5.456   7.390  1.00  0.00    -0.392 N 
HETATM   13  C17 UNL     1      -2.947   5.857   8.739  1.00  0.00     0.152 C 
HETATM   14  C16 UNL     1      -2.833   4.595   9.598  1.00  0.00     0.292 C 
BRANCH  12  15
HETATM   15  C2  UNL     1      -4.055   5.439   6.622  1.00  0.00     0.054 C 
HETATM   16  C1  UNL     1      -5.155   6.343   7.113  1.00  0.00     0.054 C 
ENDBRANCH  12  15
ENDBRANCH   7   8
ENDBRANCH   1   7
BRANCH   6  17
HETATM   17  C15 UNL     1      -3.685   1.353  11.096  1.00  0.00     0.229 C 
HETATM   18  O1  UNL     1      -4.647   1.437  10.327  1.00  0.00    -0.643 OA
HETATM   19  O2  UNL     1      -2.997   0.126  11.099  1.00  0.00    -0.643 OA
ENDBRANCH   6  17
BRANCH   5  20
HETATM   20  C9  UNL     1      -4.913   2.318  13.836  1.00  0.00     0.134 C 
HETATM   21  C10 UNL     1      -5.318   3.340  14.873  1.00  0.00     0.030 C 
HETATM   22  C11 UNL     1      -5.987   2.623  16.017  1.00  0.00     0.029 C 
HETATM   23  C12 UNL     1      -4.939   1.797  16.731  1.00  0.00     0.232 C 
HETATM   24  N5  UNL     1      -3.922   1.322  15.803  1.00  0.00    -0.073 N 
HETATM   25  C13 UNL     1      -4.525   1.007  14.516  1.00  0.00     0.259 C 
ATOM     26  H52 UNL     1      -3.151   1.984  15.711  1.00  0.00     0.277 HD
ATOM     27  H51 UNL     1      -3.398   0.534  16.183  1.00  0.00     0.277 HD
ENDBRANCH   5  20
TORSDOF 5
ENDMDL
MODEL 5
REMARK VINA RESULT: -6.263199882      1.489      1.819
REMARK  5 active torsions:
REMARK  status: ('A' for Active; 'I' for Inactive)
REMARK    1  A    between atoms: C2_2  and  N1_3 
REMARK    2  A    between atoms: N2_7  and  C6_8 
REMARK    3  A    between atoms: C6_8  and  C7_9 
REMARK    4  A    between atoms: N4_13  and  C9_14 
REMARK    5  A    between atoms: C14_22  and  C15_23 
ROOT
HETATM    1  C7  UNL     1      -2.755   3.813  12.744  1.00  0.00     0.022 A 
HETATM    2  C8  UNL     1      -2.059   4.538  13.676  1.00  0.00     0.118 A 
HETATM    3  N3  UNL     1      -0.999   5.084  13.091  1.00  0.00    -0.308 N 
ATOM      4  H3  UNL     1      -0.302   5.676  13.543  1.00  0.00     0.186 HD
HETATM    5  N4  UNL     1      -1.008   4.720  11.795  1.00  0.00    -0.279 N 
HETATM    6  C14 UNL     1      -2.053   3.945  11.531  1.00  0.00     0.137 A 
ENDROOT
BRANCH   1   7
HETATM    7  C6  UNL     1      -3.978   3.010  12.913  1.00  0.00     0.315 C 
BRANCH   7   8
HETATM    8  N2  UNL     1      -4.549   3.139  14.214  1.00  0.00     0.094 N 
HETATM    9  C5  UNL     1      -5.818   3.780  14.249  1.00  0.00     0.274 C 
HETATM   10  C4  UNL     1      -6.127   4.483  15.569  1.00  0.00     0.050 C 
HETATM   11  C3  UNL     1      -6.933   3.518  16.405  1.00  0.00     0.123 C 
HETATM   12  N1  UNL     1      -6.280   2.267  16.429  1.00  0.00    -0.392 N 
HETATM   13  C17 UNL     1      -4.871   2.228  16.416  1.00  0.00     0.152 C 
HETATM   14  C16 UNL     1      -4.436   1.933  14.979  1.00  0.00     0.292 C 
BRANCH  12  15
HETATM   15  C2  UNL     1      -6.984   1.175  16.977  1.00  0.00     0.054 C 
HETATM   16  C1  UNL     1      -6.194   0.309  17.922  1.00  0.00     0.054 C 
ENDBRANCH  12  15
ENDBRANCH   7   8
ENDBRANCH   1   7
BRANCH   6  17
HETATM   17  C15 UNL     1      -2.421   3.327  10.265  1.00  0.00     0.229 C 
HETATM   18  O1  UNL     1      -2.209   2.149   9.960  1.00  0.00    -0.643 OA
HETATM   19  O2  UNL     1      -3.070   4.113   9.296  1.00  0.00    -0.643 OA
ENDBRANCH   6  17
BRANCH   5  20
HETATM   20  C9  UNL     1       0.041   5.186  10.917  1.00  0.00     0.134 C 
HETATM   21  C10 UNL     1       0.903   4.007  10.530  1.00  0.00     0.030 C 
HETATM   22  C11 UNL     1       2.298   4.504  10.251  1.00  0.00     0.029 C 
HETATM   23  C12 UNL     1       2.903   4.963  11.560  1.00  0.00     0.232 C 
HETATM   24  N5  UNL     1       1.884   5.503  12.450  1.00  0.00    -0.073 N 
HETATM   25  C13 UNL     1       0.873   6.215  11.680  1.00  0.00     0.259 C 
ATOM     26  H52 UNL     1       1.473   4.781  13.042  1.00  0.00     0.277 HD
ATOM     27  H51 UNL     1       2.287   6.087  13.182  1.00  0.00     0.277 HD
ENDBRANCH   5  20
TORSDOF 5
ENDMDL
