MODEL 1
REMARK VINA RESULT: -6.667024564      0.000      0.000
REMARK  8 active torsions:
REMARK  status: ('A' for Active; 'I' for Inactive)
REMARK    1  A    between atoms: C1_2  and  C2_4 
REMARK    2  A    between atoms: C3_5  and  C4_6 
REMARK    3  A    between atoms: C4_6  and  S1_7 
REMARK    4  A    between atoms: S1_7  and  C5_8 
REMARK    5  A    between atoms: C6_10  and  C7_11 
REMARK    6  A    between atoms: C7_11  and  N2_12 
REMARK    7  A    between atoms: C7_11  and  O3_16 
REMARK    8  A    between atoms: C8_20  and  C9_21 
ROOT
HETATM    1  C5  UNL     1      13.990  51.383 -49.393  1.00  0.00     0.145 A 
HETATM    2  O2  UNL     1      14.910  52.265 -49.650  1.00  0.00    -0.284 OA
HETATM    3  C6  UNL     1      14.788  53.338 -48.911  1.00  0.00     0.182 A 
HETATM    4  N3  UNL     1      13.714  53.161 -48.105  1.00  0.00    -0.331 N 
ATOM      5  H3  UNL     1      13.355  53.816 -47.412  1.00  0.00     0.168 HD
HETATM    6  C8  UNL     1      13.218  51.949 -48.402  1.00  0.00     0.122 A 
ENDROOT
BRANCH   6   7
HETATM    7  C9  UNL     1      12.044  51.316 -47.786  1.00  0.00     0.167 A 
HETATM    8  N4  UNL     1      10.759  51.447 -48.112  1.00  0.00    -0.267 N 
HETATM    9  N5  UNL     1      10.036  50.707 -47.298  1.00  0.00    -0.227 N 
ATOM     10  H4  UNL     1      10.395  52.027 -48.868  1.00  0.00     0.190 HD
HETATM   11  N6  UNL     1      10.843  50.098 -46.450  1.00  0.00    -0.227 N 
ATOM     12  H5  UNL     1       9.021  50.617 -47.321  1.00  0.00     0.210 HD
HETATM   13  N7  UNL     1      12.081  50.457 -46.729  1.00  0.00    -0.267 N 
ATOM     14  H6  UNL     1      10.559  49.461 -45.706  1.00  0.00     0.210 HD
ATOM     15  H7  UNL     1      12.920  50.145 -46.240  1.00  0.00     0.190 HD
ENDBRANCH   6   7
BRANCH   1  16
HETATM   16  S1  UNL     1      13.692  49.767 -50.097  1.00  0.00    -0.090 SA
BRANCH  16  17
HETATM   17  C4  UNL     1      12.925  49.920 -51.731  1.00  0.00     0.175 C 
BRANCH  17  18
HETATM   18  C3  UNL     1      12.700  51.345 -52.042  1.00  0.00    -0.086 C 
HETATM   19  C2  UNL     1      12.529  52.515 -52.280  1.00  0.00    -0.008 C 
BRANCH  19  20
HETATM   20  C1  UNL     1      12.337  53.912 -52.541  1.00  0.00     0.309 C 
HETATM   21  N1  UNL     1      12.953  54.839 -51.651  1.00  0.00    -0.049 NA
HETATM   22  O1  UNL     1      11.664  54.357 -53.500  1.00  0.00    -0.262 OA
ENDBRANCH  19  20
ENDBRANCH  17  18
ENDBRANCH  16  17
ENDBRANCH   1  16
BRANCH   3  23
HETATM   23  C7  UNL     1      15.653  54.563 -48.918  1.00  0.00     0.392 C 
BRANCH  23  24
HETATM   24  N2  UNL     1      17.026  54.107 -48.773  1.00  0.00    -0.045 N 
ATOM     25  H23 UNL     1      17.122  53.315 -48.136  1.00  0.00     0.277 HD
ATOM     26  H22 UNL     1      17.387  53.644 -49.608  1.00  0.00     0.277 HD
ATOM     27  H21 UNL     1      17.577  54.918 -48.494  1.00  0.00     0.277 HD
ENDBRANCH  23  24
BRANCH  23  28
HETATM   28  O3  UNL     1      15.517  55.252 -50.118  1.00  0.00    -0.364 OA
ATOM     29  H3  UNL     1      15.644  56.184 -49.986  1.00  0.00     0.212 HD
ENDBRANCH  23  28
ENDBRANCH   3  23
TORSDOF 8
ENDMDL
MODEL 2
REMARK VINA RESULT: -6.517130105      8.729      9.381
REMARK  8 active torsions:
REMARK  status: ('A' for Active; 'I' for Inactive)
REMARK    1  A    between atoms: C1_2  and  C2_4 
REMARK    2  A    between atoms: C3_5  and  C4_6 
REMARK    3  A    between atoms: C4_6  and  S1_7 
REMARK    4  A    between atoms: S1_7  and  C5_8 
REMARK    5  A    between atoms: C6_10  and  C7_11 
REMARK    6  A    between atoms: C7_11  and  N2_12 
REMARK    7  A    between atoms: C7_11  and  O3_16 
REMARK    8  A    between atoms: C8_20  and  C9_21 
ROOT
HETATM    1  C5  UNL     1      19.782  49.911 -55.750  1.00  0.00     0.145 A 
HETATM    2  O2  UNL     1      20.647  49.528 -54.858  1.00  0.00    -0.284 OA
HETATM    3  C6  UNL     1      20.176  48.581 -54.086  1.00  0.00     0.182 A 
HETATM    4  N3  UNL     1      18.912  48.313 -54.492  1.00  0.00    -0.331 N 
ATOM      5  H3  UNL     1      18.275  47.624 -54.094  1.00  0.00     0.168 HD
HETATM    6  C8  UNL     1      18.666  49.137 -55.524  1.00  0.00     0.122 A 
ENDROOT
BRANCH   6   7
HETATM    7  C9  UNL     1      17.417  49.216 -56.294  1.00  0.00     0.167 A 
HETATM    8  N4  UNL     1      16.217  49.635 -55.894  1.00  0.00    -0.267 N 
HETATM    9  N5  UNL     1      15.376  49.536 -56.902  1.00  0.00    -0.227 N 
ATOM     10  H4  UNL     1      15.988  49.976 -54.961  1.00  0.00     0.190 HD
HETATM   11  N6  UNL     1      16.022  49.057 -57.948  1.00  0.00    -0.227 N 
ATOM     12  H5  UNL     1      14.388  49.788 -56.878  1.00  0.00     0.210 HD
HETATM   13  N7  UNL     1      17.277  48.853 -57.599  1.00  0.00    -0.267 N 
ATOM     14  H6  UNL     1      15.620  48.876 -58.868  1.00  0.00     0.210 HD
ATOM     15  H7  UNL     1      18.014  48.487 -58.201  1.00  0.00     0.190 HD
ENDBRANCH   6   7
BRANCH   1  16
HETATM   16  S1  UNL     1      19.901  51.150 -57.034  1.00  0.00    -0.090 SA
BRANCH  16  17
HETATM   17  C4  UNL     1      18.785  52.533 -56.684  1.00  0.00     0.175 C 
BRANCH  17  18
HETATM   18  C3  UNL     1      17.662  52.519 -57.642  1.00  0.00    -0.086 C 
HETATM   19  C2  UNL     1      16.741  52.488 -58.419  1.00  0.00    -0.008 C 
BRANCH  19  20
HETATM   20  C1  UNL     1      15.645  52.424 -59.342  1.00  0.00     0.309 C 
HETATM   21  N1  UNL     1      14.562  51.554 -59.021  1.00  0.00    -0.049 NA
HETATM   22  O1  UNL     1      15.588  53.086 -60.405  1.00  0.00    -0.262 OA
ENDBRANCH  19  20
ENDBRANCH  17  18
ENDBRANCH  16  17
ENDBRANCH   1  16
BRANCH   3  23
HETATM   23  C7  UNL     1      20.870  47.889 -52.951  1.00  0.00     0.392 C 
BRANCH  23  24
HETATM   24  N2  UNL     1      19.830  47.447 -52.034  1.00  0.00    -0.045 N 
ATOM     25  H23 UNL     1      19.339  46.612 -52.354  1.00  0.00     0.277 HD
ATOM     26  H22 UNL     1      20.199  47.055 -51.168  1.00  0.00     0.277 HD
ATOM     27  H21 UNL     1      19.213  48.245 -51.884  1.00  0.00     0.277 HD
ENDBRANCH  23  24
BRANCH  23  28
HETATM   28  O3  UNL     1      21.583  46.788 -53.410  1.00  0.00    -0.364 OA
ATOM     29  H3  UNL     1      21.040  46.245 -53.969  1.00  0.00     0.212 HD
ENDBRANCH  23  28
ENDBRANCH   3  23
TORSDOF 8
ENDMDL
MODEL 3
REMARK VINA RESULT: -6.426677688      2.764      3.745
REMARK  8 active torsions:
REMARK  status: ('A' for Active; 'I' for Inactive)
REMARK    1  A    between atoms: C1_2  and  C2_4 
REMARK    2  A    between atoms: C3_5  and  C4_6 
REMARK    3  A    between atoms: C4_6  and  S1_7 
REMARK    4  A    between atoms: S1_7  and  C5_8 
REMARK    5  A    between atoms: C6_10  and  C7_11 
REMARK    6  A    between atoms: C7_11  and  N2_12 
REMARK    7  A    between atoms: C7_11  and  O3_16 
REMARK    8  A    between atoms: C8_20  and  C9_21 
ROOT
HETATM    1  C5  UNL     1      13.079  50.708 -49.376  1.00  0.00     0.145 A 
HETATM    2  O2  UNL     1      13.074  51.526 -50.387  1.00  0.00    -0.284 OA
HETATM    3  C6  UNL     1      12.242  52.521 -50.215  1.00  0.00     0.182 A 
HETATM    4  N3  UNL     1      11.651  52.357 -49.008  1.00  0.00    -0.331 N 
ATOM      5  H3  UNL     1      10.952  52.965 -48.580  1.00  0.00     0.168 HD
HETATM    6  C8  UNL     1      12.169  51.233 -48.485  1.00  0.00     0.122 A 
ENDROOT
BRANCH   6   7
HETATM    7  C9  UNL     1      11.830  50.644 -47.184  1.00  0.00     0.167 A 
HETATM    8  N4  UNL     1      10.712  50.018 -46.817  1.00  0.00    -0.267 N 
HETATM    9  N5  UNL     1      10.824  49.651 -45.558  1.00  0.00    -0.227 N 
ATOM     10  H4  UNL     1       9.903  49.850 -47.415  1.00  0.00     0.190 HD
HETATM   11  N6  UNL     1      12.003  50.035 -45.107  1.00  0.00    -0.227 N 
ATOM     12  H5  UNL     1      10.115  49.152 -45.020  1.00  0.00     0.210 HD
HETATM   13  N7  UNL     1      12.639  50.647 -46.088  1.00  0.00    -0.267 N 
ATOM     14  H6  UNL     1      12.361  49.885 -44.164  1.00  0.00     0.210 HD
ATOM     15  H7  UNL     1      13.573  51.051 -46.035  1.00  0.00     0.190 HD
ENDBRANCH   6   7
BRANCH   1  16
HETATM   16  S1  UNL     1      14.012  49.210 -49.091  1.00  0.00    -0.090 SA
BRANCH  16  17
HETATM   17  C4  UNL     1      15.391  49.092 -50.258  1.00  0.00     0.175 C 
BRANCH  17  18
HETATM   18  C3  UNL     1      14.875  48.806 -51.610  1.00  0.00    -0.086 C 
HETATM   19  C2  UNL     1      14.434  48.569 -52.707  1.00  0.00    -0.008 C 
BRANCH  19  20
HETATM   20  C1  UNL     1      13.888  48.277 -54.001  1.00  0.00     0.309 C 
HETATM   21  N1  UNL     1      14.805  48.057 -55.069  1.00  0.00    -0.049 NA
HETATM   22  O1  UNL     1      12.660  48.205 -54.240  1.00  0.00    -0.262 OA
ENDBRANCH  19  20
ENDBRANCH  17  18
ENDBRANCH  16  17
ENDBRANCH   1  16
BRANCH   3  23
HETATM   23  C7  UNL     1      11.960  53.657 -51.153  1.00  0.00     0.392 C 
BRANCH  23  24
HETATM   24  N2  UNL     1      13.242  54.267 -51.468  1.00  0.00    -0.045 N 
ATOM     25  H23 UNL     1      13.191  55.280 -51.574  1.00  0.00     0.277 HD
ATOM     26  H22 UNL     1      13.898  54.253 -50.687  1.00  0.00     0.277 HD
ATOM     27  H21 UNL     1      13.596  53.792 -52.299  1.00  0.00     0.277 HD
ENDBRANCH  23  24
BRANCH  23  28
HETATM   28  O3  UNL     1      11.366  53.194 -52.321  1.00  0.00    -0.364 OA
ATOM     29  H3  UNL     1      11.905  53.399 -53.076  1.00  0.00     0.212 HD
ENDBRANCH  23  28
ENDBRANCH   3  23
TORSDOF 8
ENDMDL
MODEL 4
REMARK VINA RESULT: -6.410750770      2.473      2.973
REMARK  8 active torsions:
REMARK  status: ('A' for Active; 'I' for Inactive)
REMARK    1  A    between atoms: C1_2  and  C2_4 
REMARK    2  A    between atoms: C3_5  and  C4_6 
REMARK    3  A    between atoms: C4_6  and  S1_7 
REMARK    4  A    between atoms: S1_7  and  C5_8 
REMARK    5  A    between atoms: C6_10  and  C7_11 
REMARK    6  A    between atoms: C7_11  and  N2_12 
REMARK    7  A    between atoms: C7_11  and  O3_16 
REMARK    8  A    between atoms: C8_20  and  C9_21 
ROOT
HETATM    1  C5  UNL     1      13.071  53.412 -50.420  1.00  0.00     0.145 A 
HETATM    2  O2  UNL     1      14.313  53.794 -50.468  1.00  0.00    -0.284 OA
HETATM    3  C6  UNL     1      14.906  53.702 -49.306  1.00  0.00     0.182 A 
HETATM    4  N3  UNL     1      13.998  53.225 -48.421  1.00  0.00    -0.331 N 
ATOM      5  H3  UNL     1      14.149  53.039 -47.429  1.00  0.00     0.168 HD
HETATM    6  C8  UNL     1      12.860  53.044 -49.110  1.00  0.00     0.122 A 
ENDROOT
BRANCH   6   7
HETATM    7  C9  UNL     1      11.589  52.542 -48.572  1.00  0.00     0.167 A 
HETATM    8  N4  UNL     1      10.427  53.181 -48.445  1.00  0.00    -0.267 N 
HETATM    9  N5  UNL     1       9.547  52.361 -47.910  1.00  0.00    -0.227 N 
ATOM     10  H4  UNL     1      10.248  54.147 -48.718  1.00  0.00     0.190 HD
HETATM   11  N6  UNL     1      10.130  51.198 -47.690  1.00  0.00    -0.227 N 
ATOM     12  H5  UNL     1       8.575  52.587 -47.701  1.00  0.00     0.210 HD
HETATM   13  N7  UNL     1      11.385  51.285 -48.088  1.00  0.00    -0.267 N 
ATOM     14  H6  UNL     1       9.688  50.374 -47.282  1.00  0.00     0.210 HD
ATOM     15  H7  UNL     1      12.080  50.541 -48.042  1.00  0.00     0.190 HD
ENDBRANCH   6   7
BRANCH   1  16
HETATM   16  S1  UNL     1      11.823  53.335 -51.698  1.00  0.00    -0.090 SA
BRANCH  16  17
HETATM   17  C4  UNL     1      12.414  54.137 -53.210  1.00  0.00     0.175 C 
BRANCH  17  18
HETATM   18  C3  UNL     1      12.113  55.581 -53.156  1.00  0.00    -0.086 C 
HETATM   19  C2  UNL     1      11.846  56.756 -53.110  1.00  0.00    -0.008 C 
BRANCH  19  20
HETATM   20  C1  UNL     1      11.503  58.148 -53.058  1.00  0.00     0.309 C 
HETATM   21  N1  UNL     1      10.160  58.508 -53.371  1.00  0.00    -0.049 NA
HETATM   22  O1  UNL     1      12.313  59.056 -52.755  1.00  0.00    -0.262 OA
ENDBRANCH  19  20
ENDBRANCH  17  18
ENDBRANCH  16  17
ENDBRANCH   1  16
BRANCH   3  23
HETATM   23  C7  UNL     1      16.325  54.048 -48.966  1.00  0.00     0.392 C 
BRANCH  23  24
HETATM   24  N2  UNL     1      17.107  53.835 -50.173  1.00  0.00    -0.045 N 
ATOM     25  H23 UNL     1      17.381  54.703 -50.634  1.00  0.00     0.277 HD
ATOM     26  H22 UNL     1      18.048  53.487 -49.987  1.00  0.00     0.277 HD
ATOM     27  H21 UNL     1      16.560  53.217 -50.772  1.00  0.00     0.277 HD
ENDBRANCH  23  24
BRANCH  23  28
HETATM   28  O3  UNL     1      16.426  55.378 -48.576  1.00  0.00    -0.364 OA
ATOM     29  H3  UNL     1      17.009  55.467 -47.832  1.00  0.00     0.212 HD
ENDBRANCH  23  28
ENDBRANCH   3  23
TORSDOF 8
ENDMDL
MODEL 5
REMARK VINA RESULT: -6.395597576      3.586      5.362
REMARK  8 active torsions:
REMARK  status: ('A' for Active; 'I' for Inactive)
REMARK    1  A    between atoms: C1_2  and  C2_4 
REMARK    2  A    between atoms: C3_5  and  C4_6 
REMARK    3  A    between atoms: C4_6  and  S1_7 
REMARK    4  A    between atoms: S1_7  and  C5_8 
REMARK    5  A    between atoms: C6_10  and  C7_11 
REMARK    6  A    between atoms: C7_11  and  N2_12 
REMARK    7  A    between atoms: C7_11  and  O3_16 
REMARK    8  A    between atoms: C8_20  and  C9_21 
ROOT
HETATM    1  C5  UNL     1      13.119  50.538 -50.132  1.00  0.00     0.145 A 
HETATM    2  O2  UNL     1      12.900  49.847 -49.053  1.00  0.00    -0.284 OA
HETATM    3  C6  UNL     1      12.092  50.460 -48.226  1.00  0.00     0.182 A 
HETATM    4  N3  UNL     1      11.747  51.641 -48.793  1.00  0.00    -0.331 N 
ATOM      5  H3  UNL     1      11.128  52.350 -48.400  1.00  0.00     0.168 HD
HETATM    6  C8  UNL     1      12.382  51.691 -49.975  1.00  0.00     0.122 A 
ENDROOT
BRANCH   6   7
HETATM    7  C9  UNL     1      12.319  52.788 -50.949  1.00  0.00     0.167 A 
HETATM    8  N4  UNL     1      11.562  52.891 -52.041  1.00  0.00    -0.267 N 
HETATM    9  N5  UNL     1      11.823  54.037 -52.632  1.00  0.00    -0.227 N 
ATOM     10  H4  UNL     1      10.890  52.195 -52.365  1.00  0.00     0.190 HD
HETATM   11  N6  UNL     1      12.742  54.676 -51.933  1.00  0.00    -0.227 N 
ATOM     12  H5  UNL     1      11.387  54.376 -53.490  1.00  0.00     0.210 HD
HETATM   13  N7  UNL     1      13.062  53.929 -50.895  1.00  0.00    -0.267 N 
ATOM     14  H6  UNL     1      13.137  55.590 -52.157  1.00  0.00     0.210 HD
ATOM     15  H7  UNL     1      13.746  54.164 -50.176  1.00  0.00     0.190 HD
ENDBRANCH   6   7
BRANCH   1  16
HETATM   16  S1  UNL     1      14.126  50.178 -51.565  1.00  0.00    -0.090 SA
BRANCH  16  17
HETATM   17  C4  UNL     1      13.642  48.594 -52.297  1.00  0.00     0.175 C 
BRANCH  17  18
HETATM   18  C3  UNL     1      14.167  48.501 -53.673  1.00  0.00    -0.086 C 
HETATM   19  C2  UNL     1      14.611  48.441 -54.792  1.00  0.00    -0.008 C 
BRANCH  19  20
HETATM   20  C1  UNL     1      15.151  48.392 -56.120  1.00  0.00     0.309 C 
HETATM   21  N1  UNL     1      16.276  47.546 -56.344  1.00  0.00    -0.049 NA
HETATM   22  O1  UNL     1      14.690  49.045 -57.086  1.00  0.00    -0.262 OA
ENDBRANCH  19  20
ENDBRANCH  17  18
ENDBRANCH  16  17
ENDBRANCH   1  16
BRANCH   3  23
HETATM   23  C7  UNL     1      11.607  49.984 -46.889  1.00  0.00     0.392 C 
BRANCH  23  24
HETATM   24  N2  UNL     1      12.473  50.593 -45.891  1.00  0.00    -0.045 N 
ATOM     25  H23 UNL     1      13.366  50.909 -46.271  1.00  0.00     0.277 HD
ATOM     26  H22 UNL     1      12.141  51.504 -45.572  1.00  0.00     0.277 HD
ATOM     27  H21 UNL     1      12.573  49.915 -45.137  1.00  0.00     0.277 HD
ENDBRANCH  23  24
BRANCH  23  28
HETATM   28  O3  UNL     1      10.294  50.385 -46.672  1.00  0.00    -0.364 OA
ATOM     29  H3  UNL     1      10.268  51.185 -46.160  1.00  0.00     0.212 HD
ENDBRANCH  23  28
ENDBRANCH   3  23
TORSDOF 8
ENDMDL
