MODEL 1
REMARK VINA RESULT: -7.043059768      0.000      0.000
REMARK  7 active torsions:
REMARK  status: ('A' for Active; 'I' for Inactive)
REMARK    1  A    between atoms: C3_10  and  C4_11 
REMARK    2  A    between atoms: C4_11  and  C5_12 
REMARK    3  A    between atoms: C5_12  and  N4_13 
REMARK    4  A    between atoms: N4_13  and  C6_16 
REMARK    5  A    between atoms: C6_16  and  C7_17 
REMARK    6  A    between atoms: C7_17  and  C8_18 
REMARK    7  A    between atoms: C8_18  and  O1_19 
ROOT
HETATM    1  N4  UNL     1       8.216  -6.106  36.879  1.00  0.00    -0.075 N 
ATOM      2  H41 UNL     1       8.007  -6.750  37.641  1.00  0.00     0.277 HD
ATOM      3  H42 UNL     1       9.190  -5.903  37.105  1.00  0.00     0.277 HD
ENDROOT
BRANCH   1   4
HETATM    4  C5  UNL     1       7.400  -4.919  36.955  1.00  0.00     0.239 C 
BRANCH   4   5
HETATM    5  C4  UNL     1       6.499  -4.943  35.711  1.00  0.00     0.104 C 
BRANCH   5   6
HETATM    6  C3  UNL     1       5.106  -4.761  36.214  1.00  0.00     0.099 A 
HETATM    7  N3  UNL     1       4.193  -4.397  35.295  1.00  0.00    -0.341 N 
HETATM    8  C2  UNL     1       2.910  -4.206  35.634  1.00  0.00     0.199 A 
ATOM      9  H3  UNL     1       4.482  -4.263  34.326  1.00  0.00     0.167 HD
HETATM   10  N2  UNL     1       2.540  -4.384  36.922  1.00  0.00    -0.188 N 
HETATM   11  C1  UNL     1       3.468  -4.747  37.817  1.00  0.00     0.678 A 
ATOM     12  H2  UNL     1       1.570  -4.245  37.208  1.00  0.00     0.185 HD
HETATM   13  N1  UNL     1       3.144  -4.925  39.063  1.00  0.00    -0.234 N 
HETATM   14  N6  UNL     1       4.746  -4.939  37.481  1.00  0.00    -0.181 N 
ATOM     15  H12 UNL     1       2.168  -4.779  39.320  1.00  0.00     0.174 HD
ATOM     16  H11 UNL     1       3.851  -5.202  39.745  1.00  0.00     0.174 HD
ATOM     17  H6  UNL     1       5.432  -5.216  38.183  1.00  0.00     0.185 HD
ENDBRANCH   5   6
ENDBRANCH   4   5
ENDBRANCH   1   4
BRANCH   1  18
HETATM   18  C6  UNL     1       8.097  -6.767  35.569  1.00  0.00     0.235 C 
BRANCH  18  19
HETATM   19  C7  UNL     1       8.443  -8.180  35.682  1.00  0.00     0.069 C 
BRANCH  19  20
HETATM   20  C8  UNL     1       7.456  -9.199  35.137  1.00  0.00     0.078 C 
HETATM   21  C9  UNL     1       7.756 -10.473  35.726  1.00  0.00     0.042 C 
HETATM   22  C10 UNL     1       7.379 -11.763  34.949  1.00  0.00     0.003 C 
HETATM   23  C11 UNL     1       5.975 -11.880  35.266  1.00  0.00     0.000 C 
HETATM   24  C12 UNL     1       5.006 -12.941  34.998  1.00  0.00     0.000 C 
HETATM   25  C13 UNL     1       3.717 -12.258  35.561  1.00  0.00     0.005 C 
HETATM   26  C14 UNL     1       3.314 -11.040  34.821  1.00  0.00     0.044 C 
HETATM   27  C15 UNL     1       3.321  -9.712  35.453  1.00  0.00     0.060 C 
HETATM   28  N5  UNL     1       4.088  -9.331  36.523  1.00  0.00    -0.379 N 
HETATM   29  C16 UNL     1       5.312  -8.642  36.468  1.00  0.00     0.086 C 
ATOM     30  H5  UNL     1       3.738  -9.571  37.450  1.00  0.00     0.164 HD
HETATM   31  C17 UNL     1       6.114  -8.560  35.257  1.00  0.00     0.027 C 
BRANCH  20  32
HETATM   32  O1  UNL     1       7.701  -9.224  33.740  1.00  0.00    -0.386 OA
ATOM     33  H1  UNL     1       6.843  -9.128  33.344  1.00  0.00     0.211 HD
ENDBRANCH  20  32
ENDBRANCH  19  20
ENDBRANCH  18  19
ENDBRANCH   1  18
TORSDOF 7
ENDMDL
MODEL 2
REMARK VINA RESULT: -7.024489649      1.259      2.256
REMARK  7 active torsions:
REMARK  status: ('A' for Active; 'I' for Inactive)
REMARK    1  A    between atoms: C3_10  and  C4_11 
REMARK    2  A    between atoms: C4_11  and  C5_12 
REMARK    3  A    between atoms: C5_12  and  N4_13 
REMARK    4  A    between atoms: N4_13  and  C6_16 
REMARK    5  A    between atoms: C6_16  and  C7_17 
REMARK    6  A    between atoms: C7_17  and  C8_18 
REMARK    7  A    between atoms: C8_18  and  O1_19 
ROOT
HETATM    1  N4  UNL     1       8.171  -6.327  36.689  1.00  0.00    -0.075 N 
ATOM      2  H41 UNL     1       8.009  -7.082  37.355  1.00  0.00     0.277 HD
ATOM      3  H42 UNL     1       9.162  -6.166  36.869  1.00  0.00     0.277 HD
ENDROOT
BRANCH   1   4
HETATM    4  C5  UNL     1       7.383  -5.163  37.012  1.00  0.00     0.239 C 
BRANCH   4   5
HETATM    5  C4  UNL     1       6.540  -4.861  35.764  1.00  0.00     0.104 C 
BRANCH   5   6
HETATM    6  C3  UNL     1       5.135  -4.723  36.247  1.00  0.00     0.099 A 
HETATM    7  N3  UNL     1       4.221  -4.405  35.311  1.00  0.00    -0.341 N 
HETATM    8  C2  UNL     1       2.928  -4.256  35.630  1.00  0.00     0.199 A 
ATOM      9  H3  UNL     1       4.518  -4.275  34.343  1.00  0.00     0.167 HD
HETATM   10  N2  UNL     1       2.547  -4.429  36.917  1.00  0.00    -0.188 N 
HETATM   11  C1  UNL     1       3.476  -4.746  37.828  1.00  0.00     0.678 A 
ATOM     12  H2  UNL     1       1.569  -4.321  37.187  1.00  0.00     0.185 HD
HETATM   13  N1  UNL     1       3.142  -4.918  39.073  1.00  0.00    -0.234 N 
HETATM   14  N6  UNL     1       4.764  -4.896  37.511  1.00  0.00    -0.181 N 
ATOM     15  H12 UNL     1       2.158  -4.803  39.314  1.00  0.00     0.174 HD
ATOM     16  H11 UNL     1       3.849  -5.159  39.767  1.00  0.00     0.174 HD
ATOM     17  H6  UNL     1       5.451  -5.138  38.226  1.00  0.00     0.185 HD
ENDBRANCH   5   6
ENDBRANCH   4   5
ENDBRANCH   1   4
BRANCH   1  18
HETATM   18  C6  UNL     1       7.943  -6.774  35.305  1.00  0.00     0.235 C 
BRANCH  18  19
HETATM   19  C7  UNL     1       7.889  -8.230  35.246  1.00  0.00     0.069 C 
BRANCH  19  20
HETATM   20  C8  UNL     1       6.603  -8.913  35.680  1.00  0.00     0.078 C 
HETATM   21  C9  UNL     1       5.511  -8.298  34.981  1.00  0.00     0.042 C 
HETATM   22  C10 UNL     1       4.101  -8.320  35.631  1.00  0.00     0.003 C 
HETATM   23  C11 UNL     1       3.653  -9.648  35.284  1.00  0.00     0.000 C 
HETATM   24  C12 UNL     1       2.357 -10.306  35.440  1.00  0.00     0.000 C 
HETATM   25  C13 UNL     1       2.732 -11.734  34.925  1.00  0.00     0.005 C 
HETATM   26  C14 UNL     1       3.729 -12.432  35.768  1.00  0.00     0.044 C 
HETATM   27  C15 UNL     1       5.066 -12.776  35.260  1.00  0.00     0.060 C 
HETATM   28  N5  UNL     1       5.730 -12.145  34.241  1.00  0.00    -0.379 N 
HETATM   29  C16 UNL     1       6.706 -11.141  34.377  1.00  0.00     0.086 C 
ATOM     30  H5  UNL     1       5.494 -12.431  33.291  1.00  0.00     0.164 HD
HETATM   31  C17 UNL     1       6.880 -10.376  35.600  1.00  0.00     0.027 C 
BRANCH  20  32
HETATM   32  O1  UNL     1       6.513  -8.655  37.072  1.00  0.00    -0.386 OA
ATOM     33  H1  UNL     1       5.679  -9.029  37.332  1.00  0.00     0.211 HD
ENDBRANCH  20  32
ENDBRANCH  19  20
ENDBRANCH  18  19
ENDBRANCH   1  18
TORSDOF 7
ENDMDL
MODEL 3
REMARK VINA RESULT: -6.907355207      0.981      1.621
REMARK  7 active torsions:
REMARK  status: ('A' for Active; 'I' for Inactive)
REMARK    1  A    between atoms: C3_10  and  C4_11 
REMARK    2  A    between atoms: C4_11  and  C5_12 
REMARK    3  A    between atoms: C5_12  and  N4_13 
REMARK    4  A    between atoms: N4_13  and  C6_16 
REMARK    5  A    between atoms: C6_16  and  C7_17 
REMARK    6  A    between atoms: C7_17  and  C8_18 
REMARK    7  A    between atoms: C8_18  and  O1_19 
ROOT
HETATM    1  N4  UNL     1       8.460  -6.733  36.677  1.00  0.00    -0.075 N 
ATOM      2  H41 UNL     1       8.223  -6.958  37.642  1.00  0.00     0.277 HD
ATOM      3  H42 UNL     1       9.381  -6.323  36.830  1.00  0.00     0.277 HD
ENDROOT
BRANCH   1   4
HETATM    4  C5  UNL     1       7.542  -5.769  36.121  1.00  0.00     0.239 C 
BRANCH   4   5
HETATM    5  C4  UNL     1       7.236  -4.773  37.249  1.00  0.00     0.104 C 
BRANCH   5   6
HETATM    6  C3  UNL     1       5.827  -5.044  37.660  1.00  0.00     0.099 A 
HETATM    7  N3  UNL     1       5.669  -5.911  38.677  1.00  0.00    -0.341 N 
HETATM    8  C2  UNL     1       4.448  -6.229  39.131  1.00  0.00     0.199 A 
ATOM      9  H3  UNL     1       6.491  -6.333  39.110  1.00  0.00     0.167 HD
HETATM   10  N2  UNL     1       3.366  -5.664  38.548  1.00  0.00    -0.188 N 
HETATM   11  C1  UNL     1       3.551  -4.804  37.537  1.00  0.00     0.678 A 
ATOM     12  H2  UNL     1       2.426  -5.889  38.873  1.00  0.00     0.185 HD
HETATM   13  N1  UNL     1       2.532  -4.246  36.956  1.00  0.00    -0.234 N 
HETATM   14  N6  UNL     1       4.767  -4.486  37.086  1.00  0.00    -0.181 N 
ATOM     15  H12 UNL     1       1.603  -4.489  37.302  1.00  0.00     0.174 HD
ATOM     16  H11 UNL     1       2.673  -3.591  36.187  1.00  0.00     0.174 HD
ATOM     17  H6  UNL     1       4.878  -3.828  36.315  1.00  0.00     0.185 HD
ENDBRANCH   5   6
ENDBRANCH   4   5
ENDBRANCH   1   4
BRANCH   1  18
HETATM   18  C6  UNL     1       8.544  -7.947  35.848  1.00  0.00     0.235 C 
BRANCH  18  19
HETATM   19  C7  UNL     1       7.612  -7.862  34.729  1.00  0.00     0.069 C 
BRANCH  19  20
HETATM   20  C8  UNL     1       6.656  -9.022  34.511  1.00  0.00     0.078 C 
HETATM   21  C9  UNL     1       7.250 -10.204  35.066  1.00  0.00     0.042 C 
HETATM   22  C10 UNL     1       6.855 -11.586  34.480  1.00  0.00     0.003 C 
HETATM   23  C11 UNL     1       5.602 -11.828  35.155  1.00  0.00     0.000 C 
HETATM   24  C12 UNL     1       4.737 -13.005  35.201  1.00  0.00     0.000 C 
HETATM   25  C13 UNL     1       3.555 -12.422  36.042  1.00  0.00     0.005 C 
HETATM   26  C14 UNL     1       2.830 -11.319  35.371  1.00  0.00     0.044 C 
HETATM   27  C15 UNL     1       2.830  -9.951  35.911  1.00  0.00     0.060 C 
HETATM   28  N5  UNL     1       3.787  -9.404  36.725  1.00  0.00    -0.379 N 
HETATM   29  C16 UNL     1       4.861  -8.593  36.320  1.00  0.00     0.086 C 
ATOM     30  H5  UNL     1       3.712  -9.604  37.722  1.00  0.00     0.164 HD
HETATM   31  C17 UNL     1       5.317  -8.524  34.942  1.00  0.00     0.027 C 
BRANCH  20  32
HETATM   32  O1  UNL     1       6.544  -9.135  33.101  1.00  0.00    -0.386 OA
ATOM     33  H1  UNL     1       6.220 -10.016  32.955  1.00  0.00     0.211 HD
ENDBRANCH  20  32
ENDBRANCH  19  20
ENDBRANCH  18  19
ENDBRANCH   1  18
TORSDOF 7
ENDMDL
MODEL 4
REMARK VINA RESULT: -6.878473752      1.395      2.595
REMARK  7 active torsions:
REMARK  status: ('A' for Active; 'I' for Inactive)
REMARK    1  A    between atoms: C3_10  and  C4_11 
REMARK    2  A    between atoms: C4_11  and  C5_12 
REMARK    3  A    between atoms: C5_12  and  N4_13 
REMARK    4  A    between atoms: N4_13  and  C6_16 
REMARK    5  A    between atoms: C6_16  and  C7_17 
REMARK    6  A    between atoms: C7_17  and  C8_18 
REMARK    7  A    between atoms: C8_18  and  O1_19 
ROOT
HETATM    1  N4  UNL     1       8.658  -6.584  36.664  1.00  0.00    -0.075 N 
ATOM      2  H41 UNL     1       8.380  -7.296  37.338  1.00  0.00     0.277 HD
ATOM      3  H42 UNL     1       9.667  -6.611  36.811  1.00  0.00     0.277 HD
ENDROOT
BRANCH   1   4
HETATM    4  C5  UNL     1       8.111  -5.293  37.006  1.00  0.00     0.239 C 
BRANCH   4   5
HETATM    5  C4  UNL     1       6.950  -5.051  36.029  1.00  0.00     0.104 C 
BRANCH   5   6
HETATM    6  C3  UNL     1       5.705  -5.150  36.846  1.00  0.00     0.099 A 
HETATM    7  N3  UNL     1       5.798  -5.885  37.970  1.00  0.00    -0.341 N 
HETATM    8  C2  UNL     1       4.743  -6.042  38.782  1.00  0.00     0.199 A 
ATOM      9  H3  UNL     1       6.685  -6.329  38.208  1.00  0.00     0.167 HD
HETATM   10  N2  UNL     1       3.572  -5.449  38.455  1.00  0.00    -0.188 N 
HETATM   11  C1  UNL     1       3.507  -4.724  37.331  1.00  0.00     0.678 A 
ATOM     12  H2  UNL     1       2.753  -5.553  39.054  1.00  0.00     0.185 HD
HETATM   13  N1  UNL     1       2.395  -4.142  36.988  1.00  0.00    -0.234 N 
HETATM   14  N6  UNL     1       4.557  -4.565  36.522  1.00  0.00    -0.181 N 
ATOM     15  H12 UNL     1       1.593  -4.264  37.606  1.00  0.00     0.174 HD
ATOM     16  H11 UNL     1       2.345  -3.590  36.132  1.00  0.00     0.174 HD
ATOM     17  H6  UNL     1       4.479  -4.007  35.672  1.00  0.00     0.185 HD
ENDBRANCH   5   6
ENDBRANCH   4   5
ENDBRANCH   1   4
BRANCH   1  18
HETATM   18  C6  UNL     1       8.305  -6.979  35.290  1.00  0.00     0.235 C 
BRANCH  18  19
HETATM   19  C7  UNL     1       8.144  -8.426  35.205  1.00  0.00     0.069 C 
BRANCH  19  20
HETATM   20  C8  UNL     1       6.806  -9.017  35.614  1.00  0.00     0.078 C 
HETATM   21  C9  UNL     1       5.779  -8.385  34.836  1.00  0.00     0.042 C 
HETATM   22  C10 UNL     1       4.344  -8.300  35.421  1.00  0.00     0.003 C 
HETATM   23  C11 UNL     1       3.840  -9.620  35.121  1.00  0.00     0.000 C 
HETATM   24  C12 UNL     1       2.505 -10.201  35.251  1.00  0.00     0.000 C 
HETATM   25  C13 UNL     1       2.824 -11.671  34.825  1.00  0.00     0.005 C 
HETATM   26  C14 UNL     1       3.746 -12.374  35.747  1.00  0.00     0.044 C 
HETATM   27  C15 UNL     1       5.083 -12.813  35.319  1.00  0.00     0.060 C 
HETATM   28  N5  UNL     1       5.823 -12.272  34.301  1.00  0.00    -0.379 N 
HETATM   29  C16 UNL     1       6.844 -11.314  34.431  1.00  0.00     0.086 C 
ATOM     30  H5  UNL     1       5.613 -12.595  33.357  1.00  0.00     0.164 HD
HETATM   31  C17 UNL     1       7.007 -10.495  35.621  1.00  0.00     0.027 C 
BRANCH  20  32
HETATM   32  O1  UNL     1       6.670  -8.682  36.986  1.00  0.00    -0.386 OA
ATOM     33  H1  UNL     1       7.435  -9.061  37.403  1.00  0.00     0.211 HD
ENDBRANCH  20  32
ENDBRANCH  19  20
ENDBRANCH  18  19
ENDBRANCH   1  18
TORSDOF 7
ENDMDL
MODEL 5
REMARK VINA RESULT: -6.863788465      1.447      2.656
REMARK  7 active torsions:
REMARK  status: ('A' for Active; 'I' for Inactive)
REMARK    1  A    between atoms: C3_10  and  C4_11 
REMARK    2  A    between atoms: C4_11  and  C5_12 
REMARK    3  A    between atoms: C5_12  and  N4_13 
REMARK    4  A    between atoms: N4_13  and  C6_16 
REMARK    5  A    between atoms: C6_16  and  C7_17 
REMARK    6  A    between atoms: C7_17  and  C8_18 
REMARK    7  A    between atoms: C8_18  and  O1_19 
ROOT
HETATM    1  N4  UNL     1       8.401  -6.388  36.645  1.00  0.00    -0.075 N 
ATOM      2  H41 UNL     1       8.130  -6.730  37.566  1.00  0.00     0.277 HD
ATOM      3  H42 UNL     1       9.324  -6.022  36.876  1.00  0.00     0.277 HD
ENDROOT
BRANCH   1   4
HETATM    4  C5  UNL     1       7.517  -5.341  36.192  1.00  0.00     0.239 C 
BRANCH   4   5
HETATM    5  C4  UNL     1       6.913  -4.718  37.460  1.00  0.00     0.104 C 
BRANCH   5   6
HETATM    6  C3  UNL     1       5.439  -4.686  37.233  1.00  0.00     0.099 A 
HETATM    7  N3  UNL     1       4.673  -4.816  38.333  1.00  0.00    -0.341 N 
HETATM    8  C2  UNL     1       3.336  -4.801  38.249  1.00  0.00     0.199 A 
ATOM      9  H3  UNL     1       5.118  -4.928  39.244  1.00  0.00     0.167 HD
HETATM   10  N2  UNL     1       2.757  -4.653  37.035  1.00  0.00    -0.188 N 
HETATM   11  C1  UNL     1       3.542  -4.526  35.957  1.00  0.00     0.678 A 
ATOM     12  H2  UNL     1       1.741  -4.639  36.943  1.00  0.00     0.185 HD
HETATM   13  N1  UNL     1       3.017  -4.383  34.777  1.00  0.00    -0.234 N 
HETATM   14  N6  UNL     1       4.874  -4.540  36.039  1.00  0.00    -0.181 N 
ATOM     15  H12 UNL     1       1.998  -4.373  34.714  1.00  0.00     0.174 HD
ATOM     16  H11 UNL     1       3.614  -4.287  33.955  1.00  0.00     0.174 HD
ATOM     17  H6  UNL     1       5.448  -4.440  35.201  1.00  0.00     0.185 HD
ENDBRANCH   5   6
ENDBRANCH   4   5
ENDBRANCH   1   4
BRANCH   1  18
HETATM   18  C6  UNL     1       8.489  -7.487  35.669  1.00  0.00     0.235 C 
BRANCH  18  19
HETATM   19  C7  UNL     1       7.180  -7.748  35.081  1.00  0.00     0.069 C 
BRANCH  19  20
HETATM   20  C8  UNL     1       6.272  -8.745  35.782  1.00  0.00     0.078 C 
HETATM   21  C9  UNL     1       5.003  -8.114  36.009  1.00  0.00     0.042 C 
HETATM   22  C10 UNL     1       4.129  -8.600  37.195  1.00  0.00     0.003 C 
HETATM   23  C11 UNL     1       3.510  -9.774  36.625  1.00  0.00     0.000 C 
HETATM   24  C12 UNL     1       2.451 -10.650  37.123  1.00  0.00     0.000 C 
HETATM   25  C13 UNL     1       2.446 -11.718  35.980  1.00  0.00     0.005 C 
HETATM   26  C14 UNL     1       3.704 -12.493  35.879  1.00  0.00     0.044 C 
HETATM   27  C15 UNL     1       4.574 -12.406  34.697  1.00  0.00     0.060 C 
HETATM   28  N5  UNL     1       4.646 -11.352  33.823  1.00  0.00    -0.379 N 
HETATM   29  C16 UNL     1       5.594 -10.315  33.844  1.00  0.00     0.086 C 
ATOM     30  H5  UNL     1       3.943 -11.318  33.085  1.00  0.00     0.164 HD
HETATM   31  C17 UNL     1       6.406 -10.017  35.013  1.00  0.00     0.027 C 
BRANCH  20  32
HETATM   32  O1  UNL     1       6.921  -9.018  37.013  1.00  0.00    -0.386 OA
ATOM     33  H1  UNL     1       6.275  -9.487  37.527  1.00  0.00     0.211 HD
ENDBRANCH  20  32
ENDBRANCH  19  20
ENDBRANCH  18  19
ENDBRANCH   1  18
TORSDOF 7
ENDMDL
