MODEL 1
REMARK VINA RESULT: -7.232481203      0.000      0.000
REMARK  8 active torsions:
REMARK  status: ('A' for Active; 'I' for Inactive)
REMARK    1  A    between atoms: O1_1  and  C1_3 
REMARK    2  A    between atoms: C3_5  and  N1_6 
REMARK    3  A    between atoms: C9_12  and  O2_13 
REMARK    4  A    between atoms: N2_15  and  C10_16 
REMARK    5  A    between atoms: C10_16  and  C11_17 
REMARK    6  A    between atoms: C11_17  and  N3_18 
REMARK    7  A    between atoms: C14_21  and  O3_22 
REMARK    8  A    between atoms: C15_24  and  O4_25 
ROOT
HETATM    1  C1  UNL     1      -2.395   6.029   6.612  1.00  0.00     0.146 A 
HETATM    2  C2  UNL     1      -2.417   7.163   7.393  1.00  0.00     0.089 A 
HETATM    3  C3  UNL     1      -1.996   6.878   8.682  1.00  0.00     0.086 A 
HETATM    4  C9  UNL     1      -1.714   5.513   8.654  1.00  0.00     0.171 A 
HETATM    5  N2  UNL     1      -1.962   5.046   7.416  1.00  0.00    -0.305 N 
ENDROOT
BRANCH   5   6
HETATM    6  C10 UNL     1      -1.763   3.638   7.057  1.00  0.00     0.163 C 
BRANCH   6   7
HETATM    7  C11 UNL     1      -0.398   3.453   6.477  1.00  0.00     0.296 C 
BRANCH   7   8
HETATM    8  N3  UNL     1       0.489   2.882   7.440  1.00  0.00     0.121 N 
HETATM    9  C12 UNL     1      -0.032   1.796   8.197  1.00  0.00     0.278 C 
HETATM   10  C13 UNL     1       1.200   1.194   8.890  1.00  0.00     0.066 C 
HETATM   11  C14 UNL     1       2.377   1.855   8.212  1.00  0.00     0.178 C 
HETATM   12  C15 UNL     1       1.754   2.438   6.953  1.00  0.00     0.385 C 
BRANCH  11  13
HETATM   13  O3  UNL     1       3.312   0.881   7.867  1.00  0.00    -0.391 OA
ATOM     14  H3  UNL     1       4.177   1.273   7.844  1.00  0.00     0.210 HD
ENDBRANCH  11  13
BRANCH  12  15
HETATM   15  O4  UNL     1       2.546   3.496   6.471  1.00  0.00    -0.366 OA
ATOM     16  H4  UNL     1       3.331   3.627   6.989  1.00  0.00     0.212 HD
ENDBRANCH  12  15
ENDBRANCH   7   8
ENDBRANCH   6   7
ENDBRANCH   5   6
BRANCH   1  17
HETATM   17  O1  UNL     1      -2.732   5.857   5.276  1.00  0.00    -0.346 OA
ATOM     18  H1  UNL     1      -2.194   5.924   4.496  1.00  0.00     0.219 HD
ENDBRANCH   1  17
BRANCH   4  19
HETATM   19  O2  UNL     1      -1.255   4.782   9.742  1.00  0.00    -0.344 OA
ATOM     20  H2  UNL     1      -1.737   4.078  10.160  1.00  0.00     0.219 HD
ENDBRANCH   4  19
BRANCH   3  21
HETATM   21  N1  UNL     1      -1.876   7.772   9.792  1.00  0.00    -0.377 N 
HETATM   22  C4  UNL     1      -0.595   7.912  10.410  1.00  0.00     0.123 C 
HETATM   23  C5  UNL     1      -0.454   9.140  11.265  1.00  0.00     0.020 C 
HETATM   24  C6  UNL     1      -1.436  10.181  10.753  1.00  0.00     0.003 C 
HETATM   25  C7  UNL     1      -2.827   9.635  11.085  1.00  0.00     0.020 C 
HETATM   26  C8  UNL     1      -3.077   8.465  10.197  1.00  0.00     0.123 C 
ENDBRANCH   3  21
TORSDOF 8
ENDMDL
MODEL 2
REMARK VINA RESULT: -7.056225621      1.416      1.778
REMARK  8 active torsions:
REMARK  status: ('A' for Active; 'I' for Inactive)
REMARK    1  A    between atoms: O1_1  and  C1_3 
REMARK    2  A    between atoms: C3_5  and  N1_6 
REMARK    3  A    between atoms: C9_12  and  O2_13 
REMARK    4  A    between atoms: N2_15  and  C10_16 
REMARK    5  A    between atoms: C10_16  and  C11_17 
REMARK    6  A    between atoms: C11_17  and  N3_18 
REMARK    7  A    between atoms: C14_21  and  O3_22 
REMARK    8  A    between atoms: C15_24  and  O4_25 
ROOT
HETATM    1  C1  UNL     1      -2.454   6.317   6.098  1.00  0.00     0.146 A 
HETATM    2  C2  UNL     1      -2.741   7.325   6.990  1.00  0.00     0.089 A 
HETATM    3  C3  UNL     1      -1.811   7.350   8.016  1.00  0.00     0.086 A 
HETATM    4  C9  UNL     1      -0.937   6.308   7.711  1.00  0.00     0.171 A 
HETATM    5  N2  UNL     1      -1.349   5.720   6.571  1.00  0.00    -0.305 N 
ENDROOT
BRANCH   5   6
HETATM    6  C10 UNL     1      -0.639   4.582   5.978  1.00  0.00     0.163 C 
BRANCH   6   7
HETATM    7  C11 UNL     1      -0.942   3.340   6.752  1.00  0.00     0.296 C 
BRANCH   7   8
HETATM    8  N3  UNL     1       0.251   2.596   7.004  1.00  0.00     0.121 N 
HETATM    9  C12 UNL     1       1.444   3.361   7.130  1.00  0.00     0.278 C 
HETATM   10  C13 UNL     1       2.468   2.370   7.704  1.00  0.00     0.066 C 
HETATM   11  C14 UNL     1       1.645   1.173   8.120  1.00  0.00     0.178 C 
HETATM   12  C15 UNL     1       0.230   1.729   8.137  1.00  0.00     0.385 C 
BRANCH  11  13
HETATM   13  O3  UNL     1       2.016   0.789   9.407  1.00  0.00    -0.391 OA
ATOM     14  H3  UNL     1       1.262   0.854   9.981  1.00  0.00     0.210 HD
ENDBRANCH  11  13
BRANCH  12  15
HETATM   15  O4  UNL     1      -0.699   0.682   7.996  1.00  0.00    -0.366 OA
ATOM     16  H4  UNL     1      -0.993   0.577   7.099  1.00  0.00     0.212 HD
ENDBRANCH  12  15
ENDBRANCH   7   8
ENDBRANCH   6   7
ENDBRANCH   5   6
BRANCH   1  17
HETATM   17  O1  UNL     1      -3.113   5.935   4.937  1.00  0.00    -0.346 OA
ATOM     18  H1  UNL     1      -3.550   5.120   4.721  1.00  0.00     0.219 HD
ENDBRANCH   1  17
BRANCH   4  19
HETATM   19  O2  UNL     1       0.167   5.956   8.476  1.00  0.00    -0.344 OA
ATOM     20  H2  UNL     1       0.464   6.430   9.244  1.00  0.00     0.219 HD
ENDBRANCH   4  19
BRANCH   3  21
HETATM   21  N1  UNL     1      -1.752   8.239   9.137  1.00  0.00    -0.377 N 
HETATM   22  C4  UNL     1      -1.228   9.551   8.930  1.00  0.00     0.123 C 
HETATM   23  C5  UNL     1      -1.577  10.532  10.014  1.00  0.00     0.020 C 
HETATM   24  C6  UNL     1      -2.863  10.062  10.673  1.00  0.00     0.003 C 
HETATM   25  C7  UNL     1      -2.498   8.775  11.417  1.00  0.00     0.020 C 
HETATM   26  C8  UNL     1      -2.234   7.722  10.397  1.00  0.00     0.123 C 
ENDBRANCH   3  21
TORSDOF 8
ENDMDL
MODEL 3
REMARK VINA RESULT: -7.028277344      7.663      8.823
REMARK  8 active torsions:
REMARK  status: ('A' for Active; 'I' for Inactive)
REMARK    1  A    between atoms: O1_1  and  C1_3 
REMARK    2  A    between atoms: C3_5  and  N1_6 
REMARK    3  A    between atoms: C9_12  and  O2_13 
REMARK    4  A    between atoms: N2_15  and  C10_16 
REMARK    5  A    between atoms: C10_16  and  C11_17 
REMARK    6  A    between atoms: C11_17  and  N3_18 
REMARK    7  A    between atoms: C14_21  and  O3_22 
REMARK    8  A    between atoms: C15_24  and  O4_25 
ROOT
HETATM    1  C1  UNL     1       2.618   8.587  13.601  1.00  0.00     0.146 A 
HETATM    2  C2  UNL     1       1.676   9.571  13.400  1.00  0.00     0.089 A 
HETATM    3  C3  UNL     1       1.032   9.882  14.586  1.00  0.00     0.086 A 
HETATM    4  C9  UNL     1       1.626   9.042  15.527  1.00  0.00     0.171 A 
HETATM    5  N2  UNL     1       2.557   8.291  14.908  1.00  0.00    -0.305 N 
ENDROOT
BRANCH   5   6
HETATM    6  C10 UNL     1       3.365   7.300  15.626  1.00  0.00     0.163 C 
BRANCH   6   7
HETATM    7  C11 UNL     1       4.815   7.534  15.347  1.00  0.00     0.296 C 
BRANCH   7   8
HETATM    8  N3  UNL     1       5.632   6.777  16.242  1.00  0.00     0.121 N 
HETATM    9  C12 UNL     1       5.060   6.493  17.513  1.00  0.00     0.278 C 
HETATM   10  C13 UNL     1       5.991   5.429  18.115  1.00  0.00     0.066 C 
HETATM   11  C14 UNL     1       6.871   5.001  16.965  1.00  0.00     0.178 C 
HETATM   12  C15 UNL     1       6.119   5.528  15.753  1.00  0.00     0.385 C 
BRANCH  11  13
HETATM   13  O3  UNL     1       6.919   3.609  16.920  1.00  0.00    -0.391 OA
ATOM     14  H3  UNL     1       7.655   3.305  17.438  1.00  0.00     0.210 HD
ENDBRANCH  11  13
BRANCH  12  15
HETATM   15  O4  UNL     1       7.002   5.683  14.669  1.00  0.00    -0.366 OA
ATOM     16  H4  UNL     1       7.896   5.835  14.949  1.00  0.00     0.212 HD
ENDBRANCH  12  15
ENDBRANCH   7   8
ENDBRANCH   6   7
ENDBRANCH   5   6
BRANCH   1  17
HETATM   17  O1  UNL     1       3.483   7.981  12.700  1.00  0.00    -0.346 OA
ATOM     18  H1  UNL     1       3.311   7.332  12.028  1.00  0.00     0.219 HD
ENDBRANCH   1  17
BRANCH   4  19
HETATM   19  O2  UNL     1       1.289   9.005  16.874  1.00  0.00    -0.344 OA
ATOM     20  H2  UNL     1       1.809   9.391  17.570  1.00  0.00     0.219 HD
ENDBRANCH   4  19
BRANCH   3  21
HETATM   21  N1  UNL     1      -0.005  10.844  14.806  1.00  0.00    -0.377 N 
HETATM   22  C4  UNL     1       0.303  12.225  14.610  1.00  0.00     0.123 C 
HETATM   23  C5  UNL     1      -0.901  13.109  14.452  1.00  0.00     0.020 C 
HETATM   24  C6  UNL     1      -2.042  12.255  13.924  1.00  0.00     0.003 C 
HETATM   25  C7  UNL     1      -2.407  11.302  15.065  1.00  0.00     0.020 C 
HETATM   26  C8  UNL     1      -1.291  10.326  15.213  1.00  0.00     0.123 C 
ENDBRANCH   3  21
TORSDOF 8
ENDMDL
MODEL 4
REMARK VINA RESULT: -7.002173372      2.859      6.501
REMARK  8 active torsions:
REMARK  status: ('A' for Active; 'I' for Inactive)
REMARK    1  A    between atoms: O1_1  and  C1_3 
REMARK    2  A    between atoms: C3_5  and  N1_6 
REMARK    3  A    between atoms: C9_12  and  O2_13 
REMARK    4  A    between atoms: N2_15  and  C10_16 
REMARK    5  A    between atoms: C10_16  and  C11_17 
REMARK    6  A    between atoms: C11_17  and  N3_18 
REMARK    7  A    between atoms: C14_21  and  O3_22 
REMARK    8  A    between atoms: C15_24  and  O4_25 
ROOT
HETATM    1  C1  UNL     1       2.468   5.535   5.171  1.00  0.00     0.146 A 
HETATM    2  C2  UNL     1       2.308   4.184   5.382  1.00  0.00     0.089 A 
HETATM    3  C3  UNL     1       1.829   3.940   6.658  1.00  0.00     0.086 A 
HETATM    4  C9  UNL     1       1.702   5.209   7.222  1.00  0.00     0.171 A 
HETATM    5  N2  UNL     1       2.089   6.125   6.315  1.00  0.00    -0.305 N 
ENDROOT
BRANCH   5   6
HETATM    6  C10 UNL     1       2.074   7.563   6.601  1.00  0.00     0.163 C 
BRANCH   6   7
HETATM    7  C11 UNL     1       0.877   8.192   5.963  1.00  0.00     0.296 C 
BRANCH   7   8
HETATM    8  N3  UNL     1      -0.266   7.343   6.082  1.00  0.00     0.121 N 
HETATM    9  C12 UNL     1      -1.184   7.682   7.115  1.00  0.00     0.278 C 
HETATM   10  C13 UNL     1      -2.426   6.833   6.807  1.00  0.00     0.066 C 
HETATM   11  C14 UNL     1      -2.178   6.286   5.422  1.00  0.00     0.178 C 
HETATM   12  C15 UNL     1      -1.056   7.174   4.907  1.00  0.00     0.385 C 
BRANCH  11  13
HETATM   13  O3  UNL     1      -3.321   6.473   4.645  1.00  0.00    -0.391 OA
ATOM     14  H3  UNL     1      -3.124   6.251   3.742  1.00  0.00     0.210 HD
ENDBRANCH  11  13
BRANCH  12  15
HETATM   15  O4  UNL     1      -0.356   6.516   3.880  1.00  0.00    -0.366 OA
ATOM     16  H4  UNL     1      -0.857   6.466   3.074  1.00  0.00     0.212 HD
ENDBRANCH  12  15
ENDBRANCH   7   8
ENDBRANCH   6   7
ENDBRANCH   5   6
BRANCH   1  17
HETATM   17  O1  UNL     1       2.918   6.218   4.049  1.00  0.00    -0.346 OA
ATOM     18  H1  UNL     1       3.675   6.779   3.937  1.00  0.00     0.219 HD
ENDBRANCH   1  17
BRANCH   4  19
HETATM   19  O2  UNL     1       1.249   5.456   8.512  1.00  0.00    -0.344 OA
ATOM     20  H2  UNL     1       1.809   5.521   9.276  1.00  0.00     0.219 HD
ENDBRANCH   4  19
BRANCH   3  21
HETATM   21  N1  UNL     1       1.530   2.680   7.267  1.00  0.00    -0.377 N 
HETATM   22  C4  UNL     1       2.620   1.857   7.684  1.00  0.00     0.123 C 
HETATM   23  C5  UNL     1       2.242   0.781   8.663  1.00  0.00     0.020 C 
HETATM   24  C6  UNL     1       0.996   1.240   9.403  1.00  0.00     0.003 C 
HETATM   25  C7  UNL     1      -0.128   1.233   8.364  1.00  0.00     0.020 C 
HETATM   26  C8  UNL     1       0.131   2.347   7.409  1.00  0.00     0.123 C 
ENDBRANCH   3  21
TORSDOF 8
ENDMDL
MODEL 5
REMARK VINA RESULT: -6.850929352      7.981     10.866
REMARK  8 active torsions:
REMARK  status: ('A' for Active; 'I' for Inactive)
REMARK    1  A    between atoms: O1_1  and  C1_3 
REMARK    2  A    between atoms: C3_5  and  N1_6 
REMARK    3  A    between atoms: C9_12  and  O2_13 
REMARK    4  A    between atoms: N2_15  and  C10_16 
REMARK    5  A    between atoms: C10_16  and  C11_17 
REMARK    6  A    between atoms: C11_17  and  N3_18 
REMARK    7  A    between atoms: C14_21  and  O3_22 
REMARK    8  A    between atoms: C15_24  and  O4_25 
ROOT
HETATM    1  C1  UNL     1       0.868   9.124  16.257  1.00  0.00     0.146 A 
HETATM    2  C2  UNL     1       1.713   8.040  16.188  1.00  0.00     0.089 A 
HETATM    3  C3  UNL     1       2.662   8.222  15.195  1.00  0.00     0.086 A 
HETATM    4  C9  UNL     1       2.358   9.472  14.658  1.00  0.00     0.171 A 
HETATM    5  N2  UNL     1       1.293   9.974  15.310  1.00  0.00    -0.305 N 
ENDROOT
BRANCH   5   6
HETATM    6  C10 UNL     1       0.721  11.284  14.980  1.00  0.00     0.163 C 
BRANCH   6   7
HETATM    7  C11 UNL     1      -0.477  11.104  14.104  1.00  0.00     0.296 C 
BRANCH   7   8
HETATM    8  N3  UNL     1      -1.502  12.037  14.449  1.00  0.00     0.121 N 
HETATM    9  C12 UNL     1      -1.857  12.971  13.437  1.00  0.00     0.278 C 
HETATM   10  C13 UNL     1      -3.158  13.607  13.950  1.00  0.00     0.066 C 
HETATM   11  C14 UNL     1      -3.572  12.737  15.114  1.00  0.00     0.178 C 
HETATM   12  C15 UNL     1      -2.734  11.484  14.909  1.00  0.00     0.385 C 
BRANCH  11  13
HETATM   13  O3  UNL     1      -4.924  12.424  14.992  1.00  0.00    -0.391 OA
ATOM     14  H3  UNL     1      -5.287  12.266  15.856  1.00  0.00     0.210 HD
ENDBRANCH  11  13
BRANCH  12  15
HETATM   15  O4  UNL     1      -2.593  10.797  16.128  1.00  0.00    -0.366 OA
ATOM     16  H4  UNL     1      -1.694  10.782  16.434  1.00  0.00     0.212 HD
ENDBRANCH  12  15
ENDBRANCH   7   8
ENDBRANCH   6   7
ENDBRANCH   5   6
BRANCH   1  17
HETATM   17  O1  UNL     1      -0.212   9.364  17.097  1.00  0.00    -0.346 OA
ATOM     18  H1  UNL     1      -1.074   9.711  16.900  1.00  0.00     0.219 HD
ENDBRANCH   1  17
BRANCH   4  19
HETATM   19  O2  UNL     1       3.057  10.074  13.619  1.00  0.00    -0.344 OA
ATOM     20  H2  UNL     1       3.953  10.384  13.681  1.00  0.00     0.219 HD
ENDBRANCH   4  19
BRANCH   3  21
HETATM   21  N1  UNL     1       3.716   7.336  14.803  1.00  0.00    -0.377 N 
HETATM   22  C4  UNL     1       4.066   7.275  13.420  1.00  0.00     0.123 C 
HETATM   23  C5  UNL     1       5.413   6.664  13.151  1.00  0.00     0.020 C 
HETATM   24  C6  UNL     1       6.270   6.858  14.392  1.00  0.00     0.003 C 
HETATM   25  C7  UNL     1       5.646   5.966  15.468  1.00  0.00     0.020 C 
HETATM   26  C8  UNL     1       4.341   6.570  15.857  1.00  0.00     0.123 C 
ENDBRANCH   3  21
TORSDOF 8
ENDMDL
