MODEL 1
REMARK VINA RESULT: -5.268143255      0.000      0.000
REMARK  11 active torsions:
REMARK  status: ('A' for Active; 'I' for Inactive)
REMARK    1  A    between atoms: C2_2  and  C5_5 
REMARK    2  A    between atoms: C8_8  and  C9_9 
REMARK    3  A    between atoms: C9_9  and  C10_10 
REMARK    4  A    between atoms: C10_10  and  N1_11 
REMARK    5  A    between atoms: C10_10  and  C16_38 
REMARK    6  A    between atoms: C12_16  and  N3_17 
REMARK    7  A    between atoms: C13_22  and  N5_23 
REMARK       I    between atoms: N5_23  and  C14_25 
REMARK    8  A    between atoms: C14_25  and  C15_27 
REMARK    9  A    between atoms: C15_27  and  N6_28 
REMARK   10  A    between atoms: C15_27  and  N7_32 
REMARK       I    between atoms: C16_38  and  N9_40 
REMARK   11  A    between atoms: N9_40  and  N10_42 
ROOT
HETATM    1  N1  UNL     1      -1.976  53.408  29.188  1.00  0.00    -0.208 N 
ATOM      2  H1  UNL     1      -2.106  53.181  30.173  1.00  0.00     0.179 HD
HETATM    3  C11 UNL     1      -1.540  54.533  29.065  1.00  0.00     0.708 A 
HETATM    4  N2  UNL     1      -1.331  55.237  30.227  1.00  0.00    -0.022 N 
ATOM      5  H2  UNL     1      -1.528  54.781  31.118  1.00  0.00     0.203 HD
HETATM    6  C12 UNL     1      -0.882  56.488  30.239  1.00  0.00     0.705 A 
HETATM    7  N4  UNL     1      -0.616  57.101  29.049  1.00  0.00    -0.021 N 
ATOM      8  H4  UNL     1      -0.272  58.061  29.045  1.00  0.00     0.203 HD
HETATM    9  C13 UNL     1      -0.800  56.458  27.877  1.00  0.00     0.714 A 
HETATM   10  N8  UNL     1      -1.265  55.174  27.934  1.00  0.00    -0.021 N 
ATOM     11  H8  UNL     1      -1.411  54.678  27.055  1.00  0.00     0.203 HD
ENDROOT
BRANCH   1  12
HETATM   12  C10 UNL     1      -2.367  52.290  28.350  1.00  0.00     0.218 C 
BRANCH  12  13
HETATM   13  C9  UNL     1      -3.740  52.475  27.898  1.00  0.00     0.038 C 
BRANCH  13  14
HETATM   14  C8  UNL     1      -4.282  52.017  26.639  1.00  0.00     0.030 A 
HETATM   15  C7  UNL     1      -5.224  52.602  25.863  1.00  0.00     0.030 A 
HETATM   16  C6  UNL     1      -5.659  52.043  24.645  1.00  0.00     0.011 A 
HETATM   17  C5  UNL     1      -5.127  50.852  24.203  1.00  0.00    -0.035 A 
HETATM   18  C17 UNL     1      -4.174  50.277  25.007  1.00  0.00     0.096 A 
HETATM   19  N11 UNL     1      -3.776  50.819  26.146  1.00  0.00    -0.366 N 
ATOM     20  H11 UNL     1      -3.063  50.333  26.690  1.00  0.00     0.165 HD
BRANCH  17  21
HETATM   21  C2  UNL     1      -5.489  50.150  22.964  1.00  0.00    -0.023 C 
HETATM   22  C1  UNL     1      -4.974  48.688  22.995  1.00  0.00     0.019 C 
HETATM   23  C3  UNL     1      -4.880  50.761  21.724  1.00  0.00     0.019 C 
HETATM   24  C4  UNL     1      -6.974  50.035  22.721  1.00  0.00     0.019 C 
ENDBRANCH  17  21
ENDBRANCH  13  14
ENDBRANCH  12  13
BRANCH  12  25
HETATM   25  C16 UNL     1      -2.267  51.096  29.288  1.00  0.00     0.262 C 
HETATM   26  O2  UNL     1      -2.029  49.939  28.940  1.00  0.00    -0.269 OA
HETATM   27  N9  UNL     1      -2.452  51.299  30.686  1.00  0.00    -0.275 N 
ATOM     28  H9  UNL     1      -2.655  52.237  31.031  1.00  0.00     0.189 HD
BRANCH  27  29
HETATM   29  N10 UNL     1      -2.363  50.239  31.600  1.00  0.00    -0.343 N 
ATOM     30 2H10 UNL     1      -3.069  49.505  31.557  1.00  0.00     0.176 HD
ATOM     31 1H10 UNL     1      -1.616  50.194  32.294  1.00  0.00     0.176 HD
ENDBRANCH  27  29
ENDBRANCH  12  25
ENDBRANCH   1  12
BRANCH   6  32
HETATM   32  N3  UNL     1      -0.671  57.161  31.329  1.00  0.00    -0.234 N 
ATOM     33  H32 UNL     1      -1.481  57.420  31.892  1.00  0.00     0.174 HD
ATOM     34  H31 UNL     1       0.257  57.447  31.641  1.00  0.00     0.174 HD
ENDBRANCH   6  32
BRANCH   9  35
HETATM   35  N5  UNL     1      -0.559  57.027  26.756  1.00  0.00    -0.155 N 
HETATM   36  C14 UNL     1      -1.565  57.607  25.959  1.00  0.00     0.294 C 
HETATM   37  O1  UNL     1      -1.930  57.045  24.896  1.00  0.00    -0.268 OA
ATOM     38  H5  UNL     1       0.405  57.061  26.425  1.00  0.00     0.187 HD
BRANCH  36  39
HETATM   39  C15 UNL     1      -2.243  58.881  26.308  1.00  0.00     0.469 C 
BRANCH  39  40
HETATM   40  N6  UNL     1      -1.260  59.948  26.544  1.00  0.00    -0.042 N 
ATOM     41  H63 UNL     1      -0.583  59.686  27.261  1.00  0.00     0.277 HD
ATOM     42  H62 UNL     1      -0.618  60.052  25.757  1.00  0.00     0.277 HD
ATOM     43  H61 UNL     1      -1.726  60.827  26.769  1.00  0.00     0.277 HD
ENDBRANCH  39  40
BRANCH  39  44
HETATM   44  N7  UNL     1      -3.096  59.355  25.235  1.00  0.00    -0.042 N 
ATOM     45  H73 UNL     1      -2.555  59.558  24.395  1.00  0.00     0.277 HD
ATOM     46  H72 UNL     1      -3.684  58.605  24.872  1.00  0.00     0.277 HD
ATOM     47  H71 UNL     1      -3.656  60.159  25.518  1.00  0.00     0.277 HD
ENDBRANCH  39  44
ENDBRANCH  36  39
ENDBRANCH   9  35
TORSDOF 11
ENDMDL
MODEL 2
REMARK VINA RESULT: -5.110799363      3.285      8.589
REMARK  11 active torsions:
REMARK  status: ('A' for Active; 'I' for Inactive)
REMARK    1  A    between atoms: C2_2  and  C5_5 
REMARK    2  A    between atoms: C8_8  and  C9_9 
REMARK    3  A    between atoms: C9_9  and  C10_10 
REMARK    4  A    between atoms: C10_10  and  N1_11 
REMARK    5  A    between atoms: C10_10  and  C16_38 
REMARK    6  A    between atoms: C12_16  and  N3_17 
REMARK    7  A    between atoms: C13_22  and  N5_23 
REMARK       I    between atoms: N5_23  and  C14_25 
REMARK    8  A    between atoms: C14_25  and  C15_27 
REMARK    9  A    between atoms: C15_27  and  N6_28 
REMARK   10  A    between atoms: C15_27  and  N7_32 
REMARK       I    between atoms: C16_38  and  N9_40 
REMARK   11  A    between atoms: N9_40  and  N10_42 
ROOT
HETATM    1  N1  UNL     1      -1.632  56.485  28.081  1.00  0.00    -0.208 N 
ATOM      2  H1  UNL     1      -1.982  57.360  28.470  1.00  0.00     0.179 HD
HETATM    3  C11 UNL     1      -2.096  55.538  28.680  1.00  0.00     0.708 A 
HETATM    4  N2  UNL     1      -2.950  55.830  29.717  1.00  0.00    -0.022 N 
ATOM      5  H2  UNL     1      -3.164  56.808  29.913  1.00  0.00     0.203 HD
HETATM    6  C12 UNL     1      -3.509  54.892  30.473  1.00  0.00     0.705 A 
HETATM    7  N4  UNL     1      -3.226  53.582  30.212  1.00  0.00    -0.021 N 
ATOM      8  H4  UNL     1      -3.648  52.854  30.787  1.00  0.00     0.203 HD
HETATM    9  C13 UNL     1      -2.397  53.236  29.206  1.00  0.00     0.714 A 
HETATM   10  N8  UNL     1      -1.853  54.248  28.466  1.00  0.00    -0.021 N 
ATOM     11  H8  UNL     1      -1.223  54.000  27.704  1.00  0.00     0.203 HD
ENDROOT
BRANCH   1  12
HETATM   12  C10 UNL     1      -0.728  56.742  26.975  1.00  0.00     0.218 C 
BRANCH  12  13
HETATM   13  C9  UNL     1       0.326  57.651  27.408  1.00  0.00     0.038 C 
BRANCH  13  14
HETATM   14  C8  UNL     1       1.635  57.260  27.880  1.00  0.00     0.030 A 
HETATM   15  C7  UNL     1       2.727  58.034  28.076  1.00  0.00     0.030 A 
HETATM   16  C6  UNL     1       3.949  57.517  28.551  1.00  0.00     0.011 A 
HETATM   17  C5  UNL     1       4.068  56.174  28.830  1.00  0.00    -0.035 A 
HETATM   18  C17 UNL     1       2.947  55.409  28.624  1.00  0.00     0.096 A 
HETATM   19  N11 UNL     1       1.808  55.913  28.180  1.00  0.00    -0.366 N 
ATOM     20  H11 UNL     1       1.017  55.282  28.051  1.00  0.00     0.165 HD
BRANCH  17  21
HETATM   21  C2  UNL     1       5.277  55.496  29.320  1.00  0.00    -0.023 C 
HETATM   22  C1  UNL     1       6.525  55.971  28.535  1.00  0.00     0.019 C 
HETATM   23  C3  UNL     1       5.240  53.996  29.143  1.00  0.00     0.019 C 
HETATM   24  C4  UNL     1       5.602  55.766  30.769  1.00  0.00     0.019 C 
ENDBRANCH  17  21
ENDBRANCH  13  14
ENDBRANCH  12  13
BRANCH  12  25
HETATM   25  C16 UNL     1      -1.620  57.411  25.940  1.00  0.00     0.262 C 
HETATM   26  O2  UNL     1      -1.956  56.913  24.865  1.00  0.00    -0.269 OA
HETATM   27  N9  UNL     1      -2.130  58.715  26.206  1.00  0.00    -0.275 N 
ATOM     28  H9  UNL     1      -1.882  59.177  27.081  1.00  0.00     0.189 HD
BRANCH  27  29
HETATM   29  N10 UNL     1      -2.964  59.378  25.295  1.00  0.00    -0.343 N 
ATOM     30 2H10 UNL     1      -2.902  59.120  24.310  1.00  0.00     0.176 HD
ATOM     31 1H10 UNL     1      -3.619  60.099  25.597  1.00  0.00     0.176 HD
ENDBRANCH  27  29
ENDBRANCH  12  25
ENDBRANCH   1  12
BRANCH   6  32
HETATM   32  N3  UNL     1      -4.325  55.153  31.449  1.00  0.00    -0.234 N 
ATOM     33  H32 UNL     1      -3.923  55.433  32.344  1.00  0.00     0.174 HD
ATOM     34  H31 UNL     1      -5.339  55.085  31.366  1.00  0.00     0.174 HD
ENDBRANCH   6  32
BRANCH   9  35
HETATM   35  N5  UNL     1      -2.120  52.011  28.957  1.00  0.00    -0.155 N 
HETATM   36  C14 UNL     1      -2.785  51.261  27.968  1.00  0.00     0.294 C 
HETATM   37  O1  UNL     1      -3.606  50.369  28.298  1.00  0.00    -0.268 OA
ATOM     38  H5  UNL     1      -1.386  51.558  29.500  1.00  0.00     0.187 HD
BRANCH  36  39
HETATM   39  C15 UNL     1      -2.571  51.466  26.513  1.00  0.00     0.469 C 
BRANCH  39  40
HETATM   40  N6  UNL     1      -2.593  50.182  25.796  1.00  0.00    -0.042 N 
ATOM     41  H63 UNL     1      -2.530  49.391  26.436  1.00  0.00     0.277 HD
ATOM     42  H62 UNL     1      -3.513  49.987  25.400  1.00  0.00     0.277 HD
ATOM     43  H61 UNL     1      -1.862  50.152  25.085  1.00  0.00     0.277 HD
ENDBRANCH  39  40
BRANCH  39  44
HETATM   44  N7  UNL     1      -3.616  52.275  25.917  1.00  0.00    -0.042 N 
ATOM     45  H73 UNL     1      -4.194  51.723  25.283  1.00  0.00     0.277 HD
ATOM     46  H72 UNL     1      -4.326  52.526  26.605  1.00  0.00     0.277 HD
ATOM     47  H71 UNL     1      -3.243  53.102  25.452  1.00  0.00     0.277 HD
ENDBRANCH  39  44
ENDBRANCH  36  39
ENDBRANCH   9  35
TORSDOF 11
ENDMDL
MODEL 3
REMARK VINA RESULT: -5.074588938      1.533      2.093
REMARK  11 active torsions:
REMARK  status: ('A' for Active; 'I' for Inactive)
REMARK    1  A    between atoms: C2_2  and  C5_5 
REMARK    2  A    between atoms: C8_8  and  C9_9 
REMARK    3  A    between atoms: C9_9  and  C10_10 
REMARK    4  A    between atoms: C10_10  and  N1_11 
REMARK    5  A    between atoms: C10_10  and  C16_38 
REMARK    6  A    between atoms: C12_16  and  N3_17 
REMARK    7  A    between atoms: C13_22  and  N5_23 
REMARK       I    between atoms: N5_23  and  C14_25 
REMARK    8  A    between atoms: C14_25  and  C15_27 
REMARK    9  A    between atoms: C15_27  and  N6_28 
REMARK   10  A    between atoms: C15_27  and  N7_32 
REMARK       I    between atoms: C16_38  and  N9_40 
REMARK   11  A    between atoms: N9_40  and  N10_42 
ROOT
HETATM    1  N1  UNL     1      -0.912  53.849  29.591  1.00  0.00    -0.208 N 
ATOM      2  H1  UNL     1      -0.707  53.730  30.582  1.00  0.00     0.179 HD
HETATM    3  C11 UNL     1      -0.476  54.906  29.189  1.00  0.00     0.708 A 
HETATM    4  N2  UNL     1       0.169  55.692  30.114  1.00  0.00    -0.022 N 
ATOM      5  H2  UNL     1       0.264  55.345  31.069  1.00  0.00     0.203 HD
HETATM    6  C12 UNL     1       0.673  56.885  29.817  1.00  0.00     0.705 A 
HETATM    7  N4  UNL     1       0.548  57.351  28.541  1.00  0.00    -0.021 N 
ATOM      8  H4  UNL     1       0.930  58.266  28.302  1.00  0.00     0.203 HD
HETATM    9  C13 UNL     1      -0.072  56.623  27.590  1.00  0.00     0.714 A 
HETATM   10  N8  UNL     1      -0.570  55.405  27.960  1.00  0.00    -0.021 N 
ATOM     11  H8  UNL     1      -1.043  54.845  27.251  1.00  0.00     0.203 HD
ENDROOT
BRANCH   1  12
HETATM   12  C10 UNL     1      -1.640  52.702  29.080  1.00  0.00     0.218 C 
BRANCH  12  13
HETATM   13  C9  UNL     1      -3.065  53.007  29.039  1.00  0.00     0.038 C 
BRANCH  13  14
HETATM   14  C8  UNL     1      -3.943  52.785  27.914  1.00  0.00     0.030 A 
HETATM   15  C7  UNL     1      -3.674  52.918  26.594  1.00  0.00     0.030 A 
HETATM   16  C6  UNL     1      -4.632  52.661  25.594  1.00  0.00     0.011 A 
HETATM   17  C5  UNL     1      -5.903  52.261  25.942  1.00  0.00    -0.035 A 
HETATM   18  C17 UNL     1      -6.153  52.133  27.285  1.00  0.00     0.096 A 
HETATM   19  N11 UNL     1      -5.239  52.376  28.210  1.00  0.00    -0.366 N 
ATOM     20  H11 UNL     1      -5.499  52.259  29.190  1.00  0.00     0.165 HD
BRANCH  17  21
HETATM   21  C2  UNL     1      -7.003  51.968  25.012  1.00  0.00    -0.023 C 
HETATM   22  C1  UNL     1      -7.798  53.257  24.683  1.00  0.00     0.019 C 
HETATM   23  C3  UNL     1      -8.021  51.001  25.568  1.00  0.00     0.019 C 
HETATM   24  C4  UNL     1      -6.562  51.430  23.672  1.00  0.00     0.019 C 
ENDBRANCH  17  21
ENDBRANCH  13  14
ENDBRANCH  12  13
BRANCH  12  25
HETATM   25  C16 UNL     1      -1.353  51.617  30.108  1.00  0.00     0.262 C 
HETATM   26  O2  UNL     1      -0.962  50.479  29.847  1.00  0.00    -0.269 OA
HETATM   27  N9  UNL     1      -1.535  51.910  31.491  1.00  0.00    -0.275 N 
ATOM     28  H9  UNL     1      -1.861  52.837  31.765  1.00  0.00     0.189 HD
BRANCH  27  29
HETATM   29  N10 UNL     1      -1.278  50.955  32.484  1.00  0.00    -0.343 N 
ATOM     30 2H10 UNL     1      -0.308  50.704  32.671  1.00  0.00     0.176 HD
ATOM     31 1H10 UNL     1      -2.033  50.516  33.011  1.00  0.00     0.176 HD
ENDBRANCH  27  29
ENDBRANCH  12  25
ENDBRANCH   1  12
BRANCH   6  32
HETATM   32  N3  UNL     1       1.292  57.633  30.679  1.00  0.00    -0.234 N 
ATOM     33  H32 UNL     1       1.145  57.440  31.670  1.00  0.00     0.174 HD
ATOM     34  H31 UNL     1       1.906  58.403  30.414  1.00  0.00     0.174 HD
ENDBRANCH   6  32
BRANCH   9  35
HETATM   35  N5  UNL     1      -0.200  57.054  26.392  1.00  0.00    -0.155 N 
HETATM   36  C14 UNL     1      -1.421  57.528  25.873  1.00  0.00     0.294 C 
HETATM   37  O1  UNL     1      -2.061  56.839  25.039  1.00  0.00    -0.268 OA
ATOM     38  H5  UNL     1       0.620  57.055  25.785  1.00  0.00     0.187 HD
BRANCH  36  39
HETATM   39  C15 UNL     1      -2.018  58.830  26.264  1.00  0.00     0.469 C 
BRANCH  39  40
HETATM   40  N6  UNL     1      -0.991  59.881  26.313  1.00  0.00    -0.042 N 
ATOM     41  H63 UNL     1      -0.874  60.251  27.257  1.00  0.00     0.277 HD
ATOM     42  H62 UNL     1      -0.054  59.500  26.179  1.00  0.00     0.277 HD
ATOM     43  H61 UNL     1      -1.198  60.620  25.642  1.00  0.00     0.277 HD
ENDBRANCH  39  40
BRANCH  39  44
HETATM   44  N7  UNL     1      -3.008  59.284  25.307  1.00  0.00    -0.042 N 
ATOM     45  H73 UNL     1      -3.911  58.838  25.470  1.00  0.00     0.277 HD
ATOM     46  H72 UNL     1      -3.273  60.253  25.481  1.00  0.00     0.277 HD
ATOM     47  H71 UNL     1      -2.699  59.152  24.344  1.00  0.00     0.277 HD
ENDBRANCH  39  44
ENDBRANCH  36  39
ENDBRANCH   9  35
TORSDOF 11
ENDMDL
MODEL 4
REMARK VINA RESULT: -4.996011985      5.556      8.391
REMARK  11 active torsions:
REMARK  status: ('A' for Active; 'I' for Inactive)
REMARK    1  A    between atoms: C2_2  and  C5_5 
REMARK    2  A    between atoms: C8_8  and  C9_9 
REMARK    3  A    between atoms: C9_9  and  C10_10 
REMARK    4  A    between atoms: C10_10  and  N1_11 
REMARK    5  A    between atoms: C10_10  and  C16_38 
REMARK    6  A    between atoms: C12_16  and  N3_17 
REMARK    7  A    between atoms: C13_22  and  N5_23 
REMARK       I    between atoms: N5_23  and  C14_25 
REMARK    8  A    between atoms: C14_25  and  C15_27 
REMARK    9  A    between atoms: C15_27  and  N6_28 
REMARK   10  A    between atoms: C15_27  and  N7_32 
REMARK       I    between atoms: C16_38  and  N9_40 
REMARK   11  A    between atoms: N9_40  and  N10_42 
ROOT
HETATM    1  N1  UNL     1       3.088  53.863  29.315  1.00  0.00    -0.208 N 
ATOM      2  H1  UNL     1       2.475  53.289  29.892  1.00  0.00     0.179 HD
HETATM    3  C11 UNL     1       4.246  53.705  29.636  1.00  0.00     0.708 A 
HETATM    4  N2  UNL     1       4.479  52.830  30.670  1.00  0.00    -0.022 N 
ATOM      5  H2  UNL     1       3.684  52.351  31.094  1.00  0.00     0.203 HD
HETATM    6  C12 UNL     1       5.697  52.582  31.141  1.00  0.00     0.705 A 
HETATM    7  N4  UNL     1       6.762  53.220  30.575  1.00  0.00    -0.021 N 
ATOM      8  H4  UNL     1       7.701  53.039  30.930  1.00  0.00     0.203 HD
HETATM    9  C13 UNL     1       6.594  54.088  29.556  1.00  0.00     0.714 A 
HETATM   10  N8  UNL     1       5.317  54.300  29.119  1.00  0.00    -0.021 N 
ATOM     11  H8  UNL     1       5.176  54.955  28.350  1.00  0.00     0.203 HD
ENDROOT
BRANCH   1  12
HETATM   12  C10 UNL     1       2.315  54.627  28.353  1.00  0.00     0.218 C 
BRANCH  12  13
HETATM   13  C9  UNL     1       2.307  56.033  28.738  1.00  0.00     0.038 C 
BRANCH  13  14
HETATM   14  C8  UNL     1       1.292  56.999  28.385  1.00  0.00     0.030 A 
HETATM   15  C7  UNL     1       0.620  57.850  29.193  1.00  0.00     0.030 A 
HETATM   16  C6  UNL     1      -0.350  58.751  28.708  1.00  0.00     0.011 A 
HETATM   17  C5  UNL     1      -0.649  58.785  27.365  1.00  0.00    -0.035 A 
HETATM   18  C17 UNL     1       0.045  57.913  26.565  1.00  0.00     0.096 A 
HETATM   19  N11 UNL     1       0.953  57.076  27.038  1.00  0.00    -0.366 N 
ATOM     20  H11 UNL     1       1.429  56.456  26.381  1.00  0.00     0.165 HD
BRANCH  17  21
HETATM   21  C2  UNL     1      -1.639  59.661  26.721  1.00  0.00    -0.023 C 
HETATM   22  C1  UNL     1      -2.598  60.269  27.777  1.00  0.00     0.019 C 
HETATM   23  C3  UNL     1      -2.531  58.943  25.737  1.00  0.00     0.019 C 
HETATM   24  C4  UNL     1      -1.048  60.849  26.002  1.00  0.00     0.019 C 
ENDBRANCH  17  21
ENDBRANCH  13  14
ENDBRANCH  12  13
BRANCH  12  25
HETATM   25  C16 UNL     1       0.919  54.031  28.470  1.00  0.00     0.262 C 
HETATM   26  O2  UNL     1       0.134  53.875  27.535  1.00  0.00    -0.269 OA
HETATM   27  N9  UNL     1       0.456  53.604  29.749  1.00  0.00    -0.275 N 
ATOM     28  H9  UNL     1       1.064  53.713  30.560  1.00  0.00     0.189 HD
BRANCH  27  29
HETATM   29  N10 UNL     1      -0.816  53.039  29.918  1.00  0.00    -0.343 N 
ATOM     30 2H10 UNL     1      -1.626  53.656  29.874  1.00  0.00     0.176 HD
ATOM     31 1H10 UNL     1      -0.939  52.040  30.082  1.00  0.00     0.176 HD
ENDBRANCH  27  29
ENDBRANCH  12  25
ENDBRANCH   1  12
BRANCH   6  32
HETATM   32  N3  UNL     1       5.931  51.752  32.111  1.00  0.00    -0.234 N 
ATOM     33  H32 UNL     1       5.150  51.484  32.709  1.00  0.00     0.174 HD
ATOM     34  H31 UNL     1       6.854  51.365  32.307  1.00  0.00     0.174 HD
ENDBRANCH   6  32
BRANCH   9  35
HETATM   35  N5  UNL     1       7.587  54.696  29.023  1.00  0.00    -0.155 N 
HETATM   36  C14 UNL     1       7.476  55.967  28.427  1.00  0.00     0.294 C 
HETATM   37  O1  UNL     1       7.524  56.084  27.177  1.00  0.00    -0.268 OA
ATOM     38  H5  UNL     1       8.498  54.238  29.030  1.00  0.00     0.187 HD
BRANCH  36  39
HETATM   39  C15 UNL     1       7.302  57.218  29.210  1.00  0.00     0.469 C 
BRANCH  39  40
HETATM   40  N6  UNL     1       8.286  58.231  28.801  1.00  0.00    -0.042 N 
ATOM     41  H63 UNL     1       9.077  57.813  28.311  1.00  0.00     0.277 HD
ATOM     42  H62 UNL     1       7.931  58.819  28.046  1.00  0.00     0.277 HD
ATOM     43  H61 UNL     1       8.588  58.785  29.602  1.00  0.00     0.277 HD
ENDBRANCH  39  40
BRANCH  39  44
HETATM   44  N7  UNL     1       5.999  57.817  28.995  1.00  0.00    -0.042 N 
ATOM     45  H73 UNL     1       5.307  57.114  28.736  1.00  0.00     0.277 HD
ATOM     46  H72 UNL     1       5.589  58.133  29.873  1.00  0.00     0.277 HD
ATOM     47  H71 UNL     1       6.033  58.572  28.310  1.00  0.00     0.277 HD
ENDBRANCH  39  44
ENDBRANCH  36  39
ENDBRANCH   9  35
TORSDOF 11
ENDMDL
MODEL 5
REMARK VINA RESULT: -4.959790641      2.183      2.624
REMARK  11 active torsions:
REMARK  status: ('A' for Active; 'I' for Inactive)
REMARK    1  A    between atoms: C2_2  and  C5_5 
REMARK    2  A    between atoms: C8_8  and  C9_9 
REMARK    3  A    between atoms: C9_9  and  C10_10 
REMARK    4  A    between atoms: C10_10  and  N1_11 
REMARK    5  A    between atoms: C10_10  and  C16_38 
REMARK    6  A    between atoms: C12_16  and  N3_17 
REMARK    7  A    between atoms: C13_22  and  N5_23 
REMARK       I    between atoms: N5_23  and  C14_25 
REMARK    8  A    between atoms: C14_25  and  C15_27 
REMARK    9  A    between atoms: C15_27  and  N6_28 
REMARK   10  A    between atoms: C15_27  and  N7_32 
REMARK       I    between atoms: C16_38  and  N9_40 
REMARK   11  A    between atoms: N9_40  and  N10_42 
ROOT
HETATM    1  N1  UNL     1      -1.170  53.355  29.226  1.00  0.00    -0.208 N 
ATOM      2  H1  UNL     1      -0.857  52.674  29.917  1.00  0.00     0.179 HD
HETATM    3  C11 UNL     1      -0.232  54.002  28.811  1.00  0.00     0.708 A 
HETATM    4  N2  UNL     1       1.000  53.702  29.342  1.00  0.00    -0.022 N 
ATOM      5  H2  UNL     1       1.066  52.951  30.030  1.00  0.00     0.203 HD
HETATM    6  C12 UNL     1       2.108  54.349  28.998  1.00  0.00     0.705 A 
HETATM    7  N4  UNL     1       2.023  55.354  28.078  1.00  0.00    -0.021 N 
ATOM      8  H4  UNL     1       2.867  55.858  27.807  1.00  0.00     0.203 HD
HETATM    9  C13 UNL     1       0.841  55.691  27.521  1.00  0.00     0.714 A 
HETATM   10  N8  UNL     1      -0.261  54.987  27.919  1.00  0.00    -0.021 N 
ATOM     11  H8  UNL     1      -1.161  55.233  27.507  1.00  0.00     0.203 HD
ENDROOT
BRANCH   1  12
HETATM   12  C10 UNL     1      -2.605  53.261  29.030  1.00  0.00     0.218 C 
BRANCH  12  13
HETATM   13  C9  UNL     1      -2.919  53.454  27.620  1.00  0.00     0.038 C 
BRANCH  13  14
HETATM   14  C8  UNL     1      -3.382  52.430  26.712  1.00  0.00     0.030 A 
HETATM   15  C7  UNL     1      -3.075  51.113  26.698  1.00  0.00     0.030 A 
HETATM   16  C6  UNL     1      -3.608  50.218  25.748  1.00  0.00     0.011 A 
HETATM   17  C5  UNL     1      -4.474  50.675  24.781  1.00  0.00    -0.035 A 
HETATM   18  C17 UNL     1      -4.771  52.015  24.814  1.00  0.00     0.096 A 
HETATM   19  N11 UNL     1      -4.262  52.839  25.715  1.00  0.00    -0.366 N 
ATOM     20  H11 UNL     1      -4.529  53.823  25.677  1.00  0.00     0.165 HD
BRANCH  17  21
HETATM   21  C2  UNL     1      -5.098  49.864  23.726  1.00  0.00    -0.023 C 
HETATM   22  C1  UNL     1      -4.299  48.556  23.498  1.00  0.00     0.019 C 
HETATM   23  C3  UNL     1      -5.134  50.549  22.380  1.00  0.00     0.019 C 
HETATM   24  C4  UNL     1      -6.505  49.412  24.033  1.00  0.00     0.019 C 
ENDBRANCH  17  21
ENDBRANCH  13  14
ENDBRANCH  12  13
BRANCH  12  25
HETATM   25  C16 UNL     1      -3.150  54.412  29.864  1.00  0.00     0.262 C 
HETATM   26  O2  UNL     1      -2.852  55.597  29.717  1.00  0.00    -0.269 OA
HETATM   27  N9  UNL     1      -4.086  54.130  30.901  1.00  0.00    -0.275 N 
ATOM     28  H9  UNL     1      -4.368  53.164  31.069  1.00  0.00     0.189 HD
BRANCH  27  29
HETATM   29  N10 UNL     1      -4.631  55.149  31.695  1.00  0.00    -0.343 N 
ATOM     30 2H10 UNL     1      -4.907  56.018  31.241  1.00  0.00     0.176 HD
ATOM     31 1H10 UNL     1      -4.752  55.034  32.701  1.00  0.00     0.176 HD
ENDBRANCH  27  29
ENDBRANCH  12  25
ENDBRANCH   1  12
BRANCH   6  32
HETATM   32  N3  UNL     1       3.279  54.070  29.485  1.00  0.00    -0.234 N 
ATOM     33  H32 UNL     1       3.463  54.322  30.456  1.00  0.00     0.174 HD
ATOM     34  H31 UNL     1       4.018  53.621  28.945  1.00  0.00     0.174 HD
ENDBRANCH   6  32
BRANCH   9  35
HETATM   35  N5  UNL     1       0.751  56.635  26.662  1.00  0.00    -0.155 N 
HETATM   36  C14 UNL     1      -0.445  57.340  26.421  1.00  0.00     0.294 C 
HETATM   37  O1  UNL     1      -1.090  57.144  25.361  1.00  0.00    -0.268 OA
ATOM     38  H5  UNL     1       1.581  56.888  26.127  1.00  0.00     0.187 HD
BRANCH  36  39
HETATM   39  C15 UNL     1      -1.008  58.332  27.373  1.00  0.00     0.469 C 
BRANCH  39  40
HETATM   40  N6  UNL     1      -1.251  59.618  26.703  1.00  0.00    -0.042 N 
ATOM     41  H63 UNL     1      -0.532  59.825  26.010  1.00  0.00     0.277 HD
ATOM     42  H62 UNL     1      -2.057  59.573  26.080  1.00  0.00     0.277 HD
ATOM     43  H61 UNL     1      -1.343  60.369  27.386  1.00  0.00     0.277 HD
ENDBRANCH  39  40
BRANCH  39  44
HETATM   44  N7  UNL     1      -2.289  57.910  27.904  1.00  0.00    -0.042 N 
ATOM     45  H73 UNL     1      -3.021  57.971  27.196  1.00  0.00     0.277 HD
ATOM     46  H72 UNL     1      -2.307  56.903  28.069  1.00  0.00     0.277 HD
ATOM     47  H71 UNL     1      -2.544  58.426  28.745  1.00  0.00     0.277 HD
ENDBRANCH  39  44
ENDBRANCH  36  39
ENDBRANCH   9  35
TORSDOF 11
ENDMDL
