MODEL 1
REMARK VINA RESULT: -5.770513023      0.000      0.000
REMARK  10 active torsions:
REMARK  status: ('A' for Active; 'I' for Inactive)
REMARK       I    between atoms: C1_4  and  N3_6 
REMARK    1  A    between atoms: N3_6  and  C2_8 
REMARK    2  A    between atoms: C4_11  and  C5_12 
REMARK    3  A    between atoms: C5_12  and  N4_13 
REMARK    4  A    between atoms: N4_13  and  N5_15 
REMARK       I    between atoms: N5_15  and  C6_17 
REMARK       I    between atoms: C6_17  and  N6_18 
REMARK       I    between atoms: C6_17  and  N8_23 
REMARK    5  A    between atoms: N6_18  and  N7_20 
REMARK    6  A    between atoms: N8_23  and  C7_25 
REMARK    7  A    between atoms: C7_25  and  C8_26 
REMARK    8  A    between atoms: C8_26  and  N9_27 
REMARK    9  A    between atoms: N9_27  and  C9_29 
REMARK       I    between atoms: N11_34  and  C12_35 
REMARK   10  A    between atoms: N14_41  and  O1_42 
ROOT
HETATM    1  N5  UNL     1      -3.963  52.064  25.490  1.00  0.00    -0.131 N 
ATOM      2  H5  UNL     1      -3.310  51.940  24.716  1.00  0.00     0.205 HD
HETATM    3  C6  UNL     1      -3.609  51.635  26.798  1.00  0.00     0.706 C 
HETATM    4  N6  UNL     1      -2.674  50.785  26.972  1.00  0.00    -0.138 N 
ATOM      5  H6  UNL     1      -2.438  50.493  27.921  1.00  0.00     0.205 HD
HETATM    6  N8  UNL     1      -4.301  52.159  27.908  1.00  0.00    -0.222 N 
ATOM      7  H8  UNL     1      -5.266  51.887  28.098  1.00  0.00     0.177 HD
ENDROOT
BRANCH   1   8
HETATM    8  N4  UNL     1      -5.160  52.632  25.277  1.00  0.00    -0.295 N 
ATOM      9  H4  UNL     1      -5.189  53.595  25.609  1.00  0.00     0.186 HD
BRANCH   8  10
HETATM   10  C5  UNL     1      -6.221  52.286  24.786  1.00  0.00     0.140 C 
BRANCH  10  11
HETATM   11  C4  UNL     1      -6.535  51.060  24.015  1.00  0.00     0.088 A 
HETATM   12  C3  UNL     1      -7.600  50.278  24.372  1.00  0.00     0.086 A 
HETATM   13  S1  UNL     1      -7.542  49.019  23.210  1.00  0.00    -0.061 SA
HETATM   14  C2  UNL     1      -6.183  49.549  22.345  1.00  0.00     0.178 A 
HETATM   15  N14 UNL     1      -5.826  50.664  22.974  1.00  0.00    -0.200 N 
BRANCH  14  16
HETATM   16  N3  UNL     1      -5.599  49.000  21.293  1.00  0.00    -0.309 N 
HETATM   17  C1  UNL     1      -4.404  48.283  21.349  1.00  0.00     0.187 C 
HETATM   18  N1  UNL     1      -3.273  48.872  21.170  1.00  0.00    -0.373 N 
HETATM   19  N2  UNL     1      -4.479  46.882  21.607  1.00  0.00    -0.064 NA
ATOM     20  H12 UNL     1      -2.400  48.347  21.212  1.00  0.00     0.158 HD
ATOM     21  H11 UNL     1      -3.220  49.874  20.986  1.00  0.00     0.158 HD
ATOM     22  H3  UNL     1      -6.050  49.109  20.384  1.00  0.00     0.170 HD
ENDBRANCH  14  16
BRANCH  15  23
HETATM   23  O1  UNL     1      -4.694  51.374  22.489  1.00  0.00    -0.280 OA
ATOM     24  H1  UNL     1      -3.840  50.968  22.575  1.00  0.00     0.245 HD
ENDBRANCH  15  23
ENDBRANCH  10  11
ENDBRANCH   8  10
ENDBRANCH   1   8
BRANCH   4  25
HETATM   25  N7  UNL     1      -1.966  50.246  25.902  1.00  0.00    -0.331 N 
ATOM     26  H72 UNL     1      -2.191  50.573  24.963  1.00  0.00     0.177 HD
ATOM     27  H71 UNL     1      -1.239  49.543  26.039  1.00  0.00     0.177 HD
ENDBRANCH   4  25
BRANCH   6  28
HETATM   28  C7  UNL     1      -3.608  53.095  28.776  1.00  0.00     0.157 C 
BRANCH  28  29
HETATM   29  C8  UNL     1      -2.776  53.990  27.856  1.00  0.00     0.141 C 
BRANCH  29  30
HETATM   30  N9  UNL     1      -2.124  55.006  28.644  1.00  0.00    -0.377 N 
ATOM     31  H9  UNL     1      -2.213  55.008  29.659  1.00  0.00     0.160 HD
BRANCH  30  32
HETATM   32  C9  UNL     1      -1.362  56.002  27.991  1.00  0.00     0.091 C 
HETATM   33  N10 UNL     1      -0.088  55.860  27.925  1.00  0.00    -0.377 N 
HETATM   34  C10 UNL     1       0.782  56.825  27.277  1.00  0.00     0.141 C 
ATOM     35  H10 UNL     1       0.332  55.032  28.347  1.00  0.00     0.160 HD
HETATM   36  C11 UNL     1       0.070  57.350  26.063  1.00  0.00     0.145 C 
HETATM   37  N11 UNL     1      -1.197  57.898  26.499  1.00  0.00    -0.347 N 
HETATM   38  C12 UNL     1      -1.626  59.171  26.044  1.00  0.00     0.184 C 
HETATM   39  C13 UNL     1      -2.062  57.169  27.408  1.00  0.00     0.201 C 
HETATM   40  N12 UNL     1      -1.084  60.219  26.507  1.00  0.00    -0.374 N 
HETATM   41  N13 UNL     1      -2.650  59.236  25.081  1.00  0.00    -0.064 NA
ATOM     42 2H12 UNL     1      -0.342  60.171  27.205  1.00  0.00     0.158 HD
ATOM     43 1H12 UNL     1      -1.392  61.134  26.179  1.00  0.00     0.158 HD
ENDBRANCH  30  32
ENDBRANCH  29  30
ENDBRANCH  28  29
ENDBRANCH   6  28
TORSDOF 10
ENDMDL
MODEL 2
REMARK VINA RESULT: -5.726809582      3.001      9.180
REMARK  10 active torsions:
REMARK  status: ('A' for Active; 'I' for Inactive)
REMARK       I    between atoms: C1_4  and  N3_6 
REMARK    1  A    between atoms: N3_6  and  C2_8 
REMARK    2  A    between atoms: C4_11  and  C5_12 
REMARK    3  A    between atoms: C5_12  and  N4_13 
REMARK    4  A    between atoms: N4_13  and  N5_15 
REMARK       I    between atoms: N5_15  and  C6_17 
REMARK       I    between atoms: C6_17  and  N6_18 
REMARK       I    between atoms: C6_17  and  N8_23 
REMARK    5  A    between atoms: N6_18  and  N7_20 
REMARK    6  A    between atoms: N8_23  and  C7_25 
REMARK    7  A    between atoms: C7_25  and  C8_26 
REMARK    8  A    between atoms: C8_26  and  N9_27 
REMARK    9  A    between atoms: N9_27  and  C9_29 
REMARK       I    between atoms: N11_34  and  C12_35 
REMARK   10  A    between atoms: N14_41  and  O1_42 
ROOT
HETATM    1  N5  UNL     1      -3.143  52.097  27.141  1.00  0.00    -0.131 N 
ATOM      2  H5  UNL     1      -2.647  51.318  27.574  1.00  0.00     0.205 HD
HETATM    3  C6  UNL     1      -3.953  51.876  25.994  1.00  0.00     0.706 C 
HETATM    4  N6  UNL     1      -3.795  50.830  25.279  1.00  0.00    -0.138 N 
ATOM      5  H6  UNL     1      -4.389  50.694  24.461  1.00  0.00     0.205 HD
HETATM    6  N8  UNL     1      -4.937  52.823  25.649  1.00  0.00    -0.222 N 
ATOM      7  H8  UNL     1      -4.676  53.733  25.269  1.00  0.00     0.177 HD
ENDROOT
BRANCH   1   8
HETATM    8  N4  UNL     1      -3.034  53.333  27.650  1.00  0.00    -0.295 N 
ATOM      9  H4  UNL     1      -3.701  53.979  27.229  1.00  0.00     0.186 HD
BRANCH   8  10
HETATM   10  C5  UNL     1      -2.340  53.879  28.490  1.00  0.00     0.140 C 
BRANCH  10  11
HETATM   11  C4  UNL     1      -0.970  54.429  28.352  1.00  0.00     0.088 A 
HETATM   12  C3  UNL     1       0.066  53.875  29.053  1.00  0.00     0.086 A 
HETATM   13  S1  UNL     1       1.399  54.838  28.568  1.00  0.00    -0.061 SA
HETATM   14  C2  UNL     1       0.575  55.880  27.513  1.00  0.00     0.178 A 
HETATM   15  N14 UNL     1      -0.683  55.454  27.571  1.00  0.00    -0.200 N 
BRANCH  14  16
HETATM   16  N3  UNL     1       1.049  56.883  26.794  1.00  0.00    -0.309 N 
HETATM   17  C1  UNL     1       0.920  58.226  27.148  1.00  0.00     0.187 C 
HETATM   18  N1  UNL     1      -0.079  58.923  26.731  1.00  0.00    -0.373 N 
HETATM   19  N2  UNL     1       1.930  58.797  27.978  1.00  0.00    -0.064 NA
ATOM     20  H12 UNL     1      -0.172  59.905  26.991  1.00  0.00     0.158 HD
ATOM     21  H11 UNL     1      -0.801  58.516  26.138  1.00  0.00     0.158 HD
ATOM     22  H3  UNL     1       1.539  56.661  25.927  1.00  0.00     0.170 HD
ENDBRANCH  14  16
BRANCH  15  23
HETATM   23  O1  UNL     1      -1.656  56.130  26.785  1.00  0.00    -0.280 OA
ATOM     24  H1  UNL     1      -1.364  56.835  26.220  1.00  0.00     0.245 HD
ENDBRANCH  15  23
ENDBRANCH  10  11
ENDBRANCH   8  10
ENDBRANCH   1   8
BRANCH   4  25
HETATM   25  N7  UNL     1      -2.836  49.871  25.587  1.00  0.00    -0.331 N 
ATOM     26  H72 UNL     1      -3.155  48.966  25.932  1.00  0.00     0.177 HD
ATOM     27  H71 UNL     1      -1.839  50.053  25.474  1.00  0.00     0.177 HD
ENDBRANCH   4  25
BRANCH   6  28
HETATM   28  C7  UNL     1      -6.333  52.474  25.848  1.00  0.00     0.157 C 
BRANCH  28  29
HETATM   29  C8  UNL     1      -7.013  52.659  24.490  1.00  0.00     0.141 C 
BRANCH  29  30
HETATM   30  N9  UNL     1      -7.662  51.428  24.112  1.00  0.00    -0.377 N 
ATOM     31  H9  UNL     1      -8.677  51.342  24.167  1.00  0.00     0.160 HD
BRANCH  30  32
HETATM   32  C9  UNL     1      -6.875  50.343  23.665  1.00  0.00     0.091 C 
HETATM   33  N10 UNL     1      -6.904  49.245  24.328  1.00  0.00    -0.377 N 
HETATM   34  C10 UNL     1      -6.132  48.074  23.951  1.00  0.00     0.141 C 
ATOM     35  H10 UNL     1      -7.495  49.192  25.158  1.00  0.00     0.160 HD
HETATM   36  C11 UNL     1      -6.120  47.988  22.452  1.00  0.00     0.145 C 
HETATM   37  N11 UNL     1      -5.586  49.235  21.945  1.00  0.00    -0.347 N 
HETATM   38  C12 UNL     1      -4.590  49.234  20.935  1.00  0.00     0.184 C 
HETATM   39  C13 UNL     1      -6.048  50.516  22.449  1.00  0.00     0.201 C 
HETATM   40  N12 UNL     1      -3.399  48.915  21.227  1.00  0.00    -0.374 N 
HETATM   41  N13 UNL     1      -4.955  49.590  19.623  1.00  0.00    -0.064 NA
ATOM     42 2H12 UNL     1      -3.135  48.657  22.178  1.00  0.00     0.158 HD
ATOM     43 1H12 UNL     1      -2.683  48.913  20.501  1.00  0.00     0.158 HD
ENDBRANCH  30  32
ENDBRANCH  29  30
ENDBRANCH  28  29
ENDBRANCH   6  28
TORSDOF 10
ENDMDL
MODEL 3
REMARK VINA RESULT: -5.572967324      2.398      3.381
REMARK  10 active torsions:
REMARK  status: ('A' for Active; 'I' for Inactive)
REMARK       I    between atoms: C1_4  and  N3_6 
REMARK    1  A    between atoms: N3_6  and  C2_8 
REMARK    2  A    between atoms: C4_11  and  C5_12 
REMARK    3  A    between atoms: C5_12  and  N4_13 
REMARK    4  A    between atoms: N4_13  and  N5_15 
REMARK       I    between atoms: N5_15  and  C6_17 
REMARK       I    between atoms: C6_17  and  N6_18 
REMARK       I    between atoms: C6_17  and  N8_23 
REMARK    5  A    between atoms: N6_18  and  N7_20 
REMARK    6  A    between atoms: N8_23  and  C7_25 
REMARK    7  A    between atoms: C7_25  and  C8_26 
REMARK    8  A    between atoms: C8_26  and  N9_27 
REMARK    9  A    between atoms: N9_27  and  C9_29 
REMARK       I    between atoms: N11_34  and  C12_35 
REMARK   10  A    between atoms: N14_41  and  O1_42 
ROOT
HETATM    1  N5  UNL     1      -2.148  51.905  28.842  1.00  0.00    -0.131 N 
ATOM      2  H5  UNL     1      -2.420  50.923  28.896  1.00  0.00     0.205 HD
HETATM    3  C6  UNL     1      -1.526  52.534  29.954  1.00  0.00     0.706 C 
HETATM    4  N6  UNL     1      -1.623  52.032  31.123  1.00  0.00    -0.138 N 
ATOM      5  H6  UNL     1      -1.167  52.502  31.905  1.00  0.00     0.205 HD
HETATM    6  N8  UNL     1      -0.794  53.722  29.756  1.00  0.00    -0.222 N 
ATOM      7  H8  UNL     1      -1.270  54.600  29.547  1.00  0.00     0.177 HD
ENDROOT
BRANCH   1   8
HETATM    8  N4  UNL     1      -2.377  52.608  27.722  1.00  0.00    -0.295 N 
ATOM      9  H4  UNL     1      -1.592  53.214  27.485  1.00  0.00     0.186 HD
BRANCH   8  10
HETATM   10  C5  UNL     1      -3.287  52.705  26.917  1.00  0.00     0.140 C 
BRANCH  10  11
HETATM   11  C4  UNL     1      -3.928  51.644  26.104  1.00  0.00     0.088 A 
HETATM   12  C3  UNL     1      -5.230  51.778  25.704  1.00  0.00     0.086 A 
HETATM   13  S1  UNL     1      -5.497  50.334  24.821  1.00  0.00    -0.061 SA
HETATM   14  C2  UNL     1      -3.959  49.646  25.007  1.00  0.00     0.178 A 
HETATM   15  N14 UNL     1      -3.300  50.542  25.735  1.00  0.00    -0.200 N 
BRANCH  14  16
HETATM   16  N3  UNL     1      -3.500  48.493  24.549  1.00  0.00    -0.309 N 
HETATM   17  C1  UNL     1      -4.081  47.785  23.497  1.00  0.00     0.187 C 
HETATM   18  N1  UNL     1      -4.972  46.883  23.724  1.00  0.00    -0.373 N 
HETATM   19  N2  UNL     1      -3.654  48.089  22.171  1.00  0.00    -0.064 NA
ATOM     20  H12 UNL     1      -5.397  46.366  22.955  1.00  0.00     0.158 HD
ATOM     21  H11 UNL     1      -5.278  46.665  24.673  1.00  0.00     0.158 HD
ATOM     22  H3  UNL     1      -2.670  48.098  24.991  1.00  0.00     0.170 HD
ENDBRANCH  14  16
BRANCH  15  23
HETATM   23  O1  UNL     1      -1.949  50.266  26.077  1.00  0.00    -0.280 OA
ATOM     24  H1  UNL     1      -1.531  50.814  26.731  1.00  0.00     0.245 HD
ENDBRANCH  15  23
ENDBRANCH  10  11
ENDBRANCH   8  10
ENDBRANCH   1   8
BRANCH   4  25
HETATM   25  N7  UNL     1      -2.334  50.860  31.359  1.00  0.00    -0.331 N 
ATOM     26  H72 UNL     1      -2.289  50.121  30.659  1.00  0.00     0.177 HD
ATOM     27  H71 UNL     1      -2.889  50.730  32.205  1.00  0.00     0.177 HD
ENDBRANCH   4  25
BRANCH   6  28
HETATM   28  C7  UNL     1       0.654  53.668  29.857  1.00  0.00     0.157 C 
BRANCH  28  29
HETATM   29  C8  UNL     1       1.188  54.007  28.464  1.00  0.00     0.141 C 
BRANCH  29  30
HETATM   30  N9  UNL     1       1.996  55.199  28.543  1.00  0.00    -0.377 N 
ATOM     31  H9  UNL     1       2.893  55.184  29.028  1.00  0.00     0.160 HD
BRANCH  30  32
HETATM   32  C9  UNL     1       1.529  56.389  27.940  1.00  0.00     0.091 C 
HETATM   33  N10 UNL     1       2.304  57.411  27.910  1.00  0.00    -0.377 N 
HETATM   34  C10 UNL     1       1.919  58.678  27.313  1.00  0.00     0.141 C 
ATOM     35  H10 UNL     1       3.233  57.331  28.323  1.00  0.00     0.160 HD
HETATM   36  C11 UNL     1       1.095  58.386  26.093  1.00  0.00     0.145 C 
HETATM   37  N11 UNL     1      -0.023  57.562  26.503  1.00  0.00    -0.347 N 
HETATM   38  C12 UNL     1      -1.338  57.865  26.068  1.00  0.00     0.184 C 
HETATM   39  C13 UNL     1       0.164  56.410  27.366  1.00  0.00     0.201 C 
HETATM   40  N12 UNL     1      -1.956  58.848  26.574  1.00  0.00    -0.374 N 
HETATM   41  N13 UNL     1      -1.926  57.058  25.076  1.00  0.00    -0.064 NA
ATOM     42 2H12 UNL     1      -1.530  59.432  27.293  1.00  0.00     0.158 HD
ATOM     43 1H12 UNL     1      -2.902  59.066  26.261  1.00  0.00     0.158 HD
ENDBRANCH  30  32
ENDBRANCH  29  30
ENDBRANCH  28  29
ENDBRANCH   6  28
TORSDOF 10
ENDMDL
MODEL 4
REMARK VINA RESULT: -5.473368258      5.176     10.329
REMARK  10 active torsions:
REMARK  status: ('A' for Active; 'I' for Inactive)
REMARK       I    between atoms: C1_4  and  N3_6 
REMARK    1  A    between atoms: N3_6  and  C2_8 
REMARK    2  A    between atoms: C4_11  and  C5_12 
REMARK    3  A    between atoms: C5_12  and  N4_13 
REMARK    4  A    between atoms: N4_13  and  N5_15 
REMARK       I    between atoms: N5_15  and  C6_17 
REMARK       I    between atoms: C6_17  and  N6_18 
REMARK       I    between atoms: C6_17  and  N8_23 
REMARK    5  A    between atoms: N6_18  and  N7_20 
REMARK    6  A    between atoms: N8_23  and  C7_25 
REMARK    7  A    between atoms: C7_25  and  C8_26 
REMARK    8  A    between atoms: C8_26  and  N9_27 
REMARK    9  A    between atoms: N9_27  and  C9_29 
REMARK       I    between atoms: N11_34  and  C12_35 
REMARK   10  A    between atoms: N14_41  and  O1_42 
ROOT
HETATM    1  N5  UNL     1       1.172  55.102  27.346  1.00  0.00    -0.131 N 
ATOM      2  H5  UNL     1       1.683  55.173  26.466  1.00  0.00     0.205 HD
HETATM    3  C6  UNL     1       0.079  55.972  27.608  1.00  0.00     0.706 C 
HETATM    4  N6  UNL     1      -0.054  57.062  26.957  1.00  0.00    -0.138 N 
ATOM      5  H6  UNL     1      -0.847  57.669  27.164  1.00  0.00     0.205 HD
HETATM    6  N8  UNL     1      -0.862  55.622  28.596  1.00  0.00    -0.222 N 
ATOM      7  H8  UNL     1      -0.618  55.656  29.586  1.00  0.00     0.177 HD
ENDROOT
BRANCH   1   8
HETATM    8  N4  UNL     1       1.528  54.186  28.260  1.00  0.00    -0.295 N 
ATOM      9  H4  UNL     1       1.068  53.290  28.101  1.00  0.00     0.186 HD
BRANCH   8  10
HETATM   10  C5  UNL     1       2.263  54.156  29.232  1.00  0.00     0.140 C 
BRANCH  10  11
HETATM   11  C4  UNL     1       3.727  54.379  29.301  1.00  0.00     0.088 A 
HETATM   12  C3  UNL     1       4.537  53.441  29.880  1.00  0.00     0.086 A 
HETATM   13  S1  UNL     1       6.092  54.144  29.718  1.00  0.00    -0.061 SA
HETATM   14  C2  UNL     1       5.633  55.574  28.932  1.00  0.00     0.178 A 
HETATM   15  N14 UNL     1       4.313  55.462  28.823  1.00  0.00    -0.200 N 
BRANCH  14  16
HETATM   16  N3  UNL     1       6.388  56.577  28.517  1.00  0.00    -0.309 N 
HETATM   17  C1  UNL     1       7.774  56.503  28.375  1.00  0.00     0.187 C 
HETATM   18  N1  UNL     1       8.553  56.840  29.342  1.00  0.00    -0.373 N 
HETATM   19  N2  UNL     1       8.293  56.047  27.127  1.00  0.00    -0.064 NA
ATOM     20  H12 UNL     1       9.566  56.786  29.238  1.00  0.00     0.158 HD
ATOM     21  H11 UNL     1       8.182  57.166  30.235  1.00  0.00     0.158 HD
ATOM     22  H3  UNL     1       5.929  57.459  28.286  1.00  0.00     0.170 HD
ENDBRANCH  14  16
BRANCH  15  23
HETATM   23  O1  UNL     1       3.599  56.519  28.195  1.00  0.00    -0.280 OA
ATOM     24  H1  UNL     1       3.147  57.145  28.748  1.00  0.00     0.245 HD
ENDBRANCH  15  23
ENDBRANCH  10  11
ENDBRANCH   8  10
ENDBRANCH   1   8
BRANCH   4  25
HETATM   25  N7  UNL     1       0.853  57.443  25.974  1.00  0.00    -0.331 N 
ATOM     26  H72 UNL     1       1.001  56.811  25.187  1.00  0.00     0.177 HD
ATOM     27  H71 UNL     1       1.361  58.325  26.024  1.00  0.00     0.177 HD
ENDBRANCH   4  25
BRANCH   6  28
HETATM   28  C7  UNL     1      -2.189  55.209  28.172  1.00  0.00     0.157 C 
BRANCH  28  29
HETATM   29  C8  UNL     1      -2.123  53.691  27.991  1.00  0.00     0.141 C 
BRANCH  29  30
HETATM   30  N9  UNL     1      -3.435  53.196  27.655  1.00  0.00    -0.377 N 
ATOM     31  H9  UNL     1      -4.265  53.594  28.093  1.00  0.00     0.160 HD
BRANCH  30  32
HETATM   32  C9  UNL     1      -3.555  52.151  26.710  1.00  0.00     0.091 C 
HETATM   33  N10 UNL     1      -2.888  51.071  26.895  1.00  0.00    -0.377 N 
HETATM   34  C10 UNL     1      -2.943  49.941  25.984  1.00  0.00     0.141 C 
ATOM     35  H10 UNL     1      -2.291  51.002  27.720  1.00  0.00     0.160 HD
HETATM   36  C11 UNL     1      -4.353  49.818  25.483  1.00  0.00     0.145 C 
HETATM   37  N11 UNL     1      -4.717  51.083  24.878  1.00  0.00    -0.347 N 
HETATM   38  C12 UNL     1      -5.352  51.118  23.611  1.00  0.00     0.184 C 
HETATM   39  C13 UNL     1      -4.447  52.344  25.544  1.00  0.00     0.201 C 
HETATM   40  N12 UNL     1      -4.677  50.882  22.564  1.00  0.00    -0.374 N 
HETATM   41  N13 UNL     1      -6.726  51.416  23.548  1.00  0.00    -0.064 NA
ATOM     42 2H12 UNL     1      -3.682  50.667  22.609  1.00  0.00     0.158 HD
ATOM     43 1H12 UNL     1      -5.134  50.908  21.652  1.00  0.00     0.158 HD
ENDBRANCH  30  32
ENDBRANCH  29  30
ENDBRANCH  28  29
ENDBRANCH   6  28
TORSDOF 10
ENDMDL
MODEL 5
REMARK VINA RESULT: -5.429303875      4.521      9.089
REMARK  10 active torsions:
REMARK  status: ('A' for Active; 'I' for Inactive)
REMARK       I    between atoms: C1_4  and  N3_6 
REMARK    1  A    between atoms: N3_6  and  C2_8 
REMARK    2  A    between atoms: C4_11  and  C5_12 
REMARK    3  A    between atoms: C5_12  and  N4_13 
REMARK    4  A    between atoms: N4_13  and  N5_15 
REMARK       I    between atoms: N5_15  and  C6_17 
REMARK       I    between atoms: C6_17  and  N6_18 
REMARK       I    between atoms: C6_17  and  N8_23 
REMARK    5  A    between atoms: N6_18  and  N7_20 
REMARK    6  A    between atoms: N8_23  and  C7_25 
REMARK    7  A    between atoms: C7_25  and  C8_26 
REMARK    8  A    between atoms: C8_26  and  N9_27 
REMARK    9  A    between atoms: N9_27  and  C9_29 
REMARK       I    between atoms: N11_34  and  C12_35 
REMARK   10  A    between atoms: N14_41  and  O1_42 
ROOT
HETATM    1  N5  UNL     1       4.322  55.340  28.812  1.00  0.00    -0.131 N 
ATOM      2  H5  UNL     1       5.336  55.446  28.835  1.00  0.00     0.205 HD
HETATM    3  C6  UNL     1       3.706  54.232  29.456  1.00  0.00     0.706 C 
HETATM    4  N6  UNL     1       4.382  53.189  29.741  1.00  0.00    -0.138 N 
ATOM      5  H6  UNL     1       3.918  52.407  30.203  1.00  0.00     0.205 HD
HETATM    6  N8  UNL     1       2.336  54.295  29.779  1.00  0.00    -0.222 N 
ATOM      7  H8  UNL     1       1.624  54.246  29.050  1.00  0.00     0.177 HD
ENDROOT
BRANCH   1   8
HETATM    8  N4  UNL     1       3.563  56.245  28.175  1.00  0.00    -0.295 N 
ATOM      9  H4  UNL     1       3.109  55.851  27.352  1.00  0.00     0.186 HD
BRANCH   8  10
HETATM   10  C5  UNL     1       3.281  57.420  28.333  1.00  0.00     0.140 C 
BRANCH  10  11
HETATM   11  C4  UNL     1       2.104  58.171  27.833  1.00  0.00     0.088 A 
HETATM   12  C3  UNL     1       2.240  59.472  27.431  1.00  0.00     0.086 A 
HETATM   13  S1  UNL     1       0.644  59.882  26.957  1.00  0.00    -0.061 SA
HETATM   14  C2  UNL     1      -0.099  58.396  27.293  1.00  0.00     0.178 A 
HETATM   15  N14 UNL     1       0.896  57.644  27.753  1.00  0.00    -0.200 N 
BRANCH  14  16
HETATM   16  N3  UNL     1      -1.365  58.044  27.142  1.00  0.00    -0.309 N 
HETATM   17  C1  UNL     1      -2.042  58.071  25.922  1.00  0.00     0.187 C 
HETATM   18  N1  UNL     1      -2.704  59.115  25.561  1.00  0.00    -0.373 N 
HETATM   19  N2  UNL     1      -1.979  56.909  25.099  1.00  0.00    -0.064 NA
ATOM     20  H12 UNL     1      -3.199  59.134  24.670  1.00  0.00     0.158 HD
ATOM     21  H11 UNL     1      -2.749  59.946  26.150  1.00  0.00     0.158 HD
ATOM     22  H3  UNL     1      -1.878  57.734  27.968  1.00  0.00     0.170 HD
ENDBRANCH  14  16
BRANCH  15  23
HETATM   23  O1  UNL     1       0.604  56.306  28.134  1.00  0.00    -0.280 OA
ATOM     24  H1  UNL     1       1.162  55.893  28.783  1.00  0.00     0.245 HD
ENDBRANCH  15  23
ENDBRANCH  10  11
ENDBRANCH   8  10
ENDBRANCH   1   8
BRANCH   4  25
HETATM   25  N7  UNL     1       5.737  53.089  29.440  1.00  0.00    -0.331 N 
ATOM     26  H72 UNL     1       6.407  53.480  30.101  1.00  0.00     0.177 HD
ATOM     27  H71 UNL     1       6.065  52.639  28.585  1.00  0.00     0.177 HD
ENDBRANCH   4  25
BRANCH   6  28
HETATM   28  C7  UNL     1       1.961  54.430  31.176  1.00  0.00     0.157 C 
BRANCH  28  29
HETATM   29  C8  UNL     1       0.557  53.834  31.297  1.00  0.00     0.141 C 
BRANCH  29  30
HETATM   30  N9  UNL     1      -0.155  54.042  30.061  1.00  0.00    -0.377 N 
ATOM     31  H9  UNL     1      -0.096  54.936  29.575  1.00  0.00     0.160 HD
BRANCH  30  32
HETATM   32  C9  UNL     1      -0.937  52.991  29.531  1.00  0.00     0.091 C 
HETATM   33  N10 UNL     1      -1.205  51.983  30.279  1.00  0.00    -0.377 N 
HETATM   34  C10 UNL     1      -2.000  50.854  29.828  1.00  0.00     0.141 C 
ATOM     35  H10 UNL     1      -0.844  51.974  31.233  1.00  0.00     0.160 HD
HETATM   36  C11 UNL     1      -3.090  51.378  28.939  1.00  0.00     0.145 C 
HETATM   37  N11 UNL     1      -2.463  52.124  27.867  1.00  0.00    -0.347 N 
HETATM   38  C12 UNL     1      -2.862  51.923  26.521  1.00  0.00     0.184 C 
HETATM   39  C13 UNL     1      -1.416  53.093  28.133  1.00  0.00     0.201 C 
HETATM   40  N12 UNL     1      -2.507  50.869  25.912  1.00  0.00    -0.374 N 
HETATM   41  N13 UNL     1      -3.648  52.907  25.893  1.00  0.00    -0.064 NA
ATOM     42 2H12 UNL     1      -1.938  50.157  26.367  1.00  0.00     0.158 HD
ATOM     43 1H12 UNL     1      -2.794  50.725  24.944  1.00  0.00     0.158 HD
ENDBRANCH  30  32
ENDBRANCH  29  30
ENDBRANCH  28  29
ENDBRANCH   6  28
TORSDOF 10
ENDMDL
