MODEL 1
REMARK VINA RESULT: -9.785214914      0.000      0.000
REMARK  13 active torsions:
REMARK  status: ('A' for Active; 'I' for Inactive)
REMARK    1  A    between atoms: C5_6  and  C6_7 
REMARK    2  A    between atoms: C7_10  and  N2_11 
REMARK    3  A    between atoms: N2_11  and  C8_13 
REMARK    4  A    between atoms: C9_16  and  N4_17 
REMARK    5  A    between atoms: N5_20  and  C12_21 
REMARK    6  A    between atoms: C12_21  and  C13_22 
REMARK    7  A    between atoms: C13_22  and  O2_23 
REMARK    8  A    between atoms: N6_29  and  C18_31 
REMARK    9  A    between atoms: C23_36  and  S1_37 
REMARK   10  A    between atoms: S1_37  and  N7_38 
REMARK   11  A    between atoms: C25_46  and  C26_47 
REMARK   12  A    between atoms: C26_47  and  N9_48 
REMARK   13  A    between atoms: N9_48  and  C27_50 
ROOT
HETATM    1  C8  UNL     1      21.811   9.512  22.084  1.00  0.00     0.687 A 
HETATM    2  N3  UNL     1      20.692   9.270  22.765  1.00  0.00    -0.176 N 
ATOM      3  H3  UNL     1      20.594   9.729  23.670  1.00  0.00     0.186 HD
HETATM    4  C9  UNL     1      19.683   8.479  22.371  1.00  0.00     0.123 A 
HETATM    5  C16 UNL     1      19.830   7.857  21.123  1.00  0.00     0.098 A 
HETATM    6  C17 UNL     1      20.953   8.050  20.355  1.00  0.00     0.125 A 
HETATM    7  N6  UNL     1      21.263   7.323  19.371  1.00  0.00    -0.341 N 
ATOM      8  H6  UNL     1      22.126   7.660  18.942  1.00  0.00     0.167 HD
HETATM    9  N8  UNL     1      21.916   8.885  20.862  1.00  0.00    -0.176 N 
ATOM     10  H8  UNL     1      22.754   9.050  20.305  1.00  0.00     0.186 HD
ENDROOT
BRANCH   1  11
HETATM   11  N2  UNL     1      22.819  10.047  22.526  1.00  0.00    -0.176 N 
ATOM     12  H2  UNL     1      23.582   9.453  22.201  1.00  0.00     0.186 HD
BRANCH  11  13
HETATM   13  C7  UNL     1      23.434  11.028  23.228  1.00  0.00     0.122 A 
HETATM   14  N1  UNL     1      22.657  11.610  24.274  1.00  0.00    -0.341 N 
HETATM   15  C6  UNL     1      23.344  12.508  24.866  1.00  0.00     0.054 A 
ATOM     16  H1  UNL     1      21.699  11.349  24.511  1.00  0.00     0.167 HD
HETATM   17  C25 UNL     1      24.633  12.619  24.297  1.00  0.00    -0.009 A 
HETATM   18  C24 UNL     1      24.642  11.703  23.293  1.00  0.00     0.060 A 
BRANCH  15  19
HETATM   19  C5  UNL     1      22.895  13.416  25.937  1.00  0.00     0.022 A 
HETATM   20  C2  UNL     1      22.870  13.093  27.254  1.00  0.00     0.061 A 
HETATM   21  C1  UNL     1      23.507  11.902  27.844  1.00  0.00     0.077 C 
HETATM   22  O1  UNL     1      22.187  14.076  27.854  1.00  0.00    -0.327 OA
HETATM   23  C3  UNL     1      21.803  14.969  27.012  1.00  0.00     0.143 A 
HETATM   24  C4  UNL     1      22.225  14.624  25.720  1.00  0.00     0.041 A 
ENDBRANCH  15  19
BRANCH  17  25
HETATM   25  C26 UNL     1      25.681  13.341  25.040  1.00  0.00     0.162 C 
BRANCH  25  26
HETATM   26  N9  UNL     1      26.559  12.597  25.893  1.00  0.00    -0.372 N 
ATOM     27  H9  UNL     1      26.244  11.863  26.528  1.00  0.00     0.161 HD
BRANCH  26  28
HETATM   28  C27 UNL     1      27.823  12.966  25.769  1.00  0.00     0.101 A 
HETATM   29  C28 UNL     1      28.219  14.009  24.962  1.00  0.00     0.048 A 
HETATM   30  C29 UNL     1      29.559  14.333  24.801  1.00  0.00     0.005 A 
HETATM   31  C30 UNL     1      30.528  13.626  25.439  1.00  0.00     0.017 A 
HETATM   32  C31 UNL     1      30.136  12.592  26.241  1.00  0.00     0.089 A 
HETATM   33  N10 UNL     1      28.824  12.275  26.397  1.00  0.00    -0.353 N 
ATOM     34  H10 UNL     1      28.575  11.494  27.006  1.00  0.00     0.166 HD
ENDBRANCH  26  28
ENDBRANCH  25  26
ENDBRANCH  17  25
ENDBRANCH  11  13
ENDBRANCH   1  11
BRANCH   4  35
HETATM   35  N4  UNL     1      18.500   8.228  23.114  1.00  0.00    -0.360 N 
HETATM   36  C10 UNL     1      18.613   8.057  24.554  1.00  0.00     0.144 C 
HETATM   37  C11 UNL     1      17.337   8.156  25.291  1.00  0.00     0.141 C 
HETATM   38  N5  UNL     1      16.280   7.408  24.707  1.00  0.00    -0.388 N 
HETATM   39  C14 UNL     1      16.292   7.169  23.336  1.00  0.00     0.078 C 
HETATM   40  C15 UNL     1      17.179   8.102  22.541  1.00  0.00     0.168 C 
BRANCH  38  41
HETATM   41  C12 UNL     1      15.671   6.454  25.576  1.00  0.00     0.148 C 
BRANCH  41  42
HETATM   42  C13 UNL     1      14.254   6.722  25.964  1.00  0.00     0.183 C 
BRANCH  42  43
HETATM   43  O2  UNL     1      14.332   7.756  26.939  1.00  0.00    -0.399 OA
ATOM     44  H2  UNL     1      14.958   7.438  27.579  1.00  0.00     0.209 HD
ENDBRANCH  42  43
ENDBRANCH  41  42
ENDBRANCH  38  41
ENDBRANCH   4  35
BRANCH   7  45
HETATM   45  C18 UNL     1      20.799   6.223  18.704  1.00  0.00     0.057 A 
HETATM   46  C19 UNL     1      19.487   5.738  18.820  1.00  0.00     0.031 A 
HETATM   47  C20 UNL     1      19.058   4.565  18.268  1.00  0.00     0.002 A 
HETATM   48  C21 UNL     1      19.944   3.815  17.557  1.00  0.00     0.002 A 
HETATM   49  C22 UNL     1      21.271   4.253  17.406  1.00  0.00     0.027 A 
HETATM   50  C23 UNL     1      21.693   5.415  17.956  1.00  0.00     0.105 A 
BRANCH  50  51
HETATM   51  S1  UNL     1      23.376   5.950  17.784  1.00  0.00     0.259 S 
HETATM   52  O3  UNL     1      23.396   7.311  17.219  1.00  0.00    -0.201 OA
HETATM   53  O4  UNL     1      24.034   5.861  19.168  1.00  0.00    -0.201 OA
BRANCH  51  54
HETATM   54  N7  UNL     1      24.257   4.866  16.794  1.00  0.00    -0.324 N 
ATOM     55  H72 UNL     1      23.833   4.287  16.068  1.00  0.00     0.169 HD
ATOM     56  H71 UNL     1      25.249   4.884  17.032  1.00  0.00     0.169 HD
ENDBRANCH  51  54
ENDBRANCH  50  51
ENDBRANCH   7  45
TORSDOF 13
ENDMDL
MODEL 2
REMARK VINA RESULT: -9.716876678      3.502      6.057
REMARK  13 active torsions:
REMARK  status: ('A' for Active; 'I' for Inactive)
REMARK    1  A    between atoms: C5_6  and  C6_7 
REMARK    2  A    between atoms: C7_10  and  N2_11 
REMARK    3  A    between atoms: N2_11  and  C8_13 
REMARK    4  A    between atoms: C9_16  and  N4_17 
REMARK    5  A    between atoms: N5_20  and  C12_21 
REMARK    6  A    between atoms: C12_21  and  C13_22 
REMARK    7  A    between atoms: C13_22  and  O2_23 
REMARK    8  A    between atoms: N6_29  and  C18_31 
REMARK    9  A    between atoms: C23_36  and  S1_37 
REMARK   10  A    between atoms: S1_37  and  N7_38 
REMARK   11  A    between atoms: C25_46  and  C26_47 
REMARK   12  A    between atoms: C26_47  and  N9_48 
REMARK   13  A    between atoms: N9_48  and  C27_50 
ROOT
HETATM    1  C8  UNL     1      18.746   7.664  21.868  1.00  0.00     0.687 A 
HETATM    2  N3  UNL     1      17.835   7.628  22.839  1.00  0.00    -0.176 N 
ATOM      3  H3  UNL     1      18.108   8.012  23.743  1.00  0.00     0.186 HD
HETATM    4  C9  UNL     1      16.591   7.135  22.736  1.00  0.00     0.123 A 
HETATM    5  C16 UNL     1      16.228   6.615  21.486  1.00  0.00     0.098 A 
HETATM    6  C17 UNL     1      17.106   6.610  20.431  1.00  0.00     0.125 A 
HETATM    7  N6  UNL     1      16.942   5.924  19.384  1.00  0.00    -0.341 N 
ATOM      8  H6  UNL     1      17.708   6.088  18.730  1.00  0.00     0.167 HD
HETATM    9  N8  UNL     1      18.349   7.145  20.655  1.00  0.00    -0.176 N 
ATOM     10  H8  UNL     1      19.015   7.160  19.882  1.00  0.00     0.186 HD
ENDROOT
BRANCH   1  11
HETATM   11  N2  UNL     1      19.937   7.904  22.010  1.00  0.00    -0.176 N 
ATOM     12  H2  UNL     1      20.169   7.500  22.918  1.00  0.00     0.186 HD
BRANCH  11  13
HETATM   13  C7  UNL     1      21.104   8.434  21.573  1.00  0.00     0.122 A 
HETATM   14  N1  UNL     1      21.782   7.676  20.572  1.00  0.00    -0.341 N 
HETATM   15  C6  UNL     1      22.856   8.279  20.235  1.00  0.00     0.054 A 
ATOM     16  H1  UNL     1      21.459   6.788  20.185  1.00  0.00     0.167 HD
HETATM   17  C25 UNL     1      23.008   9.486  20.954  1.00  0.00    -0.009 A 
HETATM   18  C24 UNL     1      21.920   9.537  21.767  1.00  0.00     0.060 A 
BRANCH  15  19
HETATM   19  C5  UNL     1      23.895   7.802  19.306  1.00  0.00     0.022 A 
HETATM   20  C2  UNL     1      23.643   7.159  18.139  1.00  0.00     0.061 A 
HETATM   21  C1  UNL     1      22.318   7.055  17.500  1.00  0.00     0.077 C 
HETATM   22  O1  UNL     1      24.825   6.690  17.721  1.00  0.00    -0.327 OA
HETATM   23  C3  UNL     1      25.772   7.002  18.533  1.00  0.00     0.143 A 
HETATM   24  C4  UNL     1      25.258   7.739  19.609  1.00  0.00     0.041 A 
ENDBRANCH  15  19
BRANCH  17  25
HETATM   25  C26 UNL     1      23.982  10.483  20.478  1.00  0.00     0.162 C 
BRANCH  25  26
HETATM   26  N9  UNL     1      23.629  11.871  20.522  1.00  0.00    -0.372 N 
ATOM     27  H9  UNL     1      23.270  12.389  19.720  1.00  0.00     0.161 HD
BRANCH  26  28
HETATM   28  C27 UNL     1      23.818  12.407  21.716  1.00  0.00     0.101 A 
HETATM   29  C28 UNL     1      24.858  12.040  22.540  1.00  0.00     0.048 A 
HETATM   30  C29 UNL     1      24.997  12.574  23.814  1.00  0.00     0.005 A 
HETATM   31  C30 UNL     1      24.103  13.479  24.290  1.00  0.00     0.017 A 
HETATM   32  C31 UNL     1      23.071  13.845  23.472  1.00  0.00     0.089 A 
HETATM   33  N10 UNL     1      22.937  13.322  22.225  1.00  0.00    -0.353 N 
ATOM     34  H10 UNL     1      22.151  13.622  21.648  1.00  0.00     0.166 HD
ENDBRANCH  26  28
ENDBRANCH  25  26
ENDBRANCH  17  25
ENDBRANCH  11  13
ENDBRANCH   1  11
BRANCH   4  35
HETATM   35  N4  UNL     1      15.635   7.101  23.786  1.00  0.00    -0.360 N 
HETATM   36  C10 UNL     1      16.106   7.247  25.153  1.00  0.00     0.144 C 
HETATM   37  C11 UNL     1      15.052   7.556  26.141  1.00  0.00     0.141 C 
HETATM   38  N5  UNL     1      13.897   6.739  26.017  1.00  0.00    -0.388 N 
HETATM   39  C14 UNL     1      13.571   6.204  24.775  1.00  0.00     0.078 C 
HETATM   40  C15 UNL     1      14.215   6.904  23.599  1.00  0.00     0.168 C 
BRANCH  38  41
HETATM   41  C12 UNL     1      13.539   6.025  27.201  1.00  0.00     0.148 C 
BRANCH  41  42
HETATM   42  C13 UNL     1      12.217   6.364  27.806  1.00  0.00     0.183 C 
BRANCH  42  43
HETATM   43  O2  UNL     1      12.477   7.480  28.648  1.00  0.00    -0.399 OA
ATOM     44  H2  UNL     1      13.250   7.236  29.144  1.00  0.00     0.209 HD
ENDBRANCH  42  43
ENDBRANCH  41  42
ENDBRANCH  38  41
ENDBRANCH   4  35
BRANCH   7  45
HETATM   45  C18 UNL     1      16.051   5.030  18.856  1.00  0.00     0.057 A 
HETATM   46  C19 UNL     1      14.706   5.334  18.594  1.00  0.00     0.031 A 
HETATM   47  C20 UNL     1      13.781   4.410  18.199  1.00  0.00     0.002 A 
HETATM   48  C21 UNL     1      14.175   3.115  18.044  1.00  0.00     0.002 A 
HETATM   49  C22 UNL     1      15.511   2.755  18.291  1.00  0.00     0.027 A 
HETATM   50  C23 UNL     1      16.424   3.673  18.684  1.00  0.00     0.105 A 
BRANCH  50  51
HETATM   51  S1  UNL     1      18.103   3.207  19.019  1.00  0.00     0.259 S 
HETATM   52  O3  UNL     1      19.009   4.065  18.236  1.00  0.00    -0.201 OA
HETATM   53  O4  UNL     1      18.321   3.321  20.534  1.00  0.00    -0.201 OA
BRANCH  51  54
HETATM   54  N7  UNL     1      18.357   1.554  18.650  1.00  0.00    -0.324 N 
ATOM     55  H72 UNL     1      17.666   0.822  18.817  1.00  0.00     0.169 HD
ATOM     56  H71 UNL     1      19.283   1.413  18.245  1.00  0.00     0.169 HD
ENDBRANCH  51  54
ENDBRANCH  50  51
ENDBRANCH   7  45
TORSDOF 13
ENDMDL
MODEL 3
REMARK VINA RESULT: -9.631551063      2.598     10.434
REMARK  13 active torsions:
REMARK  status: ('A' for Active; 'I' for Inactive)
REMARK    1  A    between atoms: C5_6  and  C6_7 
REMARK    2  A    between atoms: C7_10  and  N2_11 
REMARK    3  A    between atoms: N2_11  and  C8_13 
REMARK    4  A    between atoms: C9_16  and  N4_17 
REMARK    5  A    between atoms: N5_20  and  C12_21 
REMARK    6  A    between atoms: C12_21  and  C13_22 
REMARK    7  A    between atoms: C13_22  and  O2_23 
REMARK    8  A    between atoms: N6_29  and  C18_31 
REMARK    9  A    between atoms: C23_36  and  S1_37 
REMARK   10  A    between atoms: S1_37  and  N7_38 
REMARK   11  A    between atoms: C25_46  and  C26_47 
REMARK   12  A    between atoms: C26_47  and  N9_48 
REMARK   13  A    between atoms: N9_48  and  C27_50 
ROOT
HETATM    1  C8  UNL     1      19.930   8.893  23.183  1.00  0.00     0.687 A 
HETATM    2  N3  UNL     1      20.687   9.931  23.532  1.00  0.00    -0.176 N 
ATOM      3  H3  UNL     1      20.286  10.594  24.195  1.00  0.00     0.186 HD
HETATM    4  C9  UNL     1      21.929  10.186  23.093  1.00  0.00     0.123 A 
HETATM    5  C16 UNL     1      22.470   9.265  22.185  1.00  0.00     0.098 A 
HETATM    6  C17 UNL     1      21.757   8.167  21.769  1.00  0.00     0.125 A 
HETATM    7  N6  UNL     1      22.071   7.464  20.769  1.00  0.00    -0.341 N 
ATOM      8  H6  UNL     1      21.410   6.694  20.657  1.00  0.00     0.167 HD
HETATM    9  N8  UNL     1      20.498   8.010  22.291  1.00  0.00    -0.176 N 
ATOM     10  H8  UNL     1      19.954   7.197  22.003  1.00  0.00     0.186 HD
ENDROOT
BRANCH   1  11
HETATM   11  N2  UNL     1      18.732   8.772  23.402  1.00  0.00    -0.176 N 
ATOM     12  H2  UNL     1      18.287   9.375  22.709  1.00  0.00     0.186 HD
BRANCH  11  13
HETATM   13  C7  UNL     1      17.698   8.244  24.098  1.00  0.00     0.122 A 
HETATM   14  N1  UNL     1      16.795   7.443  23.335  1.00  0.00    -0.341 N 
HETATM   15  C6  UNL     1      15.874   6.995  24.098  1.00  0.00     0.054 A 
ATOM     16  H1  UNL     1      16.872   7.259  22.335  1.00  0.00     0.167 HD
HETATM   17  C25 UNL     1      16.061   7.432  25.430  1.00  0.00    -0.009 A 
HETATM   18  C24 UNL     1      17.181   8.200  25.382  1.00  0.00     0.060 A 
BRANCH  15  19
HETATM   19  C5  UNL     1      14.693   6.208  23.706  1.00  0.00     0.022 A 
HETATM   20  C2  UNL     1      14.682   4.858  23.569  1.00  0.00     0.061 A 
HETATM   21  C1  UNL     1      15.755   3.955  24.020  1.00  0.00     0.077 C 
HETATM   22  O1  UNL     1      13.516   4.564  22.979  1.00  0.00    -0.327 OA
HETATM   23  C3  UNL     1      12.818   5.621  22.755  1.00  0.00     0.143 A 
HETATM   24  C4  UNL     1      13.509   6.755  23.203  1.00  0.00     0.041 A 
ENDBRANCH  15  19
BRANCH  17  25
HETATM   25  C26 UNL     1      15.321   6.759  26.512  1.00  0.00     0.162 C 
BRANCH  25  26
HETATM   26  N9  UNL     1      14.079   7.321  26.952  1.00  0.00    -0.372 N 
ATOM     27  H9  UNL     1      13.985   8.267  27.323  1.00  0.00     0.161 HD
BRANCH  26  28
HETATM   28  C27 UNL     1      13.065   6.480  26.826  1.00  0.00     0.101 A 
HETATM   29  C28 UNL     1      13.193   5.125  27.031  1.00  0.00     0.048 A 
HETATM   30  C29 UNL     1      12.129   4.257  26.830  1.00  0.00     0.005 A 
HETATM   31  C30 UNL     1      10.919   4.723  26.420  1.00  0.00     0.017 A 
HETATM   32  C31 UNL     1      10.792   6.068  26.218  1.00  0.00     0.089 A 
HETATM   33  N10 UNL     1      11.835   6.916  26.415  1.00  0.00    -0.353 N 
ATOM     34  H10 UNL     1      11.696   7.914  26.252  1.00  0.00     0.166 HD
ENDBRANCH  26  28
ENDBRANCH  25  26
ENDBRANCH  17  25
ENDBRANCH  11  13
ENDBRANCH   1  11
BRANCH   4  35
HETATM   35  N4  UNL     1      22.719  11.302  23.473  1.00  0.00    -0.360 N 
HETATM   36  C10 UNL     1      24.167  11.176  23.415  1.00  0.00     0.144 C 
HETATM   37  C11 UNL     1      24.903  12.454  23.476  1.00  0.00     0.141 C 
HETATM   38  N5  UNL     1      24.446  13.329  24.497  1.00  0.00    -0.388 N 
HETATM   39  C14 UNL     1      23.121  13.251  24.918  1.00  0.00     0.078 C 
HETATM   40  C15 UNL     1      22.191  12.563  23.944  1.00  0.00     0.168 C 
BRANCH  38  41
HETATM   41  C12 UNL     1      25.449  13.742  25.425  1.00  0.00     0.148 C 
BRANCH  41  42
HETATM   42  C13 UNL     1      26.854  13.352  25.100  1.00  0.00     0.183 C 
BRANCH  42  43
HETATM   43  O2  UNL     1      27.479  14.558  24.680  1.00  0.00    -0.399 OA
ATOM     44  H2  UNL     1      28.378  14.482  24.979  1.00  0.00     0.209 HD
ENDBRANCH  42  43
ENDBRANCH  41  42
ENDBRANCH  38  41
ENDBRANCH   4  35
BRANCH   7  45
HETATM   45  C18 UNL     1      23.024   7.418  19.789  1.00  0.00     0.057 A 
HETATM   46  C19 UNL     1      24.318   7.941  19.936  1.00  0.00     0.031 A 
HETATM   47  C20 UNL     1      25.226   8.022  18.919  1.00  0.00     0.002 A 
HETATM   48  C21 UNL     1      24.868   7.568  17.686  1.00  0.00     0.002 A 
HETATM   49  C22 UNL     1      23.585   7.031  17.482  1.00  0.00     0.027 A 
HETATM   50  C23 UNL     1      22.688   6.954  18.491  1.00  0.00     0.105 A 
BRANCH  50  51
HETATM   51  S1  UNL     1      21.061   6.299  18.221  1.00  0.00     0.259 S 
HETATM   52  O3  UNL     1      20.069   7.201  18.832  1.00  0.00    -0.201 OA
HETATM   53  O4  UNL     1      20.874   6.132  16.707  1.00  0.00    -0.201 OA
BRANCH  51  54
HETATM   54  N7  UNL     1      20.930   4.720  18.870  1.00  0.00    -0.324 N 
ATOM     55  H72 UNL     1      20.844   4.520  19.867  1.00  0.00     0.169 HD
ATOM     56  H71 UNL     1      20.951   4.022  18.126  1.00  0.00     0.169 HD
ENDBRANCH  51  54
ENDBRANCH  50  51
ENDBRANCH   7  45
TORSDOF 13
ENDMDL
MODEL 4
REMARK VINA RESULT: -9.574129253      4.056      6.502
REMARK  13 active torsions:
REMARK  status: ('A' for Active; 'I' for Inactive)
REMARK    1  A    between atoms: C5_6  and  C6_7 
REMARK    2  A    between atoms: C7_10  and  N2_11 
REMARK    3  A    between atoms: N2_11  and  C8_13 
REMARK    4  A    between atoms: C9_16  and  N4_17 
REMARK    5  A    between atoms: N5_20  and  C12_21 
REMARK    6  A    between atoms: C12_21  and  C13_22 
REMARK    7  A    between atoms: C13_22  and  O2_23 
REMARK    8  A    between atoms: N6_29  and  C18_31 
REMARK    9  A    between atoms: C23_36  and  S1_37 
REMARK   10  A    between atoms: S1_37  and  N7_38 
REMARK   11  A    between atoms: C25_46  and  C26_47 
REMARK   12  A    between atoms: C26_47  and  N9_48 
REMARK   13  A    between atoms: N9_48  and  C27_50 
ROOT
HETATM    1  C8  UNL     1      17.534   7.751  21.975  1.00  0.00     0.687 A 
HETATM    2  N3  UNL     1      16.619   7.446  22.895  1.00  0.00    -0.176 N 
ATOM      3  H3  UNL     1      16.786   7.784  23.842  1.00  0.00     0.186 HD
HETATM    4  C9  UNL     1      15.499   6.737  22.689  1.00  0.00     0.123 A 
HETATM    5  C16 UNL     1      15.280   6.282  21.381  1.00  0.00     0.098 A 
HETATM    6  C17 UNL     1      16.172   6.549  20.373  1.00  0.00     0.125 A 
HETATM    7  N6  UNL     1      16.175   5.951  19.261  1.00  0.00    -0.341 N 
ATOM      8  H6  UNL     1      16.913   6.322  18.662  1.00  0.00     0.167 HD
HETATM    9  N8  UNL     1      17.280   7.288  20.703  1.00  0.00    -0.176 N 
ATOM     10  H8  UNL     1      17.953   7.505  19.967  1.00  0.00     0.186 HD
ENDROOT
BRANCH   1  11
HETATM   11  N2  UNL     1      18.650   8.199  22.195  1.00  0.00    -0.176 N 
ATOM     12  H2  UNL     1      18.555   8.687  23.086  1.00  0.00     0.186 HD
BRANCH  11  13
HETATM   13  C7  UNL     1      19.949   8.376  21.855  1.00  0.00     0.122 A 
HETATM   14  N1  UNL     1      20.511   9.635  22.227  1.00  0.00    -0.341 N 
HETATM   15  C6  UNL     1      21.735   9.678  21.864  1.00  0.00     0.054 A 
ATOM     16  H1  UNL     1      20.012  10.384  22.707  1.00  0.00     0.167 HD
HETATM   17  C25 UNL     1      22.120   8.475  21.229  1.00  0.00    -0.009 A 
HETATM   18  C24 UNL     1      20.995   7.712  21.237  1.00  0.00     0.060 A 
BRANCH  15  19
HETATM   19  C5  UNL     1      22.657  10.822  21.968  1.00  0.00     0.022 A 
HETATM   20  C2  UNL     1      22.705  11.675  23.022  1.00  0.00     0.061 A 
HETATM   21  C1  UNL     1      22.034  11.458  24.316  1.00  0.00     0.077 C 
HETATM   22  O1  UNL     1      23.485  12.690  22.630  1.00  0.00    -0.327 OA
HETATM   23  C3  UNL     1      23.919  12.520  21.431  1.00  0.00     0.143 A 
HETATM   24  C4  UNL     1      23.429  11.314  20.911  1.00  0.00     0.041 A 
ENDBRANCH  15  19
BRANCH  17  25
HETATM   25  C26 UNL     1      23.554   8.191  21.048  1.00  0.00     0.162 C 
BRANCH  25  26
HETATM   26  N9  UNL     1      23.972   6.834  20.862  1.00  0.00    -0.372 N 
ATOM     27  H9  UNL     1      24.131   6.180  21.629  1.00  0.00     0.161 HD
BRANCH  26  28
HETATM   28  C27 UNL     1      24.128   6.519  19.587  1.00  0.00     0.101 A 
HETATM   29  C28 UNL     1      25.190   6.970  18.835  1.00  0.00     0.048 A 
HETATM   30  C29 UNL     1      25.297   6.676  17.482  1.00  0.00     0.005 A 
HETATM   31  C30 UNL     1      24.349   5.932  16.854  1.00  0.00     0.017 A 
HETATM   32  C31 UNL     1      23.296   5.484  17.600  1.00  0.00     0.089 A 
HETATM   33  N10 UNL     1      23.193   5.772  18.925  1.00  0.00    -0.353 N 
ATOM     34  H10 UNL     1      22.389   5.418  19.444  1.00  0.00     0.166 HD
ENDBRANCH  26  28
ENDBRANCH  25  26
ENDBRANCH  17  25
ENDBRANCH  11  13
ENDBRANCH   1  11
BRANCH   4  35
HETATM   35  N4  UNL     1      14.538   6.417  23.685  1.00  0.00    -0.360 N 
HETATM   36  C10 UNL     1      13.150   6.262  23.280  1.00  0.00     0.144 C 
HETATM   37  C11 UNL     1      12.286   5.594  24.274  1.00  0.00     0.141 C 
HETATM   38  N5  UNL     1      12.445   6.091  25.595  1.00  0.00    -0.388 N 
HETATM   39  C14 UNL     1      13.664   6.646  25.972  1.00  0.00     0.078 C 
HETATM   40  C15 UNL     1      14.832   6.257  25.092  1.00  0.00     0.168 C 
BRANCH  38  41
HETATM   41  C12 UNL     1      11.245   6.567  26.203  1.00  0.00     0.148 C 
BRANCH  41  42
HETATM   42  C13 UNL     1      10.069   5.647  26.156  1.00  0.00     0.183 C 
BRANCH  42  43
HETATM   43  O2  UNL     1       8.937   6.506  26.092  1.00  0.00    -0.399 OA
ATOM     44  H2  UNL     1       8.228   6.003  26.476  1.00  0.00     0.209 HD
ENDBRANCH  42  43
ENDBRANCH  41  42
ENDBRANCH  38  41
ENDBRANCH   4  35
BRANCH   7  45
HETATM   45  C18 UNL     1      15.491   4.959  18.613  1.00  0.00     0.057 A 
HETATM   46  C19 UNL     1      14.159   5.083  18.186  1.00  0.00     0.031 A 
HETATM   47  C20 UNL     1      13.430   4.053  17.664  1.00  0.00     0.002 A 
HETATM   48  C21 UNL     1      14.018   2.830  17.543  1.00  0.00     0.002 A 
HETATM   49  C22 UNL     1      15.350   2.651  17.953  1.00  0.00     0.027 A 
HETATM   50  C23 UNL     1      16.069   3.673  18.470  1.00  0.00     0.105 A 
BRANCH  50  51
HETATM   51  S1  UNL     1      17.743   3.433  19.010  1.00  0.00     0.259 S 
HETATM   52  O3  UNL     1      18.609   4.435  18.363  1.00  0.00    -0.201 OA
HETATM   53  O4  UNL     1      17.753   3.524  20.542  1.00  0.00    -0.201 OA
BRANCH  51  54
HETATM   54  N7  UNL     1      18.273   1.844  18.649  1.00  0.00    -0.324 N 
ATOM     55  H72 UNL     1      17.712   1.161  18.139  1.00  0.00     0.169 HD
ATOM     56  H71 UNL     1      19.214   1.687  19.011  1.00  0.00     0.169 HD
ENDBRANCH  51  54
ENDBRANCH  50  51
ENDBRANCH   7  45
TORSDOF 13
ENDMDL
MODEL 5
REMARK VINA RESULT: -9.471669170      2.307      6.267
REMARK  13 active torsions:
REMARK  status: ('A' for Active; 'I' for Inactive)
REMARK    1  A    between atoms: C5_6  and  C6_7 
REMARK    2  A    between atoms: C7_10  and  N2_11 
REMARK    3  A    between atoms: N2_11  and  C8_13 
REMARK    4  A    between atoms: C9_16  and  N4_17 
REMARK    5  A    between atoms: N5_20  and  C12_21 
REMARK    6  A    between atoms: C12_21  and  C13_22 
REMARK    7  A    between atoms: C13_22  and  O2_23 
REMARK    8  A    between atoms: N6_29  and  C18_31 
REMARK    9  A    between atoms: C23_36  and  S1_37 
REMARK   10  A    between atoms: S1_37  and  N7_38 
REMARK   11  A    between atoms: C25_46  and  C26_47 
REMARK   12  A    between atoms: C26_47  and  N9_48 
REMARK   13  A    between atoms: N9_48  and  C27_50 
ROOT
HETATM    1  C8  UNL     1      21.189  10.164  22.916  1.00  0.00     0.687 A 
HETATM    2  N3  UNL     1      21.598   9.418  21.891  1.00  0.00    -0.176 N 
ATOM      3  H3  UNL     1      22.488   9.669  21.463  1.00  0.00     0.186 HD
HETATM    4  C9  UNL     1      20.946   8.367  21.370  1.00  0.00     0.123 A 
HETATM    5  C16 UNL     1      19.725   8.031  21.970  1.00  0.00     0.098 A 
HETATM    6  C17 UNL     1      19.228   8.748  23.031  1.00  0.00     0.125 A 
HETATM    7  N6  UNL     1      18.033   8.671  23.432  1.00  0.00    -0.341 N 
ATOM      8  H6  UNL     1      17.892   9.278  24.240  1.00  0.00     0.167 HD
HETATM    9  N8  UNL     1      19.985   9.799  23.479  1.00  0.00    -0.176 N 
ATOM     10  H8  UNL     1      19.640  10.341  24.272  1.00  0.00     0.186 HD
ENDROOT
BRANCH   1  11
HETATM   11  N2  UNL     1      21.659  11.243  23.251  1.00  0.00    -0.176 N 
ATOM     12  H2  UNL     1      21.113  11.928  22.728  1.00  0.00     0.186 HD
BRANCH  11  13
HETATM   13  C7  UNL     1      22.536  11.987  23.964  1.00  0.00     0.122 A 
HETATM   14  N1  UNL     1      22.222  12.140  25.349  1.00  0.00    -0.341 N 
HETATM   15  C6  UNL     1      23.122  12.848  25.914  1.00  0.00     0.054 A 
ATOM     16  H1  UNL     1      21.405  11.745  25.815  1.00  0.00     0.167 HD
HETATM   17  C25 UNL     1      24.119  13.234  24.990  1.00  0.00    -0.009 A 
HETATM   18  C24 UNL     1      23.716  12.695  23.810  1.00  0.00     0.060 A 
BRANCH  15  19
HETATM   19  C5  UNL     1      23.140  13.324  27.308  1.00  0.00     0.022 A 
HETATM   20  C2  UNL     1      23.551  12.582  28.366  1.00  0.00     0.061 A 
HETATM   21  C1  UNL     1      24.265  11.296  28.270  1.00  0.00     0.077 C 
HETATM   22  O1  UNL     1      23.192  13.273  29.455  1.00  0.00    -0.327 OA
HETATM   23  C3  UNL     1      22.604  14.374  29.145  1.00  0.00     0.143 A 
HETATM   24  C4  UNL     1      22.525  14.499  27.751  1.00  0.00     0.041 A 
ENDBRANCH  15  19
BRANCH  17  25
HETATM   25  C26 UNL     1      25.401  13.753  25.499  1.00  0.00     0.162 C 
BRANCH  25  26
HETATM   26  N9  UNL     1      26.532  13.785  24.620  1.00  0.00    -0.372 N 
ATOM     27  H9  UNL     1      26.476  13.596  23.619  1.00  0.00     0.161 HD
BRANCH  26  28
HETATM   28  C27 UNL     1      27.656  14.087  25.247  1.00  0.00     0.101 A 
HETATM   29  C28 UNL     1      27.688  14.852  26.391  1.00  0.00     0.048 A 
HETATM   30  C29 UNL     1      28.888  15.207  26.993  1.00  0.00     0.005 A 
HETATM   31  C30 UNL     1      30.075  14.809  26.466  1.00  0.00     0.017 A 
HETATM   32  C31 UNL     1      30.044  14.049  25.332  1.00  0.00     0.089 A 
HETATM   33  N10 UNL     1      28.869  13.702  24.744  1.00  0.00    -0.353 N 
ATOM     34  H10 UNL     1      28.892  13.134  23.896  1.00  0.00     0.166 HD
ENDBRANCH  26  28
ENDBRANCH  25  26
ENDBRANCH  17  25
ENDBRANCH  11  13
ENDBRANCH   1  11
BRANCH   4  35
HETATM   35  N4  UNL     1      21.396   7.587  20.272  1.00  0.00    -0.360 N 
HETATM   36  C10 UNL     1      22.827   7.484  20.039  1.00  0.00     0.144 C 
HETATM   37  C11 UNL     1      23.229   6.396  19.125  1.00  0.00     0.141 C 
HETATM   38  N5  UNL     1      22.450   6.329  17.939  1.00  0.00    -0.388 N 
HETATM   39  C14 UNL     1      21.138   6.792  17.960  1.00  0.00     0.078 C 
HETATM   40  C15 UNL     1      20.530   6.900  19.341  1.00  0.00     0.168 C 
BRANCH  38  41
HETATM   41  C12 UNL     1      23.199   6.408  16.726  1.00  0.00     0.148 C 
BRANCH  41  42
HETATM   42  C13 UNL     1      24.614   5.935  16.789  1.00  0.00     0.183 C 
BRANCH  42  43
HETATM   43  O2  UNL     1      24.908   5.489  15.471  1.00  0.00    -0.399 OA
ATOM     44  H2  UNL     1      25.850   5.576  15.389  1.00  0.00     0.209 HD
ENDBRANCH  42  43
ENDBRANCH  41  42
ENDBRANCH  38  41
ENDBRANCH   4  35
BRANCH   7  45
HETATM   45  C18 UNL     1      16.870   8.023  23.116  1.00  0.00     0.057 A 
HETATM   46  C19 UNL     1      16.285   8.052  21.840  1.00  0.00     0.031 A 
HETATM   47  C20 UNL     1      15.058   7.525  21.554  1.00  0.00     0.002 A 
HETATM   48  C21 UNL     1      14.352   6.931  22.556  1.00  0.00     0.002 A 
HETATM   49  C22 UNL     1      14.892   6.871  23.853  1.00  0.00     0.027 A 
HETATM   50  C23 UNL     1      16.107   7.395  24.132  1.00  0.00     0.105 A 
BRANCH  50  51
HETATM   51  S1  UNL     1      16.770   7.340  25.777  1.00  0.00     0.259 S 
HETATM   52  O3  UNL     1      17.998   6.525  25.777  1.00  0.00    -0.201 OA
HETATM   53  O4  UNL     1      17.006   8.787  26.231  1.00  0.00    -0.201 OA
BRANCH  51  54
HETATM   54  N7  UNL     1      15.618   6.705  26.873  1.00  0.00    -0.324 N 
ATOM     55  H72 UNL     1      14.621   6.624  26.667  1.00  0.00     0.169 HD
ATOM     56  H71 UNL     1      16.066   6.425  27.746  1.00  0.00     0.169 HD
ENDBRANCH  51  54
ENDBRANCH  50  51
ENDBRANCH   7  45
TORSDOF 13
ENDMDL
