MODEL 1
REMARK VINA RESULT: -12.010087802      0.000      0.000
REMARK  14 active torsions:
REMARK  status: ('A' for Active; 'I' for Inactive)
REMARK    1  A    between atoms: C2_4  and  C3_5 
REMARK    2  A    between atoms: C3_5  and  O1_6 
REMARK    3  A    between atoms: C3_5  and  C4_8 
REMARK    4  A    between atoms: C4_8  and  O2_9 
REMARK    5  A    between atoms: C4_8  and  N3_11 
REMARK    6  A    between atoms: N3_11  and  C5_13 
REMARK    7  A    between atoms: C6_18  and  C7_19 
REMARK    8  A    between atoms: C7_19  and  O3_20 
REMARK    9  A    between atoms: C7_19  and  C8_22 
REMARK   10  A    between atoms: C8_22  and  O4_23 
REMARK   11  A    between atoms: C8_22  and  C9_25 
REMARK   12  A    between atoms: C9_25  and  N6_26 
REMARK   13  A    between atoms: C11_32  and  N9_33 
REMARK   14  A    between atoms: C12_38  and  N11_39 
ROOT
HETATM    1  N1  UNL     1      23.587  28.759  73.899  1.00  0.00    -0.171 NA
HETATM    2  C1  UNL     1      22.892  29.672  73.748  1.00  0.00     0.192 C 
HETATM    3  N2  UNL     1      22.056  30.771  73.546  1.00  0.00    -0.218 N 
HETATM    4  C2  UNL     1      20.980  30.784  72.748  1.00  0.00     0.137 A 
HETATM    5  N14 UNL     1      20.382  31.986  72.760  1.00  0.00    -0.328 N 
ATOM      6  H14 UNL     1      19.547  32.250  72.238  1.00  0.00     0.168 HD
HETATM    7  C16 UNL     1      21.090  32.780  73.591  1.00  0.00     0.160 A 
HETATM    8  N15 UNL     1      20.839  34.137  73.924  1.00  0.00    -0.079 NA
HETATM    9  C17 UNL     1      22.128  32.007  74.071  1.00  0.00     0.174 A 
HETATM   10  N16 UNL     1      23.122  32.450  74.982  1.00  0.00    -0.078 NA
ENDROOT
BRANCH   4  11
HETATM   11  C3  UNL     1      20.466  29.623  71.922  1.00  0.00     0.261 C 
BRANCH  11  12
HETATM   12  O1  UNL     1      21.528  29.127  71.253  1.00  0.00    -0.380 OA
ATOM     13  H1  UNL     1      21.676  29.704  70.514  1.00  0.00     0.211 HD
ENDBRANCH  11  12
BRANCH  11  14
HETATM   14  C4  UNL     1      19.281  30.087  71.260  1.00  0.00     0.154 C 
BRANCH  14  15
HETATM   15  O2  UNL     1      19.098  29.484  70.091  1.00  0.00    -0.347 OA
ATOM     16  H2  UNL     1      18.567  28.700  70.176  1.00  0.00     0.219 HD
ENDBRANCH  14  15
BRANCH  14  17
HETATM   17  N3  UNL     1      18.313  31.002  71.566  1.00  0.00    -0.322 N 
ATOM     18  H3  UNL     1      17.820  30.826  72.442  1.00  0.00     0.169 HD
BRANCH  17  19
HETATM   19  C5  UNL     1      17.893  32.134  70.875  1.00  0.00     0.146 A 
HETATM   20  N4  UNL     1      18.410  33.360  70.965  1.00  0.00    -0.284 N 
HETATM   21  N5  UNL     1      18.021  34.433  70.318  1.00  0.00    -0.300 N 
ATOM     22  H4  UNL     1      19.194  33.476  71.607  1.00  0.00     0.188 HD
HETATM   23  C6  UNL     1      17.010  34.347  69.471  1.00  0.00     0.059 A 
ATOM     24  H5  UNL     1      18.494  35.323  70.467  1.00  0.00     0.186 HD
HETATM   25  C14 UNL     1      16.399  33.132  69.299  1.00  0.00     0.059 A 
HETATM   26  C15 UNL     1      16.809  32.012  69.979  1.00  0.00     0.093 A 
HETATM   27  N13 UNL     1      16.171  30.761  69.793  1.00  0.00    -0.098 NA
BRANCH  23  28
HETATM   28  C7  UNL     1      16.540  35.529  68.722  1.00  0.00     0.199 C 
BRANCH  28  29
HETATM   29  O3  UNL     1      17.421  36.590  68.844  1.00  0.00    -0.387 OA
ATOM     30  H3  UNL     1      17.076  37.265  69.417  1.00  0.00     0.210 HD
ENDBRANCH  28  29
BRANCH  28  31
HETATM   31  C8  UNL     1      15.160  35.978  69.216  1.00  0.00     0.172 C 
BRANCH  31  32
HETATM   32  O4  UNL     1      15.030  37.304  68.810  1.00  0.00    -0.391 OA
ATOM     33  H4  UNL     1      14.131  37.394  68.516  1.00  0.00     0.210 HD
ENDBRANCH  31  32
BRANCH  31  34
HETATM   34  C9  UNL     1      14.159  35.083  68.516  1.00  0.00     0.187 C 
BRANCH  34  35
HETATM   35  N6  UNL     1      12.957  35.783  68.179  1.00  0.00    -0.257 N 
HETATM   36  N7  UNL     1      12.835  36.652  67.193  1.00  0.00    -0.238 N 
HETATM   37  N8  UNL     1      11.614  37.120  67.141  1.00  0.00    -0.279 N 
ATOM     38  H7  UNL     1      13.588  36.922  66.560  1.00  0.00     0.208 HD
HETATM   39  C10 UNL     1      10.913  36.530  68.135  1.00  0.00     0.140 A 
ATOM     40  H8  UNL     1      11.258  37.804  66.473  1.00  0.00     0.189 HD
HETATM   41  C11 UNL     1       9.611  36.612  68.577  1.00  0.00     0.147 A 
HETATM   42  C13 UNL     1      11.770  35.683  68.790  1.00  0.00     0.171 A 
HETATM   43  N10 UNL     1       9.179  35.896  69.607  1.00  0.00    -0.175 N 
HETATM   44  C12 UNL     1      10.056  35.086  70.212  1.00  0.00     0.679 A 
ATOM     45  H10 UNL     1       8.212  35.962  69.927  1.00  0.00     0.186 HD
HETATM   46  N12 UNL     1      11.338  34.960  69.830  1.00  0.00    -0.173 N 
ATOM     47  H12 UNL     1      11.969  34.328  70.323  1.00  0.00     0.186 HD
BRANCH  41  48
HETATM   48  N9  UNL     1       8.795  37.402  67.971  1.00  0.00    -0.383 N 
ATOM     49  H92 UNL     1       7.989  37.769  68.476  1.00  0.00     0.157 HD
ATOM     50  H91 UNL     1       8.972  37.644  66.996  1.00  0.00     0.157 HD
ENDBRANCH  41  48
BRANCH  44  51
HETATM   51  N11 UNL     1       9.632  34.385  71.222  1.00  0.00    -0.234 N 
ATOM     52 2H11 UNL     1      10.150  34.424  72.100  1.00  0.00     0.174 HD
ATOM     53 1H11 UNL     1       8.792  33.821  71.088  1.00  0.00     0.174 HD
ENDBRANCH  44  51
ENDBRANCH  34  35
ENDBRANCH  31  34
ENDBRANCH  28  31
ENDBRANCH  23  28
ENDBRANCH  17  19
ENDBRANCH  14  17
ENDBRANCH  11  14
ENDBRANCH   4  11
TORSDOF 14
ENDMDL
MODEL 2
REMARK VINA RESULT: -11.894206877      0.588      1.647
REMARK  14 active torsions:
REMARK  status: ('A' for Active; 'I' for Inactive)
REMARK    1  A    between atoms: C2_4  and  C3_5 
REMARK    2  A    between atoms: C3_5  and  O1_6 
REMARK    3  A    between atoms: C3_5  and  C4_8 
REMARK    4  A    between atoms: C4_8  and  O2_9 
REMARK    5  A    between atoms: C4_8  and  N3_11 
REMARK    6  A    between atoms: N3_11  and  C5_13 
REMARK    7  A    between atoms: C6_18  and  C7_19 
REMARK    8  A    between atoms: C7_19  and  O3_20 
REMARK    9  A    between atoms: C7_19  and  C8_22 
REMARK   10  A    between atoms: C8_22  and  O4_23 
REMARK   11  A    between atoms: C8_22  and  C9_25 
REMARK   12  A    between atoms: C9_25  and  N6_26 
REMARK   13  A    between atoms: C11_32  and  N9_33 
REMARK   14  A    between atoms: C12_38  and  N11_39 
ROOT
HETATM    1  N1  UNL     1      23.558  28.769  73.912  1.00  0.00    -0.171 NA
HETATM    2  C1  UNL     1      22.880  29.696  73.765  1.00  0.00     0.192 C 
HETATM    3  N2  UNL     1      22.064  30.811  73.566  1.00  0.00    -0.218 N 
HETATM    4  C2  UNL     1      20.987  30.846  72.771  1.00  0.00     0.137 A 
HETATM    5  N14 UNL     1      20.412  32.058  72.786  1.00  0.00    -0.328 N 
ATOM      6  H14 UNL     1      19.581  32.339  72.266  1.00  0.00     0.168 HD
HETATM    7  C16 UNL     1      21.136  32.838  73.617  1.00  0.00     0.160 A 
HETATM    8  N15 UNL     1      20.912  34.199  73.952  1.00  0.00    -0.079 NA
HETATM    9  C17 UNL     1      22.161  32.045  74.093  1.00  0.00     0.174 A 
HETATM   10  N16 UNL     1      23.165  32.467  75.003  1.00  0.00    -0.078 NA
ENDROOT
BRANCH   4  11
HETATM   11  C3  UNL     1      20.450  29.696  71.944  1.00  0.00     0.261 C 
BRANCH  11  12
HETATM   12  O1  UNL     1      21.502  29.177  71.277  1.00  0.00    -0.380 OA
ATOM     13  H1  UNL     1      21.164  28.457  70.757  1.00  0.00     0.211 HD
ENDBRANCH  11  12
BRANCH  11  14
HETATM   14  C4  UNL     1      19.276  30.185  71.280  1.00  0.00     0.154 C 
BRANCH  14  15
HETATM   15  O2  UNL     1      19.080  29.585  70.112  1.00  0.00    -0.347 OA
ATOM     16  H2  UNL     1      18.531  30.102  69.534  1.00  0.00     0.219 HD
ENDBRANCH  14  15
BRANCH  14  17
HETATM   17  N3  UNL     1      18.329  31.122  71.584  1.00  0.00    -0.322 N 
ATOM     18  H3  UNL     1      17.852  30.976  72.474  1.00  0.00     0.169 HD
BRANCH  17  19
HETATM   19  C5  UNL     1      17.910  32.244  70.874  1.00  0.00     0.146 A 
HETATM   20  N4  UNL     1      18.421  33.473  70.953  1.00  0.00    -0.284 N 
HETATM   21  N5  UNL     1      18.035  34.535  70.288  1.00  0.00    -0.300 N 
ATOM     22  H4  UNL     1      19.198  33.601  71.601  1.00  0.00     0.188 HD
HETATM   23  C6  UNL     1      17.033  34.435  69.432  1.00  0.00     0.059 A 
ATOM     24  H5  UNL     1      18.503  35.430  70.430  1.00  0.00     0.186 HD
HETATM   25  C14 UNL     1      16.429  33.215  69.269  1.00  0.00     0.059 A 
HETATM   26  C15 UNL     1      16.837  32.105  69.968  1.00  0.00     0.093 A 
HETATM   27  N13 UNL     1      16.206  30.849  69.792  1.00  0.00    -0.098 NA
BRANCH  23  28
HETATM   28  C7  UNL     1      16.566  35.605  68.663  1.00  0.00     0.199 C 
BRANCH  28  29
HETATM   29  O3  UNL     1      17.445  36.669  68.775  1.00  0.00    -0.387 OA
ATOM     30  H3  UNL     1      17.081  37.365  69.310  1.00  0.00     0.210 HD
ENDBRANCH  28  29
BRANCH  28  31
HETATM   31  C8  UNL     1      15.182  36.058  69.142  1.00  0.00     0.172 C 
BRANCH  31  32
HETATM   32  O4  UNL     1      15.106  37.415  68.835  1.00  0.00    -0.391 OA
ATOM     33  H4  UNL     1      14.655  37.463  68.000  1.00  0.00     0.210 HD
ENDBRANCH  31  32
BRANCH  31  34
HETATM   34  C9  UNL     1      14.182  35.252  68.341  1.00  0.00     0.187 C 
BRANCH  34  35
HETATM   35  N6  UNL     1      12.903  35.193  68.981  1.00  0.00    -0.257 N 
HETATM   36  N7  UNL     1      12.598  34.403  69.995  1.00  0.00    -0.238 N 
HETATM   37  N8  UNL     1      11.353  34.581  70.356  1.00  0.00    -0.279 N 
ATOM     38  H7  UNL     1      13.243  33.747  70.434  1.00  0.00     0.208 HD
HETATM   39  C10 UNL     1      10.827  35.525  69.543  1.00  0.00     0.140 A 
ATOM     40  H8  UNL     1      10.869  34.096  71.112  1.00  0.00     0.189 HD
HETATM   41  C11 UNL     1       9.592  36.123  69.433  1.00  0.00     0.147 A 
HETATM   42  C13 UNL     1      11.816  35.909  68.674  1.00  0.00     0.171 A 
HETATM   43  N10 UNL     1       9.346  37.049  68.516  1.00  0.00    -0.175 N 
HETATM   44  C12 UNL     1      10.344  37.387  67.691  1.00  0.00     0.679 A 
ATOM     45  H10 UNL     1       8.428  37.488  68.442  1.00  0.00     0.186 HD
HETATM   46  N12 UNL     1      11.571  36.843  67.746  1.00  0.00    -0.173 N 
ATOM     47  H12 UNL     1      12.301  37.134  67.095  1.00  0.00     0.186 HD
BRANCH  41  48
HETATM   48  N9  UNL     1       8.654  35.773  70.243  1.00  0.00    -0.383 N 
ATOM     49  H92 UNL     1       8.476  34.782  70.403  1.00  0.00     0.157 HD
ATOM     50  H91 UNL     1       8.107  36.497  70.709  1.00  0.00     0.157 HD
ENDBRANCH  41  48
BRANCH  44  51
HETATM   51  N11 UNL     1      10.102  38.296  66.791  1.00  0.00    -0.234 N 
ATOM     52 2H11 UNL     1       9.857  39.238  67.097  1.00  0.00     0.174 HD
ATOM     53 1H11 UNL     1      10.167  38.020  65.811  1.00  0.00     0.174 HD
ENDBRANCH  44  51
ENDBRANCH  34  35
ENDBRANCH  31  34
ENDBRANCH  28  31
ENDBRANCH  23  28
ENDBRANCH  17  19
ENDBRANCH  14  17
ENDBRANCH  11  14
ENDBRANCH   4  11
TORSDOF 14
ENDMDL
MODEL 3
REMARK VINA RESULT: -11.695831083      1.674     10.925
REMARK  14 active torsions:
REMARK  status: ('A' for Active; 'I' for Inactive)
REMARK    1  A    between atoms: C2_4  and  C3_5 
REMARK    2  A    between atoms: C3_5  and  O1_6 
REMARK    3  A    between atoms: C3_5  and  C4_8 
REMARK    4  A    between atoms: C4_8  and  O2_9 
REMARK    5  A    between atoms: C4_8  and  N3_11 
REMARK    6  A    between atoms: N3_11  and  C5_13 
REMARK    7  A    between atoms: C6_18  and  C7_19 
REMARK    8  A    between atoms: C7_19  and  O3_20 
REMARK    9  A    between atoms: C7_19  and  C8_22 
REMARK   10  A    between atoms: C8_22  and  O4_23 
REMARK   11  A    between atoms: C8_22  and  C9_25 
REMARK   12  A    between atoms: C9_25  and  N6_26 
REMARK   13  A    between atoms: C11_32  and  N9_33 
REMARK   14  A    between atoms: C12_38  and  N11_39 
ROOT
HETATM    1  N1  UNL     1       9.751  34.415  70.882  1.00  0.00    -0.171 NA
HETATM    2  C1  UNL     1      10.270  35.090  70.097  1.00  0.00     0.192 C 
HETATM    3  N2  UNL     1      10.909  35.911  69.166  1.00  0.00    -0.218 N 
HETATM    4  C2  UNL     1      12.221  35.898  68.900  1.00  0.00     0.137 A 
HETATM    5  N14 UNL     1      12.534  36.802  67.960  1.00  0.00    -0.328 N 
ATOM      6  H14 UNL     1      13.465  36.986  67.585  1.00  0.00     0.168 HD
HETATM    7  C16 UNL     1      11.391  37.424  67.601  1.00  0.00     0.160 A 
HETATM    8  N15 UNL     1      11.223  38.454  66.640  1.00  0.00    -0.079 NA
HETATM    9  C17 UNL     1      10.389  36.857  68.363  1.00  0.00     0.174 A 
HETATM   10  N16 UNL     1       9.017  37.216  68.306  1.00  0.00    -0.078 NA
ENDROOT
BRANCH   4  11
HETATM   11  C3  UNL     1      13.254  34.999  69.548  1.00  0.00     0.261 C 
BRANCH  11  12
HETATM   12  O1  UNL     1      13.883  35.745  70.480  1.00  0.00    -0.380 OA
ATOM     13  H1  UNL     1      14.783  35.837  70.192  1.00  0.00     0.211 HD
ENDBRANCH  11  12
BRANCH  11  14
HETATM   14  C4  UNL     1      13.953  34.345  68.478  1.00  0.00     0.154 C 
BRANCH  14  15
HETATM   15  O2  UNL     1      13.163  34.117  67.436  1.00  0.00    -0.347 OA
ATOM     16  H2  UNL     1      12.885  33.209  67.393  1.00  0.00     0.219 HD
ENDBRANCH  14  15
BRANCH  14  17
HETATM   17  N3  UNL     1      15.237  33.913  68.302  1.00  0.00    -0.322 N 
ATOM     18  H3  UNL     1      15.851  34.575  67.826  1.00  0.00     0.169 HD
BRANCH  17  19
HETATM   19  C5  UNL     1      15.843  32.714  68.667  1.00  0.00     0.146 A 
HETATM   20  N4  UNL     1      15.926  31.606  67.929  1.00  0.00    -0.284 N 
HETATM   21  N5  UNL     1      16.494  30.473  68.264  1.00  0.00    -0.300 N 
ATOM     22  H4  UNL     1      15.502  31.645  67.002  1.00  0.00     0.188 HD
HETATM   23  C6  UNL     1      17.062  30.360  69.452  1.00  0.00     0.059 A 
ATOM     24  H5  UNL     1      16.498  29.688  67.615  1.00  0.00     0.186 HD
HETATM   25  C14 UNL     1      17.036  31.438  70.298  1.00  0.00     0.059 A 
HETATM   26  C15 UNL     1      16.439  32.623  69.943  1.00  0.00     0.093 A 
HETATM   27  N13 UNL     1      16.418  33.732  70.825  1.00  0.00    -0.098 NA
BRANCH  23  28
HETATM   28  C7  UNL     1      17.713  29.102  69.870  1.00  0.00     0.199 C 
BRANCH  28  29
HETATM   29  O3  UNL     1      16.871  28.016  69.704  1.00  0.00    -0.387 OA
ATOM     30  H3  UNL     1      15.968  28.244  69.891  1.00  0.00     0.210 HD
ENDBRANCH  28  29
BRANCH  28  31
HETATM   31  C8  UNL     1      18.143  29.170  71.340  1.00  0.00     0.172 C 
BRANCH  31  32
HETATM   32  O4  UNL     1      17.676  27.994  71.921  1.00  0.00    -0.391 OA
ATOM     33  H4  UNL     1      18.361  27.714  72.517  1.00  0.00     0.210 HD
ENDBRANCH  31  32
BRANCH  31  34
HETATM   34  C9  UNL     1      19.656  29.219  71.327  1.00  0.00     0.187 C 
BRANCH  34  35
HETATM   35  N6  UNL     1      20.170  30.201  72.233  1.00  0.00    -0.257 N 
HETATM   36  N7  UNL     1      19.544  31.309  72.586  1.00  0.00    -0.238 N 
HETATM   37  N8  UNL     1      20.272  32.000  73.426  1.00  0.00    -0.279 N 
ATOM     38  H7  UNL     1      18.622  31.587  72.251  1.00  0.00     0.208 HD
HETATM   39  C10 UNL     1      21.419  31.312  73.627  1.00  0.00     0.140 A 
ATOM     40  H8  UNL     1      20.020  32.892  73.851  1.00  0.00     0.189 HD
HETATM   41  C11 UNL     1      22.549  31.522  74.385  1.00  0.00     0.147 A 
HETATM   42  C13 UNL     1      21.348  30.173  72.867  1.00  0.00     0.171 A 
HETATM   43  N10 UNL     1      23.553  30.655  74.394  1.00  0.00    -0.175 N 
HETATM   44  C12 UNL     1      23.434  29.559  73.635  1.00  0.00     0.679 A 
ATOM     45  H10 UNL     1      24.386  30.818  74.960  1.00  0.00     0.186 HD
HETATM   46  N12 UNL     1      22.359  29.296  72.873  1.00  0.00    -0.173 N 
ATOM     47  H12 UNL     1      22.314  28.445  72.311  1.00  0.00     0.186 HD
BRANCH  41  48
HETATM   48  N9  UNL     1      22.629  32.588  75.104  1.00  0.00    -0.383 N 
ATOM     49  H92 UNL     1      22.316  33.477  74.716  1.00  0.00     0.157 HD
ATOM     50  H91 UNL     1      23.007  32.520  76.049  1.00  0.00     0.157 HD
ENDBRANCH  41  48
BRANCH  44  51
HETATM   51  N11 UNL     1      24.419  28.709  73.644  1.00  0.00    -0.234 N 
ATOM     52 2H11 UNL     1      25.366  29.057  73.792  1.00  0.00     0.174 HD
ATOM     53 1H11 UNL     1      24.196  27.725  73.499  1.00  0.00     0.174 HD
ENDBRANCH  44  51
ENDBRANCH  34  35
ENDBRANCH  31  34
ENDBRANCH  28  31
ENDBRANCH  23  28
ENDBRANCH  17  19
ENDBRANCH  14  17
ENDBRANCH  11  14
ENDBRANCH   4  11
TORSDOF 14
ENDMDL
MODEL 4
REMARK VINA RESULT: -11.690508448      1.406     10.844
REMARK  14 active torsions:
REMARK  status: ('A' for Active; 'I' for Inactive)
REMARK    1  A    between atoms: C2_4  and  C3_5 
REMARK    2  A    between atoms: C3_5  and  O1_6 
REMARK    3  A    between atoms: C3_5  and  C4_8 
REMARK    4  A    between atoms: C4_8  and  O2_9 
REMARK    5  A    between atoms: C4_8  and  N3_11 
REMARK    6  A    between atoms: N3_11  and  C5_13 
REMARK    7  A    between atoms: C6_18  and  C7_19 
REMARK    8  A    between atoms: C7_19  and  O3_20 
REMARK    9  A    between atoms: C7_19  and  C8_22 
REMARK   10  A    between atoms: C8_22  and  O4_23 
REMARK   11  A    between atoms: C8_22  and  C9_25 
REMARK   12  A    between atoms: C9_25  and  N6_26 
REMARK   13  A    between atoms: C11_32  and  N9_33 
REMARK   14  A    between atoms: C12_38  and  N11_39 
ROOT
HETATM    1  N1  UNL     1      11.625  38.152  66.731  1.00  0.00    -0.171 NA
HETATM    2  C1  UNL     1      11.526  37.337  67.547  1.00  0.00     0.192 C 
HETATM    3  N2  UNL     1      11.412  36.339  68.517  1.00  0.00    -0.218 N 
HETATM    4  C2  UNL     1      12.376  35.470  68.845  1.00  0.00     0.137 A 
HETATM    5  N14 UNL     1      11.966  34.633  69.810  1.00  0.00    -0.328 N 
ATOM      6  H14 UNL     1      12.514  33.882  70.231  1.00  0.00     0.168 HD
HETATM    7  C16 UNL     1      10.696  34.966  70.121  1.00  0.00     0.160 A 
HETATM    8  N15 UNL     1       9.847  34.363  71.085  1.00  0.00    -0.079 NA
HETATM    9  C17 UNL     1      10.367  36.031  69.306  1.00  0.00     0.174 A 
HETATM   10  N16 UNL     1       9.115  36.700  69.302  1.00  0.00    -0.078 NA
ENDROOT
BRANCH   4  11
HETATM   11  C3  UNL     1      13.762  35.402  68.236  1.00  0.00     0.261 C 
BRANCH  11  12
HETATM   12  O1  UNL     1      13.838  34.224  67.583  1.00  0.00    -0.380 OA
ATOM     13  H1  UNL     1      14.041  34.428  66.678  1.00  0.00     0.211 HD
ENDBRANCH  11  12
BRANCH  11  14
HETATM   14  C4  UNL     1      14.681  35.774  69.274  1.00  0.00     0.154 C 
BRANCH  14  15
HETATM   15  O2  UNL     1      14.888  37.085  69.307  1.00  0.00    -0.347 OA
ATOM     16  H2  UNL     1      15.436  37.340  70.040  1.00  0.00     0.219 HD
ENDBRANCH  14  15
BRANCH  14  17
HETATM   17  N3  UNL     1      15.379  35.081  70.223  1.00  0.00    -0.322 N 
ATOM     18  H3  UNL     1      15.556  35.597  71.086  1.00  0.00     0.169 HD
BRANCH  17  19
HETATM   19  C5  UNL     1      15.886  33.786  70.202  1.00  0.00     0.146 A 
HETATM   20  N4  UNL     1      15.183  32.656  70.112  1.00  0.00    -0.284 N 
HETATM   21  N5  UNL     1      15.651  31.431  70.090  1.00  0.00    -0.300 N 
ATOM     22  H4  UNL     1      14.169  32.755  70.053  1.00  0.00     0.188 HD
HETATM   23  C6  UNL     1      16.956  31.236  70.162  1.00  0.00     0.059 A 
ATOM     24  H5  UNL     1      15.015  30.638  70.018  1.00  0.00     0.186 HD
HETATM   25  C14 UNL     1      17.779  32.328  70.259  1.00  0.00     0.059 A 
HETATM   26  C15 UNL     1      17.284  33.609  70.282  1.00  0.00     0.093 A 
HETATM   27  N13 UNL     1      18.143  34.731  70.382  1.00  0.00    -0.098 NA
BRANCH  23  28
HETATM   28  C7  UNL     1      17.527  29.874  70.141  1.00  0.00     0.199 C 
BRANCH  28  29
HETATM   29  O3  UNL     1      16.577  28.932  69.783  1.00  0.00    -0.387 OA
ATOM     30  H3  UNL     1      16.847  28.438  69.018  1.00  0.00     0.210 HD
ENDBRANCH  28  29
BRANCH  28  31
HETATM   31  C8  UNL     1      18.099  29.499  71.513  1.00  0.00     0.172 C 
BRANCH  31  32
HETATM   32  O4  UNL     1      17.639  28.209  71.769  1.00  0.00    -0.391 OA
ATOM     33  H4  UNL     1      17.529  27.804  70.917  1.00  0.00     0.210 HD
ENDBRANCH  31  32
BRANCH  31  34
HETATM   34  C9  UNL     1      19.604  29.529  71.356  1.00  0.00     0.187 C 
BRANCH  34  35
HETATM   35  N6  UNL     1      20.220  30.450  72.261  1.00  0.00    -0.257 N 
HETATM   36  N7  UNL     1      19.708  31.611  72.628  1.00  0.00    -0.238 N 
HETATM   37  N8  UNL     1      20.509  32.223  73.464  1.00  0.00    -0.279 N 
ATOM     38  H7  UNL     1      18.813  31.979  72.306  1.00  0.00     0.208 HD
HETATM   39  C10 UNL     1      21.586  31.426  73.647  1.00  0.00     0.140 A 
ATOM     40  H8  UNL     1      20.349  33.132  73.897  1.00  0.00     0.189 HD
HETATM   41  C11 UNL     1      22.740  31.521  74.393  1.00  0.00     0.147 A 
HETATM   42  C13 UNL     1      21.397  30.304  72.881  1.00  0.00     0.171 A 
HETATM   43  N10 UNL     1      23.655  30.561  74.385  1.00  0.00    -0.175 N 
HETATM   44  C12 UNL     1      23.423  29.487  73.620  1.00  0.00     0.679 A 
ATOM     45  H10 UNL     1      24.506  30.638  74.942  1.00  0.00     0.186 HD
HETATM   46  N12 UNL     1      22.319  29.333  72.870  1.00  0.00    -0.173 N 
ATOM     47  H12 UNL     1      22.186  28.496  72.303  1.00  0.00     0.186 HD
BRANCH  41  48
HETATM   48  N9  UNL     1      22.930  32.568  75.117  1.00  0.00    -0.383 N 
ATOM     49  H92 UNL     1      22.439  32.657  76.006  1.00  0.00     0.157 HD
ATOM     50  H91 UNL     1      23.570  33.290  74.785  1.00  0.00     0.157 HD
ENDBRANCH  41  48
BRANCH  44  51
HETATM   51  N11 UNL     1      24.321  28.546  73.612  1.00  0.00    -0.234 N 
ATOM     52 2H11 UNL     1      24.887  28.400  74.448  1.00  0.00     0.174 HD
ATOM     53 1H11 UNL     1      24.420  27.993  72.761  1.00  0.00     0.174 HD
ENDBRANCH  44  51
ENDBRANCH  34  35
ENDBRANCH  31  34
ENDBRANCH  28  31
ENDBRANCH  23  28
ENDBRANCH  17  19
ENDBRANCH  14  17
ENDBRANCH  11  14
ENDBRANCH   4  11
TORSDOF 14
ENDMDL
MODEL 5
REMARK VINA RESULT: -11.623019695      1.764     10.878
REMARK  14 active torsions:
REMARK  status: ('A' for Active; 'I' for Inactive)
REMARK    1  A    between atoms: C2_4  and  C3_5 
REMARK    2  A    between atoms: C3_5  and  O1_6 
REMARK    3  A    between atoms: C3_5  and  C4_8 
REMARK    4  A    between atoms: C4_8  and  O2_9 
REMARK    5  A    between atoms: C4_8  and  N3_11 
REMARK    6  A    between atoms: N3_11  and  C5_13 
REMARK    7  A    between atoms: C6_18  and  C7_19 
REMARK    8  A    between atoms: C7_19  and  O3_20 
REMARK    9  A    between atoms: C7_19  and  C8_22 
REMARK   10  A    between atoms: C8_22  and  O4_23 
REMARK   11  A    between atoms: C8_22  and  C9_25 
REMARK   12  A    between atoms: C9_25  and  N6_26 
REMARK   13  A    between atoms: C11_32  and  N9_33 
REMARK   14  A    between atoms: C12_38  and  N11_39 
ROOT
HETATM    1  N1  UNL     1       9.797  34.411  70.923  1.00  0.00    -0.171 NA
HETATM    2  C1  UNL     1      10.319  35.071  70.129  1.00  0.00     0.192 C 
HETATM    3  N2  UNL     1      10.962  35.874  69.185  1.00  0.00    -0.218 N 
HETATM    4  C2  UNL     1      12.271  35.835  68.904  1.00  0.00     0.137 A 
HETATM    5  N14 UNL     1      12.589  36.728  67.954  1.00  0.00    -0.328 N 
ATOM      6  H14 UNL     1      13.519  36.892  67.567  1.00  0.00     0.168 HD
HETATM    7  C16 UNL     1      11.454  37.368  67.605  1.00  0.00     0.160 A 
HETATM    8  N15 UNL     1      11.294  38.395  66.638  1.00  0.00    -0.079 NA
HETATM    9  C17 UNL     1      10.451  36.824  68.381  1.00  0.00     0.174 A 
HETATM   10  N16 UNL     1       9.085  37.208  68.337  1.00  0.00    -0.078 NA
ENDROOT
BRANCH   4  11
HETATM   11  C3  UNL     1      13.295  34.922  69.546  1.00  0.00     0.261 C 
BRANCH  11  12
HETATM   12  O1  UNL     1      13.954  35.665  70.459  1.00  0.00    -0.380 OA
ATOM     13  H1  UNL     1      14.864  35.394  70.423  1.00  0.00     0.211 HD
ENDBRANCH  11  12
BRANCH  11  14
HETATM   14  C4  UNL     1      13.962  34.240  68.473  1.00  0.00     0.154 C 
BRANCH  14  15
HETATM   15  O2  UNL     1      13.142  33.989  67.460  1.00  0.00    -0.347 OA
ATOM     16  H2  UNL     1      13.130  33.065  67.235  1.00  0.00     0.219 HD
ENDBRANCH  14  15
BRANCH  14  17
HETATM   17  N3  UNL     1      15.240  33.801  68.271  1.00  0.00    -0.322 N 
ATOM     18  H3  UNL     1      15.832  34.438  67.737  1.00  0.00     0.169 HD
BRANCH  17  19
HETATM   19  C5  UNL     1      15.863  32.625  68.678  1.00  0.00     0.146 A 
HETATM   20  N4  UNL     1      16.704  32.482  69.703  1.00  0.00    -0.284 N 
HETATM   21  N5  UNL     1      17.296  31.379  70.094  1.00  0.00    -0.300 N 
ATOM     22  H4  UNL     1      16.909  33.323  70.243  1.00  0.00     0.188 HD
HETATM   23  C6  UNL     1      17.070  30.255  69.436  1.00  0.00     0.059 A 
ATOM     24  H5  UNL     1      17.923  31.388  70.897  1.00  0.00     0.186 HD
HETATM   25  C14 UNL     1      16.221  30.283  68.360  1.00  0.00     0.059 A 
HETATM   26  C15 UNL     1      15.604  31.441  67.954  1.00  0.00     0.093 A 
HETATM   27  N13 UNL     1      14.728  31.460  66.841  1.00  0.00    -0.098 NA
BRANCH  23  28
HETATM   28  C7  UNL     1      17.715  28.991  69.842  1.00  0.00     0.199 C 
BRANCH  28  29
HETATM   29  O3  UNL     1      16.853  27.916  69.705  1.00  0.00    -0.387 OA
ATOM     30  H3  UNL     1      16.025  28.180  69.321  1.00  0.00     0.210 HD
ENDBRANCH  28  29
BRANCH  28  31
HETATM   31  C8  UNL     1      18.185  29.059  71.300  1.00  0.00     0.172 C 
BRANCH  31  32
HETATM   32  O4  UNL     1      17.807  27.847  71.872  1.00  0.00    -0.391 OA
ATOM     33  H4  UNL     1      17.844  27.210  71.168  1.00  0.00     0.210 HD
ENDBRANCH  31  32
BRANCH  31  34
HETATM   34  C9  UNL     1      19.692  29.199  71.242  1.00  0.00     0.187 C 
BRANCH  34  35
HETATM   35  N6  UNL     1      20.176  30.183  72.161  1.00  0.00    -0.257 N 
HETATM   36  N7  UNL     1      19.532  31.285  72.502  1.00  0.00    -0.238 N 
HETATM   37  N8  UNL     1      20.235  31.981  73.360  1.00  0.00    -0.279 N 
ATOM     38  H7  UNL     1      18.616  31.556  72.146  1.00  0.00     0.208 HD
HETATM   39  C10 UNL     1      21.383  31.302  73.586  1.00  0.00     0.140 A 
ATOM     40  H8  UNL     1      19.966  32.870  73.780  1.00  0.00     0.189 HD
HETATM   41  C11 UNL     1      22.493  31.520  74.371  1.00  0.00     0.147 A 
HETATM   42  C13 UNL     1      21.339  30.163  72.823  1.00  0.00     0.171 A 
HETATM   43  N10 UNL     1      23.503  30.661  74.402  1.00  0.00    -0.175 N 
HETATM   44  C12 UNL     1      23.412  29.566  73.637  1.00  0.00     0.679 A 
ATOM     45  H10 UNL     1      24.322  30.830  74.987  1.00  0.00     0.186 HD
HETATM   46  N12 UNL     1      22.357  29.295  72.851  1.00  0.00    -0.173 N 
ATOM     47  H12 UNL     1      22.332  28.445  72.286  1.00  0.00     0.186 HD
BRANCH  41  48
HETATM   48  N9  UNL     1      22.547  32.584  75.093  1.00  0.00    -0.383 N 
ATOM     49  H92 UNL     1      23.139  33.359  74.796  1.00  0.00     0.157 HD
ATOM     50  H91 UNL     1      21.996  32.629  75.950  1.00  0.00     0.157 HD
ENDBRANCH  41  48
BRANCH  44  51
HETATM   51  N11 UNL     1      24.403  28.724  73.668  1.00  0.00    -0.234 N 
ATOM     52 2H11 UNL     1      25.121  28.836  74.385  1.00  0.00     0.174 HD
ATOM     53 1H11 UNL     1      24.418  27.985  72.965  1.00  0.00     0.174 HD
ENDBRANCH  44  51
ENDBRANCH  34  35
ENDBRANCH  31  34
ENDBRANCH  28  31
ENDBRANCH  23  28
ENDBRANCH  17  19
ENDBRANCH  14  17
ENDBRANCH  11  14
ENDBRANCH   4  11
TORSDOF 14
ENDMDL
