MODEL 1
REMARK VINA RESULT: -9.953610364      0.000      0.000
REMARK  17 active torsions:
REMARK  status: ('A' for Active; 'I' for Inactive)
REMARK    1  A    between atoms: N1_1  and  O1_4 
REMARK    2  A    between atoms: O1_4  and  C1_5 
REMARK    3  A    between atoms: C1_5  and  C2_7 
REMARK    4  A    between atoms: C5_13  and  C6_14 
REMARK    5  A    between atoms: C6_14  and  O4_15 
REMARK    6  A    between atoms: C6_14  and  N3_17 
REMARK    7  A    between atoms: C7_21  and  C8_22 
REMARK    8  A    between atoms: C8_22  and  N6_23 
REMARK    9  A    between atoms: N6_23  and  C9_26 
REMARK   10  A    between atoms: C9_26  and  O5_27 
REMARK   11  A    between atoms: C9_26  and  C10_29 
REMARK   12  A    between atoms: C10_29  and  O6_30 
REMARK   13  A    between atoms: C10_29  and  N7_32 
REMARK       I    between atoms: N7_32  and  C11_34 
REMARK       I    between atoms: C11_34  and  N8_35 
REMARK       I    between atoms: C11_34  and  N9_39 
REMARK   14  A    between atoms: C12_43  and  O7_44 
REMARK   15  A    between atoms: N10_47  and  O8_49 
REMARK   16  A    between atoms: C15_52  and  O9_53 
REMARK   17  A    between atoms: C16_55  and  O10_56 
ROOT
HETATM    1  N3  UNL     1      15.893  34.066  68.571  1.00  0.00    -0.220 N 
HETATM    2  N4  UNL     1      16.636  34.807  67.746  1.00  0.00    -0.015 NA
HETATM    3  N5  UNL     1      16.027  35.994  67.538  1.00  0.00    -0.282 N 
ATOM      4  H5  UNL     1      16.398  36.740  66.950  1.00  0.00     0.184 HD
HETATM    5  C7  UNL     1      14.883  36.058  68.201  1.00  0.00     0.101 A 
HETATM    6  C12 UNL     1      14.816  34.808  68.852  1.00  0.00     0.184 A 
ENDROOT
BRANCH   1   7
HETATM    7  C6  UNL     1      16.192  32.817  69.214  1.00  0.00     0.280 C 
BRANCH   7   8
HETATM    8  C5  UNL     1      17.312  32.722  70.103  1.00  0.00     0.043 A 
HETATM    9  C4  UNL     1      18.093  33.790  70.496  1.00  0.00     0.158 A 
HETATM   10  O3  UNL     1      19.138  33.611  71.291  1.00  0.00    -0.304 OA
HETATM   11  C3  UNL     1      19.526  32.484  71.764  1.00  0.00     0.163 A 
HETATM   12  N2  UNL     1      20.616  32.321  72.568  1.00  0.00    -0.329 N 
HETATM   13  C14 UNL     1      18.783  31.345  71.435  1.00  0.00     0.081 A 
HETATM   14  C2  UNL     1      20.987  31.148  73.034  1.00  0.00     0.148 A 
ATOM     15  H2  UNL     1      21.166  33.142  72.819  1.00  0.00     0.168 HD
HETATM   16  C16 UNL     1      20.257  29.980  72.725  1.00  0.00     0.133 A 
HETATM   17  C15 UNL     1      19.150  30.091  71.924  1.00  0.00     0.118 A 
HETATM   18  C13 UNL     1      17.682  31.470  70.595  1.00  0.00     0.084 A 
HETATM   19  N10 UNL     1      17.174  30.349  70.204  1.00  0.00    -0.268 N 
ATOM     20  H10 UNL     1      17.569  29.545  70.692  1.00  0.00     0.194 HD
BRANCH  14  21
HETATM   21  C1  UNL     1      22.232  30.913  73.784  1.00  0.00     0.334 C 
HETATM   22  O2  UNL     1      23.095  30.076  73.511  1.00  0.00    -0.256 OA
BRANCH  21  23
HETATM   23  O1  UNL     1      22.518  31.681  74.954  1.00  0.00    -0.201 OA
BRANCH  23  24
HETATM   24  N1  UNL     1      22.910  32.977  74.948  1.00  0.00    -0.302 N 
ATOM     25  H12 UNL     1      22.920  33.446  74.043  1.00  0.00     0.184 HD
ATOM     26  H11 UNL     1      23.189  33.502  75.777  1.00  0.00     0.184 HD
ENDBRANCH  23  24
ENDBRANCH  21  23
ENDBRANCH  14  21
BRANCH  16  27
HETATM   27  O10 UNL     1      20.643  28.753  73.222  1.00  0.00    -0.356 OA
ATOM     28  H10 UNL     1      20.163  27.965  72.999  1.00  0.00     0.218 HD
ENDBRANCH  16  27
BRANCH  17  29
HETATM   29  O9  UNL     1      18.359  29.016  71.561  1.00  0.00    -0.357 OA
ATOM     30  H9  UNL     1      18.587  28.559  70.761  1.00  0.00     0.217 HD
ENDBRANCH  17  29
BRANCH  19  31
HETATM   31  O8  UNL     1      16.261  30.010  69.318  1.00  0.00    -0.289 OA
ATOM     32  H8  UNL     1      16.280  29.552  68.486  1.00  0.00     0.244 HD
ENDBRANCH  19  31
ENDBRANCH   7   8
BRANCH   7  33
HETATM   33  O4  UNL     1      15.018  32.378  69.893  1.00  0.00    -0.371 OA
ATOM     34  H4  UNL     1      14.570  31.736  69.355  1.00  0.00     0.212 HD
ENDBRANCH   7  33
ENDBRANCH   1   7
BRANCH   6  35
HETATM   35  O7  UNL     1      13.698  34.460  69.689  1.00  0.00    -0.344 OA
ATOM     36  H7  UNL     1      12.866  34.912  69.768  1.00  0.00     0.219 HD
ENDBRANCH   6  35
BRANCH   5  37
HETATM   37  C8  UNL     1      13.770  37.023  68.326  1.00  0.00     0.298 C 
BRANCH  37  38
HETATM   38  N6  UNL     1      12.663  36.582  67.452  1.00  0.00    -0.039 N 
ATOM     39  H62 UNL     1      12.947  36.584  66.473  1.00  0.00     0.280 HD
ATOM     40  H61 UNL     1      12.480  35.585  67.569  1.00  0.00     0.280 HD
BRANCH  38  41
HETATM   41  C9  UNL     1      11.460  37.354  67.644  1.00  0.00     0.367 C 
BRANCH  41  42
HETATM   42  O5  UNL     1      11.520  38.589  67.210  1.00  0.00    -0.366 OA
ATOM     43  H5  UNL     1      10.898  38.804  66.524  1.00  0.00     0.212 HD
ENDBRANCH  41  42
BRANCH  41  44
HETATM   44  C10 UNL     1      10.209  36.960  68.219  1.00  0.00     0.273 C 
BRANCH  44  45
HETATM   45  O6  UNL     1       9.118  37.574  67.492  1.00  0.00    -0.373 OA
ATOM     46  H6  UNL     1       8.565  38.064  68.090  1.00  0.00     0.212 HD
ENDBRANCH  44  45
BRANCH  44  47
HETATM   47  N7  UNL     1       9.931  37.071  69.588  1.00  0.00    -0.345 N 
HETATM   48  C11 UNL     1       9.161  36.028  70.174  1.00  0.00     0.478 C 
HETATM   49  N8  UNL     1       7.747  36.110  69.816  1.00  0.00    -0.033 N 
HETATM   50  N9  UNL     1       9.576  34.714  69.663  1.00  0.00    -0.033 N 
ATOM     51  H83 UNL     1       7.361  37.025  70.047  1.00  0.00     0.278 HD
ATOM     52  H82 UNL     1       7.625  36.132  68.803  1.00  0.00     0.278 HD
ATOM     53  H81 UNL     1       7.195  35.362  70.236  1.00  0.00     0.278 HD
ATOM     54  H93 UNL     1       9.543  34.680  68.644  1.00  0.00     0.278 HD
ATOM     55  H92 UNL     1      10.576  34.561  69.791  1.00  0.00     0.278 HD
ATOM     56  H91 UNL     1       9.025  33.966  70.083  1.00  0.00     0.278 HD
ATOM     57  H7  UNL     1      10.265  37.861  70.139  1.00  0.00     0.159 HD
ENDBRANCH  44  47
ENDBRANCH  41  44
ENDBRANCH  38  41
ENDBRANCH  37  38
ENDBRANCH   5  37
TORSDOF 17
ENDMDL
MODEL 2
REMARK VINA RESULT: -9.667867687      0.907      1.047
REMARK  17 active torsions:
REMARK  status: ('A' for Active; 'I' for Inactive)
REMARK    1  A    between atoms: N1_1  and  O1_4 
REMARK    2  A    between atoms: O1_4  and  C1_5 
REMARK    3  A    between atoms: C1_5  and  C2_7 
REMARK    4  A    between atoms: C5_13  and  C6_14 
REMARK    5  A    between atoms: C6_14  and  O4_15 
REMARK    6  A    between atoms: C6_14  and  N3_17 
REMARK    7  A    between atoms: C7_21  and  C8_22 
REMARK    8  A    between atoms: C8_22  and  N6_23 
REMARK    9  A    between atoms: N6_23  and  C9_26 
REMARK   10  A    between atoms: C9_26  and  O5_27 
REMARK   11  A    between atoms: C9_26  and  C10_29 
REMARK   12  A    between atoms: C10_29  and  O6_30 
REMARK   13  A    between atoms: C10_29  and  N7_32 
REMARK       I    between atoms: N7_32  and  C11_34 
REMARK       I    between atoms: C11_34  and  N8_35 
REMARK       I    between atoms: C11_34  and  N9_39 
REMARK   14  A    between atoms: C12_43  and  O7_44 
REMARK   15  A    between atoms: N10_47  and  O8_49 
REMARK   16  A    between atoms: C15_52  and  O9_53 
REMARK   17  A    between atoms: C16_55  and  O10_56 
ROOT
HETATM    1  N3  UNL     1      15.819  33.854  68.764  1.00  0.00    -0.220 N 
HETATM    2  N4  UNL     1      16.625  34.499  67.918  1.00  0.00    -0.015 NA
HETATM    3  N5  UNL     1      16.099  35.710  67.632  1.00  0.00    -0.282 N 
ATOM      4  H5  UNL     1      16.530  36.397  67.013  1.00  0.00     0.184 HD
HETATM    5  C7  UNL     1      14.950  35.885  68.265  1.00  0.00     0.101 A 
HETATM    6  C12 UNL     1      14.788  34.679  68.981  1.00  0.00     0.184 A 
ENDROOT
BRANCH   1   7
HETATM    7  C6  UNL     1      16.023  32.626  69.480  1.00  0.00     0.280 C 
BRANCH   7   8
HETATM    8  C5  UNL     1      17.216  32.438  70.250  1.00  0.00     0.043 A 
HETATM    9  C4  UNL     1      18.115  33.439  70.560  1.00  0.00     0.158 A 
HETATM   10  O3  UNL     1      19.218  33.174  71.244  1.00  0.00    -0.304 OA
HETATM   11  C3  UNL     1      19.563  32.017  71.676  1.00  0.00     0.163 A 
HETATM   12  N2  UNL     1      20.713  31.764  72.365  1.00  0.00    -0.329 N 
HETATM   13  C14 UNL     1      18.704  30.942  71.426  1.00  0.00     0.081 A 
HETATM   14  C2  UNL     1      21.037  30.562  72.791  1.00  0.00     0.148 A 
ATOM     15  H2  UNL     1      21.348  32.538  72.557  1.00  0.00     0.168 HD
HETATM   16  C16 UNL     1      20.190  29.457  72.560  1.00  0.00     0.133 A 
HETATM   17  C15 UNL     1      19.019  29.660  71.876  1.00  0.00     0.118 A 
HETATM   18  C13 UNL     1      17.536  31.157  70.703  1.00  0.00     0.084 A 
HETATM   19  N10 UNL     1      16.905  30.082  70.367  1.00  0.00    -0.268 N 
ATOM     20  H10 UNL     1      17.284  29.246  70.813  1.00  0.00     0.194 HD
BRANCH  14  21
HETATM   21  C1  UNL     1      22.329  30.226  73.411  1.00  0.00     0.334 C 
HETATM   22  O2  UNL     1      22.876  30.845  74.328  1.00  0.00    -0.256 OA
BRANCH  21  23
HETATM   23  O1  UNL     1      23.078  29.103  72.942  1.00  0.00    -0.201 OA
BRANCH  23  24
HETATM   24  N1  UNL     1      24.251  28.684  73.472  1.00  0.00    -0.302 N 
ATOM     25  H12 UNL     1      24.191  28.027  74.250  1.00  0.00     0.184 HD
ATOM     26  H11 UNL     1      25.172  28.979  73.148  1.00  0.00     0.184 HD
ENDBRANCH  23  24
ENDBRANCH  21  23
ENDBRANCH  14  21
BRANCH  16  27
HETATM   27  O10 UNL     1      20.529  28.201  73.016  1.00  0.00    -0.356 OA
ATOM     28  H10 UNL     1      20.396  27.961  73.925  1.00  0.00     0.218 HD
ENDBRANCH  16  27
BRANCH  17  29
HETATM   29  O9  UNL     1      18.114  28.652  71.597  1.00  0.00    -0.357 OA
ATOM     30  H9  UNL     1      18.397  27.966  71.005  1.00  0.00     0.217 HD
ENDBRANCH  17  29
BRANCH  19  31
HETATM   31  O8  UNL     1      15.883  29.821  69.579  1.00  0.00    -0.289 OA
ATOM     32  H8  UNL     1      15.654  29.101  69.003  1.00  0.00     0.244 HD
ENDBRANCH  19  31
ENDBRANCH   7   8
BRANCH   7  33
HETATM   33  O4  UNL     1      14.889  32.409  70.315  1.00  0.00    -0.371 OA
ATOM     34  H4  UNL     1      14.281  33.132  70.209  1.00  0.00     0.212 HD
ENDBRANCH   7  33
ENDBRANCH   1   7
BRANCH   6  35
HETATM   35  O7  UNL     1      13.635  34.451  69.809  1.00  0.00    -0.344 OA
ATOM     36  H7  UNL     1      13.507  34.711  70.715  1.00  0.00     0.219 HD
ENDBRANCH   6  35
BRANCH   5  37
HETATM   37  C8  UNL     1      13.901  36.925  68.312  1.00  0.00     0.298 C 
BRANCH  37  38
HETATM   38  N6  UNL     1      12.772  36.496  67.461  1.00  0.00    -0.039 N 
ATOM     39  H62 UNL     1      13.042  36.477  66.478  1.00  0.00     0.280 HD
ATOM     40  H61 UNL     1      12.569  35.505  67.596  1.00  0.00     0.280 HD
BRANCH  38  41
HETATM   41  C9  UNL     1      11.590  37.298  67.659  1.00  0.00     0.367 C 
BRANCH  41  42
HETATM   42  O5  UNL     1      11.689  38.540  67.255  1.00  0.00    -0.366 OA
ATOM     43  H5  UNL     1      11.447  39.193  67.902  1.00  0.00     0.212 HD
ENDBRANCH  41  42
BRANCH  41  44
HETATM   44  C10 UNL     1      10.321  36.926  68.211  1.00  0.00     0.273 C 
BRANCH  44  45
HETATM   45  O6  UNL     1       9.254  37.543  67.452  1.00  0.00    -0.373 OA
ATOM     46  H6  UNL     1       8.450  37.533  67.958  1.00  0.00     0.212 HD
ENDBRANCH  44  45
BRANCH  44  47
HETATM   47  N7  UNL     1      10.015  37.057  69.573  1.00  0.00    -0.345 N 
HETATM   48  C11 UNL     1       9.230  36.025  70.157  1.00  0.00     0.478 C 
HETATM   49  N8  UNL     1       7.824  36.104  69.768  1.00  0.00    -0.033 N 
HETATM   50  N9  UNL     1       9.653  34.703  69.675  1.00  0.00    -0.033 N 
ATOM     51  H83 UNL     1       7.436  37.023  69.977  1.00  0.00     0.278 HD
ATOM     52  H82 UNL     1       7.724  36.111  68.753  1.00  0.00     0.278 HD
ATOM     53  H81 UNL     1       7.262  35.364  70.188  1.00  0.00     0.278 HD
ATOM     54  H93 UNL     1       9.641  34.653  68.656  1.00  0.00     0.278 HD
ATOM     55  H92 UNL     1      10.650  34.549  69.826  1.00  0.00     0.278 HD
ATOM     56  H91 UNL     1       9.091  33.962  70.094  1.00  0.00     0.278 HD
ATOM     57  H7  UNL     1      10.339  37.855  70.118  1.00  0.00     0.159 HD
ENDBRANCH  44  47
ENDBRANCH  41  44
ENDBRANCH  38  41
ENDBRANCH  37  38
ENDBRANCH   5  37
TORSDOF 17
ENDMDL
MODEL 3
REMARK VINA RESULT: -9.641490158      1.905      2.627
REMARK  17 active torsions:
REMARK  status: ('A' for Active; 'I' for Inactive)
REMARK    1  A    between atoms: N1_1  and  O1_4 
REMARK    2  A    between atoms: O1_4  and  C1_5 
REMARK    3  A    between atoms: C1_5  and  C2_7 
REMARK    4  A    between atoms: C5_13  and  C6_14 
REMARK    5  A    between atoms: C6_14  and  O4_15 
REMARK    6  A    between atoms: C6_14  and  N3_17 
REMARK    7  A    between atoms: C7_21  and  C8_22 
REMARK    8  A    between atoms: C8_22  and  N6_23 
REMARK    9  A    between atoms: N6_23  and  C9_26 
REMARK   10  A    between atoms: C9_26  and  O5_27 
REMARK   11  A    between atoms: C9_26  and  C10_29 
REMARK   12  A    between atoms: C10_29  and  O6_30 
REMARK   13  A    between atoms: C10_29  and  N7_32 
REMARK       I    between atoms: N7_32  and  C11_34 
REMARK       I    between atoms: C11_34  and  N8_35 
REMARK       I    between atoms: C11_34  and  N9_39 
REMARK   14  A    between atoms: C12_43  and  O7_44 
REMARK   15  A    between atoms: N10_47  and  O8_49 
REMARK   16  A    between atoms: C15_52  and  O9_53 
REMARK   17  A    between atoms: C16_55  and  O10_56 
ROOT
HETATM    1  N3  UNL     1      15.968  31.062  69.180  1.00  0.00    -0.220 N 
HETATM    2  N4  UNL     1      15.865  30.795  67.876  1.00  0.00    -0.015 NA
HETATM    3  N5  UNL     1      15.202  31.800  67.264  1.00  0.00    -0.282 N 
ATOM      4  H5  UNL     1      15.000  31.836  66.265  1.00  0.00     0.184 HD
HETATM    5  C7  UNL     1      14.850  32.731  68.136  1.00  0.00     0.101 A 
HETATM    6  C12 UNL     1      15.348  32.234  69.359  1.00  0.00     0.184 A 
ENDROOT
BRANCH   1   7
HETATM    7  C6  UNL     1      16.720  30.392  70.203  1.00  0.00     0.280 C 
BRANCH   7   8
HETATM    8  C5  UNL     1      17.808  31.067  70.847  1.00  0.00     0.043 A 
HETATM    9  C4  UNL     1      18.073  32.416  70.730  1.00  0.00     0.158 A 
HETATM   10  O3  UNL     1      19.126  32.956  71.327  1.00  0.00    -0.304 OA
HETATM   11  C3  UNL     1      19.977  32.322  72.046  1.00  0.00     0.163 A 
HETATM   12  N2  UNL     1      21.064  32.896  72.638  1.00  0.00    -0.329 N 
HETATM   13  C14 UNL     1      19.780  30.951  72.238  1.00  0.00     0.081 A 
HETATM   14  C2  UNL     1      21.920  32.214  73.368  1.00  0.00     0.148 A 
ATOM     15  H2  UNL     1      21.219  33.896  72.510  1.00  0.00     0.168 HD
HETATM   16  C16 UNL     1      21.747  30.830  73.585  1.00  0.00     0.133 A 
HETATM   17  C15 UNL     1      20.667  30.207  73.015  1.00  0.00     0.118 A 
HETATM   18  C13 UNL     1      18.698  30.326  71.627  1.00  0.00     0.084 A 
HETATM   19  N10 UNL     1      18.704  29.038  71.711  1.00  0.00    -0.268 N 
ATOM     20  H10 UNL     1      19.424  28.686  72.341  1.00  0.00     0.194 HD
BRANCH  14  21
HETATM   21  C1  UNL     1      23.174  32.768  73.903  1.00  0.00     0.334 C 
HETATM   22  O2  UNL     1      23.643  32.550  75.023  1.00  0.00    -0.256 OA
BRANCH  21  23
HETATM   23  O1  UNL     1      23.960  33.659  73.108  1.00  0.00    -0.201 OA
BRANCH  23  24
HETATM   24  N1  UNL     1      23.814  35.004  73.088  1.00  0.00    -0.302 N 
ATOM     25  H12 UNL     1      23.519  35.418  72.203  1.00  0.00     0.184 HD
ATOM     26  H11 UNL     1      23.977  35.618  73.886  1.00  0.00     0.184 HD
ENDBRANCH  23  24
ENDBRANCH  21  23
ENDBRANCH  14  21
BRANCH  16  27
HETATM   27  O10 UNL     1      22.641  30.120  74.358  1.00  0.00    -0.356 OA
ATOM     28  H10 UNL     1      22.372  29.731  75.181  1.00  0.00     0.218 HD
ENDBRANCH  16  27
BRANCH  17  29
HETATM   29  O9  UNL     1      20.398  28.858  73.165  1.00  0.00    -0.357 OA
ATOM     30  H9  UNL     1      19.971  28.588  73.969  1.00  0.00     0.217 HD
ENDBRANCH  17  29
BRANCH  19  31
HETATM   31  O8  UNL     1      17.988  28.076  71.166  1.00  0.00    -0.289 OA
ATOM     32  H8  UNL     1      18.052  27.129  71.148  1.00  0.00     0.244 HD
ENDBRANCH  19  31
ENDBRANCH   7   8
BRANCH   7  33
HETATM   33  O4  UNL     1      15.805  29.931  71.194  1.00  0.00    -0.371 OA
ATOM     34  H4  UNL     1      15.936  29.001  71.330  1.00  0.00     0.212 HD
ENDBRANCH   7  33
ENDBRANCH   1   7
BRANCH   6  35
HETATM   35  O7  UNL     1      15.165  32.957  70.590  1.00  0.00    -0.344 OA
ATOM     36  H7  UNL     1      14.347  33.195  71.010  1.00  0.00     0.219 HD
ENDBRANCH   6  35
BRANCH   5  37
HETATM   37  C8  UNL     1      14.078  33.992  68.104  1.00  0.00     0.298 C 
BRANCH  37  38
HETATM   38  N6  UNL     1      13.089  33.968  69.201  1.00  0.00    -0.039 N 
ATOM     39  H62 UNL     1      12.623  33.062  69.254  1.00  0.00     0.280 HD
ATOM     40  H61 UNL     1      13.552  33.967  70.111  1.00  0.00     0.280 HD
BRANCH  38  41
HETATM   41  C9  UNL     1      12.130  35.040  69.110  1.00  0.00     0.367 C 
BRANCH  41  42
HETATM   42  O5  UNL     1      12.487  36.039  68.342  1.00  0.00    -0.366 OA
ATOM     43  H5  UNL     1      12.416  35.874  67.408  1.00  0.00     0.212 HD
ENDBRANCH  41  42
BRANCH  41  44
HETATM   44  C10 UNL     1      10.839  35.159  69.720  1.00  0.00     0.273 C 
BRANCH  44  45
HETATM   45  O6  UNL     1      10.792  34.367  70.931  1.00  0.00    -0.373 OA
ATOM     46  H6  UNL     1       9.972  33.889  70.973  1.00  0.00     0.212 HD
ENDBRANCH  44  45
BRANCH  44  47
HETATM   47  N7  UNL     1       9.643  34.950  69.020  1.00  0.00    -0.345 N 
HETATM   48  C11 UNL     1       8.857  36.100  68.732  1.00  0.00     0.478 C 
HETATM   49  N8  UNL     1       8.154  36.604  69.910  1.00  0.00    -0.033 N 
HETATM   50  N9  UNL     1       9.704  37.228  68.320  1.00  0.00    -0.033 N 
ATOM     51  H83 UNL     1       7.590  35.873  70.342  1.00  0.00     0.278 HD
ATOM     52  H82 UNL     1       8.803  36.785  70.675  1.00  0.00     0.278 HD
ATOM     53  H81 UNL     1       7.590  37.429  69.703  1.00  0.00     0.278 HD
ATOM     54  H93 UNL     1      10.425  37.429  69.013  1.00  0.00     0.278 HD
ATOM     55  H92 UNL     1      10.306  36.979  67.536  1.00  0.00     0.278 HD
ATOM     56  H91 UNL     1       9.140  38.053  68.113  1.00  0.00     0.278 HD
ATOM     57  H7  UNL     1       9.350  34.017  68.731  1.00  0.00     0.159 HD
ENDBRANCH  44  47
ENDBRANCH  41  44
ENDBRANCH  38  41
ENDBRANCH  37  38
ENDBRANCH   5  37
TORSDOF 17
ENDMDL
MODEL 4
REMARK VINA RESULT: -9.604629675      1.673     10.368
REMARK  17 active torsions:
REMARK  status: ('A' for Active; 'I' for Inactive)
REMARK    1  A    between atoms: N1_1  and  O1_4 
REMARK    2  A    between atoms: O1_4  and  C1_5 
REMARK    3  A    between atoms: C1_5  and  C2_7 
REMARK    4  A    between atoms: C5_13  and  C6_14 
REMARK    5  A    between atoms: C6_14  and  O4_15 
REMARK    6  A    between atoms: C6_14  and  N3_17 
REMARK    7  A    between atoms: C7_21  and  C8_22 
REMARK    8  A    between atoms: C8_22  and  N6_23 
REMARK    9  A    between atoms: N6_23  and  C9_26 
REMARK   10  A    between atoms: C9_26  and  O5_27 
REMARK   11  A    between atoms: C9_26  and  C10_29 
REMARK   12  A    between atoms: C10_29  and  O6_30 
REMARK   13  A    between atoms: C10_29  and  N7_32 
REMARK       I    between atoms: N7_32  and  C11_34 
REMARK       I    between atoms: C11_34  and  N8_35 
REMARK       I    between atoms: C11_34  and  N9_39 
REMARK   14  A    between atoms: C12_43  and  O7_44 
REMARK   15  A    between atoms: N10_47  and  O8_49 
REMARK   16  A    between atoms: C15_52  and  O9_53 
REMARK   17  A    between atoms: C16_55  and  O10_56 
ROOT
HETATM    1  N3  UNL     1      17.311  32.706  69.691  1.00  0.00    -0.220 N 
HETATM    2  N4  UNL     1      16.530  31.784  69.123  1.00  0.00    -0.015 NA
HETATM    3  N5  UNL     1      16.759  30.585  69.702  1.00  0.00    -0.282 N 
ATOM      4  H5  UNL     1      16.282  29.720  69.449  1.00  0.00     0.184 HD
HETATM    5  C7  UNL     1      17.686  30.685  70.641  1.00  0.00     0.101 A 
HETATM    6  C12 UNL     1      18.028  32.054  70.613  1.00  0.00     0.184 A 
ENDROOT
BRANCH   1   7
HETATM    7  C6  UNL     1      17.313  34.134  69.541  1.00  0.00     0.280 C 
BRANCH   7   8
HETATM    8  C5  UNL     1      16.153  34.800  69.027  1.00  0.00     0.043 A 
HETATM    9  C4  UNL     1      16.172  35.735  68.012  1.00  0.00     0.158 A 
HETATM   10  O3  UNL     1      15.057  36.336  67.621  1.00  0.00    -0.304 OA
HETATM   11  C3  UNL     1      13.891  36.129  68.114  1.00  0.00     0.163 A 
HETATM   12  N2  UNL     1      12.758  36.772  67.706  1.00  0.00    -0.329 N 
HETATM   13  C14 UNL     1      13.770  35.182  69.135  1.00  0.00     0.081 A 
HETATM   14  C2  UNL     1      11.577  36.537  68.236  1.00  0.00     0.148 A 
ATOM     15  H2  UNL     1      12.830  37.463  66.960  1.00  0.00     0.168 HD
HETATM   16  C16 UNL     1      11.420  35.584  69.265  1.00  0.00     0.133 A 
HETATM   17  C15 UNL     1      12.528  34.907  69.707  1.00  0.00     0.118 A 
HETATM   18  C13 UNL     1      14.907  34.527  69.595  1.00  0.00     0.084 A 
HETATM   19  N10 UNL     1      14.725  33.813  70.655  1.00  0.00    -0.268 N 
ATOM     20  H10 UNL     1      13.741  33.722  70.905  1.00  0.00     0.194 HD
BRANCH  14  21
HETATM   21  C1  UNL     1      10.363  37.308  67.922  1.00  0.00     0.334 C 
HETATM   22  O2  UNL     1      10.325  38.497  67.595  1.00  0.00    -0.256 OA
BRANCH  21  23
HETATM   23  O1  UNL     1       9.079  36.686  68.002  1.00  0.00    -0.201 OA
BRANCH  23  24
HETATM   24  N1  UNL     1       8.208  36.847  69.025  1.00  0.00    -0.302 N 
ATOM     25  H12 UNL     1       7.346  37.351  68.815  1.00  0.00     0.184 HD
ATOM     26  H11 UNL     1       8.356  36.502  69.973  1.00  0.00     0.184 HD
ENDBRANCH  23  24
ENDBRANCH  21  23
ENDBRANCH  14  21
BRANCH  16  27
HETATM   27  O10 UNL     1      10.180  35.334  69.813  1.00  0.00    -0.356 OA
ATOM     28  H10 UNL     1      10.092  35.083  70.724  1.00  0.00     0.218 HD
ENDBRANCH  16  27
BRANCH  17  29
HETATM   29  O9  UNL     1      12.490  33.951  70.705  1.00  0.00    -0.357 OA
ATOM     30  H9  UNL     1      11.661  33.512  70.855  1.00  0.00     0.217 HD
ENDBRANCH  17  29
BRANCH  19  31
HETATM   31  O8  UNL     1      15.524  33.176  71.485  1.00  0.00    -0.289 OA
ATOM     32  H8  UNL     1      16.421  33.302  71.774  1.00  0.00     0.244 HD
ENDBRANCH  19  31
ENDBRANCH   7   8
BRANCH   7  33
HETATM   33  O4  UNL     1      17.663  34.709  70.797  1.00  0.00    -0.371 OA
ATOM     34  H4  UNL     1      17.340  35.602  70.831  1.00  0.00     0.212 HD
ENDBRANCH   7  33
ENDBRANCH   1   7
BRANCH   6  35
HETATM   35  O7  UNL     1      19.031  32.592  71.494  1.00  0.00    -0.344 OA
ATOM     36  H7  UNL     1      18.899  33.036  72.324  1.00  0.00     0.219 HD
ENDBRANCH   6  35
BRANCH   5  37
HETATM   37  C8  UNL     1      18.395  29.759  71.549  1.00  0.00     0.298 C 
BRANCH  37  38
HETATM   38  N6  UNL     1      19.847  29.883  71.310  1.00  0.00    -0.039 N 
ATOM     39  H62 UNL     1      20.170  29.179  70.647  1.00  0.00     0.280 HD
ATOM     40  H61 UNL     1      20.059  30.725  70.773  1.00  0.00     0.280 HD
BRANCH  38  41
HETATM   41  C9  UNL     1      20.619  29.839  72.527  1.00  0.00     0.367 C 
BRANCH  41  42
HETATM   42  O5  UNL     1      20.654  28.672  73.119  1.00  0.00    -0.366 OA
ATOM     43  H5  UNL     1      21.033  28.674  73.991  1.00  0.00     0.212 HD
ENDBRANCH  41  42
BRANCH  41  44
HETATM   44  C10 UNL     1      21.366  30.880  73.168  1.00  0.00     0.273 C 
BRANCH  44  45
HETATM   45  O6  UNL     1      22.489  30.312  73.883  1.00  0.00    -0.373 OA
ATOM     46  H6  UNL     1      23.249  30.874  73.791  1.00  0.00     0.212 HD
ENDBRANCH  44  45
BRANCH  44  47
HETATM   47  N7  UNL     1      20.774  31.847  73.993  1.00  0.00    -0.345 N 
HETATM   48  C11 UNL     1      21.584  32.952  74.372  1.00  0.00     0.478 C 
HETATM   49  N8  UNL     1      22.571  32.598  75.389  1.00  0.00    -0.033 N 
HETATM   50  N9  UNL     1      22.399  33.422  73.242  1.00  0.00    -0.033 N 
ATOM     51  H83 UNL     1      22.125  32.173  76.202  1.00  0.00     0.278 HD
ATOM     52  H82 UNL     1      23.143  31.809  75.086  1.00  0.00     0.278 HD
ATOM     53  H81 UNL     1      23.153  33.391  75.660  1.00  0.00     0.278 HD
ATOM     54  H93 UNL     1      22.955  32.667  72.841  1.00  0.00     0.278 HD
ATOM     55  H92 UNL     1      21.823  33.639  72.429  1.00  0.00     0.278 HD
ATOM     56  H91 UNL     1      22.980  34.215  73.514  1.00  0.00     0.278 HD
ATOM     57  H7  UNL     1      19.807  31.762  74.306  1.00  0.00     0.159 HD
ENDBRANCH  44  47
ENDBRANCH  41  44
ENDBRANCH  38  41
ENDBRANCH  37  38
ENDBRANCH   5  37
TORSDOF 17
ENDMDL
MODEL 5
REMARK VINA RESULT: -9.515806055      1.719      2.732
REMARK  17 active torsions:
REMARK  status: ('A' for Active; 'I' for Inactive)
REMARK    1  A    between atoms: N1_1  and  O1_4 
REMARK    2  A    between atoms: O1_4  and  C1_5 
REMARK    3  A    between atoms: C1_5  and  C2_7 
REMARK    4  A    between atoms: C5_13  and  C6_14 
REMARK    5  A    between atoms: C6_14  and  O4_15 
REMARK    6  A    between atoms: C6_14  and  N3_17 
REMARK    7  A    between atoms: C7_21  and  C8_22 
REMARK    8  A    between atoms: C8_22  and  N6_23 
REMARK    9  A    between atoms: N6_23  and  C9_26 
REMARK   10  A    between atoms: C9_26  and  O5_27 
REMARK   11  A    between atoms: C9_26  and  C10_29 
REMARK   12  A    between atoms: C10_29  and  O6_30 
REMARK   13  A    between atoms: C10_29  and  N7_32 
REMARK       I    between atoms: N7_32  and  C11_34 
REMARK       I    between atoms: C11_34  and  N8_35 
REMARK       I    between atoms: C11_34  and  N9_39 
REMARK   14  A    between atoms: C12_43  and  O7_44 
REMARK   15  A    between atoms: N10_47  and  O8_49 
REMARK   16  A    between atoms: C15_52  and  O9_53 
REMARK   17  A    between atoms: C16_55  and  O10_56 
ROOT
HETATM    1  N3  UNL     1      15.987  30.878  69.153  1.00  0.00    -0.220 N 
HETATM    2  N4  UNL     1      16.076  30.575  67.856  1.00  0.00    -0.015 NA
HETATM    3  N5  UNL     1      15.416  31.506  67.132  1.00  0.00    -0.282 N 
ATOM      4  H5  UNL     1      15.343  31.502  66.115  1.00  0.00     0.184 HD
HETATM    5  C7  UNL     1      14.878  32.421  67.922  1.00  0.00     0.101 A 
HETATM    6  C12 UNL     1      15.254  31.996  69.214  1.00  0.00     0.184 A 
ENDROOT
BRANCH   1   7
HETATM    7  C6  UNL     1      16.655  30.298  70.285  1.00  0.00     0.280 C 
BRANCH   7   8
HETATM    8  C5  UNL     1      17.745  30.992  70.903  1.00  0.00     0.043 A 
HETATM    9  C4  UNL     1      17.988  32.344  70.774  1.00  0.00     0.158 A 
HETATM   10  O3  UNL     1      19.044  32.903  71.347  1.00  0.00    -0.304 OA
HETATM   11  C3  UNL     1      19.919  32.284  72.052  1.00  0.00     0.163 A 
HETATM   12  N2  UNL     1      21.009  32.878  72.620  1.00  0.00    -0.329 N 
HETATM   13  C14 UNL     1      19.746  30.912  72.255  1.00  0.00     0.081 A 
HETATM   14  C2  UNL     1      21.889  32.212  73.335  1.00  0.00     0.148 A 
ATOM     15  H2  UNL     1      21.147  33.879  72.484  1.00  0.00     0.168 HD
HETATM   16  C16 UNL     1      21.742  30.827  73.562  1.00  0.00     0.133 A 
HETATM   17  C15 UNL     1      20.660  30.184  73.017  1.00  0.00     0.118 A 
HETATM   18  C13 UNL     1      18.662  30.268  71.668  1.00  0.00     0.084 A 
HETATM   19  N10 UNL     1      18.688  28.981  71.758  1.00  0.00    -0.268 N 
ATOM     20  H10 UNL     1      19.426  28.643  72.375  1.00  0.00     0.194 HD
BRANCH  14  21
HETATM   21  C1  UNL     1      23.146  32.787  73.842  1.00  0.00     0.334 C 
HETATM   22  O2  UNL     1      23.648  32.569  74.948  1.00  0.00    -0.256 OA
BRANCH  21  23
HETATM   23  O1  UNL     1      23.892  33.700  73.035  1.00  0.00    -0.201 OA
BRANCH  23  24
HETATM   24  N1  UNL     1      23.735  35.044  73.047  1.00  0.00    -0.302 N 
ATOM     25  H12 UNL     1      24.143  35.558  72.266  1.00  0.00     0.184 HD
ATOM     26  H11 UNL     1      23.243  35.564  73.774  1.00  0.00     0.184 HD
ENDBRANCH  23  24
ENDBRANCH  21  23
ENDBRANCH  14  21
BRANCH  16  27
HETATM   27  O10 UNL     1      22.662  30.133  74.320  1.00  0.00    -0.356 OA
ATOM     28  H10 UNL     1      23.484  29.845  73.943  1.00  0.00     0.218 HD
ENDBRANCH  16  27
BRANCH  17  29
HETATM   29  O9  UNL     1      20.413  28.833  73.178  1.00  0.00    -0.357 OA
ATOM     30  H9  UNL     1      20.039  28.556  74.006  1.00  0.00     0.217 HD
ENDBRANCH  17  29
BRANCH  19  31
HETATM   31  O8  UNL     1      17.976  28.006  71.232  1.00  0.00    -0.289 OA
ATOM     32  H8  UNL     1      17.719  27.772  70.348  1.00  0.00     0.244 HD
ENDBRANCH  19  31
ENDBRANCH   7   8
BRANCH   7  33
HETATM   33  O4  UNL     1      15.671  30.000  71.271  1.00  0.00    -0.371 OA
ATOM     34  H4  UNL     1      14.819  30.281  70.957  1.00  0.00     0.212 HD
ENDBRANCH   7  33
ENDBRANCH   1   7
BRANCH   6  35
HETATM   35  O7  UNL     1      14.855  32.726  70.387  1.00  0.00    -0.344 OA
ATOM     36  H7  UNL     1      14.828  33.668  70.506  1.00  0.00     0.219 HD
ENDBRANCH   6  35
BRANCH   5  37
HETATM   37  C8  UNL     1      14.015  33.609  67.752  1.00  0.00     0.298 C 
BRANCH  37  38
HETATM   38  N6  UNL     1      14.696  34.777  68.347  1.00  0.00    -0.039 N 
ATOM     39  H62 UNL     1      15.266  34.500  69.146  1.00  0.00     0.280 HD
ATOM     40  H61 UNL     1      15.431  35.125  67.731  1.00  0.00     0.280 HD
BRANCH  38  41
HETATM   41  C9  UNL     1      13.781  35.832  68.706  1.00  0.00     0.367 C 
BRANCH  41  42
HETATM   42  O5  UNL     1      14.208  37.045  68.457  1.00  0.00    -0.366 OA
ATOM     43  H5  UNL     1      13.526  37.700  68.364  1.00  0.00     0.212 HD
ENDBRANCH  41  42
BRANCH  41  44
HETATM   44  C10 UNL     1      12.469  35.743  69.275  1.00  0.00     0.273 C 
BRANCH  44  45
HETATM   45  O6  UNL     1      12.417  34.653  70.225  1.00  0.00    -0.373 OA
ATOM     46  H6  UNL     1      12.805  34.923  71.049  1.00  0.00     0.212 HD
ENDBRANCH  44  45
BRANCH  44  47
HETATM   47  N7  UNL     1      11.303  35.694  68.498  1.00  0.00    -0.345 N 
HETATM   48  C11 UNL     1      10.065  35.680  69.197  1.00  0.00     0.478 C 
HETATM   49  N8  UNL     1       9.785  34.385  69.812  1.00  0.00    -0.033 N 
HETATM   50  N9  UNL     1      10.091  36.610  70.335  1.00  0.00    -0.033 N 
ATOM     51  H83 UNL     1       9.826  33.634  69.123  1.00  0.00     0.278 HD
ATOM     52  H82 UNL     1      10.552  34.093  70.418  1.00  0.00     0.278 HD
ATOM     53  H81 UNL     1       8.897  34.376  70.313  1.00  0.00     0.278 HD
ATOM     54  H93 UNL     1      10.876  36.420  70.957  1.00  0.00     0.278 HD
ATOM     55  H92 UNL     1      10.348  37.553  70.043  1.00  0.00     0.278 HD
ATOM     56  H91 UNL     1       9.203  36.601  70.836  1.00  0.00     0.278 HD
ATOM     57  H7  UNL     1      11.341  35.669  67.479  1.00  0.00     0.159 HD
ENDBRANCH  44  47
ENDBRANCH  41  44
ENDBRANCH  38  41
ENDBRANCH  37  38
ENDBRANCH   5  37
TORSDOF 17
ENDMDL
