MODEL 1
REMARK VINA RESULT: -9.325526264      0.000      0.000
REMARK  13 active torsions:
REMARK  status: ('A' for Active; 'I' for Inactive)
REMARK    1  A    between atoms: N1_1  and  C1_4 
REMARK    2  A    between atoms: C4_11  and  N5_12 
REMARK    3  A    between atoms: C6_17  and  C7_18 
REMARK    4  A    between atoms: C8_21  and  N9_22 
REMARK    5  A    between atoms: C10_27  and  N12_28 
REMARK    6  A    between atoms: C13_34  and  N13_35 
REMARK    7  A    between atoms: N13_35  and  O1_37 
REMARK    8  A    between atoms: O1_37  and  C14_38 
REMARK    9  A    between atoms: C14_38  and  C15_39 
REMARK   10  A    between atoms: C15_39  and  O2_40 
REMARK   11  A    between atoms: C15_39  and  C16_42 
REMARK   12  A    between atoms: C16_42  and  O3_43 
REMARK   13  A    between atoms: N14_46  and  O4_48 
ROOT
HETATM    1  C7  UNL     1      17.162  32.112  69.938  1.00  0.00     0.070 A 
HETATM    2  N8  UNL     1      16.446  31.168  69.231  1.00  0.00    -0.342 N 
ATOM      3  H8  UNL     1      15.741  31.471  68.559  1.00  0.00     0.167 HD
HETATM    4  C8  UNL     1      16.663  29.862  69.416  1.00  0.00     0.113 A 
HETATM    5  C11 UNL     1      17.619  29.466  70.328  1.00  0.00     0.051 A 
HETATM    6  C12 UNL     1      18.360  30.357  71.061  1.00  0.00     0.037 A 
HETATM    7  C13 UNL     1      18.108  31.735  70.846  1.00  0.00     0.079 A 
ENDROOT
BRANCH   1   8
HETATM    8  C6  UNL     1      16.941  33.537  69.631  1.00  0.00     0.207 A 
HETATM    9  N7  UNL     1      16.725  34.288  70.825  1.00  0.00    -0.347 N 
HETATM   10  C5  UNL     1      15.575  34.848  70.856  1.00  0.00     0.199 A 
ATOM     11  H7  UNL     1      17.414  34.369  71.573  1.00  0.00     0.163 HD
HETATM   12  N5  UNL     1      14.843  34.552  69.674  1.00  0.00    -0.254 N 
HETATM   13  N6  UNL     1      15.033  35.677  71.907  1.00  0.00    -0.063 NA
HETATM   14  C17 UNL     1      15.658  33.727  68.867  1.00  0.00     0.141 A 
HETATM   15  N14 UNL     1      15.374  33.233  67.714  1.00  0.00    -0.254 N 
ATOM     16  H14 UNL     1      16.043  32.646  67.217  1.00  0.00     0.195 HD
BRANCH  12  17
HETATM   17  C4  UNL     1      13.509  35.023  69.370  1.00  0.00     0.159 A 
HETATM   18  C3  UNL     1      13.380  36.043  68.462  1.00  0.00     0.133 A 
HETATM   19  C2  UNL     1      12.120  36.549  68.117  1.00  0.00     0.159 A 
HETATM   20  N4  UNL     1      14.534  36.591  67.865  1.00  0.00    -0.095 NA
HETATM   21  N2  UNL     1      11.043  36.012  68.696  1.00  0.00    -0.177 N 
HETATM   22  N3  UNL     1      11.993  37.597  67.183  1.00  0.00    -0.080 NA
HETATM   23  C1  UNL     1      11.167  35.008  69.589  1.00  0.00     0.678 A 
ATOM     24  H2  UNL     1      10.115  36.366  68.460  1.00  0.00     0.185 HD
HETATM   25  N15 UNL     1      12.399  34.521  69.921  1.00  0.00    -0.174 N 
ATOM     26  H15 UNL     1      12.474  33.762  70.598  1.00  0.00     0.186 HD
BRANCH  23  27
HETATM   27  N1  UNL     1      10.134  34.472  70.163  1.00  0.00    -0.234 N 
ATOM     28  H12 UNL     1       9.233  34.936  70.044  1.00  0.00     0.174 HD
ATOM     29  H11 UNL     1      10.209  33.617  70.715  1.00  0.00     0.174 HD
ENDBRANCH  23  27
ENDBRANCH  12  17
BRANCH  15  30
HETATM   30  O4  UNL     1      14.146  33.516  67.167  1.00  0.00    -0.288 OA
ATOM     31  H4  UNL     1      13.619  32.795  66.845  1.00  0.00     0.244 HD
ENDBRANCH  15  30
ENDBRANCH   1   8
BRANCH   7  32
HETATM   32  N13 UNL     1      18.829  32.628  71.681  1.00  0.00    -0.265 N 
ATOM     33  H13 UNL     1      18.282  33.114  72.393  1.00  0.00     0.194 HD
BRANCH  32  34
HETATM   34  O1  UNL     1      20.130  32.910  71.650  1.00  0.00    -0.277 OA
BRANCH  34  35
HETATM   35  C14 UNL     1      20.803  32.003  72.459  1.00  0.00     0.235 C 
BRANCH  35  36
HETATM   36  C15 UNL     1      21.111  32.629  73.786  1.00  0.00     0.167 C 
BRANCH  36  37
HETATM   37  O2  UNL     1      20.205  32.234  74.761  1.00  0.00    -0.391 OA
ATOM     38  H2  UNL     1      20.547  32.377  75.635  1.00  0.00     0.210 HD
ENDBRANCH  36  37
BRANCH  36  39
HETATM   39  C16 UNL     1      22.547  32.376  74.182  1.00  0.00     0.198 C 
BRANCH  39  40
HETATM   40  O3  UNL     1      22.832  32.950  75.420  1.00  0.00    -0.398 OA
ATOM     41  H3  UNL     1      22.932  33.893  75.344  1.00  0.00     0.209 HD
ENDBRANCH  39  40
ENDBRANCH  36  39
ENDBRANCH  35  36
ENDBRANCH  34  35
ENDBRANCH  32  34
ENDBRANCH   7  32
BRANCH   4  42
HETATM   42  N9  UNL     1      15.941  28.873  68.697  1.00  0.00    -0.261 N 
HETATM   43  C9  UNL     1      15.183  28.858  67.493  1.00  0.00     0.198 A 
HETATM   44  N10 UNL     1      14.860  29.863  66.524  1.00  0.00    -0.063 NA
HETATM   45  N11 UNL     1      14.852  27.608  67.522  1.00  0.00    -0.320 N 
HETATM   46  C10 UNL     1      15.596  27.497  68.761  1.00  0.00     0.399 A 
ATOM     47  H11 UNL     1      14.307  26.978  66.934  1.00  0.00     0.166 HD
BRANCH  46  48
HETATM   48  N12 UNL     1      16.659  26.536  68.610  1.00  0.00    -0.040 N 
ATOM     49 3H12 UNL     1      16.806  26.350  67.618  1.00  0.00     0.279 HD
ATOM     50 2H12 UNL     1      17.547  26.974  68.857  1.00  0.00     0.279 HD
ATOM     51 1H12 UNL     1      16.569  25.652  69.110  1.00  0.00     0.279 HD
ENDBRANCH  46  48
ENDBRANCH   4  42
TORSDOF 13
ENDMDL
MODEL 2
REMARK VINA RESULT: -8.270692537      0.567      1.608
REMARK  13 active torsions:
REMARK  status: ('A' for Active; 'I' for Inactive)
REMARK    1  A    between atoms: N1_1  and  C1_4 
REMARK    2  A    between atoms: C4_11  and  N5_12 
REMARK    3  A    between atoms: C6_17  and  C7_18 
REMARK    4  A    between atoms: C8_21  and  N9_22 
REMARK    5  A    between atoms: C10_27  and  N12_28 
REMARK    6  A    between atoms: C13_34  and  N13_35 
REMARK    7  A    between atoms: N13_35  and  O1_37 
REMARK    8  A    between atoms: O1_37  and  C14_38 
REMARK    9  A    between atoms: C14_38  and  C15_39 
REMARK   10  A    between atoms: C15_39  and  O2_40 
REMARK   11  A    between atoms: C15_39  and  C16_42 
REMARK   12  A    between atoms: C16_42  and  O3_43 
REMARK   13  A    between atoms: N14_46  and  O4_48 
ROOT
HETATM    1  C7  UNL     1      17.115  32.196  69.832  1.00  0.00     0.070 A 
HETATM    2  N8  UNL     1      16.408  31.243  69.126  1.00  0.00    -0.342 N 
ATOM      3  H8  UNL     1      15.731  31.537  68.422  1.00  0.00     0.167 HD
HETATM    4  C8  UNL     1      16.600  29.940  69.354  1.00  0.00     0.113 A 
HETATM    5  C11 UNL     1      17.519  29.556  70.309  1.00  0.00     0.051 A 
HETATM    6  C12 UNL     1      18.248  30.456  71.041  1.00  0.00     0.037 A 
HETATM    7  C13 UNL     1      18.024  31.831  70.782  1.00  0.00     0.079 A 
ENDROOT
BRANCH   1   8
HETATM    8  C6  UNL     1      16.924  33.615  69.478  1.00  0.00     0.207 A 
HETATM    9  N7  UNL     1      16.747  34.412  70.649  1.00  0.00    -0.347 N 
HETATM   10  C5  UNL     1      15.612  35.002  70.677  1.00  0.00     0.199 A 
ATOM     11  H7  UNL     1      17.448  34.501  71.384  1.00  0.00     0.163 HD
HETATM   12  N5  UNL     1      14.854  34.685  69.517  1.00  0.00    -0.254 N 
HETATM   13  N6  UNL     1      15.107  35.880  71.707  1.00  0.00    -0.063 NA
HETATM   14  C17 UNL     1      15.635  33.812  68.728  1.00  0.00     0.141 A 
HETATM   15  N14 UNL     1      15.321  33.287  67.596  1.00  0.00    -0.254 N 
ATOM     16  H14 UNL     1      15.968  32.666  67.110  1.00  0.00     0.195 HD
BRANCH  12  17
HETATM   17  C4  UNL     1      13.528  35.180  69.216  1.00  0.00     0.159 A 
HETATM   18  C3  UNL     1      12.473  34.658  69.920  1.00  0.00     0.133 A 
HETATM   19  C2  UNL     1      11.162  35.090  69.683  1.00  0.00     0.159 A 
HETATM   20  N4  UNL     1      12.712  33.672  70.898  1.00  0.00    -0.095 NA
HETATM   21  N2  UNL     1      10.963  36.026  68.751  1.00  0.00    -0.177 N 
HETATM   22  N3  UNL     1      10.081  34.551  70.410  1.00  0.00    -0.080 NA
HETATM   23  C1  UNL     1      11.999  36.542  68.057  1.00  0.00     0.678 A 
ATOM     24  H2  UNL     1      10.016  36.355  68.562  1.00  0.00     0.185 HD
HETATM   25  N15 UNL     1      13.275  36.115  68.294  1.00  0.00    -0.174 N 
ATOM     26  H15 UNL     1      14.046  36.515  67.760  1.00  0.00     0.186 HD
BRANCH  23  27
HETATM   27  N1  UNL     1      11.828  37.452  67.149  1.00  0.00    -0.234 N 
ATOM     28  H12 UNL     1      10.889  37.833  67.032  1.00  0.00     0.174 HD
ATOM     29  H11 UNL     1      12.599  37.782  66.566  1.00  0.00     0.174 HD
ENDBRANCH  23  27
ENDBRANCH  12  17
BRANCH  15  30
HETATM   30  O4  UNL     1      14.092  33.582  67.058  1.00  0.00    -0.288 OA
ATOM     31  H4  UNL     1      13.398  32.940  67.140  1.00  0.00     0.244 HD
ENDBRANCH  15  30
ENDBRANCH   1   8
BRANCH   7  32
HETATM   32  N13 UNL     1      18.729  32.737  71.616  1.00  0.00    -0.265 N 
ATOM     33  H13 UNL     1      18.164  33.261  72.284  1.00  0.00     0.194 HD
BRANCH  32  34
HETATM   34  O1  UNL     1      20.037  32.987  71.633  1.00  0.00    -0.277 OA
BRANCH  34  35
HETATM   35  C14 UNL     1      20.652  32.087  72.495  1.00  0.00     0.235 C 
BRANCH  35  36
HETATM   36  C15 UNL     1      21.066  32.785  73.755  1.00  0.00     0.167 C 
BRANCH  36  37
HETATM   37  O2  UNL     1      20.380  32.298  74.859  1.00  0.00    -0.391 OA
ATOM     38  H2  UNL     1      19.917  32.989  75.317  1.00  0.00     0.210 HD
ENDBRANCH  36  37
BRANCH  36  39
HETATM   39  C16 UNL     1      22.566  32.739  73.930  1.00  0.00     0.198 C 
BRANCH  39  40
HETATM   40  O3  UNL     1      23.172  33.846  73.339  1.00  0.00    -0.398 OA
ATOM     41  H3  UNL     1      24.114  33.829  73.469  1.00  0.00     0.209 HD
ENDBRANCH  39  40
ENDBRANCH  36  39
ENDBRANCH  35  36
ENDBRANCH  34  35
ENDBRANCH  32  34
ENDBRANCH   7  32
BRANCH   4  42
HETATM   42  N9  UNL     1      15.888  28.941  68.638  1.00  0.00    -0.261 N 
HETATM   43  C9  UNL     1      15.155  28.908  67.419  1.00  0.00     0.198 A 
HETATM   44  N10 UNL     1      14.857  29.897  66.426  1.00  0.00    -0.063 NA
HETATM   45  N11 UNL     1      14.817  27.660  67.464  1.00  0.00    -0.320 N 
HETATM   46  C10 UNL     1      15.535  27.568  68.719  1.00  0.00     0.399 A 
ATOM     47  H11 UNL     1      14.281  27.023  66.875  1.00  0.00     0.166 HD
BRANCH  46  48
HETATM   48  N12 UNL     1      16.596  26.600  68.608  1.00  0.00    -0.040 N 
ATOM     49 3H12 UNL     1      17.413  27.043  68.187  1.00  0.00     0.279 HD
ATOM     50 2H12 UNL     1      16.954  26.383  69.538  1.00  0.00     0.279 HD
ATOM     51 1H12 UNL     1      16.391  25.732  68.114  1.00  0.00     0.279 HD
ENDBRANCH  46  48
ENDBRANCH   4  42
TORSDOF 13
ENDMDL
MODEL 3
REMARK VINA RESULT: -8.138929818      2.668      7.946
REMARK  13 active torsions:
REMARK  status: ('A' for Active; 'I' for Inactive)
REMARK    1  A    between atoms: N1_1  and  C1_4 
REMARK    2  A    between atoms: C4_11  and  N5_12 
REMARK    3  A    between atoms: C6_17  and  C7_18 
REMARK    4  A    between atoms: C8_21  and  N9_22 
REMARK    5  A    between atoms: C10_27  and  N12_28 
REMARK    6  A    between atoms: C13_34  and  N13_35 
REMARK    7  A    between atoms: N13_35  and  O1_37 
REMARK    8  A    between atoms: O1_37  and  C14_38 
REMARK    9  A    between atoms: C14_38  and  C15_39 
REMARK   10  A    between atoms: C15_39  and  O2_40 
REMARK   11  A    between atoms: C15_39  and  C16_42 
REMARK   12  A    between atoms: C16_42  and  O3_43 
REMARK   13  A    between atoms: N14_46  and  O4_48 
ROOT
HETATM    1  C7  UNL     1      14.339  34.306  69.927  1.00  0.00     0.070 A 
HETATM    2  N8  UNL     1      13.156  34.953  70.224  1.00  0.00    -0.342 N 
ATOM      3  H8  UNL     1      13.015  35.341  71.156  1.00  0.00     0.167 HD
HETATM    4  C8  UNL     1      12.194  35.076  69.304  1.00  0.00     0.113 A 
HETATM    5  C11 UNL     1      12.398  34.546  68.047  1.00  0.00     0.051 A 
HETATM    6  C12 UNL     1      13.549  33.892  67.695  1.00  0.00     0.037 A 
HETATM    7  C13 UNL     1      14.553  33.773  68.689  1.00  0.00     0.079 A 
ENDROOT
BRANCH   1   8
HETATM    8  C6  UNL     1      15.398  34.275  70.953  1.00  0.00     0.207 A 
HETATM    9  N7  UNL     1      16.631  34.765  70.426  1.00  0.00    -0.347 N 
HETATM   10  C5  UNL     1      17.562  33.888  70.455  1.00  0.00     0.199 A 
ATOM     11  H7  UNL     1      16.755  35.711  70.066  1.00  0.00     0.163 HD
HETATM   12  N5  UNL     1      17.087  32.670  71.012  1.00  0.00    -0.254 N 
HETATM   13  N6  UNL     1      18.926  34.046  70.006  1.00  0.00    -0.063 NA
HETATM   14  C17 UNL     1      15.727  32.859  71.341  1.00  0.00     0.141 A 
HETATM   15  N14 UNL     1      14.922  32.003  71.867  1.00  0.00    -0.254 N 
ATOM     16  H14 UNL     1      13.952  32.250  72.064  1.00  0.00     0.195 HD
BRANCH  12  17
HETATM   17  C4  UNL     1      17.870  31.468  71.201  1.00  0.00     0.159 A 
HETATM   18  C3  UNL     1      17.500  30.344  70.508  1.00  0.00     0.133 A 
HETATM   19  C2  UNL     1      18.212  29.145  70.640  1.00  0.00     0.159 A 
HETATM   20  N4  UNL     1      16.385  30.397  69.647  1.00  0.00    -0.095 NA
HETATM   21  N2  UNL     1      19.265  29.123  71.461  1.00  0.00    -0.177 N 
HETATM   22  N3  UNL     1      17.827  27.994  69.925  1.00  0.00    -0.080 NA
HETATM   23  C1  UNL     1      19.633  30.227  72.144  1.00  0.00     0.678 A 
ATOM     24  H2  UNL     1      19.798  28.260  71.574  1.00  0.00     0.185 HD
HETATM   25  N15 UNL     1      18.933  31.393  72.010  1.00  0.00    -0.174 N 
ATOM     26  H15 UNL     1      19.224  32.217  72.535  1.00  0.00     0.186 HD
BRANCH  23  27
HETATM   27  N1  UNL     1      20.652  30.227  72.947  1.00  0.00    -0.234 N 
ATOM     28  H12 UNL     1      20.776  31.037  73.555  1.00  0.00     0.174 HD
ATOM     29  H11 UNL     1      21.313  29.450  72.977  1.00  0.00     0.174 HD
ENDBRANCH  23  27
ENDBRANCH  12  17
BRANCH  15  30
HETATM   30  O4  UNL     1      15.401  30.749  72.157  1.00  0.00    -0.288 OA
ATOM     31  H4  UNL     1      14.865  30.173  72.688  1.00  0.00     0.244 HD
ENDBRANCH  15  30
ENDBRANCH   1   8
BRANCH   7  32
HETATM   32  N13 UNL     1      15.695  33.016  68.322  1.00  0.00    -0.265 N 
ATOM     33  H13 UNL     1      16.482  33.050  68.970  1.00  0.00     0.194 HD
BRANCH  32  34
HETATM   34  O1  UNL     1      15.866  32.266  67.234  1.00  0.00    -0.277 OA
BRANCH  34  35
HETATM   35  C14 UNL     1      15.771  30.928  67.595  1.00  0.00     0.235 C 
BRANCH  35  36
HETATM   36  C15 UNL     1      14.790  30.225  66.705  1.00  0.00     0.167 C 
BRANCH  36  37
HETATM   37  O2  UNL     1      14.870  30.680  65.396  1.00  0.00    -0.391 OA
ATOM     38  H2  UNL     1      15.743  30.985  65.183  1.00  0.00     0.210 HD
ENDBRANCH  36  37
BRANCH  36  39
HETATM   39  C16 UNL     1      14.940  28.726  66.815  1.00  0.00     0.198 C 
BRANCH  39  40
HETATM   40  O3  UNL     1      15.145  28.340  68.138  1.00  0.00    -0.398 OA
ATOM     41  H3  UNL     1      14.809  27.464  68.295  1.00  0.00     0.209 HD
ENDBRANCH  39  40
ENDBRANCH  36  39
ENDBRANCH  35  36
ENDBRANCH  34  35
ENDBRANCH  32  34
ENDBRANCH   7  32
BRANCH   4  42
HETATM   42  N9  UNL     1      10.970  35.741  69.584  1.00  0.00    -0.261 N 
HETATM   43  C9  UNL     1      10.169  36.701  68.904  1.00  0.00     0.198 A 
HETATM   44  N10 UNL     1      10.297  37.371  67.644  1.00  0.00    -0.063 NA
HETATM   45  N11 UNL     1       9.239  36.801  69.798  1.00  0.00    -0.320 N 
HETATM   46  C10 UNL     1       9.967  35.826  70.585  1.00  0.00     0.399 A 
ATOM     47  H11 UNL     1       8.374  37.332  69.902  1.00  0.00     0.166 HD
BRANCH  46  48
HETATM   48  N12 UNL     1       9.147  34.663  70.807  1.00  0.00    -0.040 N 
ATOM     49 3H12 UNL     1       9.456  33.911  70.191  1.00  0.00     0.279 HD
ATOM     50 2H12 UNL     1       9.366  34.264  71.720  1.00  0.00     0.279 HD
ATOM     51 1H12 UNL     1       8.137  34.775  70.721  1.00  0.00     0.279 HD
ENDBRANCH  46  48
ENDBRANCH   4  42
TORSDOF 13
ENDMDL
MODEL 4
REMARK VINA RESULT: -8.018043468      2.745      7.857
REMARK  13 active torsions:
REMARK  status: ('A' for Active; 'I' for Inactive)
REMARK    1  A    between atoms: N1_1  and  C1_4 
REMARK    2  A    between atoms: C4_11  and  N5_12 
REMARK    3  A    between atoms: C6_17  and  C7_18 
REMARK    4  A    between atoms: C8_21  and  N9_22 
REMARK    5  A    between atoms: C10_27  and  N12_28 
REMARK    6  A    between atoms: C13_34  and  N13_35 
REMARK    7  A    between atoms: N13_35  and  O1_37 
REMARK    8  A    between atoms: O1_37  and  C14_38 
REMARK    9  A    between atoms: C14_38  and  C15_39 
REMARK   10  A    between atoms: C15_39  and  O2_40 
REMARK   11  A    between atoms: C15_39  and  C16_42 
REMARK   12  A    between atoms: C16_42  and  O3_43 
REMARK   13  A    between atoms: N14_46  and  O4_48 
ROOT
HETATM    1  C7  UNL     1      14.563  34.529  69.826  1.00  0.00     0.070 A 
HETATM    2  N8  UNL     1      13.326  35.038  70.169  1.00  0.00    -0.342 N 
ATOM      3  H8  UNL     1      13.125  35.255  71.145  1.00  0.00     0.167 HD
HETATM    4  C8  UNL     1      12.390  35.250  69.238  1.00  0.00     0.113 A 
HETATM    5  C11 UNL     1      12.676  34.950  67.922  1.00  0.00     0.051 A 
HETATM    6  C12 UNL     1      13.884  34.442  67.522  1.00  0.00     0.037 A 
HETATM    7  C13 UNL     1      14.858  34.225  68.528  1.00  0.00     0.079 A 
ENDROOT
BRANCH   1   8
HETATM    8  C6  UNL     1      15.584  34.397  70.881  1.00  0.00     0.207 A 
HETATM    9  N7  UNL     1      16.845  34.897  70.434  1.00  0.00    -0.347 N 
HETATM   10  C5  UNL     1      17.757  34.000  70.427  1.00  0.00     0.199 A 
ATOM     11  H7  UNL     1      17.000  35.865  70.150  1.00  0.00     0.163 HD
HETATM   12  N5  UNL     1      17.238  32.755  70.874  1.00  0.00    -0.254 N 
HETATM   13  N6  UNL     1      19.139  34.161  70.037  1.00  0.00    -0.063 NA
HETATM   14  C17 UNL     1      15.871  32.949  71.172  1.00  0.00     0.141 A 
HETATM   15  N14 UNL     1      15.032  32.075  71.605  1.00  0.00    -0.254 N 
ATOM     16  H14 UNL     1      14.061  32.328  71.788  1.00  0.00     0.195 HD
BRANCH  12  17
HETATM   17  C4  UNL     1      17.990  31.525  70.998  1.00  0.00     0.159 A 
HETATM   18  C3  UNL     1      19.181  31.566  71.677  1.00  0.00     0.133 A 
HETATM   19  C2  UNL     1      19.962  30.415  71.838  1.00  0.00     0.159 A 
HETATM   20  N4  UNL     1      19.627  32.787  72.223  1.00  0.00    -0.095 NA
HETATM   21  N2  UNL     1      19.517  29.270  71.312  1.00  0.00    -0.177 N 
HETATM   22  N3  UNL     1      21.185  30.462  72.538  1.00  0.00    -0.080 NA
HETATM   23  C1  UNL     1      18.345  29.226  70.644  1.00  0.00     0.678 A 
ATOM     24  H2  UNL     1      20.069  28.419  71.417  1.00  0.00     0.185 HD
HETATM   25  N15 UNL     1      17.590  30.354  70.491  1.00  0.00    -0.174 N 
ATOM     26  H15 UNL     1      16.707  30.303  69.982  1.00  0.00     0.186 HD
BRANCH  23  27
HETATM   27  N1  UNL     1      17.894  28.126  70.126  1.00  0.00    -0.234 N 
ATOM     28  H12 UNL     1      16.882  28.020  70.046  1.00  0.00     0.174 HD
ATOM     29  H11 UNL     1      18.520  27.386  69.806  1.00  0.00     0.174 HD
ENDBRANCH  23  27
ENDBRANCH  12  17
BRANCH  15  30
HETATM   30  O4  UNL     1      15.476  30.793  71.815  1.00  0.00    -0.288 OA
ATOM     31  H4  UNL     1      14.861  30.153  72.154  1.00  0.00     0.244 HD
ENDBRANCH  15  30
ENDBRANCH   1   8
BRANCH   7  32
HETATM   32  N13 UNL     1      16.065  33.617  68.096  1.00  0.00    -0.265 N 
ATOM     33  H13 UNL     1      16.918  34.151  68.258  1.00  0.00     0.194 HD
BRANCH  32  34
HETATM   34  O1  UNL     1      16.219  32.433  67.504  1.00  0.00    -0.277 OA
BRANCH  34  35
HETATM   35  C14 UNL     1      15.198  31.589  67.920  1.00  0.00     0.235 C 
BRANCH  35  36
HETATM   36  C15 UNL     1      15.603  30.159  67.725  1.00  0.00     0.167 C 
BRANCH  36  37
HETATM   37  O2  UNL     1      15.385  29.404  68.869  1.00  0.00    -0.391 OA
ATOM     38  H2  UNL     1      15.641  28.498  68.745  1.00  0.00     0.210 HD
ENDBRANCH  36  37
BRANCH  36  39
HETATM   39  C16 UNL     1      14.940  29.573  66.500  1.00  0.00     0.198 C 
BRANCH  39  40
HETATM   40  O3  UNL     1      14.734  30.550  65.527  1.00  0.00    -0.398 OA
ATOM     41  H3  UNL     1      14.258  31.291  65.885  1.00  0.00     0.209 HD
ENDBRANCH  39  40
ENDBRANCH  36  39
ENDBRANCH  35  36
ENDBRANCH  34  35
ENDBRANCH  32  34
ENDBRANCH   7  32
BRANCH   4  42
HETATM   42  N9  UNL     1      11.113  35.776  69.566  1.00  0.00    -0.261 N 
HETATM   43  C9  UNL     1      10.213  36.690  68.949  1.00  0.00     0.198 A 
HETATM   44  N10 UNL     1      10.258  37.438  67.727  1.00  0.00    -0.063 NA
HETATM   45  N11 UNL     1       9.290  36.650  69.854  1.00  0.00    -0.320 N 
HETATM   46  C10 UNL     1      10.120  35.708  70.579  1.00  0.00     0.399 A 
ATOM     47  H11 UNL     1       8.380  37.088  69.996  1.00  0.00     0.166 HD
BRANCH  46  48
HETATM   48  N12 UNL     1       9.419  34.460  70.741  1.00  0.00    -0.040 N 
ATOM     49 3H12 UNL     1       9.930  33.722  70.257  1.00  0.00     0.279 HD
ATOM     50 2H12 UNL     1       9.504  34.149  71.709  1.00  0.00     0.279 HD
ATOM     51 1H12 UNL     1       8.439  34.431  70.463  1.00  0.00     0.279 HD
ENDBRANCH  46  48
ENDBRANCH   4  42
TORSDOF 13
ENDMDL
MODEL 5
REMARK VINA RESULT: -7.885963797      2.689      7.972
REMARK  13 active torsions:
REMARK  status: ('A' for Active; 'I' for Inactive)
REMARK    1  A    between atoms: N1_1  and  C1_4 
REMARK    2  A    between atoms: C4_11  and  N5_12 
REMARK    3  A    between atoms: C6_17  and  C7_18 
REMARK    4  A    between atoms: C8_21  and  N9_22 
REMARK    5  A    between atoms: C10_27  and  N12_28 
REMARK    6  A    between atoms: C13_34  and  N13_35 
REMARK    7  A    between atoms: N13_35  and  O1_37 
REMARK    8  A    between atoms: O1_37  and  C14_38 
REMARK    9  A    between atoms: C14_38  and  C15_39 
REMARK   10  A    between atoms: C15_39  and  O2_40 
REMARK   11  A    between atoms: C15_39  and  C16_42 
REMARK   12  A    between atoms: C16_42  and  O3_43 
REMARK   13  A    between atoms: N14_46  and  O4_48 
ROOT
HETATM    1  C7  UNL     1      14.308  34.200  69.782  1.00  0.00     0.070 A 
HETATM    2  N8  UNL     1      13.083  34.785  70.034  1.00  0.00    -0.342 N 
ATOM      3  H8  UNL     1      12.881  35.150  70.965  1.00  0.00     0.167 HD
HETATM    4  C8  UNL     1      12.158  34.880  69.073  1.00  0.00     0.113 A 
HETATM    5  C11 UNL     1      12.444  34.382  67.819  1.00  0.00     0.051 A 
HETATM    6  C12 UNL     1      13.641  33.789  67.510  1.00  0.00     0.037 A 
HETATM    7  C13 UNL     1      14.603  33.700  68.547  1.00  0.00     0.079 A 
ENDROOT
BRANCH   1   8
HETATM    8  C6  UNL     1      15.319  34.201  70.855  1.00  0.00     0.207 A 
HETATM    9  N7  UNL     1      16.557  34.735  70.386  1.00  0.00    -0.347 N 
HETATM   10  C5  UNL     1      17.516  33.891  70.455  1.00  0.00     0.199 A 
ATOM     11  H7  UNL     1      16.666  35.686  70.034  1.00  0.00     0.163 HD
HETATM   12  N5  UNL     1      17.059  32.655  70.985  1.00  0.00    -0.254 N 
HETATM   13  N6  UNL     1      18.893  34.097  70.069  1.00  0.00    -0.063 NA
HETATM   14  C17 UNL     1      15.679  32.795  71.253  1.00  0.00     0.141 A 
HETATM   15  N14 UNL     1      14.881  31.910  71.740  1.00  0.00    -0.254 N 
ATOM     16  H14 UNL     1      13.896  32.123  71.893  1.00  0.00     0.195 HD
BRANCH  12  17
HETATM   17  C4  UNL     1      17.873  31.480  71.207  1.00  0.00     0.159 A 
HETATM   18  C3  UNL     1      17.541  30.331  70.535  1.00  0.00     0.133 A 
HETATM   19  C2  UNL     1      18.284  29.156  70.698  1.00  0.00     0.159 A 
HETATM   20  N4  UNL     1      16.432  30.334  69.663  1.00  0.00    -0.095 NA
HETATM   21  N2  UNL     1      19.330  29.180  71.529  1.00  0.00    -0.177 N 
HETATM   22  N3  UNL     1      17.938  27.979  70.004  1.00  0.00    -0.080 NA
HETATM   23  C1  UNL     1      19.660  30.308  72.192  1.00  0.00     0.678 A 
ATOM     24  H2  UNL     1      19.886  28.335  71.664  1.00  0.00     0.185 HD
HETATM   25  N15 UNL     1      18.930  31.450  72.027  1.00  0.00    -0.174 N 
ATOM     26  H15 UNL     1      19.193  32.294  72.536  1.00  0.00     0.186 HD
BRANCH  23  27
HETATM   27  N1  UNL     1      20.672  30.354  73.003  1.00  0.00    -0.234 N 
ATOM     28  H12 UNL     1      20.477  30.334  74.004  1.00  0.00     0.174 HD
ATOM     29  H11 UNL     1      21.633  30.407  72.662  1.00  0.00     0.174 HD
ENDBRANCH  23  27
ENDBRANCH  12  17
BRANCH  15  30
HETATM   30  O4  UNL     1      15.389  30.672  72.048  1.00  0.00    -0.288 OA
ATOM     31  H4  UNL     1      14.789  29.938  72.098  1.00  0.00     0.244 HD
ENDBRANCH  15  30
ENDBRANCH   1   8
BRANCH   7  32
HETATM   32  N13 UNL     1      15.796  33.004  68.221  1.00  0.00    -0.265 N 
ATOM     33  H13 UNL     1      16.609  33.214  68.800  1.00  0.00     0.194 HD
BRANCH  32  34
HETATM   34  O1  UNL     1      15.984  32.110  67.251  1.00  0.00    -0.277 OA
BRANCH  34  35
HETATM   35  C14 UNL     1      15.626  30.855  67.726  1.00  0.00     0.235 C 
BRANCH  35  36
HETATM   36  C15 UNL     1      14.759  30.155  66.722  1.00  0.00     0.167 C 
BRANCH  36  37
HETATM   37  O2  UNL     1      14.984  30.624  65.436  1.00  0.00    -0.391 OA
ATOM     38  H2  UNL     1      14.456  30.161  64.796  1.00  0.00     0.210 HD
ENDBRANCH  36  37
BRANCH  36  39
HETATM   39  C16 UNL     1      14.905  28.655  66.835  1.00  0.00     0.198 C 
BRANCH  39  40
HETATM   40  O3  UNL     1      15.174  28.277  68.149  1.00  0.00    -0.398 OA
ATOM     41  H3  UNL     1      15.317  29.038  68.701  1.00  0.00     0.209 HD
ENDBRANCH  39  40
ENDBRANCH  36  39
ENDBRANCH  35  36
ENDBRANCH  34  35
ENDBRANCH  32  34
ENDBRANCH   7  32
BRANCH   4  42
HETATM   42  N9  UNL     1      10.893  35.481  69.307  1.00  0.00    -0.261 N 
HETATM   43  C9  UNL     1       9.915  35.396  70.337  1.00  0.00     0.198 A 
HETATM   44  N10 UNL     1       9.840  34.656  71.561  1.00  0.00    -0.063 NA
HETATM   45  N11 UNL     1       9.065  36.226  69.825  1.00  0.00    -0.320 N 
HETATM   46  C10 UNL     1       9.983  36.398  68.717  1.00  0.00     0.399 A 
ATOM     47  H11 UNL     1       8.151  36.597  70.087  1.00  0.00     0.166 HD
BRANCH  46  48
HETATM   48  N12 UNL     1      10.391  37.776  68.626  1.00  0.00    -0.040 N 
ATOM     49 3H12 UNL     1      11.379  37.819  68.375  1.00  0.00     0.279 HD
ATOM     50 2H12 UNL     1       9.966  38.200  67.801  1.00  0.00     0.279 HD
ATOM     51 1H12 UNL     1      10.222  38.371  69.436  1.00  0.00     0.279 HD
ENDBRANCH  46  48
ENDBRANCH   4  42
TORSDOF 13
ENDMDL
