MODEL 1
REMARK VINA RESULT: -6.698711240      0.000      0.000
REMARK  4 active torsions:
REMARK  status: ('A' for Active; 'I' for Inactive)
REMARK    1  A    between atoms: N1_1  and  C1_4 
REMARK    2  A    between atoms: N5_16  and  C5_17 
REMARK    3  A    between atoms: C5_17  and  C6_18 
REMARK    4  A    between atoms: C6_18  and  C7_19 
ROOT
HETATM    1  C1  UNL     1      44.268  10.721  -0.386  1.00  0.00     0.679 A 
HETATM    2  N2  UNL     1      44.229  10.942  -1.722  1.00  0.00    -0.175 N 
ATOM      3  H2  UNL     1      44.292  10.176  -2.393  1.00  0.00     0.186 HD
HETATM    4  C2  UNL     1      44.102  12.219  -2.123  1.00  0.00     0.145 A 
HETATM    5  N3  UNL     1      44.061  12.451  -3.389  1.00  0.00    -0.383 N 
ATOM      6  H31 UNL     1      43.964  13.420  -3.693  1.00  0.00     0.157 HD
ATOM      7  H32 UNL     1      44.124  11.682  -4.056  1.00  0.00     0.157 HD
HETATM    8  C3  UNL     1      44.015  13.262  -1.219  1.00  0.00     0.124 A 
HETATM    9  N4  UNL     1      43.887  14.597  -1.310  1.00  0.00    -0.326 N 
ATOM     10  H4  UNL     1      43.825  15.112  -2.188  1.00  0.00     0.168 HD
HETATM   11  C4  UNL     1      43.850  15.171  -0.082  1.00  0.00     0.183 A 
HETATM   12 CL1  UNL     1      43.691  16.893   0.271  1.00  0.00    -0.044 Cl
HETATM   13  N5  UNL     1      43.957  14.172   0.809  1.00  0.00    -0.307 N 
HETATM   14  C12 UNL     1      44.059  13.006   0.150  1.00  0.00     0.156 A 
HETATM   15  N6  UNL     1      44.186  11.715   0.512  1.00  0.00    -0.174 N 
ATOM     16  H6  UNL     1      44.222  11.484   1.505  1.00  0.00     0.186 HD
ENDROOT
BRANCH  13  17
HETATM   17  C5  UNL     1      43.960  14.356   2.238  1.00  0.00     0.133 C 
BRANCH  17  18
HETATM   18  C6  UNL     1      45.261  14.916   2.747  1.00  0.00     0.025 C 
BRANCH  18  19
HETATM   19  C7  UNL     1      45.111  16.179   3.517  1.00  0.00    -0.010 C 
HETATM   20  C8  UNL     1      44.997  16.004   4.990  1.00  0.00     0.007 C 
HETATM   21  C9  UNL     1      46.221  16.571   5.639  1.00  0.00     0.037 C 
HETATM   22  C10 UNL     1      47.223  16.812   4.531  1.00  0.00     0.170 C 
HETATM   23  F1  UNL     1      48.119  15.768   4.428  1.00  0.00    -0.249 F 
HETATM   24  C11 UNL     1      46.383  16.998   3.304  1.00  0.00     0.042 C 
ENDBRANCH  18  19
ENDBRANCH  17  18
ENDBRANCH  13  17
BRANCH   1  25
HETATM   25  N1  UNL     1      44.390   9.495  -0.006  1.00  0.00    -0.234 N 
ATOM     26  H12 UNL     1      43.569   8.912   0.153  1.00  0.00     0.174 HD
ATOM     27  H11 UNL     1      45.341   9.148   0.125  1.00  0.00     0.174 HD
ENDBRANCH   1  25
TORSDOF 4
ENDMDL
MODEL 2
REMARK VINA RESULT: -6.688512770      2.394      3.864
REMARK  4 active torsions:
REMARK  status: ('A' for Active; 'I' for Inactive)
REMARK    1  A    between atoms: N1_1  and  C1_4 
REMARK    2  A    between atoms: N5_16  and  C5_17 
REMARK    3  A    between atoms: C5_17  and  C6_18 
REMARK    4  A    between atoms: C6_18  and  C7_19 
ROOT
HETATM    1  C1  UNL     1      44.815  17.373  -2.962  1.00  0.00     0.679 A 
HETATM    2  N2  UNL     1      45.272  16.447  -3.840  1.00  0.00    -0.175 N 
ATOM      3  H2  UNL     1      45.576  16.706  -4.778  1.00  0.00     0.186 HD
HETATM    4  C2  UNL     1      45.304  15.172  -3.416  1.00  0.00     0.145 A 
HETATM    5  N3  UNL     1      45.736  14.277  -4.235  1.00  0.00    -0.383 N 
ATOM      6  H31 UNL     1      45.761  13.309  -3.913  1.00  0.00     0.157 HD
ATOM      7  H32 UNL     1      46.040  14.540  -5.172  1.00  0.00     0.157 HD
HETATM    8  C3  UNL     1      44.892  14.815  -2.145  1.00  0.00     0.124 A 
HETATM    9  N4  UNL     1      44.809  13.664  -1.455  1.00  0.00    -0.326 N 
ATOM     10  H4  UNL     1      45.078  12.751  -1.823  1.00  0.00     0.168 HD
HETATM   11  C4  UNL     1      44.322  13.873  -0.209  1.00  0.00     0.183 A 
HETATM   12 CL1  UNL     1      44.048  12.650   1.035  1.00  0.00    -0.044 Cl
HETATM   13  N5  UNL     1      44.091  15.192  -0.105  1.00  0.00    -0.307 N 
HETATM   14  C12 UNL     1      44.426  15.787  -1.262  1.00  0.00     0.156 A 
HETATM   15  N6  UNL     1      44.409  17.053  -1.723  1.00  0.00    -0.174 N 
ATOM     16  H6  UNL     1      44.075  17.795  -1.108  1.00  0.00     0.186 HD
ENDROOT
BRANCH  13  17
HETATM   17  C5  UNL     1      43.565  15.835   1.072  1.00  0.00     0.133 C 
BRANCH  17  18
HETATM   18  C6  UNL     1      44.645  16.274   2.023  1.00  0.00     0.025 C 
BRANCH  18  19
HETATM   19  C7  UNL     1      44.742  15.439   3.249  1.00  0.00    -0.010 C 
HETATM   20  C8  UNL     1      46.001  14.658   3.378  1.00  0.00     0.007 C 
HETATM   21  C9  UNL     1      46.790  15.201   4.526  1.00  0.00     0.037 C 
HETATM   22  C10 UNL     1      46.150  16.518   4.904  1.00  0.00     0.170 C 
HETATM   23  F1  UNL     1      46.812  17.582   4.328  1.00  0.00    -0.249 F 
HETATM   24  C11 UNL     1      44.728  16.384   4.449  1.00  0.00     0.042 C 
ENDBRANCH  18  19
ENDBRANCH  17  18
ENDBRANCH  13  17
BRANCH   1  25
HETATM   25  N1  UNL     1      44.785  18.595  -3.372  1.00  0.00    -0.234 N 
ATOM     26  H12 UNL     1      43.897  19.064  -3.553  1.00  0.00     0.174 HD
ATOM     27  H11 UNL     1      45.685  19.056  -3.505  1.00  0.00     0.174 HD
ENDBRANCH   1  25
TORSDOF 4
ENDMDL
MODEL 3
REMARK VINA RESULT: -6.464752167      1.723      1.971
REMARK  4 active torsions:
REMARK  status: ('A' for Active; 'I' for Inactive)
REMARK    1  A    between atoms: N1_1  and  C1_4 
REMARK    2  A    between atoms: N5_16  and  C5_17 
REMARK    3  A    between atoms: C5_17  and  C6_18 
REMARK    4  A    between atoms: C6_18  and  C7_19 
ROOT
HETATM    1  C1  UNL     1      46.683  10.337   1.371  1.00  0.00     0.679 A 
HETATM    2  N2  UNL     1      46.842   9.972   0.076  1.00  0.00    -0.175 N 
ATOM      3  H2  UNL     1      47.373   9.141  -0.183  1.00  0.00     0.186 HD
HETATM    4  C2  UNL     1      46.267  10.757  -0.851  1.00  0.00     0.145 A 
HETATM    5  N3  UNL     1      46.405  10.427  -2.088  1.00  0.00    -0.383 N 
ATOM      6  H31 UNL     1      45.969  11.023  -2.792  1.00  0.00     0.157 HD
ATOM      7  H32 UNL     1      46.937   9.595  -2.343  1.00  0.00     0.157 HD
HETATM    8  C3  UNL     1      45.546  11.886  -0.506  1.00  0.00     0.124 A 
HETATM    9  N4  UNL     1      44.878  12.837  -1.182  1.00  0.00    -0.326 N 
ATOM     10  H4  UNL     1      44.792  12.870  -2.198  1.00  0.00     0.168 HD
HETATM   11  C4  UNL     1      44.333  13.747  -0.339  1.00  0.00     0.183 A 
HETATM   12 CL1  UNL     1      43.375  15.160  -0.789  1.00  0.00    -0.044 Cl
HETATM   13  N5  UNL     1      44.664  13.361   0.904  1.00  0.00    -0.307 N 
HETATM   14  C12 UNL     1      45.399  12.239   0.834  1.00  0.00     0.156 A 
HETATM   15  N6  UNL     1      45.989  11.428   1.733  1.00  0.00    -0.174 N 
ATOM     16  H6  UNL     1      45.905  11.650   2.725  1.00  0.00     0.186 HD
ENDROOT
BRANCH  13  17
HETATM   17  C5  UNL     1      44.279  14.063   2.102  1.00  0.00     0.133 C 
BRANCH  17  18
HETATM   18  C6  UNL     1      45.453  14.673   2.819  1.00  0.00     0.025 C 
BRANCH  18  19
HETATM   19  C7  UNL     1      45.140  15.959   3.498  1.00  0.00    -0.010 C 
HETATM   20  C8  UNL     1      45.011  15.870   4.978  1.00  0.00     0.007 C 
HETATM   21  C9  UNL     1      46.145  16.617   5.606  1.00  0.00     0.037 C 
HETATM   22  C10 UNL     1      47.140  16.898   4.501  1.00  0.00     0.170 C 
HETATM   23  F1  UNL     1      48.152  15.961   4.485  1.00  0.00    -0.249 F 
HETATM   24  C11 UNL     1      46.314  16.904   3.251  1.00  0.00     0.042 C 
ENDBRANCH  18  19
ENDBRANCH  17  18
ENDBRANCH  13  17
BRANCH   1  25
HETATM   25  N1  UNL     1      47.236   9.582   2.258  1.00  0.00    -0.234 N 
ATOM     26  H12 UNL     1      46.802   9.441   3.170  1.00  0.00     0.174 HD
ATOM     27  H11 UNL     1      48.120   9.143   1.999  1.00  0.00     0.174 HD
ENDBRANCH   1  25
TORSDOF 4
ENDMDL
MODEL 4
REMARK VINA RESULT: -6.343317655      3.051      5.880
REMARK  4 active torsions:
REMARK  status: ('A' for Active; 'I' for Inactive)
REMARK    1  A    between atoms: N1_1  and  C1_4 
REMARK    2  A    between atoms: N5_16  and  C5_17 
REMARK    3  A    between atoms: C5_17  and  C6_18 
REMARK    4  A    between atoms: C6_18  and  C7_19 
ROOT
HETATM    1  C1  UNL     1      44.752  15.863   3.309  1.00  0.00     0.679 A 
HETATM    2  N2  UNL     1      44.330  16.893   2.537  1.00  0.00    -0.175 N 
ATOM      3  H2  UNL     1      44.307  17.850   2.891  1.00  0.00     0.186 HD
HETATM    4  C2  UNL     1      43.945  16.596   1.284  1.00  0.00     0.145 A 
HETATM    5  N3  UNL     1      43.542  17.562   0.534  1.00  0.00    -0.383 N 
ATOM      6  H31 UNL     1      43.250  17.337  -0.417  1.00  0.00     0.157 HD
ATOM      7  H32 UNL     1      43.520  18.517   0.891  1.00  0.00     0.157 HD
HETATM    8  C3  UNL     1      43.974  15.301   0.799  1.00  0.00     0.124 A 
HETATM    9  N4  UNL     1      43.663  14.710  -0.367  1.00  0.00    -0.326 N 
ATOM     10  H4  UNL     1      43.307  15.203  -1.187  1.00  0.00     0.168 HD
HETATM   11  C4  UNL     1      43.883  13.374  -0.314  1.00  0.00     0.183 A 
HETATM   12 CL1  UNL     1      43.613  12.209  -1.613  1.00  0.00    -0.044 Cl
HETATM   13  N5  UNL     1      44.347  13.112   0.919  1.00  0.00    -0.307 N 
HETATM   14  C12 UNL     1      44.412  14.259   1.615  1.00  0.00     0.156 A 
HETATM   15  N6  UNL     1      44.790  14.597   2.863  1.00  0.00    -0.174 N 
ATOM     16  H6  UNL     1      45.117  13.864   3.493  1.00  0.00     0.186 HD
ENDROOT
BRANCH  13  17
HETATM   17  C5  UNL     1      44.706  11.799   1.390  1.00  0.00     0.133 C 
BRANCH  17  18
HETATM   18  C6  UNL     1      46.193  11.621   1.530  1.00  0.00     0.025 C 
BRANCH  18  19
HETATM   19  C7  UNL     1      46.715  10.387   0.884  1.00  0.00    -0.010 C 
HETATM   20  C8  UNL     1      45.744   9.682   0.004  1.00  0.00     0.007 C 
HETATM   21  C9  UNL     1      46.214   9.785  -1.412  1.00  0.00     0.037 C 
HETATM   22  C10 UNL     1      47.314  10.824  -1.426  1.00  0.00     0.170 C 
HETATM   23  F1  UNL     1      46.832  12.060  -1.805  1.00  0.00    -0.249 F 
HETATM   24  C11 UNL     1      47.864  10.801  -0.033  1.00  0.00     0.042 C 
ENDBRANCH  18  19
ENDBRANCH  17  18
ENDBRANCH  13  17
BRANCH   1  25
HETATM   25  N1  UNL     1      45.120  16.152   4.510  1.00  0.00    -0.234 N 
ATOM     26  H12 UNL     1      44.506  15.969   5.304  1.00  0.00     0.174 HD
ATOM     27  H11 UNL     1      46.045  16.567   4.618  1.00  0.00     0.174 HD
ENDBRANCH   1  25
TORSDOF 4
ENDMDL
MODEL 5
REMARK VINA RESULT: -6.275731810      3.259      6.077
REMARK  4 active torsions:
REMARK  status: ('A' for Active; 'I' for Inactive)
REMARK    1  A    between atoms: N1_1  and  C1_4 
REMARK    2  A    between atoms: N5_16  and  C5_17 
REMARK    3  A    between atoms: C5_17  and  C6_18 
REMARK    4  A    between atoms: C6_18  and  C7_19 
ROOT
HETATM    1  C1  UNL     1      44.768  15.893   3.371  1.00  0.00     0.679 A 
HETATM    2  N2  UNL     1      44.326  16.911   2.595  1.00  0.00    -0.175 N 
ATOM      3  H2  UNL     1      44.287  17.870   2.943  1.00  0.00     0.186 HD
HETATM    4  C2  UNL     1      43.943  16.600   1.345  1.00  0.00     0.145 A 
HETATM    5  N3  UNL     1      43.521  17.555   0.590  1.00  0.00    -0.383 N 
ATOM      6  H31 UNL     1      43.230  17.319  -0.359  1.00  0.00     0.157 HD
ATOM      7  H32 UNL     1      43.484  18.511   0.942  1.00  0.00     0.157 HD
HETATM    8  C3  UNL     1      43.993  15.303   0.867  1.00  0.00     0.124 A 
HETATM    9  N4  UNL     1      43.689  14.700  -0.295  1.00  0.00    -0.326 N 
ATOM     10  H4  UNL     1      43.323  15.182  -1.116  1.00  0.00     0.168 HD
HETATM   11  C4  UNL     1      43.932  13.369  -0.234  1.00  0.00     0.183 A 
HETATM   12 CL1  UNL     1      43.679  12.192  -1.526  1.00  0.00    -0.044 Cl
HETATM   13  N5  UNL     1      44.404  13.122   0.998  1.00  0.00    -0.307 N 
HETATM   14  C12 UNL     1      44.451  14.274   1.688  1.00  0.00     0.156 A 
HETATM   15  N6  UNL     1      44.826  14.625   2.933  1.00  0.00    -0.174 N 
ATOM     16  H6  UNL     1      45.168  13.901   3.566  1.00  0.00     0.186 HD
ENDROOT
BRANCH  13  17
HETATM   17  C5  UNL     1      44.787  11.818   1.476  1.00  0.00     0.133 C 
BRANCH  17  18
HETATM   18  C6  UNL     1      46.258  11.550   1.310  1.00  0.00     0.025 C 
BRANCH  18  19
HETATM   19  C7  UNL     1      46.596  10.797   0.073  1.00  0.00    -0.010 C 
HETATM   20  C8  UNL     1      48.010  10.343  -0.018  1.00  0.00     0.007 C 
HETATM   21  C9  UNL     1      48.044   8.850   0.066  1.00  0.00     0.037 C 
HETATM   22  C10 UNL     1      46.668   8.413   0.521  1.00  0.00     0.170 C 
HETATM   23  F1  UNL     1      46.636   8.196   1.883  1.00  0.00    -0.249 F 
HETATM   24  C11 UNL     1      45.760   9.518   0.073  1.00  0.00     0.042 C 
ENDBRANCH  18  19
ENDBRANCH  17  18
ENDBRANCH  13  17
BRANCH   1  25
HETATM   25  N1  UNL     1      45.134  16.195   4.570  1.00  0.00    -0.234 N 
ATOM     26  H12 UNL     1      44.540  15.975   5.370  1.00  0.00     0.174 HD
ATOM     27  H11 UNL     1      46.037  16.660   4.670  1.00  0.00     0.174 HD
ENDBRANCH   1  25
TORSDOF 4
ENDMDL
