MODEL 1
REMARK VINA RESULT: -7.800945006      0.000      0.000
REMARK  7 active torsions:
REMARK  status: ('A' for Active; 'I' for Inactive)
REMARK    1  A    between atoms: C2_2  and  O1_3 
REMARK    2  A    between atoms: C2_2  and  C3_5 
REMARK    3  A    between atoms: C11_23  and  O2_24 
REMARK    4  A    between atoms: C11_23  and  C12_26 
REMARK    5  A    between atoms: C12_26  and  O3_27 
REMARK    6  A    between atoms: C12_26  and  N5_29 
REMARK       I    between atoms: N5_29  and  C13_31 
REMARK    7  A    between atoms: C13_31  and  C14_33 
ROOT
HETATM    1  C3  UNL     1       6.383  85.112  43.417  1.00  0.00     0.250 C 
HETATM    2  N1  UNL     1       5.286  84.349  42.869  1.00  0.00    -0.393 N 
ATOM      3  H1  UNL     1       5.417  83.642  42.145  1.00  0.00     0.155 HD
HETATM    4  C4  UNL     1       4.008  84.658  43.418  1.00  0.00     0.144 C 
HETATM    5  C5  UNL     1       2.949  84.143  42.466  1.00  0.00     0.251 C 
HETATM    6  N2  UNL     1       1.967  85.121  42.115  1.00  0.00    -0.074 N 
ATOM      7  H21 UNL     1       2.075  85.965  42.675  1.00  0.00     0.277 HD
ATOM      8  H22 UNL     1       1.038  84.834  42.424  1.00  0.00     0.277 HD
HETATM    9  C6  UNL     1       1.970  85.434  40.696  1.00  0.00     0.234 C 
HETATM   10  C7  UNL     1       3.379  85.826  40.337  1.00  0.00     0.055 C 
HETATM   11  C8  UNL     1       3.458  86.760  39.157  1.00  0.00     0.234 C 
HETATM   12  N3  UNL     1       4.843  87.228  39.095  1.00  0.00    -0.074 N 
ATOM     13  H31 UNL     1       5.090  87.526  38.150  1.00  0.00     0.277 HD
ATOM     14  H32 UNL     1       5.499  86.454  39.196  1.00  0.00     0.277 HD
HETATM   15  C9  UNL     1       5.111  88.269  40.057  1.00  0.00     0.251 C 
HETATM   16  C10 UNL     1       6.543  88.167  40.611  1.00  0.00     0.146 C 
HETATM   17  N4  UNL     1       6.564  87.461  41.818  1.00  0.00    -0.364 N 
ATOM     18  H4  UNL     1       5.766  87.542  42.448  1.00  0.00     0.158 HD
HETATM   19  C11 UNL     1       7.637  86.651  42.192  1.00  0.00     0.290 C 
HETATM   20  O6  UNL     1       7.295  85.300  42.381  1.00  0.00    -0.308 OA
ENDROOT
BRANCH  19  21
HETATM   21  O2  UNL     1       8.049  87.074  43.486  1.00  0.00    -0.345 OA
ATOM     22  H2  UNL     1       8.988  86.936  43.539  1.00  0.00     0.215 HD
ENDBRANCH  19  21
BRANCH  19  23
HETATM   23  C12 UNL     1       8.881  86.649  41.372  1.00  0.00     0.307 C 
BRANCH  23  24
HETATM   24  O3  UNL     1       9.716  87.762  41.642  1.00  0.00    -0.369 OA
ATOM     25  H3  UNL     1      10.003  88.205  40.852  1.00  0.00     0.212 HD
ENDBRANCH  23  24
BRANCH  23  26
HETATM   26  N5  UNL     1       9.602  85.429  41.303  1.00  0.00    -0.323 N 
HETATM   27  C13 UNL     1      10.545  85.077  42.301  1.00  0.00     0.281 C 
HETATM   28  O4  UNL     1      10.730  85.872  43.257  1.00  0.00    -0.265 OA
ATOM     29  H5  UNL     1       9.440  84.795  40.521  1.00  0.00     0.165 HD
BRANCH  27  30
HETATM   30  C14 UNL     1      11.306  83.837  42.265  1.00  0.00     0.332 C 
HETATM   31  O5  UNL     1      12.412  83.776  42.887  1.00  0.00    -0.297 OA
ENDBRANCH  27  30
ENDBRANCH  23  26
ENDBRANCH  19  23
BRANCH   1  32
HETATM   32  C2  UNL     1       7.076  84.357  44.531  1.00  0.00     0.162 C 
HETATM   33  C1  UNL     1       6.429  84.533  45.863  1.00  0.00     0.044 C 
BRANCH  32  34
HETATM   34  O1  UNL     1       7.127  82.994  44.228  1.00  0.00    -0.392 OA
ATOM     35  H1  UNL     1       6.379  82.770  43.687  1.00  0.00     0.210 HD
ENDBRANCH  32  34
ENDBRANCH   1  32
TORSDOF 7
ENDMDL
MODEL 2
REMARK VINA RESULT: -7.360302484      2.390      5.279
REMARK  7 active torsions:
REMARK  status: ('A' for Active; 'I' for Inactive)
REMARK    1  A    between atoms: C2_2  and  O1_3 
REMARK    2  A    between atoms: C2_2  and  C3_5 
REMARK    3  A    between atoms: C11_23  and  O2_24 
REMARK    4  A    between atoms: C11_23  and  C12_26 
REMARK    5  A    between atoms: C12_26  and  O3_27 
REMARK    6  A    between atoms: C12_26  and  N5_29 
REMARK       I    between atoms: N5_29  and  C13_31 
REMARK    7  A    between atoms: C13_31  and  C14_33 
ROOT
HETATM    1  C3  UNL     1       9.578  84.184  43.606  1.00  0.00     0.250 C 
HETATM    2  N1  UNL     1       8.771  83.113  44.142  1.00  0.00    -0.393 N 
ATOM      3  H1  UNL     1       8.118  82.579  43.570  1.00  0.00     0.155 HD
HETATM    4  C4  UNL     1       8.958  82.860  45.532  1.00  0.00     0.144 C 
HETATM    5  C5  UNL     1       7.768  82.068  46.031  1.00  0.00     0.251 C 
HETATM    6  N2  UNL     1       7.155  82.625  47.197  1.00  0.00    -0.074 N 
ATOM      7  H21 UNL     1       7.712  83.392  47.572  1.00  0.00     0.277 HD
ATOM      8  H22 UNL     1       7.213  81.979  47.985  1.00  0.00     0.277 HD
HETATM    9  C6  UNL     1       5.783  83.042  46.965  1.00  0.00     0.234 C 
HETATM   10  C7  UNL     1       5.803  83.973  45.781  1.00  0.00     0.055 C 
HETATM   11  C8  UNL     1       4.672  84.969  45.784  1.00  0.00     0.234 C 
HETATM   12  N3  UNL     1       4.971  85.934  44.725  1.00  0.00    -0.074 N 
ATOM     13  H31 UNL     1       4.121  86.388  44.389  1.00  0.00     0.277 HD
ATOM     14  H32 UNL     1       5.254  85.463  43.866  1.00  0.00     0.277 HD
HETATM   15  C9  UNL     1       5.954  86.907  45.135  1.00  0.00     0.251 C 
HETATM   16  C10 UNL     1       6.868  87.310  43.965  1.00  0.00     0.146 C 
HETATM   17  N4  UNL     1       8.049  86.559  43.969  1.00  0.00    -0.364 N 
ATOM     18  H4  UNL     1       8.444  86.272  44.864  1.00  0.00     0.158 HD
HETATM   19  C11 UNL     1       8.705  86.189  42.794  1.00  0.00     0.290 C 
HETATM   20  O6  UNL     1       8.817  84.799  42.614  1.00  0.00    -0.308 OA
ENDROOT
BRANCH  19  21
HETATM   21  O2  UNL     1      10.055  86.619  42.917  1.00  0.00    -0.345 OA
ATOM     22  H2  UNL     1      10.412  86.672  42.038  1.00  0.00     0.215 HD
ENDBRANCH  19  21
BRANCH  19  23
HETATM   23  C12 UNL     1       8.243  86.736  41.488  1.00  0.00     0.307 C 
BRANCH  23  24
HETATM   24  O3  UNL     1       9.205  86.582  40.458  1.00  0.00    -0.369 OA
ATOM     25  H3  UNL     1       8.810  86.455  39.603  1.00  0.00     0.212 HD
ENDBRANCH  23  24
BRANCH  23  26
HETATM   26  N5  UNL     1       6.935  86.380  41.070  1.00  0.00    -0.323 N 
HETATM   27  C13 UNL     1       6.186  87.218  40.206  1.00  0.00     0.281 C 
HETATM   28  O4  UNL     1       6.710  88.291  39.812  1.00  0.00    -0.265 OA
ATOM     29  H5  UNL     1       6.525  85.506  41.398  1.00  0.00     0.165 HD
BRANCH  27  30
HETATM   30  C14 UNL     1       4.842  86.889  39.755  1.00  0.00     0.332 C 
HETATM   31  O5  UNL     1       4.632  86.732  38.513  1.00  0.00    -0.297 OA
ENDBRANCH  27  30
ENDBRANCH  23  26
ENDBRANCH  19  23
BRANCH   1  32
HETATM   32  C2  UNL     1      10.846  83.654  42.974  1.00  0.00     0.162 C 
HETATM   33  C1  UNL     1      10.866  83.772  41.488  1.00  0.00     0.044 C 
BRANCH  32  34
HETATM   34  O1  UNL     1      11.958  84.320  43.496  1.00  0.00    -0.392 OA
ATOM     35  H1  UNL     1      12.089  84.041  44.395  1.00  0.00     0.210 HD
ENDBRANCH  32  34
ENDBRANCH   1  32
TORSDOF 7
ENDMDL
MODEL 3
REMARK VINA RESULT: -6.857247238      2.907      5.028
REMARK  7 active torsions:
REMARK  status: ('A' for Active; 'I' for Inactive)
REMARK    1  A    between atoms: C2_2  and  O1_3 
REMARK    2  A    between atoms: C2_2  and  C3_5 
REMARK    3  A    between atoms: C11_23  and  O2_24 
REMARK    4  A    between atoms: C11_23  and  C12_26 
REMARK    5  A    between atoms: C12_26  and  O3_27 
REMARK    6  A    between atoms: C12_26  and  N5_29 
REMARK       I    between atoms: N5_29  and  C13_31 
REMARK    7  A    between atoms: C13_31  and  C14_33 
ROOT
HETATM    1  C3  UNL     1       9.247  84.058  43.884  1.00  0.00     0.250 C 
HETATM    2  N1  UNL     1       8.487  82.966  44.446  1.00  0.00    -0.393 N 
ATOM      3  H1  UNL     1       7.835  82.409  43.893  1.00  0.00     0.155 HD
HETATM    4  C4  UNL     1       8.717  82.727  45.831  1.00  0.00     0.144 C 
HETATM    5  C5  UNL     1       7.564  81.902  46.365  1.00  0.00     0.251 C 
HETATM    6  N2  UNL     1       6.965  82.447  47.544  1.00  0.00    -0.074 N 
ATOM      7  H21 UNL     1       7.508  83.233  47.900  1.00  0.00     0.277 HD
ATOM      8  H22 UNL     1       7.062  81.807  48.332  1.00  0.00     0.277 HD
HETATM    9  C6  UNL     1       5.575  82.821  47.345  1.00  0.00     0.234 C 
HETATM   10  C7  UNL     1       5.537  83.746  46.155  1.00  0.00     0.055 C 
HETATM   11  C8  UNL     1       4.377  84.707  46.183  1.00  0.00     0.234 C 
HETATM   12  N3  UNL     1       4.619  85.675  45.112  1.00  0.00    -0.074 N 
ATOM     13  H31 UNL     1       3.748  86.101  44.795  1.00  0.00     0.277 HD
ATOM     14  H32 UNL     1       4.894  85.207  44.248  1.00  0.00     0.277 HD
HETATM   15  C9  UNL     1       5.583  86.679  45.491  1.00  0.00     0.251 C 
HETATM   16  C10 UNL     1       6.454  87.102  44.296  1.00  0.00     0.146 C 
HETATM   17  N4  UNL     1       7.656  86.388  44.274  1.00  0.00    -0.364 N 
ATOM     18  H4  UNL     1       8.083  86.117  45.160  1.00  0.00     0.158 HD
HETATM   19  C11 UNL     1       8.293  86.031  43.084  1.00  0.00     0.290 C 
HETATM   20  O6  UNL     1       8.442  84.644  42.909  1.00  0.00    -0.308 OA
ENDROOT
BRANCH  19  21
HETATM   21  O2  UNL     1       9.632  86.502  43.170  1.00  0.00    -0.345 OA
ATOM     22  H2  UNL     1      10.193  85.738  43.232  1.00  0.00     0.215 HD
ENDBRANCH  19  21
BRANCH  19  23
HETATM   23  C12 UNL     1       7.781  86.557  41.788  1.00  0.00     0.307 C 
BRANCH  23  24
HETATM   24  O3  UNL     1       6.541  87.231  41.922  1.00  0.00    -0.369 OA
ATOM     25  H3  UNL     1       6.049  87.259  41.110  1.00  0.00     0.212 HD
ENDBRANCH  23  24
BRANCH  23  26
HETATM   26  N5  UNL     1       8.702  87.264  40.973  1.00  0.00    -0.323 N 
HETATM   27  C13 UNL     1       8.578  87.272  39.561  1.00  0.00     0.281 C 
HETATM   28  O4  UNL     1       7.627  86.636  39.041  1.00  0.00    -0.265 OA
ATOM     29  H5  UNL     1       9.467  87.777  41.412  1.00  0.00     0.165 HD
BRANCH  27  30
HETATM   30  C14 UNL     1       9.502  87.985  38.692  1.00  0.00     0.332 C 
HETATM   31  O5  UNL     1       9.910  87.416  37.632  1.00  0.00    -0.297 OA
ENDBRANCH  27  30
ENDBRANCH  23  26
ENDBRANCH  19  23
BRANCH   1  32
HETATM   32  C2  UNL     1      10.514  83.563  43.221  1.00  0.00     0.162 C 
HETATM   33  C1  UNL     1      10.604  83.907  41.774  1.00  0.00     0.044 C 
BRANCH  32  34
HETATM   34  O1  UNL     1      11.633  84.078  43.881  1.00  0.00    -0.392 OA
ATOM     35  H1  UNL     1      11.706  85.005  43.686  1.00  0.00     0.210 HD
ENDBRANCH  32  34
ENDBRANCH   1  32
TORSDOF 7
ENDMDL
MODEL 4
REMARK VINA RESULT: -6.386584779      1.450      2.272
REMARK  7 active torsions:
REMARK  status: ('A' for Active; 'I' for Inactive)
REMARK    1  A    between atoms: C2_2  and  O1_3 
REMARK    2  A    between atoms: C2_2  and  C3_5 
REMARK    3  A    between atoms: C11_23  and  O2_24 
REMARK    4  A    between atoms: C11_23  and  C12_26 
REMARK    5  A    between atoms: C12_26  and  O3_27 
REMARK    6  A    between atoms: C12_26  and  N5_29 
REMARK       I    between atoms: N5_29  and  C13_31 
REMARK    7  A    between atoms: C13_31  and  C14_33 
ROOT
HETATM    1  C3  UNL     1       5.727  84.884  43.574  1.00  0.00     0.250 C 
HETATM    2  N1  UNL     1       4.680  84.232  42.823  1.00  0.00    -0.393 N 
ATOM      3  H1  UNL     1       4.875  83.566  42.075  1.00  0.00     0.155 HD
HETATM    4  C4  UNL     1       3.356  84.589  43.206  1.00  0.00     0.144 C 
HETATM    5  C5  UNL     1       2.420  84.207  42.079  1.00  0.00     0.251 C 
HETATM    6  N2  UNL     1       1.555  85.269  41.664  1.00  0.00    -0.074 N 
ATOM      7  H21 UNL     1       1.628  86.067  42.295  1.00  0.00     0.277 HD
ATOM      8  H22 UNL     1       0.577  85.025  41.818  1.00  0.00     0.277 HD
HETATM    9  C6  UNL     1       1.782  85.672  40.287  1.00  0.00     0.234 C 
HETATM   10  C7  UNL     1       3.249  85.991  40.160  1.00  0.00     0.055 C 
HETATM   11  C8  UNL     1       3.551  86.992  39.075  1.00  0.00     0.234 C 
HETATM   12  N3  UNL     1       4.954  87.371  39.243  1.00  0.00    -0.074 N 
ATOM     13  H31 UNL     1       5.352  87.712  38.368  1.00  0.00     0.277 HD
ATOM     14  H32 UNL     1       5.544  86.550  39.380  1.00  0.00     0.277 HD
HETATM   15  C9  UNL     1       5.138  88.328  40.307  1.00  0.00     0.251 C 
HETATM   16  C10 UNL     1       6.465  88.096  41.049  1.00  0.00     0.146 C 
HETATM   17  N4  UNL     1       6.271  87.314  42.193  1.00  0.00    -0.364 N 
ATOM     18  H4  UNL     1       5.395  87.407  42.707  1.00  0.00     0.158 HD
HETATM   19  C11 UNL     1       7.231  86.412  42.655  1.00  0.00     0.290 C 
HETATM   20  O6  UNL     1       6.790  85.078  42.694  1.00  0.00    -0.308 OA
ENDROOT
BRANCH  19  21
HETATM   21  O2  UNL     1       7.473  86.724  44.021  1.00  0.00    -0.345 OA
ATOM     22  H2  UNL     1       7.605  87.663  44.074  1.00  0.00     0.215 HD
ENDBRANCH  19  21
BRANCH  19  23
HETATM   23  C12 UNL     1       8.578  86.381  42.021  1.00  0.00     0.307 C 
BRANCH  23  24
HETATM   24  O3  UNL     1       9.339  85.248  42.407  1.00  0.00    -0.369 OA
ATOM     25  H3  UNL     1       9.290  85.075  43.340  1.00  0.00     0.212 HD
ENDBRANCH  23  24
BRANCH  23  26
HETATM   26  N5  UNL     1       8.637  86.627  40.625  1.00  0.00    -0.323 N 
HETATM   27  C13 UNL     1       9.361  87.727  40.103  1.00  0.00     0.281 C 
HETATM   28  O4  UNL     1       9.958  88.487  40.908  1.00  0.00    -0.265 OA
ATOM     29  H5  UNL     1       8.148  86.000  39.985  1.00  0.00     0.165 HD
BRANCH  27  30
HETATM   30  C14 UNL     1       9.445  88.014  38.679  1.00  0.00     0.332 C 
HETATM   31  O5  UNL     1      10.138  87.250  37.938  1.00  0.00    -0.297 OA
ENDBRANCH  27  30
ENDBRANCH  23  26
ENDBRANCH  19  23
BRANCH   1  32
HETATM   32  C2  UNL     1       6.207  84.016  44.717  1.00  0.00     0.162 C 
HETATM   33  C1  UNL     1       7.396  83.183  44.375  1.00  0.00     0.044 C 
BRANCH  32  34
HETATM   34  O1  UNL     1       6.512  84.808  45.827  1.00  0.00    -0.392 OA
ATOM     35  H1  UNL     1       5.703  85.066  46.253  1.00  0.00     0.210 HD
ENDBRANCH  32  34
ENDBRANCH   1  32
TORSDOF 7
ENDMDL
MODEL 5
REMARK VINA RESULT: -6.057382388      2.808      4.924
REMARK  7 active torsions:
REMARK  status: ('A' for Active; 'I' for Inactive)
REMARK    1  A    between atoms: C2_2  and  O1_3 
REMARK    2  A    between atoms: C2_2  and  C3_5 
REMARK    3  A    between atoms: C11_23  and  O2_24 
REMARK    4  A    between atoms: C11_23  and  C12_26 
REMARK    5  A    between atoms: C12_26  and  O3_27 
REMARK    6  A    between atoms: C12_26  and  N5_29 
REMARK       I    between atoms: N5_29  and  C13_31 
REMARK    7  A    between atoms: C13_31  and  C14_33 
ROOT
HETATM    1  C3  UNL     1       6.842  86.642  43.520  1.00  0.00     0.250 C 
HETATM    2  N1  UNL     1       6.198  86.580  44.811  1.00  0.00    -0.393 N 
ATOM      3  H1  UNL     1       6.627  86.955  45.657  1.00  0.00     0.155 HD
HETATM    4  C4  UNL     1       4.919  85.954  44.813  1.00  0.00     0.144 C 
HETATM    5  C5  UNL     1       4.589  85.559  46.237  1.00  0.00     0.251 C 
HETATM    6  N2  UNL     1       4.190  84.193  46.378  1.00  0.00    -0.074 N 
ATOM      7  H21 UNL     1       4.068  83.752  45.467  1.00  0.00     0.277 HD
ATOM      8  H22 UNL     1       3.233  84.125  46.724  1.00  0.00     0.277 HD
HETATM    9  C6  UNL     1       5.101  83.426  47.210  1.00  0.00     0.234 C 
HETATM   10  C7  UNL     1       6.480  83.605  46.629  1.00  0.00     0.055 C 
HETATM   11  C8  UNL     1       7.404  82.449  46.915  1.00  0.00     0.234 C 
HETATM   12  N3  UNL     1       8.596  82.662  46.093  1.00  0.00    -0.074 N 
ATOM     13  H31 UNL     1       9.407  82.188  46.489  1.00  0.00     0.277 HD
ATOM     14  H32 UNL     1       8.923  83.626  46.160  1.00  0.00     0.277 HD
HETATM   15  C9  UNL     1       8.386  82.277  44.718  1.00  0.00     0.251 C 
HETATM   16  C10 UNL     1       9.150  83.199  43.753  1.00  0.00     0.146 C 
HETATM   17  N4  UNL     1       8.324  84.222  43.277  1.00  0.00    -0.364 N 
ATOM     18  H4  UNL     1       7.332  84.027  43.137  1.00  0.00     0.158 HD
HETATM   19  C11 UNL     1       8.805  85.500  42.988  1.00  0.00     0.290 C 
HETATM   20  O6  UNL     1       8.211  86.522  43.750  1.00  0.00    -0.308 OA
ENDROOT
BRANCH  19  21
HETATM   21  O2  UNL     1       8.409  85.804  41.656  1.00  0.00    -0.345 OA
ATOM     22  H2  UNL     1       8.868  86.597  41.403  1.00  0.00     0.215 HD
ENDBRANCH  19  21
BRANCH  19  23
HETATM   23  C12 UNL     1      10.272  85.761  43.025  1.00  0.00     0.307 C 
BRANCH  23  24
HETATM   24  O3  UNL     1      10.640  86.677  44.043  1.00  0.00    -0.369 OA
ATOM     25  H3  UNL     1       9.998  87.367  44.164  1.00  0.00     0.212 HD
ENDBRANCH  23  24
BRANCH  23  26
HETATM   26  N5  UNL     1      11.126  84.630  42.973  1.00  0.00    -0.323 N 
HETATM   27  C13 UNL     1      11.403  83.974  41.748  1.00  0.00     0.281 C 
HETATM   28  O4  UNL     1      10.872  84.418  40.698  1.00  0.00    -0.265 OA
ATOM     29  H5  UNL     1      11.549  84.283  43.834  1.00  0.00     0.165 HD
BRANCH  27  30
HETATM   30  C14 UNL     1      12.272  82.811  41.653  1.00  0.00     0.332 C 
HETATM   31  O5  UNL     1      13.240  82.834  40.831  1.00  0.00    -0.297 OA
ENDBRANCH  27  30
ENDBRANCH  23  26
ENDBRANCH  19  23
BRANCH   1  32
HETATM   32  C2  UNL     1       6.588  87.971  42.842  1.00  0.00     0.162 C 
HETATM   33  C1  UNL     1       5.813  87.855  41.574  1.00  0.00     0.044 C 
BRANCH  32  34
HETATM   34  O1  UNL     1       5.910  88.831  43.711  1.00  0.00    -0.392 OA
ATOM     35  H1  UNL     1       5.644  88.344  44.482  1.00  0.00     0.210 HD
ENDBRANCH  32  34
ENDBRANCH   1  32
TORSDOF 7
ENDMDL
