MODEL 1
REMARK VINA RESULT: -5.219708222      0.000      0.000
REMARK  5 active torsions:
REMARK  status: ('A' for Active; 'I' for Inactive)
REMARK    1  A    between atoms: N1_2  and  C2_5 
REMARK    2  A    between atoms: C8_11  and  C9_12 
REMARK    3  A    between atoms: C8_11  and  C10_15 
REMARK    4  A    between atoms: C9_12  and  O1_13 
REMARK    5  A    between atoms: C16_21  and  C17_22 
ROOT
HETATM    1  C2  UNL     1      44.127  28.113  43.150  1.00  0.00     0.195 C 
HETATM    2  C3  UNL     1      45.032  26.992  42.678  1.00  0.00     0.029 C 
HETATM    3  C4  UNL     1      44.089  25.837  43.064  1.00  0.00     0.014 C 
HETATM    4  C5  UNL     1      43.561  26.235  44.455  1.00  0.00     0.014 C 
HETATM    5  C6  UNL     1      44.009  27.656  44.555  1.00  0.00     0.033 C 
HETATM    6  C7  UNL     1      45.327  26.924  44.926  1.00  0.00     0.003 A 
HETATM    7  C8  UNL     1      46.132  27.083  43.727  1.00  0.00     0.000 C 
HETATM    8  C13 UNL     1      45.458  26.745  46.286  1.00  0.00    -0.019 A 
HETATM    9  C14 UNL     1      46.681  26.090  46.919  1.00  0.00     0.017 C 
HETATM   10  C15 UNL     1      44.791  27.715  47.275  1.00  0.00     0.017 C 
HETATM   11  C16 UNL     1      44.587  25.855  45.466  1.00  0.00     0.070 A 
ENDROOT
BRANCH   7  12
HETATM   12  C9  UNL     1      46.794  28.433  43.771  1.00  0.00     0.175 C 
BRANCH  12  13
HETATM   13  O1  UNL     1      47.217  28.883  44.977  1.00  0.00    -0.400 OA
ATOM     14  H1  UNL     1      47.693  28.274  45.530  1.00  0.00     0.209 HD
ENDBRANCH  12  13
ENDBRANCH   7  12
BRANCH   7  15
HETATM   15  C10 UNL     1      47.147  26.052  43.422  1.00  0.00    -0.003 A 
HETATM   16  C11 UNL     1      48.261  26.278  42.435  1.00  0.00     0.006 A 
HETATM   17  C12 UNL     1      48.552  26.120  43.873  1.00  0.00     0.006 A 
ENDBRANCH   7  15
BRANCH   1  18
HETATM   18  N1  UNL     1      42.824  27.851  42.511  1.00  0.00    -0.074 N 
HETATM   19  C1  UNL     1      42.074  29.063  42.355  1.00  0.00     0.267 C 
ATOM     20  H12 UNL     1      42.293  27.143  43.017  1.00  0.00     0.277 HD
ATOM     21  H11 UNL     1      42.933  27.360  41.624  1.00  0.00     0.277 HD
ENDBRANCH   1  18
BRANCH  11  22
HETATM   22  C17 UNL     1      44.658  24.487  45.813  1.00  0.00     0.183 C 
HETATM   23  O2  UNL     1      43.812  24.076  46.693  1.00  0.00    -0.647 OA
HETATM   24  O3  UNL     1      45.498  23.480  45.366  1.00  0.00    -0.647 OA
ENDBRANCH  11  22
TORSDOF 5
ENDMDL
MODEL 2
REMARK VINA RESULT: -5.074159281      6.246      8.177
REMARK  5 active torsions:
REMARK  status: ('A' for Active; 'I' for Inactive)
REMARK    1  A    between atoms: N1_2  and  C2_5 
REMARK    2  A    between atoms: C8_11  and  C9_12 
REMARK    3  A    between atoms: C8_11  and  C10_15 
REMARK    4  A    between atoms: C9_12  and  O1_13 
REMARK    5  A    between atoms: C16_21  and  C17_22 
ROOT
HETATM    1  C2  UNL     1      42.604  25.357  52.642  1.00  0.00     0.195 C 
HETATM    2  C3  UNL     1      43.081  25.285  51.205  1.00  0.00     0.029 C 
HETATM    3  C4  UNL     1      42.508  23.887  50.906  1.00  0.00     0.014 C 
HETATM    4  C5  UNL     1      42.853  23.065  52.162  1.00  0.00     0.014 C 
HETATM    5  C6  UNL     1      43.290  24.131  53.112  1.00  0.00     0.033 C 
HETATM    6  C7  UNL     1      44.584  23.962  52.271  1.00  0.00     0.003 A 
HETATM    7  C8  UNL     1      44.581  25.149  51.433  1.00  0.00     0.000 C 
HETATM    8  C13 UNL     1      45.453  23.051  52.832  1.00  0.00    -0.019 A 
HETATM    9  C14 UNL     1      46.817  22.731  52.227  1.00  0.00     0.017 C 
HETATM   10  C15 UNL     1      45.461  22.801  54.349  1.00  0.00     0.017 C 
HETATM   11  C16 UNL     1      44.266  22.610  52.045  1.00  0.00     0.070 A 
ENDROOT
BRANCH   7  12
HETATM   12  C9  UNL     1      45.163  26.292  52.219  1.00  0.00     0.175 C 
BRANCH  12  13
HETATM   13  O1  UNL     1      46.432  26.155  52.675  1.00  0.00    -0.400 OA
ATOM     14  H1  UNL     1      47.131  26.160  52.033  1.00  0.00     0.209 HD
ENDBRANCH  12  13
ENDBRANCH   7  12
BRANCH   7  15
HETATM   15  C10 UNL     1      45.244  25.077  50.113  1.00  0.00    -0.003 A 
HETATM   16  C11 UNL     1      44.552  25.472  48.836  1.00  0.00     0.006 A 
HETATM   17  C12 UNL     1      45.688  26.260  49.349  1.00  0.00     0.006 A 
ENDBRANCH   7  15
BRANCH   1  18
HETATM   18  N1  UNL     1      41.165  25.041  52.586  1.00  0.00    -0.074 N 
HETATM   19  C1  UNL     1      40.483  25.536  53.746  1.00  0.00     0.267 C 
ATOM     20  H12 UNL     1      41.005  24.043  52.453  1.00  0.00     0.277 HD
ATOM     21  H11 UNL     1      40.738  25.383  51.725  1.00  0.00     0.277 HD
ENDBRANCH   1  18
BRANCH  11  22
HETATM   22  C17 UNL     1      44.511  21.516  51.184  1.00  0.00     0.183 C 
HETATM   23  O2  UNL     1      44.475  20.346  51.721  1.00  0.00    -0.647 OA
HETATM   24  O3  UNL     1      44.789  21.474  49.827  1.00  0.00    -0.647 OA
ENDBRANCH  11  22
TORSDOF 5
ENDMDL
MODEL 3
REMARK VINA RESULT: -5.056913001      1.361      4.126
REMARK  5 active torsions:
REMARK  status: ('A' for Active; 'I' for Inactive)
REMARK    1  A    between atoms: N1_2  and  C2_5 
REMARK    2  A    between atoms: C8_11  and  C9_12 
REMARK    3  A    between atoms: C8_11  and  C10_15 
REMARK    4  A    between atoms: C9_12  and  O1_13 
REMARK    5  A    between atoms: C16_21  and  C17_22 
ROOT
HETATM    1  C2  UNL     1      44.162  26.097  43.317  1.00  0.00     0.195 C 
HETATM    2  C3  UNL     1      44.063  26.634  44.731  1.00  0.00     0.029 C 
HETATM    3  C4  UNL     1      44.797  27.961  44.460  1.00  0.00     0.014 C 
HETATM    4  C5  UNL     1      45.994  27.553  43.581  1.00  0.00     0.014 C 
HETATM    5  C6  UNL     1      45.640  26.149  43.218  1.00  0.00     0.033 C 
HETATM    6  C7  UNL     1      46.216  25.929  44.642  1.00  0.00     0.003 A 
HETATM    7  C8  UNL     1      45.026  25.691  45.439  1.00  0.00     0.000 C 
HETATM    8  C13 UNL     1      47.563  25.637  44.619  1.00  0.00    -0.019 A 
HETATM    9  C14 UNL     1      48.366  25.336  45.881  1.00  0.00     0.017 C 
HETATM   10  C15 UNL     1      48.200  24.954  43.397  1.00  0.00     0.017 C 
HETATM   11  C16 UNL     1      47.069  27.036  44.473  1.00  0.00     0.070 A 
ENDROOT
BRANCH   7  12
HETATM   12  C9  UNL     1      44.639  24.243  45.302  1.00  0.00     0.175 C 
BRANCH  12  13
HETATM   13  O1  UNL     1      45.641  23.334  45.218  1.00  0.00    -0.400 OA
ATOM     14  H1  UNL     1      46.058  23.067  46.028  1.00  0.00     0.209 HD
ENDBRANCH  12  13
ENDBRANCH   7  12
BRANCH   7  15
HETATM   15  C10 UNL     1      45.056  26.053  46.872  1.00  0.00    -0.003 A 
HETATM   16  C11 UNL     1      43.820  26.068  47.731  1.00  0.00     0.006 A 
HETATM   17  C12 UNL     1      44.890  25.081  47.972  1.00  0.00     0.006 A 
ENDBRANCH   7  15
BRANCH   1  18
HETATM   18  N1  UNL     1      43.643  27.176  42.457  1.00  0.00    -0.074 N 
HETATM   19  C1  UNL     1      42.244  27.001  42.198  1.00  0.00     0.267 C 
ATOM     20  H12 UNL     1      44.178  27.257  41.592  1.00  0.00     0.277 HD
ATOM     21  H11 UNL     1      43.841  28.097  42.849  1.00  0.00     0.277 HD
ENDBRANCH   1  18
BRANCH  11  22
HETATM   22  C17 UNL     1      47.829  28.000  45.174  1.00  0.00     0.183 C 
HETATM   23  O2  UNL     1      48.873  28.453  44.571  1.00  0.00    -0.647 OA
HETATM   24  O3  UNL     1      47.649  28.561  46.428  1.00  0.00    -0.647 OA
ENDBRANCH  11  22
TORSDOF 5
ENDMDL
MODEL 4
REMARK VINA RESULT: -5.024434895      6.835      9.096
REMARK  5 active torsions:
REMARK  status: ('A' for Active; 'I' for Inactive)
REMARK    1  A    between atoms: N1_2  and  C2_5 
REMARK    2  A    between atoms: C8_11  and  C9_12 
REMARK    3  A    between atoms: C8_11  and  C10_15 
REMARK    4  A    between atoms: C9_12  and  O1_13 
REMARK    5  A    between atoms: C16_21  and  C17_22 
ROOT
HETATM    1  C2  UNL     1      44.059  22.091  51.356  1.00  0.00     0.195 C 
HETATM    2  C3  UNL     1      45.129  23.089  50.961  1.00  0.00     0.029 C 
HETATM    3  C4  UNL     1      46.058  22.827  52.162  1.00  0.00     0.014 C 
HETATM    4  C5  UNL     1      45.100  22.746  53.365  1.00  0.00     0.014 C 
HETATM    5  C6  UNL     1      43.770  22.669  52.690  1.00  0.00     0.033 C 
HETATM    6  C7  UNL     1      44.032  24.196  52.609  1.00  0.00     0.003 A 
HETATM    7  C8  UNL     1      44.379  24.391  51.212  1.00  0.00     0.000 C 
HETATM    8  C13 UNL     1      43.493  24.874  53.681  1.00  0.00    -0.019 A 
HETATM    9  C14 UNL     1      43.572  26.391  53.825  1.00  0.00     0.017 C 
HETATM   10  C15 UNL     1      42.263  24.324  54.422  1.00  0.00     0.017 C 
HETATM   11  C16 UNL     1      44.782  24.135  53.799  1.00  0.00     0.070 A 
ENDROOT
BRANCH   7  12
HETATM   12  C9  UNL     1      43.109  24.502  50.414  1.00  0.00     0.175 C 
BRANCH  12  13
HETATM   13  O1  UNL     1      42.055  25.122  50.999  1.00  0.00    -0.400 OA
ATOM     14  H1  UNL     1      41.254  24.623  51.100  1.00  0.00     0.209 HD
ENDBRANCH  12  13
ENDBRANCH   7  12
BRANCH   7  15
HETATM   15  C10 UNL     1      45.275  25.514  50.861  1.00  0.00    -0.003 A 
HETATM   16  C11 UNL     1      45.495  25.963  49.441  1.00  0.00     0.006 A 
HETATM   17  C12 UNL     1      44.799  26.836  50.405  1.00  0.00     0.006 A 
ENDBRANCH   7  15
BRANCH   1  18
HETATM   18  N1  UNL     1      44.780  20.826  51.591  1.00  0.00    -0.074 N 
HETATM   19  C1  UNL     1      44.084  19.719  51.004  1.00  0.00     0.267 C 
ATOM     20  H12 UNL     1      44.958  20.675  52.584  1.00  0.00     0.277 HD
ATOM     21  H11 UNL     1      45.745  20.878  51.266  1.00  0.00     0.277 HD
ENDBRANCH   1  18
BRANCH  11  22
HETATM   22  C17 UNL     1      45.773  24.806  54.551  1.00  0.00     0.183 C 
HETATM   23  O2  UNL     1      45.752  24.615  55.825  1.00  0.00    -0.647 OA
HETATM   24  O3  UNL     1      46.793  25.657  54.154  1.00  0.00    -0.647 OA
ENDBRANCH  11  22
TORSDOF 5
ENDMDL
MODEL 5
REMARK VINA RESULT: -4.945861125      7.503     10.079
REMARK  5 active torsions:
REMARK  status: ('A' for Active; 'I' for Inactive)
REMARK    1  A    between atoms: N1_2  and  C2_5 
REMARK    2  A    between atoms: C8_11  and  C9_12 
REMARK    3  A    between atoms: C8_11  and  C10_15 
REMARK    4  A    between atoms: C9_12  and  O1_13 
REMARK    5  A    between atoms: C16_21  and  C17_22 
ROOT
HETATM    1  C2  UNL     1      43.251  23.586  53.221  1.00  0.00     0.195 C 
HETATM    2  C3  UNL     1      43.555  24.768  52.321  1.00  0.00     0.029 C 
HETATM    3  C4  UNL     1      43.930  25.748  53.449  1.00  0.00     0.014 C 
HETATM    4  C5  UNL     1      42.855  25.506  54.526  1.00  0.00     0.014 C 
HETATM    5  C6  UNL     1      42.208  24.255  54.034  1.00  0.00     0.033 C 
HETATM    6  C7  UNL     1      41.505  25.303  53.130  1.00  0.00     0.003 A 
HETATM    7  C8  UNL     1      42.149  25.103  51.843  1.00  0.00     0.000 C 
HETATM    8  C13 UNL     1      40.320  25.749  53.675  1.00  0.00    -0.019 A 
HETATM    9  C14 UNL     1      39.412  26.752  52.969  1.00  0.00     0.017 C 
HETATM   10  C15 UNL     1      39.505  24.857  54.625  1.00  0.00     0.017 C 
HETATM   11  C16 UNL     1      41.635  26.271  54.143  1.00  0.00     0.070 A 
ENDROOT
BRANCH   7  12
HETATM   12  C9  UNL     1      41.474  23.954  51.144  1.00  0.00     0.175 C 
BRANCH  12  13
HETATM   13  O1  UNL     1      42.255  23.123  50.412  1.00  0.00    -0.400 OA
ATOM     14  H1  UNL     1      42.602  22.352  50.846  1.00  0.00     0.209 HD
ENDBRANCH  12  13
ENDBRANCH   7  12
BRANCH   7  15
HETATM   15  C10 UNL     1      42.238  26.253  50.917  1.00  0.00    -0.003 A 
HETATM   16  C11 UNL     1      42.757  26.122  49.510  1.00  0.00     0.006 A 
HETATM   17  C12 UNL     1      41.341  26.450  49.760  1.00  0.00     0.006 A 
ENDBRANCH   7  15
BRANCH   1  18
HETATM   18  N1  UNL     1      44.435  23.446  54.088  1.00  0.00    -0.074 N 
HETATM   19  C1  UNL     1      45.194  22.281  53.739  1.00  0.00     0.267 C 
ATOM     20  H12 UNL     1      44.180  23.448  55.075  1.00  0.00     0.277 HD
ATOM     21  H11 UNL     1      45.012  24.288  54.075  1.00  0.00     0.277 HD
ENDBRANCH   1  18
BRANCH  11  22
HETATM   22  C17 UNL     1      41.658  27.664  54.386  1.00  0.00     0.183 C 
HETATM   23  O2  UNL     1      41.263  28.048  55.550  1.00  0.00    -0.647 OA
HETATM   24  O3  UNL     1      42.040  28.720  53.575  1.00  0.00    -0.647 OA
ENDBRANCH  11  22
TORSDOF 5
ENDMDL
