MODEL 1
REMARK VINA RESULT: -6.226676356      0.000      0.000
REMARK  6 active torsions:
REMARK  status: ('A' for Active; 'I' for Inactive)
REMARK       I    between atoms: C2_2  and  N1_4 
REMARK    1  A    between atoms: N1_4  and  C3_6 
REMARK    2  A    between atoms: C3_6  and  C4_7 
REMARK    3  A    between atoms: C4_7  and  N2_8 
REMARK       I    between atoms: N2_8  and  C5_10 
REMARK       I    between atoms: C5_10  and  N5_20 
REMARK    4  A    between atoms: N3_11  and  C6_13 
REMARK    5  A    between atoms: C6_13  and  N4_15 
REMARK       I    between atoms: N4_15  and  C7_17 
REMARK    6  A    between atoms: N5_20  and  C9_22 
ROOT
HETATM    1  N2  UNL     1      15.825 -13.637  22.195  1.00  0.00    -0.225 N 
ATOM      2  H2  UNL     1      15.811 -12.631  22.025  1.00  0.00     0.177 HD
HETATM    3  C5  UNL     1      16.974 -14.222  22.766  1.00  0.00     0.676 C 
HETATM    4  N3  UNL     1      16.790 -14.905  23.855  1.00  0.00    -0.166 N 
ATOM      5  H3  UNL     1      15.849 -14.988  24.239  1.00  0.00     0.186 HD
HETATM    6  N5  UNL     1      18.284 -14.114  22.239  1.00  0.00    -0.218 N 
ATOM      7  H5  UNL     1      19.018 -13.818  22.882  1.00  0.00     0.178 HD
ENDROOT
BRANCH   1   8
HETATM    8  C4  UNL     1      14.685 -14.420  21.850  1.00  0.00     0.157 C 
BRANCH   8   9
HETATM    9  C3  UNL     1      13.940 -13.883  20.651  1.00  0.00     0.143 C 
BRANCH   9  10
HETATM   10  N1  UNL     1      12.913 -12.950  21.012  1.00  0.00    -0.360 N 
HETATM   11  C2  UNL     1      13.219 -11.569  21.006  1.00  0.00     0.213 C 
HETATM   12  C1  UNL     1      12.169 -10.591  21.376  1.00  0.00     0.117 C 
HETATM   13  O1  UNL     1      14.352 -11.129  20.699  1.00  0.00    -0.274 OA
ATOM     14  H1  UNL     1      11.981 -13.276  21.268  1.00  0.00     0.162 HD
ENDBRANCH   9  10
ENDBRANCH   8   9
ENDBRANCH   1   8
BRANCH   4  15
HETATM   15  C6  UNL     1      17.876 -15.543  24.525  1.00  0.00     0.193 C 
HETATM   16  S1  UNL     1      18.344 -17.052  24.130  1.00  0.00    -0.040 SA
BRANCH  15  17
HETATM   17  N4  UNL     1      18.565 -14.862  25.553  1.00  0.00    -0.304 N 
HETATM   18  C7  UNL     1      19.849 -14.301  25.383  1.00  0.00     0.219 C 
HETATM   19  C8  UNL     1      20.540 -13.592  26.485  1.00  0.00     0.117 C 
HETATM   20  O2  UNL     1      20.429 -14.397  24.276  1.00  0.00    -0.274 OA
ATOM     21  H4  UNL     1      18.112 -14.771  26.462  1.00  0.00     0.171 HD
ENDBRANCH  15  17
ENDBRANCH   4  15
BRANCH   6  22
HETATM   22  C9  UNL     1      18.671 -14.377  20.903  1.00  0.00     0.036 C 
HETATM   23  C10 UNL     1      18.189 -15.790  20.553  1.00  0.00     0.038 C 
HETATM   24  C11 UNL     1      20.173 -14.398  20.737  1.00  0.00     0.038 C 
HETATM   25  C12 UNL     1      18.106 -13.453  19.871  1.00  0.00     0.038 C 
ENDBRANCH   6  22
TORSDOF 6
ENDMDL
MODEL 2
REMARK VINA RESULT: -6.190455896      2.563      6.560
REMARK  6 active torsions:
REMARK  status: ('A' for Active; 'I' for Inactive)
REMARK       I    between atoms: C2_2  and  N1_4 
REMARK    1  A    between atoms: N1_4  and  C3_6 
REMARK    2  A    between atoms: C3_6  and  C4_7 
REMARK    3  A    between atoms: C4_7  and  N2_8 
REMARK       I    between atoms: N2_8  and  C5_10 
REMARK       I    between atoms: C5_10  and  N5_20 
REMARK    4  A    between atoms: N3_11  and  C6_13 
REMARK    5  A    between atoms: C6_13  and  N4_15 
REMARK       I    between atoms: N4_15  and  C7_17 
REMARK    6  A    between atoms: N5_20  and  C9_22 
ROOT
HETATM    1  N2  UNL     1      16.496 -14.493  22.982  1.00  0.00    -0.225 N 
ATOM      2  H2  UNL     1      16.391 -14.870  23.924  1.00  0.00     0.177 HD
HETATM    3  C5  UNL     1      15.346 -14.102  22.264  1.00  0.00     0.676 C 
HETATM    4  N3  UNL     1      15.328 -12.880  21.829  1.00  0.00    -0.166 N 
ATOM      5  H3  UNL     1      16.124 -12.270  22.019  1.00  0.00     0.186 HD
HETATM    6  N5  UNL     1      14.238 -14.942  21.994  1.00  0.00    -0.218 N 
ATOM      7  H5  UNL     1      13.315 -14.576  22.226  1.00  0.00     0.178 HD
ENDROOT
BRANCH   1   8
HETATM    8  C4  UNL     1      17.801 -14.372  22.420  1.00  0.00     0.157 C 
BRANCH   8   9
HETATM    9  C3  UNL     1      18.841 -15.176  23.163  1.00  0.00     0.143 C 
BRANCH   9  10
HETATM   10  N1  UNL     1      19.727 -14.353  23.933  1.00  0.00    -0.360 N 
HETATM   11  C2  UNL     1      19.605 -14.359  25.342  1.00  0.00     0.213 C 
HETATM   12  C1  UNL     1      20.514 -13.515  26.154  1.00  0.00     0.117 C 
HETATM   13  O1  UNL     1      18.753 -15.054  25.944  1.00  0.00    -0.274 OA
ATOM     14  H1  UNL     1      20.431 -13.775  23.474  1.00  0.00     0.162 HD
ENDBRANCH   9  10
ENDBRANCH   8   9
ENDBRANCH   1   8
BRANCH   4  15
HETATM   15  C6  UNL     1      14.220 -12.369  21.090  1.00  0.00     0.193 C 
HETATM   16  S1  UNL     1      13.937 -12.838  19.557  1.00  0.00    -0.040 SA
BRANCH  15  17
HETATM   17  N4  UNL     1      13.344 -11.438  21.692  1.00  0.00    -0.304 N 
HETATM   18  C7  UNL     1      12.381 -11.795  22.660  1.00  0.00     0.219 C 
HETATM   19  C8  UNL     1      11.480 -10.789  23.270  1.00  0.00     0.117 C 
HETATM   20  O2  UNL     1      12.278 -12.990  23.023  1.00  0.00    -0.274 OA
ATOM     21  H4  UNL     1      13.410 -10.460  21.412  1.00  0.00     0.171 HD
ENDBRANCH  15  17
ENDBRANCH   4  15
BRANCH   6  22
HETATM   22  C9  UNL     1      14.291 -16.240  21.434  1.00  0.00     0.036 C 
HETATM   23  C10 UNL     1      12.920 -16.531  20.812  1.00  0.00     0.038 C 
HETATM   24  C11 UNL     1      14.504 -17.307  22.483  1.00  0.00     0.038 C 
HETATM   25  C12 UNL     1      15.311 -16.442  20.359  1.00  0.00     0.038 C 
ENDBRANCH   6  22
TORSDOF 6
ENDMDL
MODEL 3
REMARK VINA RESULT: -6.088821705      2.894      6.178
REMARK  6 active torsions:
REMARK  status: ('A' for Active; 'I' for Inactive)
REMARK       I    between atoms: C2_2  and  N1_4 
REMARK    1  A    between atoms: N1_4  and  C3_6 
REMARK    2  A    between atoms: C3_6  and  C4_7 
REMARK    3  A    between atoms: C4_7  and  N2_8 
REMARK       I    between atoms: N2_8  and  C5_10 
REMARK       I    between atoms: C5_10  and  N5_20 
REMARK    4  A    between atoms: N3_11  and  C6_13 
REMARK    5  A    between atoms: C6_13  and  N4_15 
REMARK       I    between atoms: N4_15  and  C7_17 
REMARK    6  A    between atoms: N5_20  and  C9_22 
ROOT
HETATM    1  N2  UNL     1      16.533 -16.039  21.659  1.00  0.00    -0.225 N 
ATOM      2  H2  UNL     1      17.074 -16.485  20.918  1.00  0.00     0.177 HD
HETATM    3  C5  UNL     1      15.189 -15.688  21.414  1.00  0.00     0.676 C 
HETATM    4  N3  UNL     1      14.310 -16.172  22.238  1.00  0.00    -0.166 N 
ATOM      5  H3  UNL     1      14.621 -16.768  23.006  1.00  0.00     0.186 HD
HETATM    6  N5  UNL     1      14.750 -14.860  20.352  1.00  0.00    -0.218 N 
ATOM      7  H5  UNL     1      13.990 -15.217  19.773  1.00  0.00     0.178 HD
ENDROOT
BRANCH   1   8
HETATM    8  C4  UNL     1      17.152 -15.782  22.917  1.00  0.00     0.157 C 
BRANCH   8   9
HETATM    9  C3  UNL     1      18.609 -15.405  22.794  1.00  0.00     0.143 C 
BRANCH   9  10
HETATM   10  N1  UNL     1      18.870 -14.578  21.652  1.00  0.00    -0.360 N 
HETATM   11  C2  UNL     1      20.201 -14.178  21.394  1.00  0.00     0.213 C 
HETATM   12  C1  UNL     1      20.488 -13.323  20.217  1.00  0.00     0.117 C 
HETATM   13  O1  UNL     1      21.163 -14.516  22.124  1.00  0.00    -0.274 OA
ATOM     14  H1  UNL     1      18.110 -14.284  21.039  1.00  0.00     0.162 HD
ENDBRANCH   9  10
ENDBRANCH   8   9
ENDBRANCH   1   8
BRANCH   4  15
HETATM   15  C6  UNL     1      12.920 -15.888  22.093  1.00  0.00     0.193 C 
HETATM   16  S1  UNL     1      11.965 -16.802  21.143  1.00  0.00    -0.040 SA
BRANCH  15  17
HETATM   17  N4  UNL     1      12.350 -14.795  22.783  1.00  0.00    -0.304 N 
HETATM   18  C7  UNL     1      11.818 -13.662  22.132  1.00  0.00     0.219 C 
HETATM   19  C8  UNL     1      11.227 -12.534  22.891  1.00  0.00     0.117 C 
HETATM   20  O2  UNL     1      11.838 -13.596  20.881  1.00  0.00    -0.274 OA
ATOM     21  H4  UNL     1      12.322 -14.827  23.803  1.00  0.00     0.171 HD
ENDBRANCH  15  17
ENDBRANCH   4  15
BRANCH   6  22
HETATM   22  C9  UNL     1      15.266 -13.586  20.019  1.00  0.00     0.036 C 
HETATM   23  C10 UNL     1      14.250 -12.904  19.095  1.00  0.00     0.038 C 
HETATM   24  C11 UNL     1      16.549 -13.679  19.226  1.00  0.00     0.038 C 
HETATM   25  C12 UNL     1      15.502 -12.660  21.170  1.00  0.00     0.038 C 
ENDBRANCH   6  22
TORSDOF 6
ENDMDL
MODEL 4
REMARK VINA RESULT: -6.040967076      2.853      6.268
REMARK  6 active torsions:
REMARK  status: ('A' for Active; 'I' for Inactive)
REMARK       I    between atoms: C2_2  and  N1_4 
REMARK    1  A    between atoms: N1_4  and  C3_6 
REMARK    2  A    between atoms: C3_6  and  C4_7 
REMARK    3  A    between atoms: C4_7  and  N2_8 
REMARK       I    between atoms: N2_8  and  C5_10 
REMARK       I    between atoms: C5_10  and  N5_20 
REMARK    4  A    between atoms: N3_11  and  C6_13 
REMARK    5  A    between atoms: C6_13  and  N4_15 
REMARK       I    between atoms: N4_15  and  C7_17 
REMARK    6  A    between atoms: N5_20  and  C9_22 
ROOT
HETATM    1  N2  UNL     1      16.202 -14.989  22.886  1.00  0.00    -0.225 N 
ATOM      2  H2  UNL     1      16.073 -15.275  23.856  1.00  0.00     0.177 HD
HETATM    3  C5  UNL     1      15.135 -14.367  22.203  1.00  0.00     0.676 C 
HETATM    4  N3  UNL     1      15.386 -13.204  21.684  1.00  0.00    -0.166 N 
ATOM      5  H3  UNL     1      16.317 -12.801  21.787  1.00  0.00     0.186 HD
HETATM    6  N5  UNL     1      13.840 -14.920  22.054  1.00  0.00    -0.218 N 
ATOM      7  H5  UNL     1      13.052 -14.324  22.307  1.00  0.00     0.178 HD
ENDROOT
BRANCH   1   8
HETATM    8  C4  UNL     1      17.455 -15.226  22.248  1.00  0.00     0.157 C 
BRANCH   8   9
HETATM    9  C3  UNL     1      18.544 -14.293  22.720  1.00  0.00     0.143 C 
BRANCH   9  10
HETATM   10  N1  UNL     1      19.606 -14.158  21.766  1.00  0.00    -0.360 N 
HETATM   11  C2  UNL     1      19.399 -13.339  20.632  1.00  0.00     0.213 C 
HETATM   12  C1  UNL     1      20.486 -13.188  19.635  1.00  0.00     0.117 C 
HETATM   13  O1  UNL     1      18.323 -12.727  20.427  1.00  0.00    -0.274 OA
ATOM     14  H1  UNL     1      20.492 -14.644  21.902  1.00  0.00     0.162 HD
ENDBRANCH   9  10
ENDBRANCH   8   9
ENDBRANCH   1   8
BRANCH   4  15
HETATM   15  C6  UNL     1      14.386 -12.478  20.971  1.00  0.00     0.193 C 
HETATM   16  S1  UNL     1      13.979 -12.875  19.445  1.00  0.00    -0.040 SA
BRANCH  15  17
HETATM   17  N4  UNL     1      13.732 -11.390  21.590  1.00  0.00    -0.304 N 
HETATM   18  C7  UNL     1      12.701 -11.548  22.542  1.00  0.00     0.219 C 
HETATM   19  C8  UNL     1      12.039 -10.382  23.172  1.00  0.00     0.117 C 
HETATM   20  O2  UNL     1      12.330 -12.699  22.872  1.00  0.00    -0.274 OA
ATOM     21  H4  UNL     1      14.018 -10.445  21.338  1.00  0.00     0.171 HD
ENDBRANCH  15  17
ENDBRANCH   4  15
BRANCH   6  22
HETATM   22  C9  UNL     1      13.536 -16.220  21.586  1.00  0.00     0.036 C 
HETATM   23  C10 UNL     1      14.250 -16.406  20.242  1.00  0.00     0.038 C 
HETATM   24  C11 UNL     1      12.062 -16.395  21.299  1.00  0.00     0.038 C 
HETATM   25  C12 UNL     1      13.969 -17.346  22.471  1.00  0.00     0.038 C 
ENDBRANCH   6  22
TORSDOF 6
ENDMDL
MODEL 5
REMARK VINA RESULT: -5.957670044      1.962      6.027
REMARK  6 active torsions:
REMARK  status: ('A' for Active; 'I' for Inactive)
REMARK       I    between atoms: C2_2  and  N1_4 
REMARK    1  A    between atoms: N1_4  and  C3_6 
REMARK    2  A    between atoms: C3_6  and  C4_7 
REMARK    3  A    between atoms: C4_7  and  N2_8 
REMARK       I    between atoms: N2_8  and  C5_10 
REMARK       I    between atoms: C5_10  and  N5_20 
REMARK    4  A    between atoms: N3_11  and  C6_13 
REMARK    5  A    between atoms: C6_13  and  N4_15 
REMARK       I    between atoms: N4_15  and  C7_17 
REMARK    6  A    between atoms: N5_20  and  C9_22 
ROOT
HETATM    1  N2  UNL     1      16.991 -15.980  22.504  1.00  0.00    -0.225 N 
ATOM      2  H2  UNL     1      17.428 -16.784  22.052  1.00  0.00     0.177 HD
HETATM    3  C5  UNL     1      16.064 -15.202  21.780  1.00  0.00     0.676 C 
HETATM    4  N3  UNL     1      14.890 -15.060  22.317  1.00  0.00    -0.166 N 
ATOM      5  H3  UNL     1      14.694 -15.504  23.214  1.00  0.00     0.186 HD
HETATM    6  N5  UNL     1      16.327 -14.581  20.535  1.00  0.00    -0.218 N 
ATOM      7  H5  UNL     1      15.655 -14.745  19.786  1.00  0.00     0.178 HD
ENDROOT
BRANCH   1   8
HETATM    8  C4  UNL     1      17.331 -15.669  23.853  1.00  0.00     0.157 C 
BRANCH   8   9
HETATM    9  C3  UNL     1      18.774 -15.254  24.019  1.00  0.00     0.143 C 
BRANCH   9  10
HETATM   10  N1  UNL     1      19.024 -14.621  25.280  1.00  0.00    -0.360 N 
HETATM   11  C2  UNL     1      20.336 -14.178  25.568  1.00  0.00     0.213 C 
HETATM   12  C1  UNL     1      20.612 -13.520  26.868  1.00  0.00     0.117 C 
HETATM   13  O1  UNL     1      21.289 -14.318  24.765  1.00  0.00    -0.274 OA
ATOM     14  H1  UNL     1      18.271 -14.492  25.956  1.00  0.00     0.162 HD
ENDBRANCH   9  10
ENDBRANCH   8   9
ENDBRANCH   1   8
BRANCH   4  15
HETATM   15  C6  UNL     1      13.868 -14.295  21.679  1.00  0.00     0.193 C 
HETATM   16  S1  UNL     1      12.881 -14.963  20.570  1.00  0.00    -0.040 SA
BRANCH  15  17
HETATM   17  N4  UNL     1      13.702 -12.932  22.008  1.00  0.00    -0.304 N 
HETATM   18  C7  UNL     1      13.911 -11.883  21.088  1.00  0.00     0.219 C 
HETATM   19  C8  UNL     1      13.725 -10.463  21.471  1.00  0.00     0.117 C 
HETATM   20  O2  UNL     1      14.263 -12.145  19.914  1.00  0.00    -0.274 OA
ATOM     21  H4  UNL     1      13.415 -12.695  22.958  1.00  0.00     0.171 HD
ENDBRANCH  15  17
ENDBRANCH   4  15
BRANCH   6  22
HETATM   22  C9  UNL     1      17.435 -13.755  20.232  1.00  0.00     0.036 C 
HETATM   23  C10 UNL     1      17.273 -13.277  18.784  1.00  0.00     0.038 C 
HETATM   24  C11 UNL     1      18.742 -14.513  20.274  1.00  0.00     0.038 C 
HETATM   25  C12 UNL     1      17.585 -12.533  21.082  1.00  0.00     0.038 C 
ENDBRANCH   6  22
TORSDOF 6
ENDMDL
