MODEL 1
REMARK VINA RESULT: -6.250332437      0.000      0.000
REMARK  5 active torsions:
REMARK  status: ('A' for Active; 'I' for Inactive)
REMARK       I    between atoms: N1_2  and  C2_4 
REMARK       I    between atoms: C2_4  and  N2_5 
REMARK       I    between atoms: C2_4  and  N5_11 
REMARK       I    between atoms: N2_5  and  C3_6 
REMARK    1  A    between atoms: N5_11  and  C4_13 
REMARK    2  A    between atoms: C5_14  and  N6_15 
REMARK    3  A    between atoms: N7_24  and  C13_25 
REMARK    4  A    between atoms: C13_25  and  C14_26 
REMARK    5  A    between atoms: C14_26  and  O2_27 
ROOT
HETATM    1  C4  UNL     1      17.502 -16.295  22.925  1.00  0.00     0.231 C 
HETATM    2  C5  UNL     1      18.114 -17.072  24.010  1.00  0.00     0.323 C 
HETATM    3  C12 UNL     1      18.874 -17.732  22.931  1.00  0.00     0.257 C 
HETATM    4  O1  UNL     1      19.428 -18.847  22.696  1.00  0.00    -0.271 OA
HETATM    5  N7  UNL     1      18.729 -16.501  22.179  1.00  0.00    -0.324 N 
ENDROOT
BRANCH   1   6
HETATM    6  N5  UNL     1      17.025 -14.996  23.148  1.00  0.00    -0.327 N 
HETATM    7  C2  UNL     1      16.239 -14.241  22.210  1.00  0.00     0.255 C 
HETATM    8  N1  UNL     1      16.979 -13.624  21.123  1.00  0.00    -0.355 N 
HETATM    9  N2  UNL     1      15.063 -14.108  22.283  1.00  0.00    -0.339 NA
HETATM   10  C1  UNL     1      17.736 -12.407  21.286  1.00  0.00     0.150 C 
ATOM     11  H1  UNL     1      16.961 -14.069  20.206  1.00  0.00     0.163 HD
HETATM   12  C3  UNL     1      13.764 -14.028  22.466  1.00  0.00     0.264 C 
HETATM   13  N3  UNL     1      13.051 -12.907  22.452  1.00  0.00    -0.362 N 
HETATM   14  N4  UNL     1      12.991 -15.236  22.705  1.00  0.00    -0.049 NA
ATOM     15  H32 UNL     1      13.594 -12.060  22.285  1.00  0.00     0.159 HD
ATOM     16  H31 UNL     1      12.044 -12.845  22.594  1.00  0.00     0.159 HD
ATOM     17  H5  UNL     1      17.250 -14.554  24.040  1.00  0.00     0.165 HD
ENDBRANCH   1   6
BRANCH   2  18
HETATM   18  N6  UNL     1      18.811 -16.556  25.097  1.00  0.00    -0.054 N 
HETATM   19  C6  UNL     1      18.458 -17.357  26.288  1.00  0.00     0.273 C 
HETATM   20  C7  UNL     1      18.776 -15.195  25.430  1.00  0.00     0.238 C 
HETATM   21  C8  UNL     1      20.147 -14.517  25.537  1.00  0.00     0.028 C 
HETATM   22  C9  UNL     1      21.021 -15.249  26.507  1.00  0.00     0.003 C 
HETATM   23  C10 UNL     1      21.036 -16.712  26.121  1.00  0.00     0.028 C 
HETATM   24  C11 UNL     1      20.234 -16.897  24.876  1.00  0.00     0.238 C 
ENDBRANCH   2  18
BRANCH   5  25
HETATM   25  C13 UNL     1      19.577 -15.956  21.172  1.00  0.00     0.154 C 
BRANCH  25  26
HETATM   26  C14 UNL     1      20.396 -14.807  21.732  1.00  0.00     0.184 C 
BRANCH  26  27
HETATM   27  O2  UNL     1      21.609 -15.206  22.262  1.00  0.00    -0.399 OA
ATOM     28  H2  UNL     1      22.076 -14.506  22.702  1.00  0.00     0.209 HD
ENDBRANCH  26  27
ENDBRANCH  25  26
ENDBRANCH   5  25
TORSDOF 5
ENDMDL
MODEL 2
REMARK VINA RESULT: -6.166553101      1.633      2.094
REMARK  5 active torsions:
REMARK  status: ('A' for Active; 'I' for Inactive)
REMARK       I    between atoms: N1_2  and  C2_4 
REMARK       I    between atoms: C2_4  and  N2_5 
REMARK       I    between atoms: C2_4  and  N5_11 
REMARK       I    between atoms: N2_5  and  C3_6 
REMARK    1  A    between atoms: N5_11  and  C4_13 
REMARK    2  A    between atoms: C5_14  and  N6_15 
REMARK    3  A    between atoms: N7_24  and  C13_25 
REMARK    4  A    between atoms: C13_25  and  C14_26 
REMARK    5  A    between atoms: C14_26  and  O2_27 
ROOT
HETATM    1  C4  UNL     1      17.524 -16.186  23.424  1.00  0.00     0.231 C 
HETATM    2  C5  UNL     1      18.763 -16.566  24.113  1.00  0.00     0.323 C 
HETATM    3  C12 UNL     1      18.867 -17.607  23.073  1.00  0.00     0.257 C 
HETATM    4  O1  UNL     1      19.361 -18.765  22.924  1.00  0.00    -0.271 OA
HETATM    5  N7  UNL     1      18.118 -16.714  22.212  1.00  0.00    -0.324 N 
ENDROOT
BRANCH   1   6
HETATM    6  N5  UNL     1      17.054 -14.866  23.461  1.00  0.00    -0.327 N 
HETATM    7  C2  UNL     1      16.378 -14.209  22.375  1.00  0.00     0.255 C 
HETATM    8  N1  UNL     1      17.231 -13.720  21.306  1.00  0.00    -0.355 N 
HETATM    9  N2  UNL     1      15.203 -14.056  22.319  1.00  0.00    -0.339 NA
HETATM   10  C1  UNL     1      17.994 -12.500  21.413  1.00  0.00     0.150 C 
ATOM     11  H1  UNL     1      17.293 -14.261  20.444  1.00  0.00     0.163 HD
HETATM   12  C3  UNL     1      13.895 -13.944  22.364  1.00  0.00     0.264 C 
HETATM   13  N3  UNL     1      13.210 -12.824  22.162  1.00  0.00    -0.362 N 
HETATM   14  N4  UNL     1      13.078 -15.112  22.653  1.00  0.00    -0.049 NA
ATOM     15  H32 UNL     1      13.783 -12.005  21.959  1.00  0.00     0.159 HD
ATOM     16  H31 UNL     1      12.194 -12.737  22.197  1.00  0.00     0.159 HD
ATOM     17  H5  UNL     1      17.202 -14.333  24.318  1.00  0.00     0.165 HD
ENDBRANCH   1   6
BRANCH   2  18
HETATM   18  N6  UNL     1      19.860 -15.743  24.344  1.00  0.00    -0.054 N 
HETATM   19  C6  UNL     1      19.630 -15.019  25.610  1.00  0.00     0.273 C 
HETATM   20  C7  UNL     1      20.336 -14.845  23.379  1.00  0.00     0.238 C 
HETATM   21  C8  UNL     1      21.821 -14.997  23.026  1.00  0.00     0.028 C 
HETATM   22  C9  UNL     1      22.666 -14.906  24.258  1.00  0.00     0.003 C 
HETATM   23  C10 UNL     1      22.126 -15.885  25.277  1.00  0.00     0.028 C 
HETATM   24  C11 UNL     1      20.989 -16.641  24.673  1.00  0.00     0.238 C 
ENDBRANCH   2  18
BRANCH   5  25
HETATM   25  C13 UNL     1      18.134 -16.610  20.790  1.00  0.00     0.154 C 
BRANCH  25  26
HETATM   26  C14 UNL     1      16.845 -17.154  20.202  1.00  0.00     0.184 C 
BRANCH  26  27
HETATM   27  O2  UNL     1      15.969 -16.165  19.794  1.00  0.00    -0.399 OA
ATOM     28  H2  UNL     1      16.195 -15.787  18.951  1.00  0.00     0.209 HD
ENDBRANCH  26  27
ENDBRANCH  25  26
ENDBRANCH   5  25
TORSDOF 5
ENDMDL
MODEL 3
REMARK VINA RESULT: -6.040866736      2.175      3.202
REMARK  5 active torsions:
REMARK  status: ('A' for Active; 'I' for Inactive)
REMARK       I    between atoms: N1_2  and  C2_4 
REMARK       I    between atoms: C2_4  and  N2_5 
REMARK       I    between atoms: C2_4  and  N5_11 
REMARK       I    between atoms: N2_5  and  C3_6 
REMARK    1  A    between atoms: N5_11  and  C4_13 
REMARK    2  A    between atoms: C5_14  and  N6_15 
REMARK    3  A    between atoms: N7_24  and  C13_25 
REMARK    4  A    between atoms: C13_25  and  C14_26 
REMARK    5  A    between atoms: C14_26  and  O2_27 
ROOT
HETATM    1  C4  UNL     1      19.102 -15.891  22.726  1.00  0.00     0.231 C 
HETATM    2  C5  UNL     1      20.274 -15.955  23.608  1.00  0.00     0.323 C 
HETATM    3  C12 UNL     1      20.914 -15.085  22.603  1.00  0.00     0.257 C 
HETATM    4  O1  UNL     1      22.073 -14.828  22.159  1.00  0.00    -0.271 OA
HETATM    5  N7  UNL     1      19.586 -14.594  22.294  1.00  0.00    -0.324 N 
ENDROOT
BRANCH   1   6
HETATM    6  N5  UNL     1      17.804 -16.022  23.240  1.00  0.00    -0.327 N 
HETATM    7  C2  UNL     1      16.640 -16.323  22.453  1.00  0.00     0.255 C 
HETATM    8  N1  UNL     1      16.075 -15.208  21.713  1.00  0.00    -0.355 N 
HETATM    9  N2  UNL     1      16.143 -17.397  22.385  1.00  0.00    -0.339 NA
HETATM   10  C1  UNL     1      15.250 -14.198  22.331  1.00  0.00     0.150 C 
ATOM     11  H1  UNL     1      16.269 -15.135  20.715  1.00  0.00     0.163 HD
HETATM   12  C3  UNL     1      15.679 -18.627  22.386  1.00  0.00     0.264 C 
HETATM   13  N3  UNL     1      14.412 -18.972  22.590  1.00  0.00    -0.362 N 
HETATM   14  N4  UNL     1      16.581 -19.741  22.148  1.00  0.00    -0.049 NA
ATOM     15  H32 UNL     1      13.779 -18.190  22.757  1.00  0.00     0.159 HD
ATOM     16  H31 UNL     1      14.052 -19.926  22.591  1.00  0.00     0.159 HD
ATOM     17  H5  UNL     1      17.677 -15.896  24.244  1.00  0.00     0.165 HD
ENDBRANCH   1   6
BRANCH   2  18
HETATM   18  N6  UNL     1      20.318 -15.574  24.944  1.00  0.00    -0.054 N 
HETATM   19  C6  UNL     1      19.717 -16.657  25.749  1.00  0.00     0.273 C 
HETATM   20  C7  UNL     1      19.821 -14.341  25.387  1.00  0.00     0.238 C 
HETATM   21  C8  UNL     1      20.818 -13.481  26.172  1.00  0.00     0.028 C 
HETATM   22  C9  UNL     1      21.370 -14.247  27.335  1.00  0.00     0.003 C 
HETATM   23  C10 UNL     1      21.897 -15.570  26.824  1.00  0.00     0.028 C 
HETATM   24  C11 UNL     1      21.744 -15.616  25.340  1.00  0.00     0.238 C 
ENDBRANCH   2  18
BRANCH   5  25
HETATM   25  C13 UNL     1      19.192 -13.324  21.777  1.00  0.00     0.154 C 
BRANCH  25  26
HETATM   26  C14 UNL     1      18.784 -13.447  20.321  1.00  0.00     0.184 C 
BRANCH  26  27
HETATM   27  O2  UNL     1      17.556 -12.874  20.046  1.00  0.00    -0.399 OA
ATOM     28  H2  UNL     1      17.597 -11.931  19.932  1.00  0.00     0.209 HD
ENDBRANCH  26  27
ENDBRANCH  25  26
ENDBRANCH   5  25
TORSDOF 5
ENDMDL
MODEL 4
REMARK VINA RESULT: -5.913561355      2.222      3.000
REMARK  5 active torsions:
REMARK  status: ('A' for Active; 'I' for Inactive)
REMARK       I    between atoms: N1_2  and  C2_4 
REMARK       I    between atoms: C2_4  and  N2_5 
REMARK       I    between atoms: C2_4  and  N5_11 
REMARK       I    between atoms: N2_5  and  C3_6 
REMARK    1  A    between atoms: N5_11  and  C4_13 
REMARK    2  A    between atoms: C5_14  and  N6_15 
REMARK    3  A    between atoms: N7_24  and  C13_25 
REMARK    4  A    between atoms: C13_25  and  C14_26 
REMARK    5  A    between atoms: C14_26  and  O2_27 
ROOT
HETATM    1  C4  UNL     1      16.686 -15.588  22.229  1.00  0.00     0.231 C 
HETATM    2  C5  UNL     1      17.607 -15.865  23.338  1.00  0.00     0.323 C 
HETATM    3  C12 UNL     1      17.465 -17.276  22.930  1.00  0.00     0.257 C 
HETATM    4  O1  UNL     1      17.527 -18.431  23.446  1.00  0.00    -0.271 OA
HETATM    5  N7  UNL     1      17.204 -16.784  21.592  1.00  0.00    -0.324 N 
ENDROOT
BRANCH   1   6
HETATM    6  N5  UNL     1      16.719 -14.360  21.552  1.00  0.00    -0.327 N 
HETATM    7  C2  UNL     1      15.700 -13.895  20.652  1.00  0.00     0.255 C 
HETATM    8  N1  UNL     1      15.733 -14.464  19.315  1.00  0.00    -0.355 N 
HETATM    9  N2  UNL     1      14.868 -13.101  20.942  1.00  0.00    -0.339 NA
HETATM   10  C1  UNL     1      16.662 -14.024  18.303  1.00  0.00     0.150 C 
ATOM     11  H1  UNL     1      15.072 -15.204  19.083  1.00  0.00     0.163 HD
HETATM   12  C3  UNL     1      13.998 -12.217  21.374  1.00  0.00     0.264 C 
HETATM   13  N3  UNL     1      13.670 -11.089  20.752  1.00  0.00    -0.362 N 
HETATM   14  N4  UNL     1      13.303 -12.440  22.632  1.00  0.00    -0.049 NA
ATOM     15  H32 UNL     1      14.158 -10.933  19.870  1.00  0.00     0.159 HD
ATOM     16  H31 UNL     1      12.995 -10.403  21.088  1.00  0.00     0.159 HD
ATOM     17  H5  UNL     1      17.524 -13.753  21.711  1.00  0.00     0.165 HD
ENDBRANCH   1   6
BRANCH   2  18
HETATM   18  N6  UNL     1      18.885 -15.341  23.494  1.00  0.00    -0.054 N 
HETATM   19  C6  UNL     1      19.002 -14.823  24.872  1.00  0.00     0.273 C 
HETATM   20  C7  UNL     1      19.423 -14.405  22.601  1.00  0.00     0.238 C 
HETATM   21  C8  UNL     1      20.771 -14.795  21.982  1.00  0.00     0.028 C 
HETATM   22  C9  UNL     1      21.772 -15.103  23.052  1.00  0.00     0.003 C 
HETATM   23  C10 UNL     1      21.160 -16.114  23.997  1.00  0.00     0.028 C 
HETATM   24  C11 UNL     1      19.809 -16.498  23.493  1.00  0.00     0.238 C 
ENDBRANCH   2  18
BRANCH   5  25
HETATM   25  C13 UNL     1      17.442 -17.417  20.337  1.00  0.00     0.154 C 
BRANCH  25  26
HETATM   26  C14 UNL     1      16.196 -18.146  19.865  1.00  0.00     0.184 C 
BRANCH  26  27
HETATM   27  O2  UNL     1      15.306 -17.329  19.192  1.00  0.00    -0.399 OA
ATOM     28  H2  UNL     1      14.421 -17.674  19.172  1.00  0.00     0.209 HD
ENDBRANCH  26  27
ENDBRANCH  25  26
ENDBRANCH   5  25
TORSDOF 5
ENDMDL
MODEL 5
REMARK VINA RESULT: -5.912522307      2.558      4.650
REMARK  5 active torsions:
REMARK  status: ('A' for Active; 'I' for Inactive)
REMARK       I    between atoms: N1_2  and  C2_4 
REMARK       I    between atoms: C2_4  and  N2_5 
REMARK       I    between atoms: C2_4  and  N5_11 
REMARK       I    between atoms: N2_5  and  C3_6 
REMARK    1  A    between atoms: N5_11  and  C4_13 
REMARK    2  A    between atoms: C5_14  and  N6_15 
REMARK    3  A    between atoms: N7_24  and  C13_25 
REMARK    4  A    between atoms: C13_25  and  C14_26 
REMARK    5  A    between atoms: C14_26  and  O2_27 
ROOT
HETATM    1  C4  UNL     1      18.825 -16.525  23.202  1.00  0.00     0.231 C 
HETATM    2  C5  UNL     1      20.245 -16.450  23.569  1.00  0.00     0.323 C 
HETATM    3  C12 UNL     1      20.368 -15.574  22.388  1.00  0.00     0.257 C 
HETATM    4  O1  UNL     1      21.241 -15.241  21.531  1.00  0.00    -0.271 OA
HETATM    5  N7  UNL     1      18.982 -15.212  22.606  1.00  0.00    -0.324 N 
ENDROOT
BRANCH   1   6
HETATM    6  N5  UNL     1      17.839 -16.743  24.175  1.00  0.00    -0.327 N 
HETATM    7  C2  UNL     1      17.399 -18.038  24.616  1.00  0.00     0.255 C 
HETATM    8  N1  UNL     1      16.469 -18.722  23.733  1.00  0.00    -0.355 N 
HETATM    9  N2  UNL     1      17.748 -18.549  25.628  1.00  0.00    -0.339 NA
HETATM   10  C1  UNL     1      15.065 -18.396  23.674  1.00  0.00     0.150 C 
ATOM     11  H1  UNL     1      16.824 -19.463  23.131  1.00  0.00     0.163 HD
HETATM   12  C3  UNL     1      18.201 -19.017  26.769  1.00  0.00     0.264 C 
HETATM   13  N3  UNL     1      17.456 -19.526  27.744  1.00  0.00    -0.362 N 
HETATM   14  N4  UNL     1      19.629 -19.001  27.041  1.00  0.00    -0.049 NA
ATOM     15  H32 UNL     1      16.455 -19.536  27.553  1.00  0.00     0.159 HD
ATOM     16  H31 UNL     1      17.809 -19.888  28.629  1.00  0.00     0.159 HD
ATOM     17  H5  UNL     1      17.403 -15.924  24.600  1.00  0.00     0.165 HD
ENDBRANCH   1   6
BRANCH   2  18
HETATM   18  N6  UNL     1      20.757 -16.007  24.783  1.00  0.00    -0.054 N 
HETATM   19  C6  UNL     1      21.735 -17.006  25.259  1.00  0.00     0.273 C 
HETATM   20  C7  UNL     1      19.930 -15.627  25.849  1.00  0.00     0.238 C 
HETATM   21  C8  UNL     1      20.183 -14.218  26.399  1.00  0.00     0.028 C 
HETATM   22  C9  UNL     1      21.618 -14.059  26.794  1.00  0.00     0.003 C 
HETATM   23  C10 UNL     1      22.482 -14.477  25.624  1.00  0.00     0.028 C 
HETATM   24  C11 UNL     1      21.603 -14.833  24.472  1.00  0.00     0.238 C 
ENDBRANCH   2  18
BRANCH   5  25
HETATM   25  C13 UNL     1      18.302 -14.005  22.268  1.00  0.00     0.154 C 
BRANCH  25  26
HETATM   26  C14 UNL     1      16.861 -14.296  21.888  1.00  0.00     0.184 C 
BRANCH  26  27
HETATM   27  O2  UNL     1      16.016 -14.391  22.978  1.00  0.00    -0.399 OA
ATOM     28  H2  UNL     1      15.778 -15.286  23.193  1.00  0.00     0.209 HD
ENDBRANCH  26  27
ENDBRANCH  25  26
ENDBRANCH   5  25
TORSDOF 5
ENDMDL
