MODEL 1
REMARK VINA RESULT: -6.385307066      0.000      0.000
REMARK  3 active torsions:
REMARK  status: ('A' for Active; 'I' for Inactive)
REMARK    1  A    between atoms: C5_11  and  N4_12 
REMARK       I    between atoms: N4_12  and  C6_14 
REMARK    2  A    between atoms: N7_20  and  C9_22 
REMARK    3  A    between atoms: C9_22  and  S2_23 
ROOT
HETATM    1  C1  UNL     1      17.877 -18.379  20.547  1.00  0.00     0.152 C 
HETATM    2  N1  UNL     1      18.409 -17.452  21.544  1.00  0.00    -0.349 N 
HETATM    3  C2  UNL     1      19.768 -17.748  21.914  1.00  0.00     0.180 C 
HETATM    4  C3  UNL     1      20.485 -16.572  22.528  1.00  0.00     0.309 C 
HETATM    5  N2  UNL     1      20.854 -15.586  21.528  1.00  0.00    -0.338 N 
ATOM      6  H2  UNL     1      21.833 -15.511  21.250  1.00  0.00     0.164 HD
HETATM    7  C4  UNL     1      19.891 -14.711  20.915  1.00  0.00     0.171 C 
HETATM    8  S1  UNL     1      20.285 -14.087  19.471  1.00  0.00    -0.041 SA
HETATM    9  N3  UNL     1      18.609 -14.315  21.433  1.00  0.00    -0.332 N 
ATOM     10  H3  UNL     1      18.173 -13.461  21.083  1.00  0.00     0.165 HD
HETATM   11  C5  UNL     1      17.909 -15.111  22.459  1.00  0.00     0.216 C 
HETATM   12  C7  UNL     1      18.766 -15.234  23.688  1.00  0.00     0.304 C 
HETATM   13  N7  UNL     1      19.879 -16.057  23.702  1.00  0.00    -0.036 N 
HETATM   14  C8  UNL     1      19.661 -17.235  24.569  1.00  0.00     0.276 C 
HETATM   15  C12 UNL     1      17.508 -16.439  21.970  1.00  0.00     0.270 C 
HETATM   16  O1  UNL     1      16.291 -16.755  21.904  1.00  0.00    -0.268 OA
ENDROOT
BRANCH  11  17
HETATM   17  N4  UNL     1      16.744 -14.333  22.813  1.00  0.00    -0.329 N 
HETATM   18  C6  UNL     1      15.732 -13.896  21.953  1.00  0.00     0.184 C 
HETATM   19  N5  UNL     1      15.932 -13.790  20.690  1.00  0.00    -0.374 N 
HETATM   20  N6  UNL     1      14.454 -13.563  22.463  1.00  0.00    -0.064 NA
ATOM     21  H52 UNL     1      16.852 -14.029  20.322  1.00  0.00     0.158 HD
ATOM     22  H51 UNL     1      15.194 -13.471  20.062  1.00  0.00     0.158 HD
ATOM     23  H4  UNL     1      16.650 -14.076  23.795  1.00  0.00     0.165 HD
ENDBRANCH  11  17
BRANCH  13  24
HETATM   24  C9  UNL     1      20.950 -15.321  24.407  1.00  0.00     0.303 C 
BRANCH  24  25
HETATM   25  S2  UNL     1      20.437 -14.854  26.031  1.00  0.00    -0.193 SA
HETATM   26  C10 UNL     1      21.101 -13.341  26.678  1.00  0.00     0.074 A 
HETATM   27  C11 UNL     1      21.786 -14.628  27.163  1.00  0.00     0.074 A 
ENDBRANCH  24  25
ENDBRANCH  13  24
TORSDOF 3
ENDMDL
MODEL 2
REMARK VINA RESULT: -6.000875504      9.647     12.269
REMARK  3 active torsions:
REMARK  status: ('A' for Active; 'I' for Inactive)
REMARK    1  A    between atoms: C5_11  and  N4_12 
REMARK       I    between atoms: N4_12  and  C6_14 
REMARK    2  A    between atoms: N7_20  and  C9_22 
REMARK    3  A    between atoms: C9_22  and  S2_23 
ROOT
HETATM    1  C1  UNL     1      18.879 -12.915  10.178  1.00  0.00     0.152 C 
HETATM    2  N1  UNL     1      17.509 -12.978  10.683  1.00  0.00    -0.349 N 
HETATM    3  C2  UNL     1      16.657 -13.822   9.885  1.00  0.00     0.180 C 
HETATM    4  C3  UNL     1      15.431 -14.294  10.624  1.00  0.00     0.309 C 
HETATM    5  N2  UNL     1      15.750 -15.335  11.584  1.00  0.00    -0.338 N 
ATOM      6  H2  UNL     1      15.487 -16.297  11.370  1.00  0.00     0.164 HD
HETATM    7  C4  UNL     1      16.422 -15.060  12.826  1.00  0.00     0.171 C 
HETATM    8  S1  UNL     1      17.210 -16.295  13.520  1.00  0.00    -0.041 SA
HETATM    9  N3  UNL     1      16.478 -13.810  13.536  1.00  0.00    -0.332 N 
ATOM     10  H3  UNL     1      16.692 -13.814  14.534  1.00  0.00     0.165 HD
HETATM   11  C5  UNL     1      16.233 -12.522  12.858  1.00  0.00     0.216 C 
HETATM   12  C7  UNL     1      14.863 -12.518  12.241  1.00  0.00     0.304 C 
HETATM   13  N7  UNL     1      14.591 -13.256  11.100  1.00  0.00    -0.036 N 
HETATM   14  C8  UNL     1      14.372 -12.373   9.934  1.00  0.00     0.276 C 
HETATM   15  C12 UNL     1      17.258 -12.209  11.850  1.00  0.00     0.270 C 
HETATM   16  O1  UNL     1      17.993 -11.195  11.981  1.00  0.00    -0.268 OA
ENDROOT
BRANCH  11  17
HETATM   17  N4  UNL     1      16.244 -11.532  13.910  1.00  0.00    -0.329 N 
HETATM   18  C6  UNL     1      15.662 -11.645  15.176  1.00  0.00     0.184 C 
HETATM   19  N5  UNL     1      14.710 -12.475  15.400  1.00  0.00    -0.374 N 
HETATM   20  N6  UNL     1      16.119 -10.840  16.247  1.00  0.00    -0.064 NA
ATOM     21  H52 UNL     1      14.380 -13.054  14.628  1.00  0.00     0.158 HD
ATOM     22  H51 UNL     1      14.285 -12.557  16.324  1.00  0.00     0.158 HD
ATOM     23  H4  UNL     1      16.727 -10.657  13.706  1.00  0.00     0.165 HD
ENDBRANCH  11  17
BRANCH  13  24
HETATM   24  C9  UNL     1      13.266 -13.880  11.297  1.00  0.00     0.303 C 
BRANCH  24  25
HETATM   25  S2  UNL     1      12.240 -12.882  12.331  1.00  0.00    -0.193 SA
HETATM   26  C10 UNL     1      10.488 -12.991  12.068  1.00  0.00     0.074 A 
HETATM   27  C11 UNL     1      11.182 -11.779  11.426  1.00  0.00     0.074 A 
ENDBRANCH  24  25
ENDBRANCH  13  24
TORSDOF 3
ENDMDL
MODEL 3
REMARK VINA RESULT: -5.858146414      2.443      4.457
REMARK  3 active torsions:
REMARK  status: ('A' for Active; 'I' for Inactive)
REMARK    1  A    between atoms: C5_11  and  N4_12 
REMARK       I    between atoms: N4_12  and  C6_14 
REMARK    2  A    between atoms: N7_20  and  C9_22 
REMARK    3  A    between atoms: C9_22  and  S2_23 
ROOT
HETATM    1  C1  UNL     1      16.490 -18.569  24.874  1.00  0.00     0.152 C 
HETATM    2  N1  UNL     1      17.526 -17.805  24.182  1.00  0.00    -0.349 N 
HETATM    3  C2  UNL     1      17.761 -18.269  22.839  1.00  0.00     0.180 C 
HETATM    4  C3  UNL     1      18.426 -17.238  21.963  1.00  0.00     0.309 C 
HETATM    5  N2  UNL     1      17.498 -16.197  21.560  1.00  0.00    -0.338 N 
ATOM      6  H2  UNL     1      17.154 -16.191  20.600  1.00  0.00     0.164 HD
HETATM    7  C4  UNL     1      17.046 -15.173  22.464  1.00  0.00     0.171 C 
HETATM    8  S1  UNL     1      15.642 -14.448  22.104  1.00  0.00    -0.041 SA
HETATM    9  N3  UNL     1      17.697 -14.708  23.659  1.00  0.00    -0.332 N 
ATOM     10  H3  UNL     1      17.464 -13.784  24.025  1.00  0.00     0.165 HD
HETATM   11  C5  UNL     1      18.694 -15.532  24.369  1.00  0.00     0.216 C 
HETATM   12  C7  UNL     1      19.836 -15.863  23.450  1.00  0.00     0.304 C 
HETATM   13  N7  UNL     1      19.686 -16.789  22.431  1.00  0.00    -0.036 N 
HETATM   14  C8  UNL     1      20.453 -18.022  22.714  1.00  0.00     0.276 C 
HETATM   15  C12 UNL     1      18.114 -16.757  24.940  1.00  0.00     0.270 C 
HETATM   16  O1  UNL     1      18.113 -16.943  26.185  1.00  0.00    -0.268 OA
ENDROOT
BRANCH  11  17
HETATM   17  N4  UNL     1      19.209 -14.683  25.419  1.00  0.00    -0.329 N 
HETATM   18  C6  UNL     1      20.454 -14.783  26.045  1.00  0.00     0.184 C 
HETATM   19  N5  UNL     1      21.115 -15.883  26.042  1.00  0.00    -0.374 N 
HETATM   20  N6  UNL     1      21.018 -13.661  26.699  1.00  0.00    -0.064 NA
ATOM     21  H52 UNL     1      20.709 -16.691  25.571  1.00  0.00     0.158 HD
ATOM     22  H51 UNL     1      22.024 -15.956  26.499  1.00  0.00     0.158 HD
ATOM     23  H4  UNL     1      18.597 -13.932  25.738  1.00  0.00     0.165 HD
ENDBRANCH  11  17
BRANCH  13  24
HETATM   24  C9  UNL     1      20.373 -16.237  21.244  1.00  0.00     0.303 C 
BRANCH  24  25
HETATM   25  S2  UNL     1      20.739 -14.524  21.461  1.00  0.00    -0.193 SA
HETATM   26  C10 UNL     1      19.595 -13.364  20.757  1.00  0.00     0.074 A 
HETATM   27  C11 UNL     1      20.865 -13.627  19.933  1.00  0.00     0.074 A 
ENDBRANCH  24  25
ENDBRANCH  13  24
TORSDOF 3
ENDMDL
MODEL 4
REMARK VINA RESULT: -5.828676464      2.386      5.370
REMARK  3 active torsions:
REMARK  status: ('A' for Active; 'I' for Inactive)
REMARK    1  A    between atoms: C5_11  and  N4_12 
REMARK       I    between atoms: N4_12  and  C6_14 
REMARK    2  A    between atoms: N7_20  and  C9_22 
REMARK    3  A    between atoms: C9_22  and  S2_23 
ROOT
HETATM    1  C1  UNL     1      19.099 -18.931  21.202  1.00  0.00     0.152 C 
HETATM    2  N1  UNL     1      18.830 -17.510  21.414  1.00  0.00    -0.349 N 
HETATM    3  C2  UNL     1      17.427 -17.190  21.347  1.00  0.00     0.180 C 
HETATM    4  C3  UNL     1      17.081 -15.891  22.030  1.00  0.00     0.309 C 
HETATM    5  N2  UNL     1      17.095 -16.024  23.475  1.00  0.00    -0.338 N 
ATOM      6  H2  UNL     1      16.206 -16.047  23.975  1.00  0.00     0.164 HD
HETATM    7  C4  UNL     1      18.316 -16.124  24.229  1.00  0.00     0.171 C 
HETATM    8  S1  UNL     1      18.218 -16.819  25.691  1.00  0.00    -0.041 SA
HETATM    9  N3  UNL     1      19.627 -15.675  23.842  1.00  0.00    -0.332 N 
ATOM     10  H3  UNL     1      20.327 -15.502  24.564  1.00  0.00     0.165 HD
HETATM   11  C5  UNL     1      19.985 -15.459  22.427  1.00  0.00     0.216 C 
HETATM   12  C7  UNL     1      19.065 -14.440  21.814  1.00  0.00     0.304 C 
HETATM   13  N7  UNL     1      17.751 -14.755  21.512  1.00  0.00    -0.036 N 
HETATM   14  C8  UNL     1      17.542 -14.818  20.049  1.00  0.00     0.276 C 
HETATM   15  C12 UNL     1      19.977 -16.703  21.643  1.00  0.00     0.270 C 
HETATM   16  O1  UNL     1      21.035 -17.131  21.113  1.00  0.00    -0.268 OA
ENDROOT
BRANCH  11  17
HETATM   17  N4  UNL     1      21.313 -14.891  22.454  1.00  0.00    -0.329 N 
HETATM   18  C6  UNL     1      22.150 -14.764  23.567  1.00  0.00     0.184 C 
HETATM   19  N5  UNL     1      21.677 -14.766  24.759  1.00  0.00    -0.374 N 
HETATM   20  N6  UNL     1      23.549 -14.633  23.398  1.00  0.00    -0.064 NA
ATOM     21  H52 UNL     1      20.669 -14.859  24.881  1.00  0.00     0.158 HD
ATOM     22  H51 UNL     1      22.288 -14.673  25.571  1.00  0.00     0.158 HD
ATOM     23  H4  UNL     1      21.679 -14.546  21.567  1.00  0.00     0.165 HD
ENDBRANCH  11  17
BRANCH  13  24
HETATM   24  C9  UNL     1      16.927 -13.595  21.914  1.00  0.00     0.303 C 
BRANCH  24  25
HETATM   25  S2  UNL     1      15.382 -13.586  21.061  1.00  0.00    -0.193 SA
HETATM   26  C10 UNL     1      14.265 -12.258  21.438  1.00  0.00     0.074 A 
HETATM   27  C11 UNL     1      13.975 -13.592  22.144  1.00  0.00     0.074 A 
ENDBRANCH  24  25
ENDBRANCH  13  24
TORSDOF 3
ENDMDL
MODEL 5
REMARK VINA RESULT: -5.814422287      9.385     12.238
REMARK  3 active torsions:
REMARK  status: ('A' for Active; 'I' for Inactive)
REMARK    1  A    between atoms: C5_11  and  N4_12 
REMARK       I    between atoms: N4_12  and  C6_14 
REMARK    2  A    between atoms: N7_20  and  C9_22 
REMARK    3  A    between atoms: C9_22  and  S2_23 
ROOT
HETATM    1  C1  UNL     1      17.867 -11.511  11.330  1.00  0.00     0.152 C 
HETATM    2  N1  UNL     1      16.555 -11.967  11.784  1.00  0.00    -0.349 N 
HETATM    3  C2  UNL     1      15.632 -12.182  10.700  1.00  0.00     0.180 C 
HETATM    4  C3  UNL     1      14.488 -13.093  11.066  1.00  0.00     0.309 C 
HETATM    5  N2  UNL     1      14.906 -14.481  11.131  1.00  0.00    -0.338 N 
ATOM      6  H2  UNL     1      14.629 -15.113  10.381  1.00  0.00     0.164 HD
HETATM    7  C4  UNL     1      15.698 -14.998  12.216  1.00  0.00     0.171 C 
HETATM    8  S1  UNL     1      16.558 -16.340  11.918  1.00  0.00    -0.041 SA
HETATM    9  N3  UNL     1      15.819 -14.467  13.546  1.00  0.00    -0.332 N 
ATOM     10  H3  UNL     1      16.132 -15.079  14.300  1.00  0.00     0.165 HD
HETATM   11  C5  UNL     1      15.501 -13.058  13.850  1.00  0.00     0.216 C 
HETATM   12  C7  UNL     1      14.076 -12.761  13.477  1.00  0.00     0.304 C 
HETATM   13  N7  UNL     1      13.695 -12.639  12.151  1.00  0.00    -0.036 N 
HETATM   14  C8  UNL     1      13.356 -11.238  11.820  1.00  0.00     0.276 C 
HETATM   15  C12 UNL     1      16.418 -12.116  13.190  1.00  0.00     0.270 C 
HETATM   16  O1  UNL     1      17.157 -11.360  13.874  1.00  0.00    -0.268 OA
ENDROOT
BRANCH  11  17
HETATM   17  N4  UNL     1      15.612 -12.945  15.286  1.00  0.00    -0.329 N 
HETATM   18  C6  UNL     1      15.104 -11.919  16.089  1.00  0.00     0.184 C 
HETATM   19  N5  UNL     1      14.837 -10.763  15.603  1.00  0.00    -0.374 N 
HETATM   20  N6  UNL     1      14.870 -12.141  17.468  1.00  0.00    -0.064 NA
ATOM     21  H52 UNL     1      15.006 -10.603  14.610  1.00  0.00     0.158 HD
ATOM     22  H51 UNL     1      14.467 -10.014  16.189  1.00  0.00     0.158 HD
ATOM     23  H4  UNL     1      16.114 -13.692  15.764  1.00  0.00     0.165 HD
ENDBRANCH  11  17
BRANCH  13  24
HETATM   24  C9  UNL     1      12.399 -13.336  12.010  1.00  0.00     0.303 C 
BRANCH  24  25
HETATM   25  S2  UNL     1      11.218 -12.320  11.180  1.00  0.00    -0.193 SA
HETATM   26  C10 UNL     1       9.655 -12.084  11.988  1.00  0.00     0.074 A 
HETATM   27  C11 UNL     1       9.672 -13.138  10.870  1.00  0.00     0.074 A 
ENDBRANCH  24  25
ENDBRANCH  13  24
TORSDOF 3
ENDMDL
