MODEL 1
REMARK VINA RESULT: -9.056885111      0.000      0.000
REMARK  10 active torsions:
REMARK  status: ('A' for Active; 'I' for Inactive)
REMARK    1  A    between atoms: C2_2  and  N1_5 
REMARK       I    between atoms: N1_5  and  C5_7 
REMARK    2  A    between atoms: C5_7  and  C6_9 
REMARK    3  A    between atoms: C6_9  and  C7_11 
REMARK    4  A    between atoms: C7_11  and  C8_13 
REMARK    5  A    between atoms: C9_15  and  C10_16 
REMARK    6  A    between atoms: C14_20  and  C15_21 
REMARK    7  A    between atoms: N2_22  and  N3_24 
REMARK       I    between atoms: N3_24  and  C16_26 
REMARK    8  A    between atoms: C16_26  and  C17_28 
REMARK    9  A    between atoms: C17_28  and  C18_30 
REMARK   10  A    between atoms: C18_30  and  C19_31 
ROOT
HETATM    1  C10 UNL     1      19.398 -15.895  23.071  1.00  0.00     0.009 C 
HETATM    2  C11 UNL     1      18.691 -15.605  22.022  1.00  0.00    -0.044 C 
HETATM    3  C12 UNL     1      17.604 -16.494  21.597  1.00  0.00     0.006 C 
HETATM    4  C13 UNL     1      16.547 -16.030  20.995  1.00  0.00    -0.001 C 
HETATM    5  C14 UNL     1      16.194 -14.671  20.626  1.00  0.00     0.171 C 
HETATM    6  S1  UNL     1      17.460 -13.484  20.912  1.00  0.00     0.160 S 
HETATM    7  O6  UNL     1      17.643 -12.611  19.703  1.00  0.00    -0.227 OA
HETATM    8  O7  UNL     1      17.138 -12.588  22.072  1.00  0.00    -0.227 OA
HETATM    9  C22 UNL     1      18.944 -14.406  21.230  1.00  0.00     0.179 C 
ENDROOT
BRANCH   5  10
HETATM   10  C15 UNL     1      15.766 -14.665  19.211  1.00  0.00     0.104 C 
HETATM   11  N2  UNL     1      15.200 -13.674  18.677  1.00  0.00    -0.311 N 
ATOM     12  H2  UNL     1      14.948 -13.780  17.694  1.00  0.00     0.185 HD
BRANCH  11  13
HETATM   13  N3  UNL     1      14.883 -12.482  19.249  1.00  0.00    -0.264 N 
HETATM   14  C16 UNL     1      13.781 -12.259  20.108  1.00  0.00     0.306 C 
HETATM   15  O4  UNL     1      13.001 -13.232  20.379  1.00  0.00    -0.263 OA
ATOM     16  H3  UNL     1      15.486 -11.686  19.044  1.00  0.00     0.190 HD
BRANCH  14  17
HETATM   17  C17 UNL     1      13.489 -10.975  20.702  1.00  0.00     0.223 C 
HETATM   18  O5  UNL     1      13.010 -10.064  20.001  1.00  0.00    -0.287 OA
BRANCH  17  19
HETATM   19  C18 UNL     1      13.753 -10.733  22.131  1.00  0.00     0.147 C 
BRANCH  19  20
HETATM   20  C19 UNL     1      12.574 -11.084  22.942  1.00  0.00     0.033 A 
HETATM   21  C20 UNL     1      11.690 -10.209  23.506  1.00  0.00     0.114 A 
HETATM   22  N4  UNL     1      10.769 -10.966  24.151  1.00  0.00    -0.360 N 
HETATM   23  C21 UNL     1      11.091 -12.271  23.979  1.00  0.00     0.180 A 
ATOM     24  H4  UNL     1       9.970 -10.613  24.676  1.00  0.00     0.166 HD
HETATM   25  N5  UNL     1      12.187 -12.350  23.244  1.00  0.00    -0.354 N 
ATOM     26  H5  UNL     1      12.657 -13.208  22.955  1.00  0.00     0.166 HD
ENDBRANCH  19  20
ENDBRANCH  17  19
ENDBRANCH  14  17
ENDBRANCH  11  13
ENDBRANCH   5  10
BRANCH   1  27
HETATM   27  C9  UNL     1      20.481 -15.075  23.552  1.00  0.00     0.024 C 
HETATM   28  C8  UNL     1      20.653 -14.961  24.883  1.00  0.00     0.065 C 
HETATM   29 BR1  UNL     1      19.446 -15.887  26.014  1.00  0.00    -0.047 Br
BRANCH  28  30
HETATM   30  C7  UNL     1      21.724 -14.154  25.437  1.00  0.00     0.244 C 
HETATM   31  O3  UNL     1      21.419 -13.243  26.264  1.00  0.00    -0.282 OA
BRANCH  30  32
HETATM   32  C6  UNL     1      23.113 -14.369  25.065  1.00  0.00     0.290 C 
HETATM   33  O2  UNL     1      23.819 -13.390  24.746  1.00  0.00    -0.278 OA
BRANCH  32  34
HETATM   34  C5  UNL     1      23.647 -15.713  25.073  1.00  0.00     0.296 C 
HETATM   35  N1  UNL     1      24.788 -16.020  24.307  1.00  0.00    -0.346 N 
ATOM     36  H1  UNL     1      25.224 -15.282  23.754  1.00  0.00     0.163 HD
HETATM   37  O1  UNL     1      23.128 -16.641  25.747  1.00  0.00    -0.264 OA
BRANCH  35  38
HETATM   38  C2  UNL     1      25.365 -17.352  24.280  1.00  0.00     0.022 C 
HETATM   39  C1  UNL     1      26.580 -17.346  23.380  1.00  0.00     0.037 C 
HETATM   40  C3  UNL     1      25.815 -17.806  25.662  1.00  0.00     0.037 C 
HETATM   41  C4  UNL     1      24.364 -18.347  23.755  1.00  0.00     0.037 C 
ENDBRANCH  35  38
ENDBRANCH  32  34
ENDBRANCH  30  32
ENDBRANCH  28  30
ENDBRANCH   1  27
TORSDOF 10
ENDMDL
MODEL 2
REMARK VINA RESULT: -8.933665830      0.932      1.313
REMARK  10 active torsions:
REMARK  status: ('A' for Active; 'I' for Inactive)
REMARK    1  A    between atoms: C2_2  and  N1_5 
REMARK       I    between atoms: N1_5  and  C5_7 
REMARK    2  A    between atoms: C5_7  and  C6_9 
REMARK    3  A    between atoms: C6_9  and  C7_11 
REMARK    4  A    between atoms: C7_11  and  C8_13 
REMARK    5  A    between atoms: C9_15  and  C10_16 
REMARK    6  A    between atoms: C14_20  and  C15_21 
REMARK    7  A    between atoms: N2_22  and  N3_24 
REMARK       I    between atoms: N3_24  and  C16_26 
REMARK    8  A    between atoms: C16_26  and  C17_28 
REMARK    9  A    between atoms: C17_28  and  C18_30 
REMARK   10  A    between atoms: C18_30  and  C19_31 
ROOT
HETATM    1  C10 UNL     1      19.429 -15.888  23.087  1.00  0.00     0.009 C 
HETATM    2  C11 UNL     1      18.715 -15.605  22.042  1.00  0.00    -0.044 C 
HETATM    3  C12 UNL     1      17.624 -16.497  21.632  1.00  0.00     0.006 C 
HETATM    4  C13 UNL     1      16.562 -16.035  21.035  1.00  0.00    -0.001 C 
HETATM    5  C14 UNL     1      16.209 -14.679  20.657  1.00  0.00     0.171 C 
HETATM    6  S1  UNL     1      17.479 -13.491  20.924  1.00  0.00     0.160 S 
HETATM    7  O6  UNL     1      17.654 -12.629  19.706  1.00  0.00    -0.227 OA
HETATM    8  O7  UNL     1      17.167 -12.586  22.079  1.00  0.00    -0.227 OA
HETATM    9  C22 UNL     1      18.964 -14.414  21.238  1.00  0.00     0.179 C 
ENDROOT
BRANCH   5  10
HETATM   10  C15 UNL     1      15.770 -14.684  19.245  1.00  0.00     0.104 C 
HETATM   11  N2  UNL     1      15.200 -13.697  18.708  1.00  0.00    -0.311 N 
ATOM     12  H2  UNL     1      14.941 -13.810  17.728  1.00  0.00     0.185 HD
BRANCH  11  13
HETATM   13  N3  UNL     1      14.888 -12.500  19.273  1.00  0.00    -0.264 N 
HETATM   14  C16 UNL     1      13.781 -12.264  20.120  1.00  0.00     0.306 C 
HETATM   15  O4  UNL     1      12.990 -13.230  20.388  1.00  0.00    -0.263 OA
ATOM     16  H3  UNL     1      15.501 -11.710  19.070  1.00  0.00     0.190 HD
BRANCH  14  17
HETATM   17  C17 UNL     1      13.494 -10.976  20.707  1.00  0.00     0.223 C 
HETATM   18  O5  UNL     1      13.019 -10.067  20.001  1.00  0.00    -0.287 OA
BRANCH  17  19
HETATM   19  C18 UNL     1      13.759 -10.727  22.135  1.00  0.00     0.147 C 
BRANCH  19  20
HETATM   20  C19 UNL     1      12.581 -11.074  22.948  1.00  0.00     0.033 A 
HETATM   21  C20 UNL     1      11.706 -10.195  23.521  1.00  0.00     0.114 A 
HETATM   22  N4  UNL     1      10.782 -10.949  24.165  1.00  0.00    -0.360 N 
HETATM   23  C21 UNL     1      11.093 -12.256  23.985  1.00  0.00     0.180 A 
ATOM     24  H4  UNL     1       9.987 -10.594  24.695  1.00  0.00     0.166 HD
HETATM   25  N5  UNL     1      12.186 -12.339  23.245  1.00  0.00    -0.354 N 
ATOM     26  H5  UNL     1      12.649 -13.198  22.950  1.00  0.00     0.166 HD
ENDBRANCH  19  20
ENDBRANCH  17  19
ENDBRANCH  14  17
ENDBRANCH  11  13
ENDBRANCH   5  10
BRANCH   1  27
HETATM   27  C9  UNL     1      20.518 -15.066  23.554  1.00  0.00     0.024 C 
HETATM   28  C8  UNL     1      20.706 -14.949  24.882  1.00  0.00     0.065 C 
HETATM   29 BR1  UNL     1      19.515 -15.876  26.030  1.00  0.00    -0.047 Br
BRANCH  28  30
HETATM   30  C7  UNL     1      21.783 -14.140  25.422  1.00  0.00     0.244 C 
HETATM   31  O3  UNL     1      21.477 -13.143  26.142  1.00  0.00    -0.282 OA
BRANCH  30  32
HETATM   32  C6  UNL     1      23.178 -14.449  25.152  1.00  0.00     0.290 C 
HETATM   33  O2  UNL     1      23.999 -13.515  25.032  1.00  0.00    -0.278 OA
BRANCH  32  34
HETATM   34  C5  UNL     1      23.586 -15.830  25.031  1.00  0.00     0.296 C 
HETATM   35  N1  UNL     1      23.194 -16.767  26.007  1.00  0.00    -0.346 N 
ATOM     36  H1  UNL     1      22.623 -16.453  26.791  1.00  0.00     0.163 HD
HETATM   37  O1  UNL     1      24.290 -16.244  24.073  1.00  0.00    -0.264 OA
BRANCH  35  38
HETATM   38  C2  UNL     1      23.576 -18.167  25.932  1.00  0.00     0.022 C 
HETATM   39  C1  UNL     1      22.711 -18.966  26.880  1.00  0.00     0.037 C 
HETATM   40  C3  UNL     1      23.379 -18.736  24.534  1.00  0.00     0.037 C 
HETATM   41  C4  UNL     1      25.022 -18.338  26.316  1.00  0.00     0.037 C 
ENDBRANCH  35  38
ENDBRANCH  32  34
ENDBRANCH  30  32
ENDBRANCH  28  30
ENDBRANCH   1  27
TORSDOF 10
ENDMDL
MODEL 3
REMARK VINA RESULT: -8.806647121      2.594      3.589
REMARK  10 active torsions:
REMARK  status: ('A' for Active; 'I' for Inactive)
REMARK    1  A    between atoms: C2_2  and  N1_5 
REMARK       I    between atoms: N1_5  and  C5_7 
REMARK    2  A    between atoms: C5_7  and  C6_9 
REMARK    3  A    between atoms: C6_9  and  C7_11 
REMARK    4  A    between atoms: C7_11  and  C8_13 
REMARK    5  A    between atoms: C9_15  and  C10_16 
REMARK    6  A    between atoms: C14_20  and  C15_21 
REMARK    7  A    between atoms: N2_22  and  N3_24 
REMARK       I    between atoms: N3_24  and  C16_26 
REMARK    8  A    between atoms: C16_26  and  C17_28 
REMARK    9  A    between atoms: C17_28  and  C18_30 
REMARK   10  A    between atoms: C18_30  and  C19_31 
ROOT
HETATM    1  C10 UNL     1      17.678 -18.050  22.350  1.00  0.00     0.009 C 
HETATM    2  C11 UNL     1      17.602 -16.931  21.697  1.00  0.00    -0.044 C 
HETATM    3  C12 UNL     1      16.686 -16.805  20.557  1.00  0.00     0.006 C 
HETATM    4  C13 UNL     1      16.133 -15.664  20.258  1.00  0.00    -0.001 C 
HETATM    5  C14 UNL     1      16.255 -14.364  20.891  1.00  0.00     0.171 C 
HETATM    6  S1  UNL     1      17.447 -14.288  22.182  1.00  0.00     0.160 S 
HETATM    7  O6  UNL     1      18.327 -13.083  22.013  1.00  0.00    -0.227 OA
HETATM    8  O7  UNL     1      16.805 -14.193  23.535  1.00  0.00    -0.227 OA
HETATM    9  C22 UNL     1      18.413 -15.773  22.054  1.00  0.00     0.179 C 
ENDROOT
BRANCH   5  10
HETATM   10  C15 UNL     1      16.536 -13.357  19.845  1.00  0.00     0.104 C 
HETATM   11  N2  UNL     1      16.038 -12.200  19.865  1.00  0.00    -0.311 N 
ATOM     12  H2  UNL     1      16.300 -11.587  19.093  1.00  0.00     0.185 HD
BRANCH  11  13
HETATM   13  N3  UNL     1      15.194 -11.667  20.790  1.00  0.00    -0.264 N 
HETATM   14  C16 UNL     1      13.848 -11.306  20.550  1.00  0.00     0.306 C 
HETATM   15  O4  UNL     1      13.360 -11.475  19.382  1.00  0.00    -0.263 OA
ATOM     16  H3  UNL     1      15.560 -11.516  21.729  1.00  0.00     0.190 HD
BRANCH  14  17
HETATM   17  C17 UNL     1      12.985 -10.752  21.567  1.00  0.00     0.223 C 
HETATM   18  O5  UNL     1      12.128  -9.903  21.256  1.00  0.00    -0.287 OA
BRANCH  17  19
HETATM   19  C18 UNL     1      13.108 -11.182  22.971  1.00  0.00     0.147 C 
BRANCH  19  20
HETATM   20  C19 UNL     1      12.397 -10.250  23.862  1.00  0.00     0.033 A 
HETATM   21  C20 UNL     1      11.163 -10.442  24.416  1.00  0.00     0.114 A 
HETATM   22  N4  UNL     1      10.909  -9.340  25.163  1.00  0.00    -0.360 N 
HETATM   23  C21 UNL     1      11.968  -8.500  25.062  1.00  0.00     0.180 A 
ATOM     24  H4  UNL     1      10.064  -9.171  25.709  1.00  0.00     0.166 HD
HETATM   25  N5  UNL     1      12.876  -9.048  24.273  1.00  0.00    -0.354 N 
ATOM     26  H5  UNL     1      13.776  -8.641  24.018  1.00  0.00     0.166 HD
ENDBRANCH  19  20
ENDBRANCH  17  19
ENDBRANCH  14  17
ENDBRANCH  11  13
ENDBRANCH   5  10
BRANCH   1  27
HETATM   27  C9  UNL     1      18.552 -18.254  23.478  1.00  0.00     0.024 C 
HETATM   28  C8  UNL     1      17.996 -18.479  24.684  1.00  0.00     0.065 C 
HETATM   29 BR1  UNL     1      16.104 -18.503  24.796  1.00  0.00    -0.047 Br
BRANCH  28  30
HETATM   30  C7  UNL     1      18.816 -18.695  25.862  1.00  0.00     0.244 C 
HETATM   31  O3  UNL     1      18.379 -19.479  26.757  1.00  0.00    -0.282 OA
BRANCH  30  32
HETATM   32  C6  UNL     1      20.103 -18.040  26.027  1.00  0.00     0.290 C 
HETATM   33  O2  UNL     1      21.140 -18.734  26.091  1.00  0.00    -0.278 OA
BRANCH  32  34
HETATM   34  C5  UNL     1      20.157 -16.598  26.114  1.00  0.00     0.296 C 
HETATM   35  N1  UNL     1      21.276 -15.905  25.613  1.00  0.00    -0.346 N 
ATOM     36  H1  UNL     1      22.038 -16.437  25.194  1.00  0.00     0.163 HD
HETATM   37  O1  UNL     1      19.230 -15.918  26.627  1.00  0.00    -0.264 OA
BRANCH  35  38
HETATM   38  C2  UNL     1      21.380 -14.457  25.675  1.00  0.00     0.022 C 
HETATM   39  C1  UNL     1      22.748 -14.039  25.188  1.00  0.00     0.037 C 
HETATM   40  C3  UNL     1      20.346 -13.775  24.791  1.00  0.00     0.037 C 
HETATM   41  C4  UNL     1      21.189 -13.977  27.090  1.00  0.00     0.037 C 
ENDBRANCH  35  38
ENDBRANCH  32  34
ENDBRANCH  30  32
ENDBRANCH  28  30
ENDBRANCH   1  27
TORSDOF 10
ENDMDL
MODEL 4
REMARK VINA RESULT: -8.778193210      1.121      1.274
REMARK  10 active torsions:
REMARK  status: ('A' for Active; 'I' for Inactive)
REMARK    1  A    between atoms: C2_2  and  N1_5 
REMARK       I    between atoms: N1_5  and  C5_7 
REMARK    2  A    between atoms: C5_7  and  C6_9 
REMARK    3  A    between atoms: C6_9  and  C7_11 
REMARK    4  A    between atoms: C7_11  and  C8_13 
REMARK    5  A    between atoms: C9_15  and  C10_16 
REMARK    6  A    between atoms: C14_20  and  C15_21 
REMARK    7  A    between atoms: N2_22  and  N3_24 
REMARK       I    between atoms: N3_24  and  C16_26 
REMARK    8  A    between atoms: C16_26  and  C17_28 
REMARK    9  A    between atoms: C17_28  and  C18_30 
REMARK   10  A    between atoms: C18_30  and  C19_31 
ROOT
HETATM    1  C10 UNL     1      19.369 -16.539  22.962  1.00  0.00     0.009 C 
HETATM    2  C11 UNL     1      18.507 -16.158  22.070  1.00  0.00    -0.044 C 
HETATM    3  C12 UNL     1      17.574 -17.128  21.486  1.00  0.00     0.006 C 
HETATM    4  C13 UNL     1      16.385 -16.769  21.090  1.00  0.00    -0.001 C 
HETATM    5  C14 UNL     1      15.736 -15.472  21.117  1.00  0.00     0.171 C 
HETATM    6  S1  UNL     1      16.771 -14.147  21.636  1.00  0.00     0.160 S 
HETATM    7  O6  UNL     1      16.645 -12.983  20.694  1.00  0.00    -0.227 OA
HETATM    8  O7  UNL     1      16.412 -13.659  23.008  1.00  0.00    -0.227 OA
HETATM    9  C22 UNL     1      18.432 -14.775  21.612  1.00  0.00     0.179 C 
ENDROOT
BRANCH   5  10
HETATM   10  C15 UNL     1      15.161 -15.208  19.780  1.00  0.00     0.104 C 
HETATM   11  N2  UNL     1      14.246 -14.362  19.590  1.00  0.00    -0.311 N 
ATOM     12  H2  UNL     1      13.925 -14.262  18.627  1.00  0.00     0.185 HD
BRANCH  11  13
HETATM   13  N3  UNL     1      13.635 -13.567  20.509  1.00  0.00    -0.264 N 
HETATM   14  C16 UNL     1      13.513 -12.162  20.415  1.00  0.00     0.306 C 
HETATM   15  O4  UNL     1      14.011 -11.563  19.404  1.00  0.00    -0.263 OA
ATOM     16  H3  UNL     1      13.234 -14.020  21.330  1.00  0.00     0.190 HD
BRANCH  14  17
HETATM   17  C17 UNL     1      12.845 -11.358  21.412  1.00  0.00     0.223 C 
HETATM   18  O5  UNL     1      12.383 -10.244  21.101  1.00  0.00    -0.287 OA
BRANCH  17  19
HETATM   19  C18 UNL     1      12.705 -11.844  22.796  1.00  0.00     0.147 C 
BRANCH  19  20
HETATM   20  C19 UNL     1      12.210 -10.770  23.674  1.00  0.00     0.033 A 
HETATM   21  C20 UNL     1      11.037 -10.772  24.374  1.00  0.00     0.114 A 
HETATM   22  N4  UNL     1      10.995  -9.596  25.044  1.00  0.00    -0.360 N 
HETATM   23  C21 UNL     1      12.120  -8.897  24.756  1.00  0.00     0.180 A 
ATOM     24  H4  UNL     1      10.244  -9.288  25.662  1.00  0.00     0.166 HD
HETATM   25  N5  UNL     1      12.864  -9.606  23.924  1.00  0.00    -0.354 N 
ATOM     26  H5  UNL     1      13.766  -9.329  23.539  1.00  0.00     0.166 HD
ENDBRANCH  19  20
ENDBRANCH  17  19
ENDBRANCH  14  17
ENDBRANCH  11  13
ENDBRANCH   5  10
BRANCH   1  27
HETATM   27  C9  UNL     1      20.319 -15.649  23.581  1.00  0.00     0.024 C 
HETATM   28  C8  UNL     1      20.293 -15.522  24.922  1.00  0.00     0.065 C 
HETATM   29 BR1  UNL     1      19.002 -16.523  25.882  1.00  0.00    -0.047 Br
BRANCH  28  30
HETATM   30  C7  UNL     1      21.221 -14.646  25.612  1.00  0.00     0.244 C 
HETATM   31  O3  UNL     1      20.757 -13.850  26.482  1.00  0.00    -0.282 OA
BRANCH  30  32
HETATM   32  C6  UNL     1      22.647 -14.666  25.326  1.00  0.00     0.290 C 
HETATM   33  O2  UNL     1      23.248 -13.588  25.137  1.00  0.00    -0.278 OA
BRANCH  32  34
HETATM   34  C5  UNL     1      23.338 -15.935  25.267  1.00  0.00     0.296 C 
HETATM   35  N1  UNL     1      24.387 -16.121  24.344  1.00  0.00    -0.346 N 
ATOM     36  H1  UNL     1      24.643 -15.351  23.727  1.00  0.00     0.163 HD
HETATM   37  O1  UNL     1      23.041 -16.901  26.017  1.00  0.00    -0.264 OA
BRANCH  35  38
HETATM   38  C2  UNL     1      25.113 -17.374  24.244  1.00  0.00     0.022 C 
HETATM   39  C1  UNL     1      26.194 -17.236  23.196  1.00  0.00     0.037 C 
HETATM   40  C3  UNL     1      25.788 -17.748  25.557  1.00  0.00     0.037 C 
HETATM   41  C4  UNL     1      24.183 -18.492  23.852  1.00  0.00     0.037 C 
ENDBRANCH  35  38
ENDBRANCH  32  34
ENDBRANCH  30  32
ENDBRANCH  28  30
ENDBRANCH   1  27
TORSDOF 10
ENDMDL
MODEL 5
REMARK VINA RESULT: -8.607387332      3.390      4.388
REMARK  10 active torsions:
REMARK  status: ('A' for Active; 'I' for Inactive)
REMARK    1  A    between atoms: C2_2  and  N1_5 
REMARK       I    between atoms: N1_5  and  C5_7 
REMARK    2  A    between atoms: C5_7  and  C6_9 
REMARK    3  A    between atoms: C6_9  and  C7_11 
REMARK    4  A    between atoms: C7_11  and  C8_13 
REMARK    5  A    between atoms: C9_15  and  C10_16 
REMARK    6  A    between atoms: C14_20  and  C15_21 
REMARK    7  A    between atoms: N2_22  and  N3_24 
REMARK       I    between atoms: N3_24  and  C16_26 
REMARK    8  A    between atoms: C16_26  and  C17_28 
REMARK    9  A    between atoms: C17_28  and  C18_30 
REMARK   10  A    between atoms: C18_30  and  C19_31 
ROOT
HETATM    1  C10 UNL     1      17.757 -15.635  21.076  1.00  0.00     0.009 C 
HETATM    2  C11 UNL     1      16.535 -16.018  21.289  1.00  0.00    -0.044 C 
HETATM    3  C12 UNL     1      15.545 -15.955  20.207  1.00  0.00     0.006 C 
HETATM    4  C13 UNL     1      14.562 -16.806  20.141  1.00  0.00    -0.001 C 
HETATM    5  C14 UNL     1      14.216 -17.915  21.011  1.00  0.00     0.171 C 
HETATM    6  S1  UNL     1      15.203 -18.042  22.461  1.00  0.00     0.160 S 
HETATM    7  O6  UNL     1      14.334 -18.234  23.672  1.00  0.00    -0.227 OA
HETATM    8  O7  UNL     1      16.152 -19.202  22.396  1.00  0.00    -0.227 OA
HETATM    9  C22 UNL     1      16.097 -16.512  22.589  1.00  0.00     0.179 C 
ENDROOT
BRANCH   5  10
HETATM   10  C15 UNL     1      12.780 -17.816  21.349  1.00  0.00     0.104 C 
HETATM   11  N2  UNL     1      12.278 -16.794  21.889  1.00  0.00    -0.311 N 
ATOM     12  H2  UNL     1      11.277 -16.835  22.078  1.00  0.00     0.185 HD
BRANCH  11  13
HETATM   13  N3  UNL     1      12.908 -15.644  22.251  1.00  0.00    -0.264 N 
HETATM   14  C16 UNL     1      12.652 -14.368  21.697  1.00  0.00     0.306 C 
HETATM   15  O4  UNL     1      11.774 -14.258  20.777  1.00  0.00    -0.263 OA
ATOM     16  H3  UNL     1      13.618 -15.706  22.980  1.00  0.00     0.190 HD
BRANCH  14  17
HETATM   17  C17 UNL     1      13.339 -13.171  22.121  1.00  0.00     0.223 C 
HETATM   18  O5  UNL     1      14.456 -13.258  22.666  1.00  0.00    -0.287 OA
BRANCH  17  19
HETATM   19  C18 UNL     1      12.731 -11.845  21.914  1.00  0.00     0.147 C 
BRANCH  19  20
HETATM   20  C19 UNL     1      12.114 -11.358  23.161  1.00  0.00     0.033 A 
HETATM   21  C20 UNL     1      11.241 -12.046  23.954  1.00  0.00     0.114 A 
HETATM   22  N4  UNL     1      10.940 -11.223  24.987  1.00  0.00    -0.360 N 
HETATM   23  C21 UNL     1      11.618 -10.062  24.822  1.00  0.00     0.180 A 
ATOM     24  H4  UNL     1      10.310 -11.440  25.759  1.00  0.00     0.166 HD
HETATM   25  N5  UNL     1      12.335 -10.138  23.713  1.00  0.00    -0.354 N 
ATOM     26  H5  UNL     1      12.944  -9.410  23.340  1.00  0.00     0.166 HD
ENDBRANCH  19  20
ENDBRANCH  17  19
ENDBRANCH  14  17
ENDBRANCH  11  13
ENDBRANCH   5  10
BRANCH   1  27
HETATM   27  C9  UNL     1      18.786 -15.664  22.085  1.00  0.00     0.024 C 
HETATM   28  C8  UNL     1      19.282 -14.491  22.524  1.00  0.00     0.065 C 
HETATM   29 BR1  UNL     1      18.584 -12.897  21.772  1.00  0.00    -0.047 Br
BRANCH  28  30
HETATM   30  C7  UNL     1      20.318 -14.446  23.540  1.00  0.00     0.244 C 
HETATM   31  O3  UNL     1      21.526 -14.409  23.159  1.00  0.00    -0.282 OA
BRANCH  30  32
HETATM   32  C6  UNL     1      19.997 -14.442  24.958  1.00  0.00     0.290 C 
HETATM   33  O2  UNL     1      20.478 -13.553  25.692  1.00  0.00    -0.278 OA
BRANCH  32  34
HETATM   34  C5  UNL     1      19.127 -15.468  25.489  1.00  0.00     0.296 C 
HETATM   35  N1  UNL     1      19.677 -16.663  25.994  1.00  0.00    -0.346 N 
ATOM     36  H1  UNL     1      20.689 -16.786  25.976  1.00  0.00     0.163 HD
HETATM   37  O1  UNL     1      17.875 -15.341  25.522  1.00  0.00    -0.264 OA
BRANCH  35  38
HETATM   38  C2  UNL     1      18.849 -17.725  26.538  1.00  0.00     0.022 C 
HETATM   39  C1  UNL     1      19.738 -18.854  27.004  1.00  0.00     0.037 C 
HETATM   40  C3  UNL     1      18.034 -17.253  27.735  1.00  0.00     0.037 C 
HETATM   41  C4  UNL     1      17.899 -18.241  25.489  1.00  0.00     0.037 C 
ENDBRANCH  35  38
ENDBRANCH  32  34
ENDBRANCH  30  32
ENDBRANCH  28  30
ENDBRANCH   1  27
TORSDOF 10
ENDMDL
