MODEL 1
REMARK VINA RESULT: -5.638177839      0.000      0.000
REMARK  1 active torsions:
REMARK  status: ('A' for Active; 'I' for Inactive)
REMARK    1  A    between atoms: C4_4  and  C5_5 
ROOT
HETATM    1  C1  UNL     1      16.366 -12.341  20.808  1.00  0.00     0.040 C 
HETATM    2  C2  UNL     1      15.214 -13.278  20.666  1.00  0.00     0.186 C 
HETATM    3  C3  UNL     1      14.438 -13.448  21.943  1.00  0.00     0.040 C 
HETATM    4  C4  UNL     1      12.986 -13.313  21.603  1.00  0.00     0.022 C 
HETATM    5  C6  UNL     1      12.429 -14.451  20.853  1.00  0.00     0.113 C 
HETATM    6  N1  UNL     1      12.163 -15.633  21.599  1.00  0.00    -0.360 N 
ATOM      7  H1  UNL     1      12.042 -15.711  22.609  1.00  0.00     0.162 HD
HETATM    8  C7  UNL     1      12.103 -16.685  20.639  1.00  0.00     0.168 C 
HETATM    9  S1  UNL     1      11.699 -18.262  20.923  1.00  0.00    -0.041 SA
HETATM   10  N2  UNL     1      12.463 -16.123  19.359  1.00  0.00    -0.359 N 
ATOM     11  H2  UNL     1      12.213 -16.454  18.427  1.00  0.00     0.162 HD
HETATM   12  C8  UNL     1      13.275 -14.962  19.727  1.00  0.00     0.133 C 
HETATM   13  C9  UNL     1      14.584 -15.527  20.144  1.00  0.00     0.264 C 
HETATM   14  N3  UNL     1      15.659 -14.583  20.245  1.00  0.00    -0.069 N 
HETATM   15  C10 UNL     1      16.583 -15.079  21.251  1.00  0.00     0.272 C 
HETATM   16  C11 UNL     1      16.380 -14.421  18.998  1.00  0.00     0.272 C 
ENDROOT
BRANCH   4  17
HETATM   17  C5  UNL     1      12.126 -13.033  22.808  1.00  0.00     0.092 C 
HETATM   18 BR1  UNL     1      12.024 -11.127  23.131  1.00  0.00    -0.096 Br
ENDBRANCH   4  17
TORSDOF 1
ENDMDL
MODEL 2
REMARK VINA RESULT: -5.592065528      3.539      4.834
REMARK  1 active torsions:
REMARK  status: ('A' for Active; 'I' for Inactive)
REMARK    1  A    between atoms: C4_4  and  C5_5 
ROOT
HETATM    1  C1  UNL     1      16.827 -17.122  19.994  1.00  0.00     0.040 C 
HETATM    2  C2  UNL     1      16.320 -15.722  20.070  1.00  0.00     0.186 C 
HETATM    3  C3  UNL     1      17.167 -14.841  20.946  1.00  0.00     0.040 C 
HETATM    4  C4  UNL     1      17.416 -13.571  20.192  1.00  0.00     0.022 C 
HETATM    5  C6  UNL     1      16.239 -12.696  20.070  1.00  0.00     0.113 C 
HETATM    6  N1  UNL     1      15.875 -11.957  21.230  1.00  0.00    -0.360 N 
ATOM      7  H1  UNL     1      16.466 -11.736  22.031  1.00  0.00     0.162 HD
HETATM    8  C7  UNL     1      14.511 -11.590  21.037  1.00  0.00     0.168 C 
HETATM    9  S1  UNL     1      13.601 -10.613  22.012  1.00  0.00    -0.041 SA
HETATM   10  N2  UNL     1      14.058 -12.230  19.826  1.00  0.00    -0.359 N 
ATOM     11  H2  UNL     1      13.299 -11.950  19.204  1.00  0.00     0.162 HD
HETATM   12  C8  UNL     1      14.955 -13.380  19.707  1.00  0.00     0.133 C 
HETATM   13  C9  UNL     1      14.467 -14.353  20.718  1.00  0.00     0.264 C 
HETATM   14  N3  UNL     1      14.973 -15.688  20.583  1.00  0.00    -0.069 N 
HETATM   15  C10 UNL     1      14.992 -16.284  21.909  1.00  0.00     0.272 C 
HETATM   16  C11 UNL     1      14.152 -16.514  19.720  1.00  0.00     0.272 C 
ENDROOT
BRANCH   4  17
HETATM   17  C5  UNL     1      18.577 -12.782  20.739  1.00  0.00     0.092 C 
HETATM   18 BR1  UNL     1      20.236 -13.397  19.953  1.00  0.00    -0.096 Br
ENDBRANCH   4  17
TORSDOF 1
ENDMDL
MODEL 3
REMARK VINA RESULT: -5.358968849      3.271      4.446
REMARK  1 active torsions:
REMARK  status: ('A' for Active; 'I' for Inactive)
REMARK    1  A    between atoms: C4_4  and  C5_5 
ROOT
HETATM    1  C1  UNL     1      17.815 -12.704  16.794  1.00  0.00     0.040 C 
HETATM    2  C2  UNL     1      16.960 -12.783  18.013  1.00  0.00     0.186 C 
HETATM    3  C3  UNL     1      17.568 -13.629  19.098  1.00  0.00     0.040 C 
HETATM    4  C4  UNL     1      17.455 -12.859  20.378  1.00  0.00     0.022 C 
HETATM    5  C6  UNL     1      16.087 -12.763  20.911  1.00  0.00     0.113 C 
HETATM    6  N1  UNL     1      15.570 -13.928  21.546  1.00  0.00    -0.360 N 
ATOM      7  H1  UNL     1      16.103 -14.711  21.925  1.00  0.00     0.162 HD
HETATM    8  C7  UNL     1      14.154 -13.771  21.539  1.00  0.00     0.168 C 
HETATM    9  S1  UNL     1      13.044 -14.763  22.256  1.00  0.00    -0.041 SA
HETATM   10  N2  UNL     1      13.855 -12.577  20.785  1.00  0.00    -0.359 N 
ATOM     11  H2  UNL     1      13.034 -11.975  20.846  1.00  0.00     0.162 HD
HETATM   12  C8  UNL     1      15.020 -12.442  19.909  1.00  0.00     0.133 C 
HETATM   13  C9  UNL     1      14.829 -13.473  18.857  1.00  0.00     0.264 C 
HETATM   14  N3  UNL     1      15.665 -13.334  17.699  1.00  0.00    -0.069 N 
HETATM   15  C10 UNL     1      15.873 -14.663  17.149  1.00  0.00     0.272 C 
HETATM   16  C11 UNL     1      15.068 -12.500  16.675  1.00  0.00     0.272 C 
ENDROOT
BRANCH   4  17
HETATM   17  C5  UNL     1      18.381 -13.368  21.451  1.00  0.00     0.092 C 
HETATM   18 BR1  UNL     1      20.077 -13.893  20.680  1.00  0.00    -0.096 Br
ENDBRANCH   4  17
TORSDOF 1
ENDMDL
MODEL 4
REMARK VINA RESULT: -5.348850964      2.686      4.174
REMARK  1 active torsions:
REMARK  status: ('A' for Active; 'I' for Inactive)
REMARK    1  A    between atoms: C4_4  and  C5_5 
ROOT
HETATM    1  C1  UNL     1      12.037 -15.879  19.898  1.00  0.00     0.040 C 
HETATM    2  C2  UNL     1      13.194 -15.146  20.487  1.00  0.00     0.186 C 
HETATM    3  C3  UNL     1      13.249 -13.704  20.062  1.00  0.00     0.040 C 
HETATM    4  C4  UNL     1      13.481 -12.885  21.294  1.00  0.00     0.022 C 
HETATM    5  C6  UNL     1      14.837 -13.002  21.856  1.00  0.00     0.113 C 
HETATM    6  N1  UNL     1      15.869 -12.301  21.173  1.00  0.00    -0.360 N 
ATOM      7  H1  UNL     1      15.761 -11.517  20.529  1.00  0.00     0.162 HD
HETATM    8  C7  UNL     1      17.087 -12.922  21.578  1.00  0.00     0.168 C 
HETATM    9  S1  UNL     1      18.619 -12.440  21.195  1.00  0.00    -0.041 SA
HETATM   10  N2  UNL     1      16.740 -14.063  22.391  1.00  0.00    -0.359 N 
ATOM     11  H2  UNL     1      17.298 -14.526  23.109  1.00  0.00     0.162 HD
HETATM   12  C8  UNL     1      15.389 -14.394  21.934  1.00  0.00     0.133 C 
HETATM   13  C9  UNL     1      15.582 -15.057  20.619  1.00  0.00     0.264 C 
HETATM   14  N3  UNL     1      14.441 -15.763  20.111  1.00  0.00    -0.069 N 
HETATM   15  C10 UNL     1      14.524 -15.741  18.660  1.00  0.00     0.272 C 
HETATM   16  C11 UNL     1      14.398 -17.144  20.549  1.00  0.00     0.272 C 
ENDROOT
BRANCH   4  17
HETATM   17  C5  UNL     1      13.138 -11.431  21.105  1.00  0.00     0.092 C 
HETATM   18 BR1  UNL     1      11.887 -10.854  22.465  1.00  0.00    -0.096 Br
ENDBRANCH   4  17
TORSDOF 1
ENDMDL
MODEL 5
REMARK VINA RESULT: -5.343472629      3.445      5.250
REMARK  1 active torsions:
REMARK  status: ('A' for Active; 'I' for Inactive)
REMARK    1  A    between atoms: C4_4  and  C5_5 
ROOT
HETATM    1  C1  UNL     1      12.048 -15.701  19.985  1.00  0.00     0.040 C 
HETATM    2  C2  UNL     1      13.238 -14.803  19.981  1.00  0.00     0.186 C 
HETATM    3  C3  UNL     1      14.368 -15.334  19.142  1.00  0.00     0.040 C 
HETATM    4  C4  UNL     1      14.854 -14.206  18.285  1.00  0.00     0.022 C 
HETATM    5  C6  UNL     1      15.593 -13.163  19.015  1.00  0.00     0.113 C 
HETATM    6  N1  UNL     1      16.929 -13.477  19.391  1.00  0.00    -0.360 N 
ATOM      7  H1  UNL     1      17.529 -14.197  18.991  1.00  0.00     0.162 HD
HETATM    8  C7  UNL     1      17.251 -12.573  20.446  1.00  0.00     0.168 C 
HETATM    9  S1  UNL     1      18.718 -12.398  21.185  1.00  0.00    -0.041 SA
HETATM   10  N2  UNL     1      16.054 -11.830  20.759  1.00  0.00    -0.359 N 
ATOM     11  H2  UNL     1      15.972 -10.907  21.186  1.00  0.00     0.162 HD
HETATM   12  C8  UNL     1      14.985 -12.726  20.314  1.00  0.00     0.133 C 
HETATM   13  C9  UNL     1      14.916 -13.786  21.352  1.00  0.00     0.264 C 
HETATM   14  N3  UNL     1      13.740 -14.605  21.318  1.00  0.00    -0.069 N 
HETATM   15  C10 UNL     1      14.100 -15.909  21.851  1.00  0.00     0.272 C 
HETATM   16  C11 UNL     1      12.658 -14.065  22.118  1.00  0.00     0.272 C 
ENDROOT
BRANCH   4  17
HETATM   17  C5  UNL     1      15.672 -14.674  17.109  1.00  0.00     0.092 C 
HETATM   18 BR1  UNL     1      15.849 -13.252  15.807  1.00  0.00    -0.096 Br
ENDBRANCH   4  17
TORSDOF 1
ENDMDL
