MODEL 1
REMARK VINA RESULT: -7.412060846      0.000      0.000
REMARK  3 active torsions:
REMARK  status: ('A' for Active; 'I' for Inactive)
REMARK    1  A    between atoms: N1_2  and  C2_3 
REMARK    2  A    between atoms: N2_6  and  N3_7 
REMARK       I    between atoms: N3_7  and  C4_9 
REMARK       I    between atoms: C4_9  and  N4_11 
REMARK       I    between atoms: N4_11  and  C5_13 
REMARK       I    between atoms: C5_13  and  N5_15 
REMARK    3  A    between atoms: N5_15  and  N6_17 
ROOT
HETATM    1  N3  UNL     1      14.193 -13.665  21.721  1.00  0.00    -0.165 N 
ATOM      2  H3  UNL     1      13.836 -14.605  21.893  1.00  0.00     0.199 HD
HETATM    3  C4  UNL     1      13.373 -12.648  22.390  1.00  0.00     0.348 C 
HETATM    4  O1  UNL     1      13.606 -11.566  22.487  1.00  0.00    -0.245 OA
HETATM    5  N4  UNL     1      12.150 -13.461  22.918  1.00  0.00    -0.258 N 
ATOM      6  H4  UNL     1      11.946 -14.460  22.892  1.00  0.00     0.175 HD
HETATM    7  C5  UNL     1      11.255 -12.132  23.560  1.00  0.00     0.344 C 
HETATM    8  O2  UNL     1      10.248 -12.525  24.105  1.00  0.00    -0.245 OA
HETATM    9  N5  UNL     1      11.778 -10.860  23.370  1.00  0.00    -0.237 N 
ATOM     10  H5  UNL     1      11.974 -10.492  22.440  1.00  0.00     0.193 HD
ENDROOT
BRANCH   1  11
HETATM   11  N2  UNL     1      15.293 -13.689  20.939  1.00  0.00     0.041 N 
HETATM   12  C3  UNL     1      16.523 -13.226  21.568  1.00  0.00     0.501 C 
HETATM   13  N1  UNL     1      17.664 -13.677  20.774  1.00  0.00    -0.028 N 
HETATM   14  C1  UNL     1      18.202 -14.809  21.471  1.00  0.00     0.276 C 
HETATM   15  C8  UNL     1      17.284 -13.969  19.459  1.00  0.00     0.197 C 
HETATM   16  C7  UNL     1      16.383 -15.238  19.422  1.00  0.00     0.064 C 
HETATM   17  C9  UNL     1      16.362 -12.887  18.962  1.00  0.00     0.064 C 
HETATM   18  C6  UNL     1      15.359 -15.057  20.485  1.00  0.00     0.269 C 
HETATM   19  C10 UNL     1      15.083 -12.853  19.770  1.00  0.00     0.269 C 
BRANCH  13  20
HETATM   20  C2  UNL     1      18.762 -12.696  20.768  1.00  0.00     0.353 C 
HETATM   21 CL1  UNL     1      20.148 -13.439  19.861  1.00  0.00    -0.101 Cl
ENDBRANCH  13  20
ENDBRANCH   1  11
BRANCH   9  22
HETATM   22  N6  UNL     1      12.009 -10.142  24.480  1.00  0.00    -0.245 N 
HETATM   23  N7  UNL     1      12.479  -9.040  24.892  1.00  0.00    -0.331 N 
ATOM     24  H72 UNL     1      12.788  -8.524  24.068  1.00  0.00     0.178 HD
ATOM     25  H71 UNL     1      12.655  -8.493  25.735  1.00  0.00     0.178 HD
ATOM     26  H6  UNL     1      11.691 -10.680  25.286  1.00  0.00     0.208 HD
ENDBRANCH   9  22
TORSDOF 3
ENDMDL
MODEL 2
REMARK VINA RESULT: -7.289229150      2.050      2.523
REMARK  3 active torsions:
REMARK  status: ('A' for Active; 'I' for Inactive)
REMARK    1  A    between atoms: N1_2  and  C2_3 
REMARK    2  A    between atoms: N2_6  and  N3_7 
REMARK       I    between atoms: N3_7  and  C4_9 
REMARK       I    between atoms: C4_9  and  N4_11 
REMARK       I    between atoms: N4_11  and  C5_13 
REMARK       I    between atoms: C5_13  and  N5_15 
REMARK    3  A    between atoms: N5_15  and  N6_17 
ROOT
HETATM    1  N3  UNL     1      15.382 -12.771  20.793  1.00  0.00    -0.165 N 
ATOM      2  H3  UNL     1      15.368 -12.193  19.952  1.00  0.00     0.199 HD
HETATM    3  C4  UNL     1      14.187 -12.554  21.615  1.00  0.00     0.348 C 
HETATM    4  O1  UNL     1      13.877 -13.143  22.504  1.00  0.00    -0.245 OA
HETATM    5  N4  UNL     1      13.492 -11.338  20.927  1.00  0.00    -0.258 N 
ATOM      6  H4  UNL     1      13.726 -10.822  20.080  1.00  0.00     0.175 HD
HETATM    7  C5  UNL     1      12.201 -11.147  22.057  1.00  0.00     0.344 C 
HETATM    8  O2  UNL     1      11.452 -10.267  21.696  1.00  0.00    -0.245 OA
HETATM    9  N5  UNL     1      12.198 -11.978  23.169  1.00  0.00    -0.237 N 
ATOM     10  H5  UNL     1      12.982 -12.009  23.819  1.00  0.00     0.193 HD
ENDROOT
BRANCH   1  11
HETATM   11  N2  UNL     1      16.496 -13.532  20.849  1.00  0.00     0.041 N 
HETATM   12  C3  UNL     1      17.204 -13.518  22.123  1.00  0.00     0.501 C 
HETATM   13  N1  UNL     1      18.117 -14.658  22.174  1.00  0.00    -0.028 N 
HETATM   14  C1  UNL     1      17.472 -15.640  22.994  1.00  0.00     0.276 C 
HETATM   15  C8  UNL     1      18.419 -15.124  20.889  1.00  0.00     0.197 C 
HETATM   16  C7  UNL     1      17.166 -15.783  20.242  1.00  0.00     0.064 C 
HETATM   17  C9  UNL     1      18.683 -13.946  19.989  1.00  0.00     0.064 C 
HETATM   18  C6  UNL     1      16.036 -14.842  20.461  1.00  0.00     0.269 C 
HETATM   19  C10 UNL     1      17.445 -13.088  19.843  1.00  0.00     0.269 C 
BRANCH  13  20
HETATM   20  C2  UNL     1      19.363 -14.342  22.894  1.00  0.00     0.353 C 
HETATM   21 CL1  UNL     1      19.099 -14.759  24.641  1.00  0.00    -0.101 Cl
ENDBRANCH  13  20
ENDBRANCH   1  11
BRANCH   9  22
HETATM   22  N6  UNL     1      11.105 -12.737  23.340  1.00  0.00    -0.245 N 
HETATM   23  N7  UNL     1      10.005 -12.801  23.966  1.00  0.00    -0.331 N 
ATOM     24  H72 UNL     1       9.946 -11.963  24.545  1.00  0.00     0.178 HD
ATOM     25  H71 UNL     1       9.174 -13.378  24.096  1.00  0.00     0.178 HD
ATOM     26  H6  UNL     1      11.190 -13.566  22.751  1.00  0.00     0.208 HD
ENDBRANCH   9  22
TORSDOF 3
ENDMDL
MODEL 3
REMARK VINA RESULT: -7.213715993      2.739      3.670
REMARK  3 active torsions:
REMARK  status: ('A' for Active; 'I' for Inactive)
REMARK    1  A    between atoms: N1_2  and  C2_3 
REMARK    2  A    between atoms: N2_6  and  N3_7 
REMARK       I    between atoms: N3_7  and  C4_9 
REMARK       I    between atoms: C4_9  and  N4_11 
REMARK       I    between atoms: N4_11  and  C5_13 
REMARK       I    between atoms: C5_13  and  N5_15 
REMARK    3  A    between atoms: N5_15  and  N6_17 
ROOT
HETATM    1  N3  UNL     1      13.944 -12.167  19.247  1.00  0.00    -0.165 N 
ATOM      2  H3  UNL     1      13.740 -11.278  18.789  1.00  0.00     0.199 HD
HETATM    3  C4  UNL     1      13.270 -12.268  20.546  1.00  0.00     0.348 C 
HETATM    4  O1  UNL     1      13.204 -13.170  21.191  1.00  0.00    -0.245 OA
HETATM    5  N4  UNL     1      12.685 -10.838  20.761  1.00  0.00    -0.258 N 
ATOM      6  H4  UNL     1      12.683 -10.015  20.158  1.00  0.00     0.175 HD
HETATM    7  C5  UNL     1      12.042 -11.092  22.343  1.00  0.00     0.344 C 
HETATM    8  O2  UNL     1      11.456 -10.103  22.724  1.00  0.00    -0.245 OA
HETATM    9  N5  UNL     1      12.275 -12.325  22.936  1.00  0.00    -0.237 N 
ATOM     10  H5  UNL     1      13.220 -12.681  23.082  1.00  0.00     0.193 HD
ENDROOT
BRANCH   1  11
HETATM   11  N2  UNL     1      14.761 -12.935  18.495  1.00  0.00     0.041 N 
HETATM   12  C3  UNL     1      14.823 -12.591  17.080  1.00  0.00     0.501 C 
HETATM   13  N1  UNL     1      16.008 -13.209  16.490  1.00  0.00    -0.028 N 
HETATM   14  C1  UNL     1      16.982 -12.163  16.381  1.00  0.00     0.276 C 
HETATM   15  C8  UNL     1      16.448 -14.295  17.256  1.00  0.00     0.197 C 
HETATM   16  C7  UNL     1      17.023 -13.803  18.617  1.00  0.00     0.064 C 
HETATM   17  C9  UNL     1      15.258 -15.118  17.671  1.00  0.00     0.064 C 
HETATM   18  C6  UNL     1      16.033 -12.839  19.167  1.00  0.00     0.269 C 
HETATM   19  C10 UNL     1      14.334 -14.322  18.566  1.00  0.00     0.269 C 
BRANCH  13  20
HETATM   20  C2  UNL     1      15.778 -13.641  15.101  1.00  0.00     0.353 C 
HETATM   21 CL1  UNL     1      17.405 -13.933  14.349  1.00  0.00    -0.101 Cl
ENDBRANCH  13  20
ENDBRANCH   1  11
BRANCH   9  22
HETATM   22  N6  UNL     1      11.190 -13.021  23.305  1.00  0.00    -0.245 N 
HETATM   23  N7  UNL     1      10.051 -12.906  23.850  1.00  0.00    -0.331 N 
ATOM     24  H72 UNL     1       9.934 -11.921  24.085  1.00  0.00     0.178 HD
ATOM     25  H71 UNL     1       9.225 -13.435  24.130  1.00  0.00     0.178 HD
ATOM     26  H6  UNL     1      11.333 -14.000  23.058  1.00  0.00     0.208 HD
ENDBRANCH   9  22
TORSDOF 3
ENDMDL
MODEL 4
REMARK VINA RESULT: -7.140605861      1.095      1.917
REMARK  3 active torsions:
REMARK  status: ('A' for Active; 'I' for Inactive)
REMARK    1  A    between atoms: N1_2  and  C2_3 
REMARK    2  A    between atoms: N2_6  and  N3_7 
REMARK       I    between atoms: N3_7  and  C4_9 
REMARK       I    between atoms: C4_9  and  N4_11 
REMARK       I    between atoms: N4_11  and  C5_13 
REMARK       I    between atoms: C5_13  and  N5_15 
REMARK    3  A    between atoms: N5_15  and  N6_17 
ROOT
HETATM    1  N3  UNL     1      14.831 -14.379  22.181  1.00  0.00    -0.165 N 
ATOM      2  H3  UNL     1      14.438 -15.266  22.497  1.00  0.00     0.199 HD
HETATM    3  C4  UNL     1      13.895 -13.270  22.399  1.00  0.00     0.348 C 
HETATM    4  O1  UNL     1      14.109 -12.187  22.277  1.00  0.00    -0.245 OA
HETATM    5  N4  UNL     1      12.582 -13.988  22.842  1.00  0.00    -0.258 N 
ATOM      6  H4  UNL     1      12.381 -14.972  23.016  1.00  0.00     0.175 HD
HETATM    7  C5  UNL     1      11.581 -12.586  22.943  1.00  0.00     0.344 C 
HETATM    8  O2  UNL     1      10.478 -12.883  23.345  1.00  0.00    -0.245 OA
HETATM    9  N5  UNL     1      12.140 -11.373  22.565  1.00  0.00    -0.237 N 
ATOM     10  H5  UNL     1      12.533 -11.229  21.634  1.00  0.00     0.193 HD
ENDROOT
BRANCH   1  11
HETATM   11  N2  UNL     1      16.071 -14.540  21.674  1.00  0.00     0.041 N 
HETATM   12  C3  UNL     1      16.444 -13.613  20.613  1.00  0.00     0.501 C 
HETATM   13  N1  UNL     1      17.896 -13.631  20.451  1.00  0.00    -0.028 N 
HETATM   14  C1  UNL     1      18.378 -12.451  21.108  1.00  0.00     0.276 C 
HETATM   15  C8  UNL     1      18.449 -14.811  20.961  1.00  0.00     0.197 C 
HETATM   16  C7  UNL     1      18.328 -14.842  22.513  1.00  0.00     0.064 C 
HETATM   17  C9  UNL     1      17.598 -15.977  20.534  1.00  0.00     0.064 C 
HETATM   18  C6  UNL     1      16.926 -14.461  22.833  1.00  0.00     0.269 C 
HETATM   19  C10 UNL     1      16.207 -15.877  21.124  1.00  0.00     0.269 C 
BRANCH  13  20
HETATM   20  C2  UNL     1      18.302 -13.458  19.046  1.00  0.00     0.353 C 
HETATM   21 CL1  UNL     1      20.116 -13.389  19.012  1.00  0.00    -0.101 Cl
ENDBRANCH  13  20
ENDBRANCH   1  11
BRANCH   9  22
HETATM   22  N6  UNL     1      12.136 -10.403  23.491  1.00  0.00    -0.245 N 
HETATM   23  N7  UNL     1      11.774 -10.135  24.675  1.00  0.00    -0.331 N 
ATOM     24  H72 UNL     1      11.324 -10.974  25.042  1.00  0.00     0.178 HD
ATOM     25  H71 UNL     1      11.771  -9.398  25.379  1.00  0.00     0.178 HD
ATOM     26  H6  UNL     1      12.591  -9.578  23.098  1.00  0.00     0.208 HD
ENDBRANCH   9  22
TORSDOF 3
ENDMDL
MODEL 5
REMARK VINA RESULT: -7.086454380      1.624      1.984
REMARK  3 active torsions:
REMARK  status: ('A' for Active; 'I' for Inactive)
REMARK    1  A    between atoms: N1_2  and  C2_3 
REMARK    2  A    between atoms: N2_6  and  N3_7 
REMARK       I    between atoms: N3_7  and  C4_9 
REMARK       I    between atoms: C4_9  and  N4_11 
REMARK       I    between atoms: N4_11  and  C5_13 
REMARK       I    between atoms: C5_13  and  N5_15 
REMARK    3  A    between atoms: N5_15  and  N6_17 
ROOT
HETATM    1  N3  UNL     1      14.879 -12.184  20.210  1.00  0.00    -0.165 N 
ATOM      2  H3  UNL     1      14.631 -11.571  19.432  1.00  0.00     0.199 HD
HETATM    3  C4  UNL     1      13.881 -12.119  21.283  1.00  0.00     0.348 C 
HETATM    4  O1  UNL     1      13.824 -12.775  22.178  1.00  0.00    -0.245 OA
HETATM    5  N4  UNL     1      12.954 -10.944  20.843  1.00  0.00    -0.258 N 
ATOM      6  H4  UNL     1      12.952 -10.369  20.001  1.00  0.00     0.175 HD
HETATM    7  C5  UNL     1      11.933 -10.928  22.235  1.00  0.00     0.344 C 
HETATM    8  O2  UNL     1      11.053 -10.106  22.103  1.00  0.00    -0.245 OA
HETATM    9  N5  UNL     1      12.243 -11.805  23.264  1.00  0.00    -0.237 N 
ATOM     10  H5  UNL     1      13.152 -11.792  23.727  1.00  0.00     0.193 HD
ENDROOT
BRANCH   1  11
HETATM   11  N2  UNL     1      16.036 -12.838  19.975  1.00  0.00     0.041 N 
HETATM   12  C3  UNL     1      17.173 -12.418  20.785  1.00  0.00     0.501 C 
HETATM   13  N1  UNL     1      18.209 -13.446  20.722  1.00  0.00    -0.028 N 
HETATM   14  C1  UNL     1      18.110 -14.178  21.950  1.00  0.00     0.276 C 
HETATM   15  C8  UNL     1      18.058 -14.250  19.587  1.00  0.00     0.197 C 
HETATM   16  C7  UNL     1      16.781 -15.132  19.711  1.00  0.00     0.064 C 
HETATM   17  C9  UNL     1      17.748 -13.374  18.401  1.00  0.00     0.064 C 
HETATM   18  C6  UNL     1      15.686 -14.226  20.150  1.00  0.00     0.269 C 
HETATM   19  C10 UNL     1      16.428 -12.659  18.587  1.00  0.00     0.269 C 
BRANCH  13  20
HETATM   20  C2  UNL     1      19.565 -12.871  20.747  1.00  0.00     0.353 C 
HETATM   21 CL1  UNL     1      20.714 -14.213  21.168  1.00  0.00    -0.101 Cl
ENDBRANCH  13  20
ENDBRANCH   1  11
BRANCH   9  22
HETATM   22  N6  UNL     1      11.281 -12.671  23.617  1.00  0.00    -0.245 N 
HETATM   23  N7  UNL     1      10.067 -12.746  23.971  1.00  0.00    -0.331 N 
ATOM     24  H72 UNL     1       9.705 -11.792  23.988  1.00  0.00     0.178 HD
ATOM     25  H71 UNL     1       9.335 -13.404  24.239  1.00  0.00     0.178 HD
ATOM     26  H6  UNL     1      11.669 -13.615  23.591  1.00  0.00     0.208 HD
ENDBRANCH   9  22
TORSDOF 3
ENDMDL
