MODEL 1
REMARK VINA RESULT: -3.668681157      0.000      0.000
REMARK  1 active torsions:
REMARK  status: ('A' for Active; 'I' for Inactive)
REMARK    1  A    between atoms: N1_2  and  C4_5 
ROOT
HETATM    1  C4  UNL     1      12.093 -11.962  21.946  1.00  0.00     0.240 C 
HETATM    2  C5  UNL     1      11.637 -10.674  22.502  1.00  0.00     0.267 C 
HETATM    3  N2  UNL     1      11.966 -11.137  23.855  1.00  0.00    -0.071 N 
ATOM      4  H21 UNL     1      11.447 -10.805  24.667  1.00  0.00     0.277 HD
ATOM      5  H22 UNL     1      12.828 -10.848  24.317  1.00  0.00     0.277 HD
HETATM    6  C6  UNL     1      11.799 -12.475  23.364  1.00  0.00     0.267 C 
ENDROOT
BRANCH   1   7
HETATM    7  N1  UNL     1      13.416 -12.137  21.503  1.00  0.00    -0.071 N 
HETATM    8  C1  UNL     1      14.268 -10.990  21.565  1.00  0.00     0.272 C 
HETATM    9  C2  UNL     1      13.413 -12.581  20.094  1.00  0.00     0.272 C 
HETATM   10  C3  UNL     1      14.128 -13.231  22.187  1.00  0.00     0.272 C 
ENDBRANCH   1   7
TORSDOF 1
ENDMDL
MODEL 2
REMARK VINA RESULT: -3.578331335      1.081      1.578
REMARK  1 active torsions:
REMARK  status: ('A' for Active; 'I' for Inactive)
REMARK    1  A    between atoms: N1_2  and  C4_5 
ROOT
HETATM    1  C4  UNL     1      12.825 -11.669  21.359  1.00  0.00     0.240 C 
HETATM    2  C5  UNL     1      13.574 -10.476  21.797  1.00  0.00     0.267 C 
HETATM    3  N2  UNL     1      12.806 -10.451  23.047  1.00  0.00    -0.071 N 
ATOM      4  H21 UNL     1      12.617  -9.574  23.532  1.00  0.00     0.277 HD
ATOM      5  H22 UNL     1      13.198 -10.817  23.915  1.00  0.00     0.277 HD
HETATM    6  C6  UNL     1      11.770 -11.152  22.346  1.00  0.00     0.267 C 
ENDROOT
BRANCH   1   7
HETATM    7  N1  UNL     1      13.306 -12.967  21.614  1.00  0.00    -0.071 N 
HETATM    8  C1  UNL     1      14.706 -13.087  21.880  1.00  0.00     0.272 C 
HETATM    9  C2  UNL     1      13.023 -13.838  20.455  1.00  0.00     0.272 C 
HETATM   10  C3  UNL     1      12.605 -13.651  22.714  1.00  0.00     0.272 C 
ENDBRANCH   1   7
TORSDOF 1
ENDMDL
MODEL 3
REMARK VINA RESULT: -3.564492185      0.208      1.432
REMARK  1 active torsions:
REMARK  status: ('A' for Active; 'I' for Inactive)
REMARK    1  A    between atoms: N1_2  and  C4_5 
ROOT
HETATM    1  C4  UNL     1      11.956 -11.852  22.030  1.00  0.00     0.240 C 
HETATM    2  C5  UNL     1      11.619 -10.597  22.728  1.00  0.00     0.267 C 
HETATM    3  N2  UNL     1      11.876 -11.243  24.020  1.00  0.00    -0.071 N 
ATOM      4  H21 UNL     1      11.379 -10.955  24.862  1.00  0.00     0.277 HD
ATOM      5  H22 UNL     1      12.754 -11.096  24.519  1.00  0.00     0.277 HD
HETATM    6  C6  UNL     1      11.588 -12.492  23.377  1.00  0.00     0.267 C 
ENDROOT
BRANCH   1   7
HETATM    7  N1  UNL     1      13.264 -12.106  21.578  1.00  0.00    -0.071 N 
HETATM    8  C1  UNL     1      14.004 -13.102  22.289  1.00  0.00     0.272 C 
HETATM    9  C2  UNL     1      14.061 -10.864  21.644  1.00  0.00     0.272 C 
HETATM   10  C3  UNL     1      13.336 -12.463  20.150  1.00  0.00     0.272 C 
ENDBRANCH   1   7
TORSDOF 1
ENDMDL
MODEL 4
REMARK VINA RESULT: -3.506329978      1.705      2.576
REMARK  1 active torsions:
REMARK  status: ('A' for Active; 'I' for Inactive)
REMARK    1  A    between atoms: N1_2  and  C4_5 
ROOT
HETATM    1  C4  UNL     1      13.801 -11.984  21.890  1.00  0.00     0.240 C 
HETATM    2  C5  UNL     1      12.392 -11.794  21.497  1.00  0.00     0.267 C 
HETATM    3  N2  UNL     1      12.754 -10.564  20.783  1.00  0.00    -0.071 N 
ATOM      4  H21 UNL     1      12.092  -9.794  20.688  1.00  0.00     0.277 HD
ATOM      5  H22 UNL     1      12.870 -10.556  19.769  1.00  0.00     0.277 HD
HETATM    6  C6  UNL     1      13.885 -10.468  21.660  1.00  0.00     0.267 C 
ENDROOT
BRANCH   1   7
HETATM    7  N1  UNL     1      14.676 -12.763  21.110  1.00  0.00    -0.071 N 
HETATM    8  C1  UNL     1      14.116 -13.385  19.951  1.00  0.00     0.272 C 
HETATM    9  C2  UNL     1      15.244 -13.847  21.936  1.00  0.00     0.272 C 
HETATM   10  C3  UNL     1      15.875 -12.033  20.662  1.00  0.00     0.272 C 
ENDBRANCH   1   7
TORSDOF 1
ENDMDL
MODEL 5
REMARK VINA RESULT: -3.485820033      1.323      2.285
REMARK  1 active torsions:
REMARK  status: ('A' for Active; 'I' for Inactive)
REMARK    1  A    between atoms: N1_2  and  C4_5 
ROOT
HETATM    1  C4  UNL     1      13.195 -12.138  22.300  1.00  0.00     0.240 C 
HETATM    2  C5  UNL     1      11.838 -11.648  22.609  1.00  0.00     0.267 C 
HETATM    3  N2  UNL     1      11.976 -10.609  21.582  1.00  0.00    -0.071 N 
ATOM      4  H21 UNL     1      11.497  -9.713  21.670  1.00  0.00     0.277 HD
ATOM      5  H22 UNL     1      11.553 -10.717  20.660  1.00  0.00     0.277 HD
HETATM    6  C6  UNL     1      13.395 -10.712  21.765  1.00  0.00     0.267 C 
ENDROOT
BRANCH   1   7
HETATM    7  N1  UNL     1      13.403 -13.169  21.365  1.00  0.00    -0.071 N 
HETATM    8  C1  UNL     1      12.315 -14.073  21.161  1.00  0.00     0.272 C 
HETATM    9  C2  UNL     1      14.559 -13.988  21.780  1.00  0.00     0.272 C 
HETATM   10  C3  UNL     1      13.809 -12.685  20.034  1.00  0.00     0.272 C 
ENDBRANCH   1   7
TORSDOF 1
ENDMDL
