MODEL 1
REMARK VINA RESULT: -4.059154827      0.000      0.000
REMARK  1 active torsions:
REMARK  status: ('A' for Active; 'I' for Inactive)
REMARK    1  A    between atoms: C2_2  and  N1_3 
ROOT
HETATM    1  N1  UNL     1      13.159 -11.970  21.862  1.00  0.00    -0.040 N 
HETATM    2  C3  UNL     1      13.788 -10.699  21.798  1.00  0.00     0.468 C 
HETATM    3  N2  UNL     1      15.022 -11.043  21.056  1.00  0.00    -0.043 N 
ATOM      4  H21 UNL     1      15.901 -10.887  21.551  1.00  0.00     0.279 HD
ATOM      5  H22 UNL     1      15.262 -10.430  20.277  1.00  0.00     0.279 HD
HETATM    6  C4  UNL     1      14.723 -12.399  20.720  1.00  0.00     0.239 C 
HETATM    7  C5  UNL     1      14.231 -12.951  22.032  1.00  0.00     0.274 C 
HETATM    8  C6  UNL     1      13.217 -12.356  20.436  1.00  0.00     0.274 C 
ENDROOT
BRANCH   1   9
HETATM    9  C2  UNL     1      11.960 -12.168  22.533  1.00  0.00     0.235 C 
HETATM   10  C1  UNL     1      11.425 -10.941  23.234  1.00  0.00     0.035 C 
ENDBRANCH   1   9
TORSDOF 1
ENDMDL
MODEL 2
REMARK VINA RESULT: -3.739015851      1.530      2.527
REMARK  1 active torsions:
REMARK  status: ('A' for Active; 'I' for Inactive)
REMARK    1  A    between atoms: C2_2  and  N1_3 
ROOT
HETATM    1  N1  UNL     1      12.950 -12.729  21.744  1.00  0.00    -0.040 N 
HETATM    2  C3  UNL     1      12.315 -13.282  22.887  1.00  0.00     0.468 C 
HETATM    3  N2  UNL     1      12.768 -14.688  22.796  1.00  0.00    -0.043 N 
ATOM      4  H21 UNL     1      12.036 -15.389  22.680  1.00  0.00     0.279 HD
ATOM      5  H22 UNL     1      13.132 -15.099  23.656  1.00  0.00     0.279 HD
HETATM    6  C4  UNL     1      13.697 -14.566  21.717  1.00  0.00     0.239 C 
HETATM    7  C5  UNL     1      12.912 -13.764  20.712  1.00  0.00     0.274 C 
HETATM    8  C6  UNL     1      14.334 -13.195  21.969  1.00  0.00     0.274 C 
ENDROOT
BRANCH   1   9
HETATM    9  C2  UNL     1      12.770 -11.405  21.368  1.00  0.00     0.235 C 
HETATM   10  C1  UNL     1      11.788 -10.638  22.224  1.00  0.00     0.035 C 
ENDBRANCH   1   9
TORSDOF 1
ENDMDL
MODEL 3
REMARK VINA RESULT: -3.699775182      1.140      1.223
REMARK  1 active torsions:
REMARK  status: ('A' for Active; 'I' for Inactive)
REMARK    1  A    between atoms: C2_2  and  N1_3 
ROOT
HETATM    1  N1  UNL     1      12.770 -12.469  22.000  1.00  0.00    -0.040 N 
HETATM    2  C3  UNL     1      12.878 -11.464  21.004  1.00  0.00     0.468 C 
HETATM    3  N2  UNL     1      13.727 -12.157  20.008  1.00  0.00    -0.043 N 
ATOM      4  H21 UNL     1      14.633 -11.728  19.816  1.00  0.00     0.279 HD
ATOM      5  H22 UNL     1      13.412 -12.110  19.040  1.00  0.00     0.279 HD
HETATM    6  C4  UNL     1      13.760 -13.459  20.595  1.00  0.00     0.239 C 
HETATM    7  C5  UNL     1      14.065 -13.149  22.038  1.00  0.00     0.274 C 
HETATM    8  C6  UNL     1      12.346 -13.613  21.166  1.00  0.00     0.274 C 
ENDROOT
BRANCH   1   9
HETATM    9  C2  UNL     1      12.093 -12.257  23.193  1.00  0.00     0.235 C 
HETATM   10  C1  UNL     1      11.473 -10.885  23.327  1.00  0.00     0.035 C 
ENDBRANCH   1   9
TORSDOF 1
ENDMDL
MODEL 4
REMARK VINA RESULT: -3.646179829      1.294      1.913
REMARK  1 active torsions:
REMARK  status: ('A' for Active; 'I' for Inactive)
REMARK    1  A    between atoms: C2_2  and  N1_3 
ROOT
HETATM    1  N1  UNL     1      13.334 -12.657  21.274  1.00  0.00    -0.040 N 
HETATM    2  C3  UNL     1      13.204 -11.253  21.437  1.00  0.00     0.468 C 
HETATM    3  N2  UNL     1      14.610 -10.827  21.263  1.00  0.00    -0.043 N 
ATOM      4  H21 UNL     1      15.042 -10.367  22.066  1.00  0.00     0.279 HD
ATOM      5  H22 UNL     1      14.766 -10.042  20.631  1.00  0.00     0.279 HD
HETATM    6  C4  UNL     1      15.186 -12.074  20.870  1.00  0.00     0.239 C 
HETATM    7  C5  UNL     1      14.610 -13.024  21.887  1.00  0.00     0.274 C 
HETATM    8  C6  UNL     1      14.087 -12.699  20.003  1.00  0.00     0.274 C 
ENDROOT
BRANCH   1   9
HETATM    9  C2  UNL     1      12.255 -13.520  21.411  1.00  0.00     0.235 C 
HETATM   10  C1  UNL     1      12.401 -14.827  20.667  1.00  0.00     0.035 C 
ENDBRANCH   1   9
TORSDOF 1
ENDMDL
MODEL 5
REMARK VINA RESULT: -3.627279553      0.851      1.586
REMARK  1 active torsions:
REMARK  status: ('A' for Active; 'I' for Inactive)
REMARK    1  A    between atoms: C2_2  and  N1_3 
ROOT
HETATM    1  N1  UNL     1      13.303 -12.339  21.396  1.00  0.00    -0.040 N 
HETATM    2  C3  UNL     1      13.419 -12.702  20.029  1.00  0.00     0.468 C 
HETATM    3  N2  UNL     1      14.840 -12.370  19.779  1.00  0.00    -0.043 N 
ATOM      4  H21 UNL     1      15.015 -11.652  19.076  1.00  0.00     0.279 HD
ATOM      5  H22 UNL     1      15.389 -13.083  19.299  1.00  0.00     0.279 HD
HETATM    6  C4  UNL     1      15.245 -12.057  21.112  1.00  0.00     0.239 C 
HETATM    7  C5  UNL     1      14.136 -11.150  21.577  1.00  0.00     0.274 C 
HETATM    8  C6  UNL     1      14.461 -13.068  21.955  1.00  0.00     0.274 C 
ENDROOT
BRANCH   1   9
HETATM    9  C2  UNL     1      12.099 -12.420  22.083  1.00  0.00     0.235 C 
HETATM   10  C1  UNL     1      11.620 -11.111  22.666  1.00  0.00     0.035 C 
ENDBRANCH   1   9
TORSDOF 1
ENDMDL
