MODEL 1
REMARK VINA RESULT: -5.751325864      0.000      0.000
REMARK  5 active torsions:
REMARK  status: ('A' for Active; 'I' for Inactive)
REMARK    1  A    between atoms: C3_3  and  C4_4 
REMARK    2  A    between atoms: C5_5  and  C6_6 
REMARK    3  A    between atoms: C6_6  and  O1_7 
REMARK    4  A    between atoms: C12_15  and  N1_16 
REMARK    5  A    between atoms: N1_16  and  C13_18 
ROOT
HETATM    1  C1  UNL     1      44.265   3.478  36.350  1.00  0.00     0.113 C 
HETATM    2  C2  UNL     1      43.797   2.434  35.434  1.00  0.00    -0.097 C 
HETATM    3  C3  UNL     1      43.416   1.558  34.692  1.00  0.00    -0.015 C 
ENDROOT
BRANCH   3   4
HETATM    4  C4  UNL     1      42.953   0.523  33.840  1.00  0.00    -0.011 C 
HETATM    5  C5  UNL     1      42.577  -0.364  33.107  1.00  0.00    -0.046 C 
BRANCH   5   6
HETATM    6  C6  UNL     1      42.126  -1.478  32.222  1.00  0.00     0.185 C 
HETATM    7  C7  UNL     1      42.910  -2.666  32.628  1.00  0.00     0.103 C 
HETATM    8  C8  UNL     1      42.707  -3.950  31.978  1.00  0.00     0.112 C 
HETATM    9  F1  UNL     1      43.043  -4.995  32.868  1.00  0.00    -0.242 F 
HETATM   10  C9  UNL     1      41.437  -4.304  31.308  1.00  0.00     0.049 C 
HETATM   11  C17 UNL     1      43.444  -4.201  30.696  1.00  0.00     0.032 C 
HETATM   12  C10 UNL     1      42.193  -4.743  30.056  1.00  0.00    -0.002 C 
HETATM   13  C11 UNL     1      41.901  -3.882  28.845  1.00  0.00     0.036 C 
HETATM   14  C12 UNL     1      42.776  -2.658  28.955  1.00  0.00     0.040 C 
HETATM   15  C14 UNL     1      41.888  -1.514  29.455  1.00  0.00     0.113 C 
HETATM   16  C16 UNL     1      43.854  -2.987  29.938  1.00  0.00     0.039 C 
HETATM   17  C15 UNL     1      42.271  -1.074  30.803  1.00  0.00     0.176 C 
HETATM   18  O3  UNL     1      42.928  -0.024  30.716  1.00  0.00    -0.293 OA
BRANCH   6  19
HETATM   19  O1  UNL     1      40.759  -1.629  32.567  1.00  0.00    -0.370 OA
ATOM     20  H1  UNL     1      40.307  -1.203  31.849  1.00  0.00     0.212 HD
ENDBRANCH   6  19
BRANCH  14  21
HETATM   21  N1  UNL     1      43.299  -2.353  27.639  1.00  0.00    -0.359 N 
ATOM     22  H1  UNL     1      42.805  -2.746  26.838  1.00  0.00     0.162 HD
BRANCH  21  23
HETATM   23  C13 UNL     1      44.423  -1.567  27.374  1.00  0.00     0.349 C 
HETATM   24  O2  UNL     1      45.213  -1.837  26.433  1.00  0.00    -0.284 OA
ENDBRANCH  21  23
ENDBRANCH  14  21
ENDBRANCH   5   6
ENDBRANCH   3   4
TORSDOF 5
ENDMDL
MODEL 2
REMARK VINA RESULT: -5.655478565      1.866      1.879
REMARK  5 active torsions:
REMARK  status: ('A' for Active; 'I' for Inactive)
REMARK    1  A    between atoms: C3_3  and  C4_4 
REMARK    2  A    between atoms: C5_5  and  C6_6 
REMARK    3  A    between atoms: C6_6  and  O1_7 
REMARK    4  A    between atoms: C12_15  and  N1_16 
REMARK    5  A    between atoms: N1_16  and  C13_18 
ROOT
HETATM    1  C1  UNL     1      47.913   0.562  36.950  1.00  0.00     0.113 C 
HETATM    2  C2  UNL     1      46.889   0.152  35.984  1.00  0.00    -0.097 C 
HETATM    3  C3  UNL     1      46.044  -0.204  35.196  1.00  0.00    -0.015 C 
ENDROOT
BRANCH   3   4
HETATM    4  C4  UNL     1      45.036  -0.627  34.292  1.00  0.00    -0.011 C 
HETATM    5  C5  UNL     1      44.183  -1.008  33.523  1.00  0.00    -0.046 C 
BRANCH   5   6
HETATM    6  C6  UNL     1      43.118  -1.491  32.595  1.00  0.00     0.185 C 
HETATM    7  C7  UNL     1      42.938  -2.930  32.894  1.00  0.00     0.103 C 
HETATM    8  C8  UNL     1      41.951  -3.720  32.180  1.00  0.00     0.112 C 
HETATM    9  F1  UNL     1      41.521  -4.795  32.990  1.00  0.00    -0.242 F 
HETATM   10  C9  UNL     1      40.759  -3.113  31.549  1.00  0.00     0.049 C 
HETATM   11  C17 UNL     1      42.350  -4.293  30.852  1.00  0.00     0.032 C 
HETATM   12  C10 UNL     1      41.050  -3.843  30.240  1.00  0.00    -0.002 C 
HETATM   13  C11 UNL     1      41.393  -2.912  29.097  1.00  0.00     0.036 C 
HETATM   14  C12 UNL     1      42.854  -2.562  29.237  1.00  0.00     0.040 C 
HETATM   15  C14 UNL     1      42.923  -1.157  29.844  1.00  0.00     0.113 C 
HETATM   16  C16 UNL     1      43.454  -3.585  30.149  1.00  0.00     0.039 C 
HETATM   17  C15 UNL     1      43.496  -1.174  31.197  1.00  0.00     0.176 C 
HETATM   18  O3  UNL     1      44.679  -0.799  31.141  1.00  0.00    -0.293 OA
BRANCH   6  19
HETATM   19  O1  UNL     1      41.982  -0.743  32.994  1.00  0.00    -0.370 OA
ATOM     20  H1  UNL     1      41.685  -1.201  33.771  1.00  0.00     0.212 HD
ENDBRANCH   6  19
BRANCH  14  21
HETATM   21  N1  UNL     1      43.454  -2.574  27.919  1.00  0.00    -0.359 N 
ATOM     22  H1  UNL     1      43.286  -3.394  27.337  1.00  0.00     0.162 HD
BRANCH  21  23
HETATM   23  C13 UNL     1      44.242  -1.555  27.377  1.00  0.00     0.349 C 
HETATM   24  O2  UNL     1      45.229  -1.805  26.639  1.00  0.00    -0.284 OA
ENDBRANCH  21  23
ENDBRANCH  14  21
ENDBRANCH   5   6
ENDBRANCH   3   4
TORSDOF 5
ENDMDL
MODEL 3
REMARK VINA RESULT: -5.548995619      3.137      5.857
REMARK  5 active torsions:
REMARK  status: ('A' for Active; 'I' for Inactive)
REMARK    1  A    between atoms: C3_3  and  C4_4 
REMARK    2  A    between atoms: C5_5  and  C6_6 
REMARK    3  A    between atoms: C6_6  and  O1_7 
REMARK    4  A    between atoms: C12_15  and  N1_16 
REMARK    5  A    between atoms: N1_16  and  C13_18 
ROOT
HETATM    1  C1  UNL     1      44.541 -10.973  31.291  1.00  0.00     0.113 C 
HETATM    2  C2  UNL     1      44.138  -9.564  31.312  1.00  0.00    -0.097 C 
HETATM    3  C3  UNL     1      43.788  -8.406  31.339  1.00  0.00    -0.015 C 
ENDROOT
BRANCH   3   4
HETATM    4  C4  UNL     1      43.376  -7.051  31.397  1.00  0.00    -0.011 C 
HETATM    5  C5  UNL     1      43.005  -5.900  31.447  1.00  0.00    -0.046 C 
BRANCH   5   6
HETATM    6  C6  UNL     1      42.538  -4.485  31.535  1.00  0.00     0.185 C 
HETATM    7  C7  UNL     1      41.111  -4.500  31.140  1.00  0.00     0.103 C 
HETATM    8  C8  UNL     1      40.326  -3.278  31.134  1.00  0.00     0.112 C 
HETATM    9  F1  UNL     1      38.963  -3.583  31.346  1.00  0.00    -0.242 F 
HETATM   10  C9  UNL     1      40.675  -2.112  31.974  1.00  0.00     0.049 C 
HETATM   11  C17 UNL     1      40.406  -2.410  29.913  1.00  0.00     0.032 C 
HETATM   12  C10 UNL     1      40.574  -1.182  30.768  1.00  0.00    -0.002 C 
HETATM   13  C11 UNL     1      41.895  -0.548  30.386  1.00  0.00     0.036 C 
HETATM   14  C12 UNL     1      42.644  -1.560  29.554  1.00  0.00     0.040 C 
HETATM   15  C14 UNL     1      43.697  -2.199  30.465  1.00  0.00     0.113 C 
HETATM   16  C16 UNL     1      41.636  -2.564  29.089  1.00  0.00     0.039 C 
HETATM   17  C15 UNL     1      43.416  -3.619  30.713  1.00  0.00     0.176 C 
HETATM   18  O3  UNL     1      44.160  -4.311  29.998  1.00  0.00    -0.293 OA
BRANCH   6  19
HETATM   19  O1  UNL     1      42.679  -4.185  32.914  1.00  0.00    -0.370 OA
ATOM     20  H1  UNL     1      43.415  -3.584  32.929  1.00  0.00     0.212 HD
ENDBRANCH   6  19
BRANCH  14  21
HETATM   21  N1  UNL     1      43.281  -0.864  28.455  1.00  0.00    -0.359 N 
ATOM     22  H1  UNL     1      43.319   0.154  28.507  1.00  0.00     0.162 HD
BRANCH  21  23
HETATM   23  C13 UNL     1      43.848  -1.469  27.330  1.00  0.00     0.349 C 
HETATM   24  O2  UNL     1      43.791  -0.936  26.193  1.00  0.00    -0.284 OA
ENDBRANCH  21  23
ENDBRANCH  14  21
ENDBRANCH   5   6
ENDBRANCH   3   4
TORSDOF 5
ENDMDL
MODEL 4
REMARK VINA RESULT: -5.451553129      3.414      6.662
REMARK  5 active torsions:
REMARK  status: ('A' for Active; 'I' for Inactive)
REMARK    1  A    between atoms: C3_3  and  C4_4 
REMARK    2  A    between atoms: C5_5  and  C6_6 
REMARK    3  A    between atoms: C6_6  and  O1_7 
REMARK    4  A    between atoms: C12_15  and  N1_16 
REMARK    5  A    between atoms: N1_16  and  C13_18 
ROOT
HETATM    1  C1  UNL     1      45.250 -11.306  32.379  1.00  0.00     0.113 C 
HETATM    2  C2  UNL     1      44.653 -10.071  31.863  1.00  0.00    -0.097 C 
HETATM    3  C3  UNL     1      44.162  -9.043  31.456  1.00  0.00    -0.015 C 
ENDROOT
BRANCH   3   4
HETATM    4  C4  UNL     1      43.608  -7.826  30.985  1.00  0.00    -0.011 C 
HETATM    5  C5  UNL     1      43.150  -6.776  30.592  1.00  0.00    -0.046 C 
BRANCH   5   6
HETATM    6  C6  UNL     1      42.608  -5.479  30.091  1.00  0.00     0.185 C 
HETATM    7  C7  UNL     1      43.750  -4.774  29.464  1.00  0.00     0.103 C 
HETATM    8  C8  UNL     1      43.573  -3.472  28.847  1.00  0.00     0.112 C 
HETATM    9  F1  UNL     1      44.537  -3.289  27.830  1.00  0.00    -0.242 F 
HETATM   10  C9  UNL     1      42.265  -3.014  28.330  1.00  0.00     0.049 C 
HETATM   11  C17 UNL     1      43.632  -2.268  29.739  1.00  0.00     0.032 C 
HETATM   12  C10 UNL     1      42.399  -1.696  29.089  1.00  0.00    -0.002 C 
HETATM   13  C11 UNL     1      41.360  -1.521  30.176  1.00  0.00     0.036 C 
HETATM   14  C12 UNL     1      41.855  -2.277  31.384  1.00  0.00     0.040 C 
HETATM   15  C14 UNL     1      41.076  -3.595  31.439  1.00  0.00     0.113 C 
HETATM   16  C16 UNL     1      43.318  -2.511  31.174  1.00  0.00     0.039 C 
HETATM   17  C15 UNL     1      41.946  -4.754  31.201  1.00  0.00     0.176 C 
HETATM   18  O3  UNL     1      42.204  -5.298  32.288  1.00  0.00    -0.293 OA
BRANCH   6  19
HETATM   19  O1  UNL     1      41.663  -5.881  29.114  1.00  0.00    -0.370 OA
ATOM     20  H1  UNL     1      41.388  -5.058  28.729  1.00  0.00     0.212 HD
ENDBRANCH   6  19
BRANCH  14  21
HETATM   21  N1  UNL     1      41.585  -1.480  32.562  1.00  0.00    -0.359 N 
ATOM     22  H1  UNL     1      40.640  -1.519  32.945  1.00  0.00     0.162 HD
BRANCH  21  23
HETATM   23  C13 UNL     1      42.508  -0.663  33.220  1.00  0.00     0.349 C 
HETATM   24  O2  UNL     1      42.855   0.452  32.753  1.00  0.00    -0.284 OA
ENDBRANCH  21  23
ENDBRANCH  14  21
ENDBRANCH   5   6
ENDBRANCH   3   4
TORSDOF 5
ENDMDL
MODEL 5
REMARK VINA RESULT: -5.402795845      3.135      4.074
REMARK  5 active torsions:
REMARK  status: ('A' for Active; 'I' for Inactive)
REMARK    1  A    between atoms: C3_3  and  C4_4 
REMARK    2  A    between atoms: C5_5  and  C6_6 
REMARK    3  A    between atoms: C6_6  and  O1_7 
REMARK    4  A    between atoms: C12_15  and  N1_16 
REMARK    5  A    between atoms: N1_16  and  C13_18 
ROOT
HETATM    1  C1  UNL     1      47.442  -0.123  35.967  1.00  0.00     0.113 C 
HETATM    2  C2  UNL     1      46.296  -0.247  35.061  1.00  0.00    -0.097 C 
HETATM    3  C3  UNL     1      45.363  -0.355  34.299  1.00  0.00    -0.015 C 
ENDROOT
BRANCH   3   4
HETATM    4  C4  UNL     1      44.276  -0.506  33.401  1.00  0.00    -0.011 C 
HETATM    5  C5  UNL     1      43.336  -0.641  32.651  1.00  0.00    -0.046 C 
BRANCH   5   6
HETATM    6  C6  UNL     1      42.163  -0.785  31.739  1.00  0.00     0.185 C 
HETATM    7  C7  UNL     1      40.966  -0.509  32.565  1.00  0.00     0.103 C 
HETATM    8  C8  UNL     1      39.636  -0.542  31.983  1.00  0.00     0.112 C 
HETATM    9  F1  UNL     1      38.774   0.311  32.709  1.00  0.00    -0.242 F 
HETATM   10  C9  UNL     1      39.399  -0.317  30.540  1.00  0.00     0.049 C 
HETATM   11  C17 UNL     1      38.958  -1.876  31.877  1.00  0.00     0.032 C 
HETATM   12  C10 UNL     1      38.546  -1.581  30.459  1.00  0.00    -0.002 C 
HETATM   13  C11 UNL     1      39.150  -2.658  29.584  1.00  0.00     0.036 C 
HETATM   14  C12 UNL     1      40.167  -3.389  30.425  1.00  0.00     0.040 C 
HETATM   15  C14 UNL     1      41.548  -2.871  30.011  1.00  0.00     0.113 C 
HETATM   16  C16 UNL     1      39.861  -3.059  31.852  1.00  0.00     0.039 C 
HETATM   17  C15 UNL     1      42.197  -2.119  31.093  1.00  0.00     0.176 C 
HETATM   18  O3  UNL     1      43.048  -2.842  31.637  1.00  0.00    -0.293 OA
BRANCH   6  19
HETATM   19  O1  UNL     1      42.370   0.244  30.785  1.00  0.00    -0.370 OA
ATOM     20  H1  UNL     1      41.576   0.219  30.266  1.00  0.00     0.212 HD
ENDBRANCH   6  19
BRANCH  14  21
HETATM   21  N1  UNL     1      40.055  -4.806  30.147  1.00  0.00    -0.359 N 
ATOM     22  H1  UNL     1      39.260  -5.109  29.584  1.00  0.00     0.162 HD
BRANCH  21  23
HETATM   23  C13 UNL     1      40.943  -5.792  30.584  1.00  0.00     0.349 C 
HETATM   24  O2  UNL     1      41.595  -6.501  29.775  1.00  0.00    -0.284 OA
ENDBRANCH  21  23
ENDBRANCH  14  21
ENDBRANCH   5   6
ENDBRANCH   3   4
TORSDOF 5
ENDMDL
