MODEL 1
REMARK VINA RESULT: -5.242603823      0.000      0.000
REMARK  2 active torsions:
REMARK  status: ('A' for Active; 'I' for Inactive)
REMARK    1  A    between atoms: O1_1  and  C1_3 
REMARK    2  A    between atoms: C11_17  and  C12_18 
ROOT
HETATM    1  C1  UNL     1      43.265  -3.563  28.858  1.00  0.00     0.154 C 
HETATM    2  C2  UNL     1      43.447  -3.454  27.387  1.00  0.00     0.264 C 
HETATM    3  N1  UNL     1      44.375  -2.417  26.992  1.00  0.00    -0.073 N 
ATOM      4  H11 UNL     1      44.439  -2.340  25.978  1.00  0.00     0.277 HD
ATOM      5  H12 UNL     1      45.339  -2.683  27.191  1.00  0.00     0.277 HD
HETATM    6  C3  UNL     1      44.036  -1.144  27.603  1.00  0.00     0.233 C 
HETATM    7  C4  UNL     1      44.161  -1.289  29.082  1.00  0.00     0.041 C 
HETATM    8  C5  UNL     1      43.131  -2.253  29.580  1.00  0.00     0.015 C 
HETATM    9  C6  UNL     1      41.747  -1.668  29.457  1.00  0.00     0.041 C 
HETATM   10  C7  UNL     1      41.389  -1.239  30.866  1.00  0.00     0.239 C 
HETATM   11  N2  UNL     1      42.181  -1.993  31.761  1.00  0.00    -0.061 N 
HETATM   12  C8  UNL     1      41.438  -3.231  32.076  1.00  0.00     0.238 C 
HETATM   13  C9  UNL     1      42.029  -3.679  33.407  1.00  0.00     0.030 C 
HETATM   14  C10 UNL     1      42.114  -2.349  34.118  1.00  0.00     0.036 C 
HETATM   15  C11 UNL     1      42.550  -1.435  32.997  1.00  0.00     0.200 C 
HETATM   16  C13 UNL     1      43.355  -2.456  31.046  1.00  0.00     0.250 C 
ENDROOT
BRANCH   1  17
HETATM   17  O1  UNL     1      44.263  -4.334  29.468  1.00  0.00    -0.393 OA
ATOM     18  H1  UNL     1      43.961  -5.205  29.698  1.00  0.00     0.210 HD
ENDBRANCH   1  17
BRANCH  15  19
HETATM   19  C12 UNL     1      42.078  -0.040  33.291  1.00  0.00     0.118 C 
HETATM   20 BR1  UNL     1      43.326   0.956  34.383  1.00  0.00    -0.094 Br
ENDBRANCH  15  19
TORSDOF 2
ENDMDL
MODEL 2
REMARK VINA RESULT: -5.210314902      3.082      5.573
REMARK  2 active torsions:
REMARK  status: ('A' for Active; 'I' for Inactive)
REMARK    1  A    between atoms: O1_1  and  C1_3 
REMARK    2  A    between atoms: C11_17  and  C12_18 
ROOT
HETATM    1  C1  UNL     1      42.468  -2.144  32.182  1.00  0.00     0.154 C 
HETATM    2  C2  UNL     1      41.697  -2.610  33.365  1.00  0.00     0.264 C 
HETATM    3  N1  UNL     1      42.014  -3.963  33.767  1.00  0.00    -0.073 N 
ATOM      4  H11 UNL     1      41.435  -4.266  34.550  1.00  0.00     0.277 HD
ATOM      5  H12 UNL     1      42.928  -4.015  34.218  1.00  0.00     0.277 HD
HETATM    6  C3  UNL     1      41.920  -4.883  32.647  1.00  0.00     0.233 C 
HETATM    7  C4  UNL     1      42.940  -4.489  31.633  1.00  0.00     0.041 C 
HETATM    8  C5  UNL     1      42.595  -3.146  31.071  1.00  0.00     0.015 C 
HETATM    9  C6  UNL     1      41.351  -3.225  30.224  1.00  0.00     0.041 C 
HETATM   10  C7  UNL     1      41.862  -3.202  28.796  1.00  0.00     0.239 C 
HETATM   11  N2  UNL     1      43.141  -2.603  28.806  1.00  0.00    -0.061 N 
HETATM   12  C8  UNL     1      42.952  -1.148  28.637  1.00  0.00     0.238 C 
HETATM   13  C9  UNL     1      44.292  -0.669  28.092  1.00  0.00     0.030 C 
HETATM   14  C10 UNL     1      44.580  -1.767  27.097  1.00  0.00     0.036 C 
HETATM   15  C11 UNL     1      44.092  -2.987  27.844  1.00  0.00     0.200 C 
HETATM   16  C13 UNL     1      43.693  -2.735  30.140  1.00  0.00     0.250 C 
ENDROOT
BRANCH   1  17
HETATM   17  O1  UNL     1      43.738  -1.661  32.525  1.00  0.00    -0.393 OA
ATOM     18  H1  UNL     1      44.218  -1.335  31.773  1.00  0.00     0.210 HD
ENDBRANCH   1  17
BRANCH  15  19
HETATM   19  C12 UNL     1      43.682  -4.037  26.852  1.00  0.00     0.118 C 
HETATM   20 BR1  UNL     1      44.039  -3.516  25.023  1.00  0.00    -0.094 Br
ENDBRANCH  15  19
TORSDOF 2
ENDMDL
MODEL 3
REMARK VINA RESULT: -5.161502511      3.110      5.215
REMARK  2 active torsions:
REMARK  status: ('A' for Active; 'I' for Inactive)
REMARK    1  A    between atoms: O1_1  and  C1_3 
REMARK    2  A    between atoms: C11_17  and  C12_18 
ROOT
HETATM    1  C1  UNL     1      40.167  -2.012  32.226  1.00  0.00     0.154 C 
HETATM    2  C2  UNL     1      39.376  -1.118  33.113  1.00  0.00     0.264 C 
HETATM    3  N1  UNL     1      38.541  -0.180  32.395  1.00  0.00    -0.073 N 
ATOM      4  H11 UNL     1      38.050   0.447  33.031  1.00  0.00     0.277 HD
ATOM      5  H12 UNL     1      37.733  -0.643  31.976  1.00  0.00     0.277 HD
HETATM    6  C3  UNL     1      39.305   0.558  31.404  1.00  0.00     0.233 C 
HETATM    7  C4  UNL     1      39.821  -0.413  30.396  1.00  0.00     0.041 C 
HETATM    8  C5  UNL     1      40.804  -1.335  31.046  1.00  0.00     0.015 C 
HETATM    9  C6  UNL     1      42.064  -0.597  31.418  1.00  0.00     0.041 C 
HETATM   10  C7  UNL     1      43.066  -0.994  30.352  1.00  0.00     0.239 C 
HETATM   11  N2  UNL     1      42.642  -2.223  29.798  1.00  0.00    -0.061 N 
HETATM   12  C8  UNL     1      43.248  -3.304  30.602  1.00  0.00     0.238 C 
HETATM   13  C9  UNL     1      43.241  -4.503  29.662  1.00  0.00     0.030 C 
HETATM   14  C10 UNL     1      43.682  -3.835  28.381  1.00  0.00     0.036 C 
HETATM   15  C11 UNL     1      42.944  -2.518  28.457  1.00  0.00     0.200 C 
HETATM   16  C13 UNL     1      41.218  -2.359  30.037  1.00  0.00     0.250 C 
ENDROOT
BRANCH   1  17
HETATM   17  O1  UNL     1      39.432  -3.122  31.789  1.00  0.00    -0.393 OA
ATOM     18  H1  UNL     1      39.061  -3.618  32.509  1.00  0.00     0.210 HD
ENDBRANCH   1  17
BRANCH  15  19
HETATM   19  C12 UNL     1      43.705  -1.484  27.680  1.00  0.00     0.118 C 
HETATM   20 BR1  UNL     1      44.407  -2.171  26.013  1.00  0.00    -0.094 Br
ENDBRANCH  15  19
TORSDOF 2
ENDMDL
MODEL 4
REMARK VINA RESULT: -5.137074098      3.481      4.421
REMARK  2 active torsions:
REMARK  status: ('A' for Active; 'I' for Inactive)
REMARK    1  A    between atoms: O1_1  and  C1_3 
REMARK    2  A    between atoms: C11_17  and  C12_18 
ROOT
HETATM    1  C1  UNL     1      42.574  -1.083  30.798  1.00  0.00     0.154 C 
HETATM    2  C2  UNL     1      43.792  -1.841  30.410  1.00  0.00     0.264 C 
HETATM    3  N1  UNL     1      43.673  -2.519  29.138  1.00  0.00    -0.073 N 
ATOM      4  H11 UNL     1      44.507  -3.067  28.926  1.00  0.00     0.277 HD
ATOM      5  H12 UNL     1      43.714  -1.863  28.358  1.00  0.00     0.277 HD
HETATM    6  C3  UNL     1      42.473  -3.336  29.084  1.00  0.00     0.233 C 
HETATM    7  C4  UNL     1      41.291  -2.434  29.200  1.00  0.00     0.041 C 
HETATM    8  C5  UNL     1      41.276  -1.798  30.554  1.00  0.00     0.015 C 
HETATM    9  C6  UNL     1      40.974  -2.820  31.621  1.00  0.00     0.041 C 
HETATM   10  C7  UNL     1      39.521  -2.579  31.977  1.00  0.00     0.239 C 
HETATM   11  N2  UNL     1      39.202  -1.251  31.614  1.00  0.00    -0.061 N 
HETATM   12  C8  UNL     1      39.506  -0.388  32.774  1.00  0.00     0.238 C 
HETATM   13  C9  UNL     1      38.642   0.845  32.545  1.00  0.00     0.030 C 
HETATM   14  C10 UNL     1      37.360   0.188  32.089  1.00  0.00     0.036 C 
HETATM   15  C11 UNL     1      37.887  -0.937  31.228  1.00  0.00     0.200 C 
HETATM   16  C13 UNL     1      40.142  -0.822  30.597  1.00  0.00     0.250 C 
ENDROOT
BRANCH   1  17
HETATM   17  O1  UNL     1      42.524   0.189  30.213  1.00  0.00    -0.393 OA
ATOM     18  H1  UNL     1      42.096   0.183  29.365  1.00  0.00     0.210 HD
ENDBRANCH   1  17
BRANCH  15  19
HETATM   19  C12 UNL     1      36.887  -2.055  31.217  1.00  0.00     0.118 C 
HETATM   20 BR1  UNL     1      36.666  -2.843  29.463  1.00  0.00    -0.094 Br
ENDBRANCH  15  19
TORSDOF 2
ENDMDL
MODEL 5
REMARK VINA RESULT: -5.126034378      2.358      3.018
REMARK  2 active torsions:
REMARK  status: ('A' for Active; 'I' for Inactive)
REMARK    1  A    between atoms: O1_1  and  C1_3 
REMARK    2  A    between atoms: C11_17  and  C12_18 
ROOT
HETATM    1  C1  UNL     1      43.678  -3.843  26.836  1.00  0.00     0.154 C 
HETATM    2  C2  UNL     1      43.694  -2.866  25.715  1.00  0.00     0.264 C 
HETATM    3  N1  UNL     1      44.484  -1.685  25.986  1.00  0.00    -0.073 N 
ATOM      4  H11 UNL     1      44.434  -1.017  25.218  1.00  0.00     0.277 HD
ATOM      5  H12 UNL     1      45.483  -1.887  25.954  1.00  0.00     0.277 HD
HETATM    6  C3  UNL     1      44.104  -1.074  27.248  1.00  0.00     0.233 C 
HETATM    7  C4  UNL     1      44.398  -2.044  28.342  1.00  0.00     0.041 C 
HETATM    8  C5  UNL     1      43.511  -3.241  28.201  1.00  0.00     0.015 C 
HETATM    9  C6  UNL     1      42.078  -2.883  28.500  1.00  0.00     0.041 C 
HETATM   10  C7  UNL     1      41.836  -3.418  29.897  1.00  0.00     0.239 C 
HETATM   11  N2  UNL     1      42.779  -4.442  30.137  1.00  0.00    -0.061 N 
HETATM   12  C8  UNL     1      42.181  -5.712  29.675  1.00  0.00     0.238 C 
HETATM   13  C9  UNL     1      42.945  -6.776  30.453  1.00  0.00     0.030 C 
HETATM   14  C10 UNL     1      42.992  -6.124  31.815  1.00  0.00     0.036 C 
HETATM   15  C11 UNL     1      43.228  -4.676  31.448  1.00  0.00     0.200 C 
HETATM   16  C13 UNL     1      43.905  -4.237  29.247  1.00  0.00     0.250 C 
ENDROOT
BRANCH   1  17
HETATM   17  O1  UNL     1      44.798  -4.686  26.829  1.00  0.00    -0.393 OA
ATOM     18  H1  UNL     1      45.308  -4.607  26.032  1.00  0.00     0.210 HD
ENDBRANCH   1  17
BRANCH  15  19
HETATM   19  C12 UNL     1      42.673  -3.799  32.532  1.00  0.00     0.118 C 
HETATM   20 BR1  UNL     1      43.051  -4.475  34.305  1.00  0.00    -0.094 Br
ENDBRANCH  15  19
TORSDOF 2
ENDMDL
