MODEL 1
REMARK VINA RESULT: -5.248366441      0.000      0.000
REMARK  7 active torsions:
REMARK  status: ('A' for Active; 'I' for Inactive)
REMARK    1  A    between atoms: N1_1  and  N2_4 
REMARK    2  A    between atoms: N2_4  and  C1_5 
REMARK    3  A    between atoms: C9_16  and  C10_17 
REMARK    4  A    between atoms: C11_18  and  C12_19 
REMARK    5  A    between atoms: C13_20  and  C14_21 
REMARK    6  A    between atoms: C15_22  and  C16_23 
REMARK    7  A    between atoms: C16_23  and  C17_24 
ROOT
HETATM    1  N2  UNL     1      10.921   9.702  23.345  1.00  0.00     0.026 N 
HETATM    2  C6  UNL     1      11.071  11.065  23.765  1.00  0.00     0.266 C 
HETATM    3  C7  UNL     1      10.793  11.137  25.235  1.00  0.00     0.033 C 
HETATM    4  C8  UNL     1      10.537   9.671  25.609  1.00  0.00     0.050 C 
HETATM    5  C9  UNL     1       9.970   9.179  24.291  1.00  0.00     0.294 C 
ENDROOT
BRANCH   1   6
HETATM    6  N1  UNL     1      10.295   9.686  22.083  1.00  0.00    -0.260 N 
ATOM      7  H12 UNL     1      10.761   9.385  21.226  1.00  0.00     0.183 HD
ATOM      8  H11 UNL     1       9.331  10.011  22.146  1.00  0.00     0.183 HD
ENDBRANCH   1   6
BRANCH   1   9
HETATM    9  C1  UNL     1      12.157   8.965  23.322  1.00  0.00     0.219 C 
HETATM   10  C2  UNL     1      12.321   8.168  22.030  1.00  0.00     0.063 C 
HETATM   11  C3  UNL     1      13.525   7.282  22.204  1.00  0.00     0.234 C 
HETATM   12  N3  UNL     1      14.723   8.038  22.503  1.00  0.00    -0.075 N 
HETATM   13  C4  UNL     1      14.567   8.878  23.664  1.00  0.00     0.234 C 
ATOM     14  H32 UNL     1      15.531   7.423  22.600  1.00  0.00     0.277 HD
ATOM     15  H31 UNL     1      15.028   8.581  21.695  1.00  0.00     0.277 HD
HETATM   16  C5  UNL     1      13.378   9.823  23.462  1.00  0.00     0.063 C 
ENDBRANCH   1   9
BRANCH   5  17
HETATM   17  C10 UNL     1       9.907   7.742  24.197  1.00  0.00    -0.056 C 
HETATM   18  C11 UNL     1       9.835   6.537  24.123  1.00  0.00    -0.012 C 
BRANCH  18  19
HETATM   19  C12 UNL     1       9.727   5.127  24.033  1.00  0.00    -0.001 C 
HETATM   20  C13 UNL     1       9.615   3.925  23.959  1.00  0.00    -0.001 C 
BRANCH  20  21
HETATM   21  C14 UNL     1       9.459   2.522  23.877  1.00  0.00    -0.014 C 
HETATM   22  C15 UNL     1       9.305   1.327  23.808  1.00  0.00    -0.091 C 
BRANCH  22  23
HETATM   23  C16 UNL     1       9.092  -0.136  23.725  1.00  0.00     0.110 C 
BRANCH  23  24
HETATM   24  C17 UNL     1       8.183  -0.492  24.881  1.00  0.00     0.126 C 
HETATM   25 CL1  UNL     1       8.563   0.405  26.347  1.00  0.00    -0.130 Cl
ENDBRANCH  23  24
ENDBRANCH  22  23
ENDBRANCH  20  21
ENDBRANCH  18  19
ENDBRANCH   5  17
TORSDOF 7
ENDMDL
MODEL 2
REMARK VINA RESULT: -5.215391764      3.614      5.409
REMARK  7 active torsions:
REMARK  status: ('A' for Active; 'I' for Inactive)
REMARK    1  A    between atoms: N1_1  and  N2_4 
REMARK    2  A    between atoms: N2_4  and  C1_5 
REMARK    3  A    between atoms: C9_16  and  C10_17 
REMARK    4  A    between atoms: C11_18  and  C12_19 
REMARK    5  A    between atoms: C13_20  and  C14_21 
REMARK    6  A    between atoms: C15_22  and  C16_23 
REMARK    7  A    between atoms: C16_23  and  C17_24 
ROOT
HETATM    1  N2  UNL     1       7.051   9.616  23.850  1.00  0.00     0.026 N 
HETATM    2  C6  UNL     1       6.816  10.972  23.446  1.00  0.00     0.266 C 
HETATM    3  C7  UNL     1       7.314  11.137  22.043  1.00  0.00     0.033 C 
HETATM    4  C8  UNL     1       7.792   9.725  21.678  1.00  0.00     0.050 C 
HETATM    5  C9  UNL     1       8.195   9.241  23.059  1.00  0.00     0.294 C 
ENDROOT
BRANCH   1   6
HETATM    6  N1  UNL     1       7.466   9.614  25.196  1.00  0.00    -0.260 N 
ATOM      7  H12 UNL     1       7.842   8.791  25.669  1.00  0.00     0.183 HD
ATOM      8  H11 UNL     1       7.339  10.531  25.622  1.00  0.00     0.183 HD
ENDBRANCH   1   6
BRANCH   1   9
HETATM    9  C1  UNL     1       5.920   8.749  23.653  1.00  0.00     0.219 C 
HETATM   10  C2  UNL     1       5.658   7.869  24.873  1.00  0.00     0.063 C 
HETATM   11  C3  UNL     1       4.604   6.868  24.480  1.00  0.00     0.234 C 
HETATM   12  N3  UNL     1       3.385   7.505  24.028  1.00  0.00    -0.075 N 
HETATM   13  C4  UNL     1       3.615   8.420  22.939  1.00  0.00     0.234 C 
ATOM     14  H32 UNL     1       2.677   6.812  23.783  1.00  0.00     0.277 HD
ATOM     15  H31 UNL     1       2.902   7.966  24.799  1.00  0.00     0.277 HD
HETATM   16  C5  UNL     1       4.643   9.476  23.359  1.00  0.00     0.063 C 
ENDBRANCH   1   9
BRANCH   5  17
HETATM   17  C10 UNL     1       8.405   7.816  23.126  1.00  0.00    -0.056 C 
HETATM   18  C11 UNL     1       8.579   6.622  23.204  1.00  0.00    -0.012 C 
BRANCH  18  19
HETATM   19  C12 UNL     1       8.771   5.223  23.315  1.00  0.00    -0.001 C 
HETATM   20  C13 UNL     1       8.919   4.027  23.424  1.00  0.00    -0.001 C 
BRANCH  20  21
HETATM   21  C14 UNL     1       9.075   2.629  23.569  1.00  0.00    -0.014 C 
HETATM   22  C15 UNL     1       9.189   1.435  23.699  1.00  0.00    -0.091 C 
BRANCH  22  23
HETATM   23  C16 UNL     1       9.305  -0.032  23.869  1.00  0.00     0.110 C 
BRANCH  23  24
HETATM   24  C17 UNL     1       8.296  -0.410  24.930  1.00  0.00     0.126 C 
HETATM   25 CL1  UNL     1       8.464   0.541  26.401  1.00  0.00    -0.130 Cl
ENDBRANCH  23  24
ENDBRANCH  22  23
ENDBRANCH  20  21
ENDBRANCH  18  19
ENDBRANCH   5  17
TORSDOF 7
ENDMDL
MODEL 3
REMARK VINA RESULT: -5.043493644      1.795      3.670
REMARK  7 active torsions:
REMARK  status: ('A' for Active; 'I' for Inactive)
REMARK    1  A    between atoms: N1_1  and  N2_4 
REMARK    2  A    between atoms: N2_4  and  C1_5 
REMARK    3  A    between atoms: C9_16  and  C10_17 
REMARK    4  A    between atoms: C11_18  and  C12_19 
REMARK    5  A    between atoms: C13_20  and  C14_21 
REMARK    6  A    between atoms: C15_22  and  C16_23 
REMARK    7  A    between atoms: C16_23  and  C17_24 
ROOT
HETATM    1  N2  UNL     1      10.739   8.990  24.225  1.00  0.00     0.026 N 
HETATM    2  C6  UNL     1      11.324  10.226  23.793  1.00  0.00     0.266 C 
HETATM    3  C7  UNL     1      12.115   9.963  22.548  1.00  0.00     0.033 C 
HETATM    4  C8  UNL     1      11.863   8.470  22.290  1.00  0.00     0.050 C 
HETATM    5  C9  UNL     1      11.663   8.006  23.720  1.00  0.00     0.294 C 
ENDROOT
BRANCH   1   6
HETATM    6  N1  UNL     1      10.803   8.929  25.631  1.00  0.00    -0.260 N 
ATOM      7  H12 UNL     1      11.440   9.496  26.192  1.00  0.00     0.183 HD
ATOM      8  H11 UNL     1      10.137   8.251  26.001  1.00  0.00     0.183 HD
ENDBRANCH   1   6
BRANCH   1   9
HETATM    9  C1  UNL     1       9.393   8.792  23.757  1.00  0.00     0.219 C 
HETATM   10  C2  UNL     1       8.449   8.394  24.889  1.00  0.00     0.063 C 
HETATM   11  C3  UNL     1       7.137   8.009  24.260  1.00  0.00     0.234 C 
HETATM   12  N3  UNL     1       6.574   9.082  23.467  1.00  0.00    -0.075 N 
HETATM   13  C4  UNL     1       7.482   9.549  22.451  1.00  0.00     0.234 C 
ATOM     14  H32 UNL     1       5.678   8.809  23.064  1.00  0.00     0.277 HD
ATOM     15  H31 UNL     1       6.259   9.851  24.059  1.00  0.00     0.277 HD
HETATM   16  C5  UNL     1       8.797   9.998  23.097  1.00  0.00     0.063 C 
ENDBRANCH   1   9
BRANCH   5  17
HETATM   17  C10 UNL     1      11.092   6.687  23.819  1.00  0.00    -0.056 C 
HETATM   18  C11 UNL     1      10.629   5.573  23.912  1.00  0.00    -0.012 C 
BRANCH  18  19
HETATM   19  C12 UNL     1      10.098   4.266  24.042  1.00  0.00    -0.001 C 
HETATM   20  C13 UNL     1       9.656   3.147  24.171  1.00  0.00    -0.001 C 
BRANCH  20  21
HETATM   21  C14 UNL     1       9.153   1.837  24.342  1.00  0.00    -0.014 C 
HETATM   22  C15 UNL     1       8.735   0.717  24.506  1.00  0.00    -0.091 C 
BRANCH  22  23
HETATM   23  C16 UNL     1       8.237  -0.661  24.725  1.00  0.00     0.110 C 
BRANCH  23  24
HETATM   24  C17 UNL     1       8.001  -0.786  26.215  1.00  0.00     0.126 C 
HETATM   25 CL1  UNL     1       6.450  -1.523  26.599  1.00  0.00    -0.130 Cl
ENDBRANCH  23  24
ENDBRANCH  22  23
ENDBRANCH  20  21
ENDBRANCH  18  19
ENDBRANCH   5  17
TORSDOF 7
ENDMDL
MODEL 4
REMARK VINA RESULT: -5.006227767      1.969      3.727
REMARK  7 active torsions:
REMARK  status: ('A' for Active; 'I' for Inactive)
REMARK    1  A    between atoms: N1_1  and  N2_4 
REMARK    2  A    between atoms: N2_4  and  C1_5 
REMARK    3  A    between atoms: C9_16  and  C10_17 
REMARK    4  A    between atoms: C11_18  and  C12_19 
REMARK    5  A    between atoms: C13_20  and  C14_21 
REMARK    6  A    between atoms: C15_22  and  C16_23 
REMARK    7  A    between atoms: C16_23  and  C17_24 
ROOT
HETATM    1  N2  UNL     1      11.798  10.180  22.469  1.00  0.00     0.026 N 
HETATM    2  C6  UNL     1      12.469  11.137  21.638  1.00  0.00     0.266 C 
HETATM    3  C7  UNL     1      13.111  10.405  20.501  1.00  0.00     0.033 C 
HETATM    4  C8  UNL     1      12.680   8.951  20.741  1.00  0.00     0.050 C 
HETATM    5  C9  UNL     1      12.562   8.979  22.253  1.00  0.00     0.294 C 
ENDROOT
BRANCH   1   6
HETATM    6  N1  UNL     1      11.983  10.547  23.817  1.00  0.00    -0.260 N 
ATOM      7  H12 UNL     1      12.343   9.912  24.530  1.00  0.00     0.183 HD
ATOM      8  H11 UNL     1      11.710  11.516  23.975  1.00  0.00     0.183 HD
ENDBRANCH   1   6
BRANCH   1   9
HETATM    9  C1  UNL     1      10.401  10.024  22.160  1.00  0.00     0.219 C 
HETATM   10  C2  UNL     1       9.540   9.984  23.420  1.00  0.00     0.063 C 
HETATM   11  C3  UNL     1       8.146   9.607  22.993  1.00  0.00     0.234 C 
HETATM   12  N3  UNL     1       7.601  10.532  22.022  1.00  0.00    -0.075 N 
HETATM   13  C4  UNL     1       8.444  10.668  20.861  1.00  0.00     0.234 C 
ATOM     14  H32 UNL     1       6.651  10.271  21.758  1.00  0.00     0.277 HD
ATOM     15  H31 UNL     1       7.410  11.440  22.445  1.00  0.00     0.277 HD
HETATM   16  C5  UNL     1       9.848  11.111  21.289  1.00  0.00     0.063 C 
ENDBRANCH   1   9
BRANCH   5  17
HETATM   17  C10 UNL     1      11.865   7.839  22.793  1.00  0.00    -0.056 C 
HETATM   18  C11 UNL     1      11.299   6.871  23.247  1.00  0.00    -0.012 C 
BRANCH  18  19
HETATM   19  C12 UNL     1      10.655   5.731  23.789  1.00  0.00    -0.001 C 
HETATM   20  C13 UNL     1      10.098   4.770  24.268  1.00  0.00    -0.001 C 
BRANCH  20  21
HETATM   21  C14 UNL     1       9.441   3.660  24.847  1.00  0.00    -0.014 C 
HETATM   22  C15 UNL     1       8.898   2.709  25.353  1.00  0.00    -0.091 C 
BRANCH  22  23
HETATM   23  C16 UNL     1       8.251   1.536  25.986  1.00  0.00     0.110 C 
BRANCH  23  24
HETATM   24  C17 UNL     1       8.649   0.339  25.150  1.00  0.00     0.126 C 
HETATM   25 CL1  UNL     1       7.869  -1.149  25.675  1.00  0.00    -0.130 Cl
ENDBRANCH  23  24
ENDBRANCH  22  23
ENDBRANCH  20  21
ENDBRANCH  18  19
ENDBRANCH   5  17
TORSDOF 7
ENDMDL
MODEL 5
REMARK VINA RESULT: -4.933339707      3.983      5.748
REMARK  7 active torsions:
REMARK  status: ('A' for Active; 'I' for Inactive)
REMARK    1  A    between atoms: N1_1  and  N2_4 
REMARK    2  A    between atoms: N2_4  and  C1_5 
REMARK    3  A    between atoms: C9_16  and  C10_17 
REMARK    4  A    between atoms: C11_18  and  C12_19 
REMARK    5  A    between atoms: C13_20  and  C14_21 
REMARK    6  A    between atoms: C15_22  and  C16_23 
REMARK    7  A    between atoms: C16_23  and  C17_24 
ROOT
HETATM    1  N2  UNL     1       6.722   9.881  23.871  1.00  0.00     0.026 N 
HETATM    2  C6  UNL     1       6.673  11.137  23.181  1.00  0.00     0.266 C 
HETATM    3  C7  UNL     1       7.402  10.988  21.881  1.00  0.00     0.033 C 
HETATM    4  C8  UNL     1       7.808   9.508  21.882  1.00  0.00     0.050 C 
HETATM    5  C9  UNL     1       7.941   9.292  23.378  1.00  0.00     0.294 C 
ENDROOT
BRANCH   1   6
HETATM    6  N1  UNL     1       6.914  10.129  25.245  1.00  0.00    -0.260 N 
ATOM      7  H12 UNL     1       7.373  10.964  25.609  1.00  0.00     0.183 HD
ATOM      8  H11 UNL     1       6.536   9.370  25.812  1.00  0.00     0.183 HD
ENDBRANCH   1   6
BRANCH   1   9
HETATM    9  C1  UNL     1       5.566   9.053  23.649  1.00  0.00     0.219 C 
HETATM   10  C2  UNL     1       5.061   8.420  24.944  1.00  0.00     0.063 C 
HETATM   11  C3  UNL     1       3.999   7.422  24.566  1.00  0.00     0.234 C 
HETATM   12  N3  UNL     1       2.913   8.030  23.828  1.00  0.00    -0.075 N 
HETATM   13  C4  UNL     1       3.369   8.723  22.649  1.00  0.00     0.234 C 
ATOM     14  H32 UNL     1       2.196   7.343  23.596  1.00  0.00     0.277 HD
ATOM     15  H31 UNL     1       2.362   8.647  24.425  1.00  0.00     0.277 HD
HETATM   16  C5  UNL     1       4.406   9.782  23.040  1.00  0.00     0.063 C 
ENDBRANCH   1   9
BRANCH   5  17
HETATM   17  C10 UNL     1       8.013   7.902  23.751  1.00  0.00    -0.056 C 
HETATM   18  C11 UNL     1       8.077   6.742  24.084  1.00  0.00    -0.012 C 
BRANCH  18  19
HETATM   19  C12 UNL     1       8.147   5.388  24.496  1.00  0.00    -0.001 C 
HETATM   20  C13 UNL     1       8.213   4.238  24.867  1.00  0.00    -0.001 C 
BRANCH  20  21
HETATM   21  C14 UNL     1       8.301   2.902  25.321  1.00  0.00    -0.014 C 
HETATM   22  C15 UNL     1       8.368   1.767  25.726  1.00  0.00    -0.091 C 
BRANCH  22  23
HETATM   23  C16 UNL     1       8.439   0.382  26.245  1.00  0.00     0.110 C 
BRANCH  23  24
HETATM   24  C17 UNL     1       8.188  -0.522  25.058  1.00  0.00     0.126 C 
HETATM   25 CL1  UNL     1       9.083  -0.030  23.624  1.00  0.00    -0.130 Cl
ENDBRANCH  23  24
ENDBRANCH  22  23
ENDBRANCH  20  21
ENDBRANCH  18  19
ENDBRANCH   5  17
TORSDOF 7
ENDMDL
