MODEL 1
REMARK VINA RESULT: -5.693556691      0.000      0.000
REMARK  2 active torsions:
REMARK  status: ('A' for Active; 'I' for Inactive)
REMARK    1  A    between atoms: C5_9  and  C6_10 
REMARK    2  A    between atoms: C8_13  and  N3_14 
ROOT
HETATM    1  C1  UNL     1       9.666   3.117  23.330  1.00  0.00     0.155 C 
HETATM    2  N1  UNL     1       8.765   3.904  24.128  1.00  0.00    -0.328 N 
HETATM    3  C2  UNL     1       8.115   3.242  25.242  1.00  0.00     0.319 C 
HETATM    4  O1  UNL     1       8.149   1.975  25.291  1.00  0.00    -0.247 OA
HETATM    5  N2  UNL     1       7.469   4.017  26.236  1.00  0.00    -0.336 N 
ATOM      6  H2  UNL     1       7.201   3.609  27.131  1.00  0.00     0.164 HD
HETATM    7  C3  UNL     1       7.203   5.399  25.939  1.00  0.00     0.119 C 
HETATM    8  C4  UNL     1       8.499   5.951  25.318  1.00  0.00     0.059 C 
HETATM    9  C5  UNL     1       8.438   5.277  23.952  1.00  0.00     0.049 C 
HETATM   10  C7  UNL     1       6.976   5.503  23.599  1.00  0.00     0.067 C 
HETATM   11  C8  UNL     1       6.175   5.498  24.834  1.00  0.00     0.215 C 
ENDROOT
BRANCH  11  12
HETATM   12  N3  UNL     1       5.251   6.558  25.024  1.00  0.00    -0.065 N 
HETATM   13  C9  UNL     1       5.344   7.092  26.371  1.00  0.00     0.273 C 
HETATM   14  C10 UNL     1       5.095   7.572  24.068  1.00  0.00     0.239 C 
HETATM   15  C11 UNL     1       3.601   7.610  24.433  1.00  0.00     0.056 C 
HETATM   16  C12 UNL     1       3.887   6.137  24.762  1.00  0.00     0.239 C 
ENDBRANCH  11  12
BRANCH   9  17
HETATM   17  C6  UNL     1       9.269   6.009  22.934  1.00  0.00     0.116 C 
HETATM   18 BR1  UNL     1      10.759   6.833  23.847  1.00  0.00    -0.094 Br
ENDBRANCH   9  17
TORSDOF 2
ENDMDL
MODEL 2
REMARK VINA RESULT: -5.619790767      0.394      1.013
REMARK  2 active torsions:
REMARK  status: ('A' for Active; 'I' for Inactive)
REMARK    1  A    between atoms: C5_9  and  C6_10 
REMARK    2  A    between atoms: C8_13  and  N3_14 
ROOT
HETATM    1  C1  UNL     1       9.765   3.172  23.434  1.00  0.00     0.155 C 
HETATM    2  N1  UNL     1       8.808   3.965  24.158  1.00  0.00    -0.328 N 
HETATM    3  C2  UNL     1       8.082   3.313  25.230  1.00  0.00     0.319 C 
HETATM    4  O1  UNL     1       8.114   2.046  25.293  1.00  0.00    -0.247 OA
HETATM    5  N2  UNL     1       7.366   4.097  26.168  1.00  0.00    -0.336 N 
ATOM      6  H2  UNL     1       7.036   3.697  27.046  1.00  0.00     0.164 HD
HETATM    7  C3  UNL     1       7.121   5.475  25.839  1.00  0.00     0.119 C 
HETATM    8  C4  UNL     1       8.456   6.023  25.306  1.00  0.00     0.059 C 
HETATM    9  C5  UNL     1       8.493   5.336  23.946  1.00  0.00     0.049 C 
HETATM   10  C7  UNL     1       7.060   5.556  23.488  1.00  0.00     0.067 C 
HETATM   11  C8  UNL     1       6.173   5.562  24.664  1.00  0.00     0.215 C 
ENDROOT
BRANCH  11  12
HETATM   12  N3  UNL     1       5.237   6.622  24.778  1.00  0.00    -0.065 N 
HETATM   13  C9  UNL     1       5.521   7.671  23.815  1.00  0.00     0.273 C 
HETATM   14  C10 UNL     1       3.861   6.372  24.890  1.00  0.00     0.239 C 
HETATM   15  C11 UNL     1       3.771   7.599  25.814  1.00  0.00     0.056 C 
HETATM   16  C12 UNL     1       5.218   7.182  26.116  1.00  0.00     0.239 C 
ENDBRANCH  11  12
BRANCH   9  17
HETATM   17  C6  UNL     1       9.393   6.060  22.982  1.00  0.00     0.116 C 
HETATM   18 BR1  UNL     1      10.766   6.965  23.997  1.00  0.00    -0.094 Br
ENDBRANCH   9  17
TORSDOF 2
ENDMDL
MODEL 3
REMARK VINA RESULT: -5.441990781      2.746      4.098
REMARK  2 active torsions:
REMARK  status: ('A' for Active; 'I' for Inactive)
REMARK    1  A    between atoms: C5_9  and  C6_10 
REMARK    2  A    between atoms: C8_13  and  N3_14 
ROOT
HETATM    1  C1  UNL     1       8.531   2.038  25.773  1.00  0.00     0.155 C 
HETATM    2  N1  UNL     1       8.687   3.155  24.881  1.00  0.00    -0.328 N 
HETATM    3  C2  UNL     1       9.282   2.891  23.586  1.00  0.00     0.319 C 
HETATM    4  O1  UNL     1       9.877   1.784  23.412  1.00  0.00    -0.247 OA
HETATM    5  N2  UNL     1       9.184   3.863  22.560  1.00  0.00    -0.336 N 
ATOM      6  H2  UNL     1       9.389   3.627  21.589  1.00  0.00     0.164 HD
HETATM    7  C3  UNL     1       8.785   5.193  22.934  1.00  0.00     0.119 C 
HETATM    8  C4  UNL     1       7.588   5.020  23.885  1.00  0.00     0.059 C 
HETATM    9  C5  UNL     1       8.314   4.507  25.124  1.00  0.00     0.049 C 
HETATM   10  C7  UNL     1       9.500   5.456  25.161  1.00  0.00     0.067 C 
HETATM   11  C8  UNL     1       9.861   5.832  23.784  1.00  0.00     0.215 C 
ENDROOT
BRANCH  11  12
HETATM   12  N3  UNL     1      10.050   7.210  23.504  1.00  0.00    -0.065 N 
HETATM   13  C9  UNL     1      11.340   7.440  22.879  1.00  0.00     0.273 C 
HETATM   14  C10 UNL     1       9.037   7.981  22.915  1.00  0.00     0.239 C 
HETATM   15  C11 UNL     1       9.525   9.168  23.764  1.00  0.00     0.056 C 
HETATM   16  C12 UNL     1       9.938   8.022  24.700  1.00  0.00     0.239 C 
ENDBRANCH  11  12
BRANCH   9  17
HETATM   17  C6  UNL     1       7.510   4.735  26.374  1.00  0.00     0.116 C 
HETATM   18 BR1  UNL     1       6.784   6.525  26.309  1.00  0.00    -0.094 Br
ENDBRANCH   9  17
TORSDOF 2
ENDMDL
MODEL 4
REMARK VINA RESULT: -5.247772231      2.575      4.178
REMARK  2 active torsions:
REMARK  status: ('A' for Active; 'I' for Inactive)
REMARK    1  A    between atoms: C5_9  and  C6_10 
REMARK    2  A    between atoms: C8_13  and  N3_14 
ROOT
HETATM    1  C1  UNL     1       8.604   2.327  25.763  1.00  0.00     0.155 C 
HETATM    2  N1  UNL     1       8.647   3.465  24.885  1.00  0.00    -0.328 N 
HETATM    3  C2  UNL     1       9.155   3.251  23.545  1.00  0.00     0.319 C 
HETATM    4  O1  UNL     1       9.782   2.174  23.306  1.00  0.00    -0.247 OA
HETATM    5  N2  UNL     1       8.941   4.235  22.549  1.00  0.00    -0.336 N 
ATOM      6  H2  UNL     1       9.084   4.025  21.561  1.00  0.00     0.164 HD
HETATM    7  C3  UNL     1       8.514   5.539  22.979  1.00  0.00     0.119 C 
HETATM    8  C4  UNL     1       7.399   5.297  24.011  1.00  0.00     0.059 C 
HETATM    9  C5  UNL     1       8.235   4.795  25.182  1.00  0.00     0.049 C 
HETATM   10  C7  UNL     1       9.380   5.795  25.152  1.00  0.00     0.067 C 
HETATM   11  C8  UNL     1       9.622   6.210  23.760  1.00  0.00     0.215 C 
ENDROOT
BRANCH  11  12
HETATM   12  N3  UNL     1       9.731   7.600  23.496  1.00  0.00    -0.065 N 
HETATM   13  C9  UNL     1       8.643   8.053  22.649  1.00  0.00     0.273 C 
HETATM   14  C10 UNL     1      10.018   8.517  24.517  1.00  0.00     0.239 C 
HETATM   15  C11 UNL     1      10.819   9.331  23.485  1.00  0.00     0.056 C 
HETATM   16  C12 UNL     1      11.000   7.932  22.876  1.00  0.00     0.239 C 
ENDBRANCH  11  12
BRANCH   9  17
HETATM   17  C6  UNL     1       7.517   4.967  26.492  1.00  0.00     0.116 C 
HETATM   18 BR1  UNL     1       7.616   6.829  26.998  1.00  0.00    -0.094 Br
ENDBRANCH   9  17
TORSDOF 2
ENDMDL
MODEL 5
REMARK VINA RESULT: -5.195648508      3.389      5.136
REMARK  2 active torsions:
REMARK  status: ('A' for Active; 'I' for Inactive)
REMARK    1  A    between atoms: C5_9  and  C6_10 
REMARK    2  A    between atoms: C8_13  and  N3_14 
ROOT
HETATM    1  C1  UNL     1      10.802   9.959  22.048  1.00  0.00     0.155 C 
HETATM    2  N1  UNL     1      10.669   8.669  22.671  1.00  0.00    -0.328 N 
HETATM    3  C2  UNL     1      11.703   7.691  22.400  1.00  0.00     0.319 C 
HETATM    4  O1  UNL     1      12.499   7.910  21.436  1.00  0.00    -0.247 OA
HETATM    5  N2  UNL     1      11.799   6.532  23.208  1.00  0.00    -0.336 N 
ATOM      6  H2  UNL     1      12.633   5.945  23.191  1.00  0.00     0.164 HD
HETATM    7  C3  UNL     1      10.681   6.212  24.054  1.00  0.00     0.119 C 
HETATM    8  C4  UNL     1      10.272   7.533  24.727  1.00  0.00     0.059 C 
HETATM    9  C5  UNL     1       9.628   8.240  23.541  1.00  0.00     0.049 C 
HETATM   10  C7  UNL     1       8.797   7.105  22.963  1.00  0.00     0.067 C 
HETATM   11  C8  UNL     1       9.489   5.828  23.205  1.00  0.00     0.215 C 
ENDROOT
BRANCH  11  12
HETATM   12  N3  UNL     1       8.731   4.761  23.754  1.00  0.00    -0.065 N 
HETATM   13  C9  UNL     1       7.334   5.133  23.888  1.00  0.00     0.273 C 
HETATM   14  C10 UNL     1       8.883   3.446  23.293  1.00  0.00     0.239 C 
HETATM   15  C11 UNL     1       8.628   2.971  24.734  1.00  0.00     0.056 C 
HETATM   16  C12 UNL     1       9.248   4.342  25.043  1.00  0.00     0.239 C 
ENDBRANCH  11  12
BRANCH   9  17
HETATM   17  C6  UNL     1       8.677   9.318  23.985  1.00  0.00     0.116 C 
HETATM   18 BR1  UNL     1       6.914   8.879  23.327  1.00  0.00    -0.094 Br
ENDBRANCH   9  17
TORSDOF 2
ENDMDL
