MODEL 1
REMARK VINA RESULT: -5.998018404      0.000      0.000
REMARK  2 active torsions:
REMARK  status: ('A' for Active; 'I' for Inactive)
REMARK    1  A    between atoms: C7_10  and  C8_11 
REMARK    2  A    between atoms: C8_11  and  O1_13 
ROOT
HETATM    1  C1  UNL     1       6.471   5.509  23.975  1.00  0.00     0.013 C 
HETATM    2  C2  UNL     1       7.466   4.845  24.061  1.00  0.00    -0.105 C 
HETATM    3  C3  UNL     1       8.676   4.063  24.178  1.00  0.00     0.057 C 
HETATM    4  C4  UNL     1       9.969   4.836  24.253  1.00  0.00     0.256 C 
HETATM    5  N1  UNL     1      10.951   4.135  23.480  1.00  0.00    -0.068 N 
ATOM      6  H11 UNL     1      11.858   4.070  23.943  1.00  0.00     0.277 HD
ATOM      7  H12 UNL     1      11.264   4.653  22.659  1.00  0.00     0.277 HD
HETATM    8  C5  UNL     1      10.374   2.831  23.155  1.00  0.00     0.204 A 
HETATM    9  C6  UNL     1       8.965   3.105  23.050  1.00  0.00     0.053 A 
HETATM   10  C7  UNL     1       9.512   2.142  24.132  1.00  0.00     0.026 A 
HETATM   11  C10 UNL     1       8.609   2.856  25.075  1.00  0.00     0.018 C 
HETATM   12  C11 UNL     1       9.057   3.012  26.476  1.00  0.00     0.012 C 
ENDROOT
BRANCH  10  13
HETATM   13  C8  UNL     1       9.284   0.684  23.939  1.00  0.00     0.125 C 
HETATM   14  C9  UNL     1       8.474   0.061  25.048  1.00  0.00     0.040 C 
BRANCH  13  15
HETATM   15  O1  UNL     1       8.716   0.466  22.697  1.00  0.00    -0.395 OA
ATOM     16  H1  UNL     1       8.113  -0.266  22.748  1.00  0.00     0.210 HD
ENDBRANCH  13  15
ENDBRANCH  10  13
TORSDOF 2
ENDMDL
MODEL 2
REMARK VINA RESULT: -5.686106583      2.168      3.552
REMARK  2 active torsions:
REMARK  status: ('A' for Active; 'I' for Inactive)
REMARK    1  A    between atoms: C7_10  and  C8_11 
REMARK    2  A    between atoms: C8_11  and  O1_13 
ROOT
HETATM    1  C1  UNL     1      11.392   6.703  23.395  1.00  0.00     0.013 C 
HETATM    2  C2  UNL     1      10.430   6.041  23.669  1.00  0.00    -0.105 C 
HETATM    3  C3  UNL     1       9.265   5.243  23.976  1.00  0.00     0.057 C 
HETATM    4  C4  UNL     1       8.070   5.425  23.072  1.00  0.00     0.256 C 
HETATM    5  N1  UNL     1       6.891   5.397  23.885  1.00  0.00    -0.068 N 
ATOM      6  H11 UNL     1       6.139   4.836  23.485  1.00  0.00     0.277 HD
ATOM      7  H12 UNL     1       6.392   6.286  23.903  1.00  0.00     0.277 HD
HETATM    8  C5  UNL     1       7.307   4.942  25.211  1.00  0.00     0.204 A 
HETATM    9  C6  UNL     1       8.647   5.453  25.334  1.00  0.00     0.053 A 
HETATM   10  C7  UNL     1       8.370   3.930  25.343  1.00  0.00     0.026 A 
HETATM   11  C10 UNL     1       9.521   3.822  24.403  1.00  0.00     0.018 C 
HETATM   12  C11 UNL     1       9.469   2.769  23.367  1.00  0.00     0.012 C 
ENDROOT
BRANCH  10  13
HETATM   13  C8  UNL     1       8.481   3.214  26.643  1.00  0.00     0.125 C 
HETATM   14  C9  UNL     1       7.904   3.994  27.798  1.00  0.00     0.040 C 
BRANCH  13  15
HETATM   15  O1  UNL     1       7.911   1.959  26.529  1.00  0.00    -0.395 OA
ATOM     16  H1  UNL     1       7.691   1.793  25.620  1.00  0.00     0.210 HD
ENDBRANCH  13  15
ENDBRANCH  10  13
TORSDOF 2
ENDMDL
MODEL 3
REMARK VINA RESULT: -5.669426882      1.246      1.301
REMARK  2 active torsions:
REMARK  status: ('A' for Active; 'I' for Inactive)
REMARK    1  A    between atoms: C7_10  and  C8_11 
REMARK    2  A    between atoms: C8_11  and  O1_13 
ROOT
HETATM    1  C1  UNL     1       6.713   6.087  23.191  1.00  0.00     0.013 C 
HETATM    2  C2  UNL     1       7.564   5.333  23.573  1.00  0.00    -0.105 C 
HETATM    3  C3  UNL     1       8.602   4.444  24.042  1.00  0.00     0.057 C 
HETATM    4  C4  UNL     1      10.016   4.963  23.960  1.00  0.00     0.256 C 
HETATM    5  N1  UNL     1      10.862   3.882  23.548  1.00  0.00    -0.068 N 
ATOM      6  H11 UNL     1      11.732   3.826  24.078  1.00  0.00     0.277 HD
ATOM      7  H12 UNL     1      11.282   4.027  22.629  1.00  0.00     0.277 HD
HETATM    8  C5  UNL     1      10.056   2.665  23.629  1.00  0.00     0.204 A 
HETATM    9  C6  UNL     1       8.727   3.123  23.325  1.00  0.00     0.053 A 
HETATM   10  C7  UNL     1       9.063   2.510  24.706  1.00  0.00     0.026 A 
HETATM   11  C10 UNL     1       8.293   3.647  25.281  1.00  0.00     0.018 C 
HETATM   12  C11 UNL     1       8.736   4.194  26.582  1.00  0.00     0.012 C 
ENDROOT
BRANCH  10  13
HETATM   13  C8  UNL     1       8.567   1.136  24.992  1.00  0.00     0.125 C 
HETATM   14  C9  UNL     1       9.265   0.075  24.178  1.00  0.00     0.040 C 
BRANCH  13  15
HETATM   15  O1  UNL     1       8.651   0.888  26.349  1.00  0.00    -0.395 OA
ATOM     16  H1  UNL     1       9.559   0.745  26.589  1.00  0.00     0.210 HD
ENDBRANCH  13  15
ENDBRANCH  10  13
TORSDOF 2
ENDMDL
MODEL 4
REMARK VINA RESULT: -5.590787223      1.439      1.914
REMARK  2 active torsions:
REMARK  status: ('A' for Active; 'I' for Inactive)
REMARK    1  A    between atoms: C7_10  and  C8_11 
REMARK    2  A    between atoms: C8_11  and  O1_13 
ROOT
HETATM    1  C1  UNL     1       5.255   5.642  24.303  1.00  0.00     0.013 C 
HETATM    2  C2  UNL     1       6.432   5.433  24.393  1.00  0.00    -0.105 C 
HETATM    3  C3  UNL     1       7.852   5.194  24.522  1.00  0.00     0.057 C 
HETATM    4  C4  UNL     1       8.666   6.309  25.130  1.00  0.00     0.256 C 
HETATM    5  N1  UNL     1       9.905   6.394  24.415  1.00  0.00    -0.068 N 
ATOM      6  H11 UNL     1      10.715   6.509  25.024  1.00  0.00     0.277 HD
ATOM      7  H12 UNL     1      10.011   7.266  23.896  1.00  0.00     0.277 HD
HETATM    8  C5  UNL     1       9.982   5.205  23.568  1.00  0.00     0.204 A 
HETATM    9  C6  UNL     1       8.606   4.936  23.243  1.00  0.00     0.053 A 
HETATM   10  C7  UNL     1       9.448   3.920  24.052  1.00  0.00     0.026 A 
HETATM   11  C10 UNL     1       8.263   3.809  24.946  1.00  0.00     0.018 C 
HETATM   12  C11 UNL     1       8.503   3.571  26.385  1.00  0.00     0.012 C 
ENDROOT
BRANCH  10  13
HETATM   13  C8  UNL     1       9.896   2.683  23.356  1.00  0.00     0.125 C 
HETATM   14  C9  UNL     1       9.119   1.458  23.770  1.00  0.00     0.040 C 
BRANCH  13  15
HETATM   15  O1  UNL     1       9.858   2.884  21.988  1.00  0.00    -0.395 OA
ATOM     16  H1  UNL     1       9.031   2.568  21.645  1.00  0.00     0.210 HD
ENDBRANCH  13  15
ENDBRANCH  10  13
TORSDOF 2
ENDMDL
MODEL 5
REMARK VINA RESULT: -5.471698354      2.669      3.766
REMARK  2 active torsions:
REMARK  status: ('A' for Active; 'I' for Inactive)
REMARK    1  A    between atoms: C7_10  and  C8_11 
REMARK    2  A    between atoms: C8_11  and  O1_13 
ROOT
HETATM    1  C1  UNL     1       8.990   8.287  26.377  1.00  0.00     0.013 C 
HETATM    2  C2  UNL     1       9.058   7.597  25.399  1.00  0.00    -0.105 C 
HETATM    3  C3  UNL     1       9.136   6.784  24.207  1.00  0.00     0.057 C 
HETATM    4  C4  UNL     1       8.301   7.233  23.033  1.00  0.00     0.256 C 
HETATM    5  N1  UNL     1       7.748   6.067  22.411  1.00  0.00    -0.068 N 
ATOM      6  H11 UNL     1       7.804   6.089  21.392  1.00  0.00     0.277 HD
ATOM      7  H12 UNL     1       6.731   6.017  22.481  1.00  0.00     0.277 HD
HETATM    8  C5  UNL     1       8.425   4.915  23.003  1.00  0.00     0.204 A 
HETATM    9  C6  UNL     1       8.706   5.346  24.347  1.00  0.00     0.053 A 
HETATM   10  C7  UNL     1       9.851   5.004  23.363  1.00  0.00     0.026 A 
HETATM   11  C10 UNL     1      10.499   6.255  23.845  1.00  0.00     0.018 C 
HETATM   12  C11 UNL     1      11.308   7.030  22.881  1.00  0.00     0.012 C 
ENDROOT
BRANCH  10  13
HETATM   13  C8  UNL     1      10.587   3.727  23.576  1.00  0.00     0.125 C 
HETATM   14  C9  UNL     1       9.892   2.536  22.966  1.00  0.00     0.040 C 
BRANCH  13  15
HETATM   15  O1  UNL     1      11.885   3.862  23.117  1.00  0.00    -0.395 OA
ATOM     16  H1  UNL     1      12.309   3.012  23.113  1.00  0.00     0.210 HD
ENDBRANCH  13  15
ENDBRANCH  10  13
TORSDOF 2
ENDMDL
