MODEL 1
REMARK VINA RESULT: -8.058991984      0.000      0.000
REMARK  13 active torsions:
REMARK  status: ('A' for Active; 'I' for Inactive)
REMARK    1  A    between atoms: C2_2  and  C3_3 
REMARK    2  A    between atoms: C3_3  and  C4_4 
REMARK    3  A    between atoms: C4_4  and  C5_5 
REMARK    4  A    between atoms: C5_5  and  C6_6 
REMARK    5  A    between atoms: C6_6  and  C7_7 
REMARK    6  A    between atoms: C8_10  and  O1_11 
REMARK    7  A    between atoms: C19_27  and  C20_28 
REMARK    8  A    between atoms: C20_28  and  C21_29 
REMARK    9  A    between atoms: N5_37  and  C26_38 
REMARK   10  A    between atoms: C26_38  and  C27_39 
REMARK   11  A    between atoms: C28_42  and  O6_43 
REMARK   12  A    between atoms: C29_45  and  C30_46 
REMARK   13  A    between atoms: C30_46  and  C31_47 
ROOT
HETATM    1  C7  UNL     1       9.361  25.826   6.781  1.00  0.00     0.175 C 
HETATM    2  N1  UNL     1       7.963  25.958   6.501  1.00  0.00    -0.360 N 
ATOM      3  H1  UNL     1       7.390  25.225   6.918  1.00  0.00     0.162 HD
HETATM    4  C8  UNL     1       7.234  26.890   5.771  1.00  0.00     0.139 C 
HETATM    5  C9  UNL     1       6.772  28.242   6.119  1.00  0.00     0.325 C 
HETATM    6  N2  UNL     1       5.322  28.290   6.238  1.00  0.00    -0.044 N 
HETATM    7  C10 UNL     1       4.959  29.631   6.625  1.00  0.00     0.279 C 
HETATM    8  C11 UNL     1       4.679  28.004   4.991  1.00  0.00     0.199 C 
HETATM    9  C12 UNL     1       3.774  27.108   4.615  1.00  0.00     0.005 C 
HETATM   10  C13 UNL     1       3.034  26.022   5.295  1.00  0.00     0.027 C 
HETATM   11  C14 UNL     1       2.570  26.365   6.676  1.00  0.00     0.012 C 
HETATM   12  C15 UNL     1       3.308  27.545   7.253  1.00  0.00     0.029 C 
HETATM   13  C16 UNL     1       4.809  27.364   7.199  1.00  0.00     0.243 C 
HETATM   14  C17 UNL     1       3.723  24.686   5.269  1.00  0.00     0.131 C 
HETATM   15  N3  UNL     1       2.917  23.629   4.698  1.00  0.00    -0.359 N 
ATOM     16  H3  UNL     1       1.932  23.614   4.962  1.00  0.00     0.162 HD
HETATM   17  C18 UNL     1       3.351  22.614   3.813  1.00  0.00     0.240 C 
HETATM   18  O2  UNL     1       3.220  21.402   4.229  1.00  0.00    -0.271 OA
HETATM   19  C19 UNL     1       3.934  22.780   2.480  1.00  0.00     0.177 C 
HETATM   20  N4  UNL     1       4.850  23.924   2.416  1.00  0.00    -0.346 N 
ATOM     21  H4  UNL     1       4.420  24.847   2.487  1.00  0.00     0.163 HD
HETATM   22  C24 UNL     1       6.231  23.904   2.269  1.00  0.00     0.236 C 
HETATM   23  O3  UNL     1       6.788  24.578   1.319  1.00  0.00    -0.272 OA
HETATM   24  C25 UNL     1       7.204  23.154   3.132  1.00  0.00     0.228 C 
HETATM   25  N5  UNL     1       8.507  23.084   2.445  1.00  0.00    -0.345 N 
HETATM   26  C28 UNL     1       9.544  24.008   2.614  1.00  0.00     0.137 C 
HETATM   27  C29 UNL     1      10.078  24.642   3.802  1.00  0.00     0.159 C 
HETATM   28  N6  UNL     1       9.708  23.943   5.045  1.00  0.00    -0.347 N 
ATOM     29  H6  UNL     1       9.321  23.004   4.956  1.00  0.00     0.163 HD
HETATM   30  C34 UNL     1       9.842  24.458   6.331  1.00  0.00     0.241 C 
HETATM   31  O7  UNL     1      10.415  23.732   7.214  1.00  0.00    -0.271 OA
ENDROOT
BRANCH   1  32
HETATM   32  C6  UNL     1       9.606  25.951   8.258  1.00  0.00     0.035 C 
BRANCH  32  33
HETATM   33  C5  UNL     1      10.729  26.836   8.658  1.00  0.00     0.002 C 
BRANCH  33  34
HETATM   34  C4  UNL     1      11.937  26.077   9.149  1.00  0.00     0.000 C 
BRANCH  34  35
HETATM   35  C3  UNL     1      12.917  25.742   8.047  1.00  0.00    -0.000 C 
BRANCH  35  36
HETATM   36  C2  UNL     1      13.880  24.650   8.527  1.00  0.00    -0.005 C 
HETATM   37  C1  UNL     1      13.587  23.326   7.828  1.00  0.00     0.005 C 
ENDBRANCH  35  36
ENDBRANCH  34  35
ENDBRANCH  33  34
ENDBRANCH  32  33
ENDBRANCH   1  32
BRANCH   4  38
HETATM   38  O1  UNL     1       6.871  26.545   4.563  1.00  0.00    -0.348 OA
ATOM     39  H1  UNL     1       6.023  26.851   4.264  1.00  0.00     0.219 HD
ENDBRANCH   4  38
BRANCH  27  40
HETATM   40  C30 UNL     1      11.520  24.983   3.802  1.00  0.00     0.037 C 
BRANCH  40  41
HETATM   41  C31 UNL     1      12.536  24.002   4.170  1.00  0.00    -0.020 C 
HETATM   42  C32 UNL     1      13.026  23.004   3.198  1.00  0.00     0.009 C 
HETATM   43  C33 UNL     1      13.789  24.814   4.602  1.00  0.00     0.009 C 
ENDBRANCH  40  41
ENDBRANCH  27  40
BRANCH  26  44
HETATM   44  O6  UNL     1      10.130  24.365   1.506  1.00  0.00    -0.348 OA
ATOM     45  H6  UNL     1      10.693  25.126   1.588  1.00  0.00     0.219 HD
ENDBRANCH  26  44
BRANCH  25  46
HETATM   46  C26 UNL     1       8.662  21.987   1.513  1.00  0.00     0.238 C 
BRANCH  46  47
HETATM   47  C27 UNL     1       9.050  20.720   2.131  1.00  0.00     0.191 C 
HETATM   48  O4  UNL     1       8.720  20.382   3.288  1.00  0.00    -0.647 OA
HETATM   49  O5  UNL     1       9.827  19.825   1.414  1.00  0.00    -0.647 OA
ENDBRANCH  46  47
ENDBRANCH  25  46
BRANCH  19  50
HETATM   50  C20 UNL     1       2.969  22.997   1.353  1.00  0.00     0.038 C 
BRANCH  50  51
HETATM   51  C21 UNL     1       2.792  24.334   0.778  1.00  0.00    -0.020 C 
HETATM   52  C22 UNL     1       1.517  24.932   1.455  1.00  0.00     0.009 C 
HETATM   53  C23 UNL     1       2.525  24.338  -0.692  1.00  0.00     0.009 C 
ENDBRANCH  50  51
ENDBRANCH  19  50
TORSDOF 13
ENDMDL
MODEL 2
REMARK VINA RESULT: -7.773721517      0.838      1.066
REMARK  13 active torsions:
REMARK  status: ('A' for Active; 'I' for Inactive)
REMARK    1  A    between atoms: C2_2  and  C3_3 
REMARK    2  A    between atoms: C3_3  and  C4_4 
REMARK    3  A    between atoms: C4_4  and  C5_5 
REMARK    4  A    between atoms: C5_5  and  C6_6 
REMARK    5  A    between atoms: C6_6  and  C7_7 
REMARK    6  A    between atoms: C8_10  and  O1_11 
REMARK    7  A    between atoms: C19_27  and  C20_28 
REMARK    8  A    between atoms: C20_28  and  C21_29 
REMARK    9  A    between atoms: N5_37  and  C26_38 
REMARK   10  A    between atoms: C26_38  and  C27_39 
REMARK   11  A    between atoms: C28_42  and  O6_43 
REMARK   12  A    between atoms: C29_45  and  C30_46 
REMARK   13  A    between atoms: C30_46  and  C31_47 
ROOT
HETATM    1  C7  UNL     1       8.659  26.229   7.146  1.00  0.00     0.175 C 
HETATM    2  N1  UNL     1       7.288  26.323   6.745  1.00  0.00    -0.360 N 
ATOM      3  H1  UNL     1       6.708  25.555   7.082  1.00  0.00     0.162 HD
HETATM    4  C8  UNL     1       6.593  27.257   5.985  1.00  0.00     0.139 C 
HETATM    5  C9  UNL     1       6.051  28.579   6.338  1.00  0.00     0.325 C 
HETATM    6  N2  UNL     1       4.595  28.572   6.327  1.00  0.00    -0.044 N 
HETATM    7  C10 UNL     1       4.149  29.884   6.727  1.00  0.00     0.279 C 
HETATM    8  C11 UNL     1       4.077  28.314   5.017  1.00  0.00     0.199 C 
HETATM    9  C12 UNL     1       3.245  27.403   4.528  1.00  0.00     0.005 C 
HETATM   10  C13 UNL     1       2.488  26.267   5.099  1.00  0.00     0.027 C 
HETATM   11  C14 UNL     1       1.890  26.539   6.444  1.00  0.00     0.012 C 
HETATM   12  C15 UNL     1       2.528  27.720   7.127  1.00  0.00     0.029 C 
HETATM   13  C16 UNL     1       4.033  27.593   7.203  1.00  0.00     0.243 C 
HETATM   14  C17 UNL     1       3.226  24.957   5.087  1.00  0.00     0.131 C 
HETATM   15  N3  UNL     1       2.514  23.896   4.408  1.00  0.00    -0.359 N 
ATOM     16  H3  UNL     1       1.511  23.837   4.580  1.00  0.00     0.162 HD
HETATM   17  C18 UNL     1       3.064  22.932   3.530  1.00  0.00     0.240 C 
HETATM   18  O2  UNL     1       2.941  21.701   3.890  1.00  0.00    -0.271 OA
HETATM   19  C19 UNL     1       3.757  23.170   2.262  1.00  0.00     0.177 C 
HETATM   20  N4  UNL     1       4.632  24.346   2.323  1.00  0.00    -0.346 N 
ATOM     21  H4  UNL     1       4.163  25.250   2.389  1.00  0.00     0.163 HD
HETATM   22  C24 UNL     1       6.020  24.379   2.302  1.00  0.00     0.236 C 
HETATM   23  O3  UNL     1       6.634  25.107   1.431  1.00  0.00    -0.272 OA
HETATM   24  C25 UNL     1       6.939  23.629   3.222  1.00  0.00     0.228 C 
HETATM   25  N5  UNL     1       8.300  23.630   2.655  1.00  0.00    -0.345 N 
HETATM   26  C28 UNL     1       9.282  24.582   2.950  1.00  0.00     0.137 C 
HETATM   27  C29 UNL     1       9.684  25.187   4.204  1.00  0.00     0.159 C 
HETATM   28  N6  UNL     1       9.230  24.428   5.383  1.00  0.00    -0.347 N 
ATOM     29  H6  UNL     1       8.888  23.480   5.225  1.00  0.00     0.163 HD
HETATM   30  C34 UNL     1       9.229  24.896   6.693  1.00  0.00     0.241 C 
HETATM   31  O7  UNL     1       9.747  24.156   7.598  1.00  0.00    -0.271 OA
ENDROOT
BRANCH   1  32
HETATM   32  C6  UNL     1       8.766  26.304   8.643  1.00  0.00     0.035 C 
BRANCH  32  33
HETATM   33  C5  UNL     1       9.436  27.512   9.187  1.00  0.00     0.002 C 
BRANCH  33  34
HETATM   34  C4  UNL     1      10.897  27.595   8.821  1.00  0.00     0.000 C 
BRANCH  34  35
HETATM   35  C3  UNL     1      11.680  26.362   9.214  1.00  0.00    -0.000 C 
BRANCH  35  36
HETATM   36  C2  UNL     1      12.687  26.016   8.110  1.00  0.00    -0.005 C 
HETATM   37  C1  UNL     1      13.407  24.710   8.426  1.00  0.00     0.005 C 
ENDBRANCH  35  36
ENDBRANCH  34  35
ENDBRANCH  33  34
ENDBRANCH  32  33
ENDBRANCH   1  32
BRANCH   4  38
HETATM   38  O1  UNL     1       6.353  26.949   4.738  1.00  0.00    -0.348 OA
ATOM     39  H1  UNL     1       6.135  27.663   4.151  1.00  0.00     0.219 HD
ENDBRANCH   4  38
BRANCH  27  40
HETATM   40  C30 UNL     1      11.106  25.577   4.347  1.00  0.00     0.037 C 
BRANCH  40  41
HETATM   41  C31 UNL     1      12.139  24.593   4.658  1.00  0.00    -0.020 C 
HETATM   42  C32 UNL     1      12.374  23.425   3.785  1.00  0.00     0.009 C 
HETATM   43  C33 UNL     1      13.485  25.370   4.686  1.00  0.00     0.009 C 
ENDBRANCH  40  41
ENDBRANCH  27  40
BRANCH  26  44
HETATM   44  O6  UNL     1       9.952  25.001   1.914  1.00  0.00    -0.348 OA
ATOM     45  H6  UNL     1      10.259  25.898   1.983  1.00  0.00     0.219 HD
ENDBRANCH  26  44
BRANCH  25  46
HETATM   46  C26 UNL     1       8.579  22.577   1.703  1.00  0.00     0.238 C 
BRANCH  46  47
HETATM   47  C27 UNL     1       8.997  21.312   2.306  1.00  0.00     0.191 C 
HETATM   48  O4  UNL     1       9.028  21.108   3.538  1.00  0.00    -0.647 OA
HETATM   49  O5  UNL     1       9.385  20.264   1.486  1.00  0.00    -0.647 OA
ENDBRANCH  46  47
ENDBRANCH  25  46
BRANCH  19  50
HETATM   50  C20 UNL     1       2.890  23.398   1.061  1.00  0.00     0.038 C 
BRANCH  50  51
HETATM   51  C21 UNL     1       1.430  23.315   1.175  1.00  0.00    -0.020 C 
HETATM   52  C22 UNL     1       0.948  22.463  -0.042  1.00  0.00     0.009 C 
HETATM   53  C23 UNL     1       0.733  24.632   1.066  1.00  0.00     0.009 C 
ENDBRANCH  50  51
ENDBRANCH  19  50
TORSDOF 13
ENDMDL
MODEL 3
REMARK VINA RESULT: -7.168809155      1.169      1.432
REMARK  13 active torsions:
REMARK  status: ('A' for Active; 'I' for Inactive)
REMARK    1  A    between atoms: C2_2  and  C3_3 
REMARK    2  A    between atoms: C3_3  and  C4_4 
REMARK    3  A    between atoms: C4_4  and  C5_5 
REMARK    4  A    between atoms: C5_5  and  C6_6 
REMARK    5  A    between atoms: C6_6  and  C7_7 
REMARK    6  A    between atoms: C8_10  and  O1_11 
REMARK    7  A    between atoms: C19_27  and  C20_28 
REMARK    8  A    between atoms: C20_28  and  C21_29 
REMARK    9  A    between atoms: N5_37  and  C26_38 
REMARK   10  A    between atoms: C26_38  and  C27_39 
REMARK   11  A    between atoms: C28_42  and  O6_43 
REMARK   12  A    between atoms: C29_45  and  C30_46 
REMARK   13  A    between atoms: C30_46  and  C31_47 
ROOT
HETATM    1  C7  UNL     1      10.449  24.621   6.922  1.00  0.00     0.175 C 
HETATM    2  N1  UNL     1       9.113  25.070   6.671  1.00  0.00    -0.360 N 
ATOM      3  H1  UNL     1       8.395  24.459   7.059  1.00  0.00     0.162 HD
HETATM    4  C8  UNL     1       8.603  26.176   6.001  1.00  0.00     0.139 C 
HETATM    5  C9  UNL     1       8.450  27.576   6.424  1.00  0.00     0.325 C 
HETATM    6  N2  UNL     1       7.046  27.933   6.569  1.00  0.00    -0.044 N 
HETATM    7  C10 UNL     1       6.988  29.299   7.029  1.00  0.00     0.279 C 
HETATM    8  C11 UNL     1       6.351  27.862   5.319  1.00  0.00     0.199 C 
HETATM    9  C12 UNL     1       5.270  27.206   4.912  1.00  0.00     0.005 C 
HETATM   10  C13 UNL     1       4.313  26.274   5.548  1.00  0.00     0.027 C 
HETATM   11  C14 UNL     1       3.942  26.636   6.952  1.00  0.00     0.012 C 
HETATM   12  C15 UNL     1       4.922  27.594   7.576  1.00  0.00     0.029 C 
HETATM   13  C16 UNL     1       6.347  27.093   7.489  1.00  0.00     0.243 C 
HETATM   14  C17 UNL     1       4.693  24.823   5.443  1.00  0.00     0.131 C 
HETATM   15  N3  UNL     1       3.672  23.999   4.832  1.00  0.00    -0.359 N 
ATOM     16  H3  UNL     1       2.708  24.186   5.110  1.00  0.00     0.162 HD
HETATM   17  C18 UNL     1       3.869  22.962   3.890  1.00  0.00     0.240 C 
HETATM   18  O2  UNL     1       3.477  21.788   4.247  1.00  0.00    -0.271 OA
HETATM   19  C19 UNL     1       4.468  23.067   2.558  1.00  0.00     0.177 C 
HETATM   20  N4  UNL     1       5.613  23.985   2.538  1.00  0.00    -0.346 N 
ATOM     21  H4  UNL     1       5.396  24.975   2.663  1.00  0.00     0.163 HD
HETATM   22  C24 UNL     1       6.955  23.671   2.368  1.00  0.00     0.236 C 
HETATM   23  O3  UNL     1       7.642  24.256   1.445  1.00  0.00    -0.272 OA
HETATM   24  C25 UNL     1       7.743  22.682   3.177  1.00  0.00     0.228 C 
HETATM   25  N5  UNL     1       8.996  22.365   2.467  1.00  0.00    -0.345 N 
HETATM   26  C28 UNL     1      10.212  23.030   2.666  1.00  0.00     0.137 C 
HETATM   27  C29 UNL     1      10.877  23.469   3.876  1.00  0.00     0.159 C 
HETATM   28  N6  UNL     1      10.368  22.802   5.088  1.00  0.00    -0.347 N 
ATOM     29  H6  UNL     1       9.784  21.977   4.957  1.00  0.00     0.163 HD
HETATM   30  C34 UNL     1      10.617  23.207   6.396  1.00  0.00     0.241 C 
HETATM   31  O7  UNL     1      11.021  22.327   7.232  1.00  0.00    -0.271 OA
ENDROOT
BRANCH   1  32
HETATM   32  C6  UNL     1      10.723  24.612   8.400  1.00  0.00     0.035 C 
BRANCH  32  33
HETATM   33  C5  UNL     1      11.732  25.588   8.881  1.00  0.00     0.002 C 
BRANCH  33  34
HETATM   34  C4  UNL     1      13.118  25.321   8.345  1.00  0.00     0.000 C 
BRANCH  34  35
HETATM   35  C3  UNL     1      13.574  23.895   8.560  1.00  0.00    -0.000 C 
BRANCH  35  36
HETATM   36  C2  UNL     1      15.100  23.816   8.427  1.00  0.00    -0.005 C 
HETATM   37  C1  UNL     1      15.590  22.394   8.680  1.00  0.00     0.005 C 
ENDBRANCH  35  36
ENDBRANCH  34  35
ENDBRANCH  33  34
ENDBRANCH  32  33
ENDBRANCH   1  32
BRANCH   4  38
HETATM   38  O1  UNL     1       8.168  25.984   4.783  1.00  0.00    -0.348 OA
ATOM     39  H1  UNL     1       8.535  26.535   4.102  1.00  0.00     0.219 HD
ENDBRANCH   4  38
BRANCH  27  40
HETATM   40  C30 UNL     1      12.358  23.485   3.870  1.00  0.00     0.037 C 
BRANCH  40  41
HETATM   41  C31 UNL     1      13.109  24.708   4.143  1.00  0.00    -0.020 C 
HETATM   42  C32 UNL     1      12.522  25.807   4.936  1.00  0.00     0.009 C 
HETATM   43  C33 UNL     1      14.385  24.271   4.915  1.00  0.00     0.009 C 
ENDBRANCH  40  41
ENDBRANCH  27  40
BRANCH  26  44
HETATM   44  O6  UNL     1      10.857  23.308   1.568  1.00  0.00    -0.348 OA
ATOM     45  H6  UNL     1      10.417  23.933   1.003  1.00  0.00     0.219 HD
ENDBRANCH  26  44
BRANCH  25  46
HETATM   46  C26 UNL     1       8.904  21.312   1.478  1.00  0.00     0.238 C 
BRANCH  46  47
HETATM   47  C27 UNL     1       9.067  19.962   2.017  1.00  0.00     0.191 C 
HETATM   48  O4  UNL     1       8.306  19.459   2.870  1.00  0.00    -0.647 OA
HETATM   49  O5  UNL     1      10.116  19.176   1.571  1.00  0.00    -0.647 OA
ENDBRANCH  46  47
ENDBRANCH  25  46
BRANCH  19  50
HETATM   50  C20 UNL     1       3.570  23.549   1.459  1.00  0.00     0.038 C 
BRANCH  50  51
HETATM   51  C21 UNL     1       3.805  24.852   0.829  1.00  0.00    -0.020 C 
HETATM   52  C22 UNL     1       2.570  25.737   1.189  1.00  0.00     0.009 C 
HETATM   53  C23 UNL     1       3.866  24.808  -0.664  1.00  0.00     0.009 C 
ENDBRANCH  50  51
ENDBRANCH  19  50
TORSDOF 13
ENDMDL
MODEL 4
REMARK VINA RESULT: -7.086376564      2.159      6.602
REMARK  13 active torsions:
REMARK  status: ('A' for Active; 'I' for Inactive)
REMARK    1  A    between atoms: C2_2  and  C3_3 
REMARK    2  A    between atoms: C3_3  and  C4_4 
REMARK    3  A    between atoms: C4_4  and  C5_5 
REMARK    4  A    between atoms: C5_5  and  C6_6 
REMARK    5  A    between atoms: C6_6  and  C7_7 
REMARK    6  A    between atoms: C8_10  and  O1_11 
REMARK    7  A    between atoms: C19_27  and  C20_28 
REMARK    8  A    between atoms: C20_28  and  C21_29 
REMARK    9  A    between atoms: N5_37  and  C26_38 
REMARK   10  A    between atoms: C26_38  and  C27_39 
REMARK   11  A    between atoms: C28_42  and  O6_43 
REMARK   12  A    between atoms: C29_45  and  C30_46 
REMARK   13  A    between atoms: C30_46  and  C31_47 
ROOT
HETATM    1  C7  UNL     1       8.673  23.510   2.909  1.00  0.00     0.175 C 
HETATM    2  N1  UNL     1       7.261  23.747   2.914  1.00  0.00    -0.360 N 
ATOM      3  H1  UNL     1       6.963  24.465   2.254  1.00  0.00     0.162 HD
HETATM    4  C8  UNL     1       6.217  23.189   3.642  1.00  0.00     0.139 C 
HETATM    5  C9  UNL     1       5.490  21.921   3.472  1.00  0.00     0.325 C 
HETATM    6  N2  UNL     1       4.111  22.154   3.066  1.00  0.00    -0.044 N 
HETATM    7  C10 UNL     1       3.488  20.867   2.878  1.00  0.00     0.279 C 
HETATM    8  C11 UNL     1       3.374  22.854   4.074  1.00  0.00     0.199 C 
HETATM    9  C12 UNL     1       2.676  23.984   4.076  1.00  0.00     0.005 C 
HETATM   10  C13 UNL     1       2.349  25.010   3.061  1.00  0.00     0.027 C 
HETATM   11  C14 UNL     1       2.035  24.457   1.706  1.00  0.00     0.012 C 
HETATM   12  C15 UNL     1       2.533  23.047   1.533  1.00  0.00     0.029 C 
HETATM   13  C16 UNL     1       4.004  22.914   1.860  1.00  0.00     0.243 C 
HETATM   14  C17 UNL     1       3.339  26.138   2.972  1.00  0.00     0.131 C 
HETATM   15  N3  UNL     1       2.745  27.446   3.149  1.00  0.00    -0.359 N 
ATOM     16  H3  UNL     1       1.849  27.606   2.689  1.00  0.00     0.162 HD
HETATM   17  C18 UNL     1       3.277  28.526   3.893  1.00  0.00     0.240 C 
HETATM   18  O2  UNL     1       3.521  29.605   3.234  1.00  0.00    -0.271 OA
HETATM   19  C19 UNL     1       3.584  28.560   5.325  1.00  0.00     0.177 C 
HETATM   20  N4  UNL     1       4.161  27.296   5.796  1.00  0.00    -0.346 N 
ATOM     21  H4  UNL     1       3.530  26.494   5.815  1.00  0.00     0.163 HD
HETATM   22  C24 UNL     1       5.463  27.058   6.219  1.00  0.00     0.236 C 
HETATM   23  O3  UNL     1       5.677  26.526   7.376  1.00  0.00    -0.272 OA
HETATM   24  C25 UNL     1       6.715  27.361   5.449  1.00  0.00     0.228 C 
HETATM   25  N5  UNL     1       7.870  27.314   6.364  1.00  0.00    -0.345 N 
HETATM   26  C28 UNL     1       8.655  26.179   6.595  1.00  0.00     0.137 C 
HETATM   27  C29 UNL     1       9.191  25.184   5.688  1.00  0.00     0.159 C 
HETATM   28  N6  UNL     1       9.207  25.632   4.284  1.00  0.00    -0.347 N 
ATOM     29  H6  UNL     1       9.060  26.626   4.109  1.00  0.00     0.163 HD
HETATM   30  C34 UNL     1       9.407  24.812   3.177  1.00  0.00     0.241 C 
HETATM   31  O7  UNL     1      10.274  25.172   2.309  1.00  0.00    -0.271 OA
ENDROOT
BRANCH   1  32
HETATM   32  C6  UNL     1       9.107  22.991   1.567  1.00  0.00     0.035 C 
BRANCH  32  33
HETATM   33  C5  UNL     1       8.942  21.532   1.350  1.00  0.00     0.002 C 
BRANCH  33  34
HETATM   34  C4  UNL     1       8.998  20.732   2.629  1.00  0.00     0.000 C 
BRANCH  34  35
HETATM   35  C3  UNL     1       8.331  19.380   2.513  1.00  0.00    -0.000 C 
BRANCH  35  36
HETATM   36  C2  UNL     1       9.368  18.327   2.102  1.00  0.00    -0.005 C 
HETATM   37  C1  UNL     1       8.739  16.938   2.061  1.00  0.00     0.005 C 
ENDBRANCH  35  36
ENDBRANCH  34  35
ENDBRANCH  33  34
ENDBRANCH  32  33
ENDBRANCH   1  32
BRANCH   4  38
HETATM   38  O1  UNL     1       5.768  23.876   4.659  1.00  0.00    -0.348 OA
ATOM     39  H1  UNL     1       6.247  24.663   4.893  1.00  0.00     0.219 HD
ENDBRANCH   4  38
BRANCH  27  40
HETATM   40  C30 UNL     1      10.483  24.556   6.052  1.00  0.00     0.037 C 
BRANCH  40  41
HETATM   41  C31 UNL     1      11.741  25.290   5.957  1.00  0.00    -0.020 C 
HETATM   42  C32 UNL     1      12.521  25.635   7.162  1.00  0.00     0.009 C 
HETATM   43  C33 UNL     1      12.687  24.419   5.083  1.00  0.00     0.009 C 
ENDBRANCH  40  41
ENDBRANCH  27  40
BRANCH  26  44
HETATM   44  O6  UNL     1       8.953  25.978   7.848  1.00  0.00    -0.348 OA
ATOM     45  H6  UNL     1       8.755  26.711   8.419  1.00  0.00     0.219 HD
ENDBRANCH  26  44
BRANCH  25  46
HETATM   46  C26 UNL     1       8.149  28.541   7.079  1.00  0.00     0.238 C 
BRANCH  46  47
HETATM   47  C27 UNL     1       8.784  28.349   8.383  1.00  0.00     0.191 C 
HETATM   48  O4  UNL     1       9.999  28.543   8.598  1.00  0.00    -0.647 OA
HETATM   49  O5  UNL     1       8.015  27.930   9.457  1.00  0.00    -0.647 OA
ENDBRANCH  46  47
ENDBRANCH  25  46
BRANCH  19  50
HETATM   50  C20 UNL     1       2.432  28.823   6.248  1.00  0.00     0.038 C 
BRANCH  50  51
HETATM   51  C21 UNL     1       1.896  27.747   7.087  1.00  0.00    -0.020 C 
HETATM   52  C22 UNL     1       0.733  27.098   6.271  1.00  0.00     0.009 C 
HETATM   53  C23 UNL     1       1.293  28.217   8.372  1.00  0.00     0.009 C 
ENDBRANCH  50  51
ENDBRANCH  19  50
TORSDOF 13
ENDMDL
MODEL 5
REMARK VINA RESULT: -6.928123654      1.011      1.659
REMARK  13 active torsions:
REMARK  status: ('A' for Active; 'I' for Inactive)
REMARK    1  A    between atoms: C2_2  and  C3_3 
REMARK    2  A    between atoms: C3_3  and  C4_4 
REMARK    3  A    between atoms: C4_4  and  C5_5 
REMARK    4  A    between atoms: C5_5  and  C6_6 
REMARK    5  A    between atoms: C6_6  and  C7_7 
REMARK    6  A    between atoms: C8_10  and  O1_11 
REMARK    7  A    between atoms: C19_27  and  C20_28 
REMARK    8  A    between atoms: C20_28  and  C21_29 
REMARK    9  A    between atoms: N5_37  and  C26_38 
REMARK   10  A    between atoms: C26_38  and  C27_39 
REMARK   11  A    between atoms: C28_42  and  O6_43 
REMARK   12  A    between atoms: C29_45  and  C30_46 
REMARK   13  A    between atoms: C30_46  and  C31_47 
ROOT
HETATM    1  C7  UNL     1      10.028  25.207   6.473  1.00  0.00     0.175 C 
HETATM    2  N1  UNL     1       8.623  25.417   6.294  1.00  0.00    -0.360 N 
ATOM      3  H1  UNL     1       8.042  24.720   6.760  1.00  0.00     0.162 HD
HETATM    4  C8  UNL     1       7.896  26.385   5.611  1.00  0.00     0.139 C 
HETATM    5  C9  UNL     1       7.538  27.764   5.978  1.00  0.00     0.325 C 
HETATM    6  N2  UNL     1       6.106  27.895   6.203  1.00  0.00    -0.044 N 
HETATM    7  C10 UNL     1       5.849  29.256   6.602  1.00  0.00     0.279 C 
HETATM    8  C11 UNL     1       5.358  27.640   5.009  1.00  0.00     0.199 C 
HETATM    9  C12 UNL     1       4.379  26.795   4.708  1.00  0.00     0.005 C 
HETATM   10  C13 UNL     1       3.630  25.757   5.452  1.00  0.00     0.027 C 
HETATM   11  C14 UNL     1       3.289  26.133   6.860  1.00  0.00     0.012 C 
HETATM   12  C15 UNL     1       4.133  27.272   7.369  1.00  0.00     0.029 C 
HETATM   13  C16 UNL     1       5.613  27.005   7.207  1.00  0.00     0.243 C 
HETATM   14  C17 UNL     1       4.239  24.383   5.388  1.00  0.00     0.131 C 
HETATM   15  N3  UNL     1       3.334  23.371   4.888  1.00  0.00    -0.359 N 
ATOM     16  H3  UNL     1       2.372  23.414   5.223  1.00  0.00     0.162 HD
HETATM   17  C18 UNL     1       3.644  22.328   3.983  1.00  0.00     0.240 C 
HETATM   18  O2  UNL     1       3.475  21.127   4.420  1.00  0.00    -0.271 OA
HETATM   19  C19 UNL     1       4.135  22.452   2.610  1.00  0.00     0.177 C 
HETATM   20  N4  UNL     1       5.108  23.542   2.468  1.00  0.00    -0.346 N 
ATOM     21  H4  UNL     1       4.737  24.489   2.562  1.00  0.00     0.163 HD
HETATM   22  C24 UNL     1       6.471  23.442   2.221  1.00  0.00     0.236 C 
HETATM   23  O3  UNL     1       6.994  24.077   1.226  1.00  0.00    -0.272 OA
HETATM   24  C25 UNL     1       7.461  22.642   3.018  1.00  0.00     0.228 C 
HETATM   25  N5  UNL     1       8.703  22.494   2.238  1.00  0.00    -0.345 N 
HETATM   26  C28 UNL     1       9.801  23.358   2.322  1.00  0.00     0.137 C 
HETATM   27  C29 UNL     1      10.456  23.968   3.461  1.00  0.00     0.159 C 
HETATM   28  N6  UNL     1      10.139  23.298   4.735  1.00  0.00    -0.347 N 
ATOM     29  H6  UNL     1       9.694  22.382   4.684  1.00  0.00     0.163 HD
HETATM   30  C34 UNL     1      10.397  23.812   6.003  1.00  0.00     0.241 C 
HETATM   31  O7  UNL     1      10.991  23.059   6.849  1.00  0.00    -0.271 OA
ENDROOT
BRANCH   1  32
HETATM   32  C6  UNL     1      10.388  25.327   7.927  1.00  0.00     0.035 C 
BRANCH  32  33
HETATM   33  C5  UNL     1      11.510  26.245   8.246  1.00  0.00     0.002 C 
BRANCH  33  34
HETATM   34  C4  UNL     1      11.086  27.433   9.074  1.00  0.00     0.000 C 
BRANCH  34  35
HETATM   35  C3  UNL     1      10.077  28.315   8.375  1.00  0.00    -0.000 C 
BRANCH  35  36
HETATM   36  C2  UNL     1       8.823  28.458   9.248  1.00  0.00    -0.005 C 
HETATM   37  C1  UNL     1       8.218  27.091   9.551  1.00  0.00     0.005 C 
ENDBRANCH  35  36
ENDBRANCH  34  35
ENDBRANCH  33  34
ENDBRANCH  32  33
ENDBRANCH   1  32
BRANCH   4  38
HETATM   38  O1  UNL     1       7.427  26.055   4.436  1.00  0.00    -0.348 OA
ATOM     39  H1  UNL     1       6.753  26.615   4.069  1.00  0.00     0.219 HD
ENDBRANCH   4  38
BRANCH  27  40
HETATM   40  C30 UNL     1      11.911  24.226   3.352  1.00  0.00     0.037 C 
BRANCH  40  41
HETATM   41  C31 UNL     1      12.810  24.018   4.484  1.00  0.00    -0.020 C 
HETATM   42  C32 UNL     1      13.965  23.103   4.388  1.00  0.00     0.009 C 
HETATM   43  C33 UNL     1      13.408  25.411   4.825  1.00  0.00     0.009 C 
ENDBRANCH  40  41
ENDBRANCH  27  40
BRANCH  26  44
HETATM   44  O6  UNL     1      10.324  23.675   1.170  1.00  0.00    -0.348 OA
ATOM     45  H6  UNL     1      10.456  24.607   1.044  1.00  0.00     0.219 HD
ENDBRANCH  26  44
BRANCH  25  46
HETATM   46  C26 UNL     1       8.728  21.385   1.308  1.00  0.00     0.238 C 
BRANCH  46  47
HETATM   47  C27 UNL     1       8.998  20.087   1.924  1.00  0.00     0.191 C 
HETATM   48  O4  UNL     1       8.281  19.577   2.811  1.00  0.00    -0.647 OA
HETATM   49  O5  UNL     1      10.105  19.360   1.517  1.00  0.00    -0.647 OA
ENDBRANCH  46  47
ENDBRANCH  25  46
BRANCH  19  50
HETATM   50  C20 UNL     1       3.105  22.718   1.554  1.00  0.00     0.038 C 
BRANCH  50  51
HETATM   51  C21 UNL     1       2.896  24.079   1.050  1.00  0.00    -0.020 C 
HETATM   52  C22 UNL     1       1.694  24.662   1.859  1.00  0.00     0.009 C 
HETATM   53  C23 UNL     1       2.500  24.144  -0.390  1.00  0.00     0.009 C 
ENDBRANCH  50  51
ENDBRANCH  19  50
TORSDOF 13
ENDMDL
