MODEL 1
REMARK VINA RESULT: -5.758643645      0.000      0.000
REMARK  5 active torsions:
REMARK  status: ('A' for Active; 'I' for Inactive)
REMARK    1  A    between atoms: C2_2  and  C3_3 
REMARK    2  A    between atoms: C2_2  and  C4_6 
REMARK    3  A    between atoms: C3_3  and  O1_4 
REMARK    4  A    between atoms: C9_11  and  O2_12 
REMARK    5  A    between atoms: C11_15  and  O3_16 
ROOT
HETATM    1  C4  UNL     1      44.411  13.396  -0.101  1.00  0.00     0.021 C 
HETATM    2  C5  UNL     1      44.169  12.887   1.299  1.00  0.00     0.010 C 
HETATM    3  C6  UNL     1      44.117  11.409   1.223  1.00  0.00     0.013 C 
HETATM    4  C7  UNL     1      44.498  11.037  -0.196  1.00  0.00    -0.013 C 
HETATM    5  C8  UNL     1      43.632   9.880  -0.606  1.00  0.00     0.018 C 
HETATM    6  C9  UNL     1      45.965  10.745  -0.169  1.00  0.00     0.129 C 
HETATM    7  C10 UNL     1      46.627  10.874  -1.514  1.00  0.00     0.065 C 
HETATM    8  C11 UNL     1      45.643  11.091  -2.604  1.00  0.00     0.128 C 
HETATM    9  C12 UNL     1      44.731  12.300  -2.344  1.00  0.00    -0.017 C 
HETATM   10  C13 UNL     1      43.708  12.235  -3.465  1.00  0.00     0.018 C 
HETATM   11  C14 UNL     1      45.608  13.507  -2.580  1.00  0.00     0.018 C 
HETATM   12  C15 UNL     1      44.094  12.260  -0.981  1.00  0.00     0.015 C 
ENDROOT
BRANCH   1  13
HETATM   13  C2  UNL     1      43.525  14.592  -0.214  1.00  0.00    -0.061 C 
HETATM   14  C1  UNL     1      42.883  15.002  -1.261  1.00  0.00     0.017 C 
BRANCH  13  15
HETATM   15  C3  UNL     1      43.413  15.420   1.043  1.00  0.00     0.198 C 
BRANCH  15  16
HETATM   16  O1  UNL     1      42.491  16.427   0.927  1.00  0.00    -0.397 OA
ATOM     17  H1  UNL     1      41.597  16.105   0.944  1.00  0.00     0.209 HD
ENDBRANCH  15  16
ENDBRANCH  13  15
ENDBRANCH   1  13
BRANCH   6  18
HETATM   18  O2  UNL     1      46.652  11.547   0.731  1.00  0.00    -0.395 OA
ATOM     19  H2  UNL     1      47.316  11.069   1.213  1.00  0.00     0.210 HD
ENDBRANCH   6  18
BRANCH   8  20
HETATM   20  O3  UNL     1      46.375  11.374  -3.772  1.00  0.00    -0.395 OA
ATOM     21  H3  UNL     1      45.805  11.193  -4.509  1.00  0.00     0.210 HD
ENDBRANCH   8  20
TORSDOF 5
ENDMDL
MODEL 2
REMARK VINA RESULT: -5.507956162      1.530      3.302
REMARK  5 active torsions:
REMARK  status: ('A' for Active; 'I' for Inactive)
REMARK    1  A    between atoms: C2_2  and  C3_3 
REMARK    2  A    between atoms: C2_2  and  C4_6 
REMARK    3  A    between atoms: C3_3  and  O1_4 
REMARK    4  A    between atoms: C9_11  and  O2_12 
REMARK    5  A    between atoms: C11_15  and  O3_16 
ROOT
HETATM    1  C4  UNL     1      43.645  13.333  -0.526  1.00  0.00     0.021 C 
HETATM    2  C5  UNL     1      43.388  14.124  -1.786  1.00  0.00     0.010 C 
HETATM    3  C6  UNL     1      44.259  13.557  -2.842  1.00  0.00     0.013 C 
HETATM    4  C7  UNL     1      44.906  12.322  -2.249  1.00  0.00    -0.013 C 
HETATM    5  C8  UNL     1      46.323  12.272  -2.746  1.00  0.00     0.018 C 
HETATM    6  C9  UNL     1      44.053  11.166  -2.666  1.00  0.00     0.129 C 
HETATM    7  C10 UNL     1      44.202   9.959  -1.779  1.00  0.00     0.065 C 
HETATM    8  C11 UNL     1      45.295  10.124  -0.788  1.00  0.00     0.128 C 
HETATM    9  C12 UNL     1      45.133  11.392   0.064  1.00  0.00    -0.017 C 
HETATM   10  C13 UNL     1      46.421  11.460   0.868  1.00  0.00     0.018 C 
HETATM   11  C14 UNL     1      44.003  11.079   1.016  1.00  0.00     0.018 C 
HETATM   12  C15 UNL     1      44.910  12.623  -0.771  1.00  0.00     0.015 C 
ENDROOT
BRANCH   1  13
HETATM   13  C2  UNL     1      43.657  14.363   0.555  1.00  0.00    -0.061 C 
HETATM   14  C1  UNL     1      43.934  14.187   1.808  1.00  0.00     0.017 C 
BRANCH  13  15
HETATM   15  C3  UNL     1      43.261  15.750   0.115  1.00  0.00     0.198 C 
BRANCH  15  16
HETATM   16  O1  UNL     1      42.544  16.420   1.073  1.00  0.00    -0.397 OA
ATOM     17  H1  UNL     1      41.651  16.596   0.801  1.00  0.00     0.209 HD
ENDBRANCH  15  16
ENDBRANCH  13  15
ENDBRANCH   1  13
BRANCH   6  18
HETATM   18  O2  UNL     1      42.706  11.492  -2.731  1.00  0.00    -0.395 OA
ATOM     19  H2  UNL     1      42.152  10.836  -2.326  1.00  0.00     0.210 HD
ENDBRANCH   6  18
BRANCH   8  20
HETATM   20  O3  UNL     1      45.225   9.027   0.091  1.00  0.00    -0.395 OA
ATOM     21  H3  UNL     1      45.798   8.355  -0.256  1.00  0.00     0.210 HD
ENDBRANCH   8  20
TORSDOF 5
ENDMDL
MODEL 3
REMARK VINA RESULT: -5.313910690      1.345      3.373
REMARK  5 active torsions:
REMARK  status: ('A' for Active; 'I' for Inactive)
REMARK    1  A    between atoms: C2_2  and  C3_3 
REMARK    2  A    between atoms: C2_2  and  C4_6 
REMARK    3  A    between atoms: C3_3  and  O1_4 
REMARK    4  A    between atoms: C9_11  and  O2_12 
REMARK    5  A    between atoms: C11_15  and  O3_16 
ROOT
HETATM    1  C4  UNL     1      44.262  12.937  -1.059  1.00  0.00     0.021 C 
HETATM    2  C5  UNL     1      44.540  13.707  -2.328  1.00  0.00     0.010 C 
HETATM    3  C6  UNL     1      45.803  13.176  -2.892  1.00  0.00     0.013 C 
HETATM    4  C7  UNL     1      46.183  11.977  -2.046  1.00  0.00    -0.013 C 
HETATM    5  C8  UNL     1      47.676  11.994  -1.885  1.00  0.00     0.018 C 
HETATM    6  C9  UNL     1      45.640  10.779  -2.758  1.00  0.00     0.129 C 
HETATM    7  C10 UNL     1      45.442   9.587  -1.861  1.00  0.00     0.065 C 
HETATM    8  C11 UNL     1      45.996   9.811  -0.502  1.00  0.00     0.128 C 
HETATM    9  C12 UNL     1      45.431  11.075   0.164  1.00  0.00    -0.017 C 
HETATM   10  C13 UNL     1      46.244  11.210   1.441  1.00  0.00     0.018 C 
HETATM   11  C14 UNL     1      44.015  10.714   0.547  1.00  0.00     0.018 C 
HETATM   12  C15 UNL     1      45.538  12.289  -0.718  1.00  0.00     0.015 C 
ENDROOT
BRANCH   1  13
HETATM   13  C2  UNL     1      43.766  13.973  -0.105  1.00  0.00    -0.061 C 
HETATM   14  C1  UNL     1      43.759  13.915   1.188  1.00  0.00     0.017 C 
BRANCH  13  15
HETATM   15  C3  UNL     1      43.179  15.203  -0.753  1.00  0.00     0.198 C 
BRANCH  15  16
HETATM   16  O1  UNL     1      42.843  16.167   0.162  1.00  0.00    -0.397 OA
ATOM     17  H1  UNL     1      41.935  16.437   0.088  1.00  0.00     0.209 HD
ENDBRANCH  15  16
ENDBRANCH  13  15
ENDBRANCH   1  13
BRANCH   6  18
HETATM   18  O2  UNL     1      44.440  11.039  -3.403  1.00  0.00    -0.395 OA
ATOM     19  H2  UNL     1      44.517  11.724  -4.056  1.00  0.00     0.210 HD
ENDBRANCH   6  18
BRANCH   8  20
HETATM   20  O3  UNL     1      45.599   8.718   0.291  1.00  0.00    -0.395 OA
ATOM     21  H3  UNL     1      45.217   9.073   1.084  1.00  0.00     0.210 HD
ENDBRANCH   8  20
TORSDOF 5
ENDMDL
MODEL 4
REMARK VINA RESULT: -5.251420109      2.095      3.270
REMARK  5 active torsions:
REMARK  status: ('A' for Active; 'I' for Inactive)
REMARK    1  A    between atoms: C2_2  and  C3_3 
REMARK    2  A    between atoms: C2_2  and  C4_6 
REMARK    3  A    between atoms: C3_3  and  O1_4 
REMARK    4  A    between atoms: C9_11  and  O2_12 
REMARK    5  A    between atoms: C11_15  and  O3_16 
ROOT
HETATM    1  C4  UNL     1      44.829  10.572  -0.483  1.00  0.00     0.021 C 
HETATM    2  C5  UNL     1      44.018   9.361  -0.090  1.00  0.00     0.010 C 
HETATM    3  C6  UNL     1      43.139   9.035  -1.237  1.00  0.00     0.013 C 
HETATM    4  C7  UNL     1      43.553   9.950  -2.371  1.00  0.00    -0.013 C 
HETATM    5  C8  UNL     1      42.303  10.371  -3.091  1.00  0.00     0.018 C 
HETATM    6  C9  UNL     1      44.524   9.172  -3.201  1.00  0.00     0.129 C 
HETATM    7  C10 UNL     1      45.430  10.037  -4.034  1.00  0.00     0.065 C 
HETATM    8  C11 UNL     1      45.042  11.468  -3.982  1.00  0.00     0.128 C 
HETATM    9  C12 UNL     1      44.969  12.007  -2.545  1.00  0.00    -0.017 C 
HETATM   10  C13 UNL     1      44.394  13.405  -2.707  1.00  0.00     0.018 C 
HETATM   11  C14 UNL     1      46.408  12.141  -2.106  1.00  0.00     0.018 C 
HETATM   12  C15 UNL     1      44.130  11.141  -1.646  1.00  0.00     0.015 C 
ENDROOT
BRANCH   1  13
HETATM   13  C2  UNL     1      44.856  11.410   0.753  1.00  0.00    -0.061 C 
HETATM   14  C1  UNL     1      44.009  12.325   1.104  1.00  0.00     0.017 C 
BRANCH  13  15
HETATM   15  C3  UNL     1      46.036  11.165   1.660  1.00  0.00     0.198 C 
BRANCH  15  16
HETATM   16  O1  UNL     1      46.329  12.252   2.444  1.00  0.00    -0.397 OA
ATOM     17  H1  UNL     1      47.244  12.281   2.697  1.00  0.00     0.209 HD
ENDBRANCH  15  16
ENDBRANCH  13  15
ENDBRANCH   1  13
BRANCH   6  18
HETATM   18  O2  UNL     1      45.314   8.322  -2.441  1.00  0.00    -0.395 OA
ATOM     19  H2  UNL     1      46.022   7.935  -2.942  1.00  0.00     0.210 HD
ENDBRANCH   6  18
BRANCH   8  20
HETATM   20  O3  UNL     1      46.051  12.194  -4.641  1.00  0.00    -0.395 OA
ATOM     21  H3  UNL     1      46.513  11.583  -5.202  1.00  0.00     0.210 HD
ENDBRANCH   8  20
TORSDOF 5
ENDMDL
MODEL 5
REMARK VINA RESULT: -5.102160236      1.644      3.359
REMARK  5 active torsions:
REMARK  status: ('A' for Active; 'I' for Inactive)
REMARK    1  A    between atoms: C2_2  and  C3_3 
REMARK    2  A    between atoms: C2_2  and  C4_6 
REMARK    3  A    between atoms: C3_3  and  O1_4 
REMARK    4  A    between atoms: C9_11  and  O2_12 
REMARK    5  A    between atoms: C11_15  and  O3_16 
ROOT
HETATM    1  C4  UNL     1      43.705  13.462  -0.262  1.00  0.00     0.021 C 
HETATM    2  C5  UNL     1      43.395  14.698  -1.070  1.00  0.00     0.010 C 
HETATM    3  C6  UNL     1      44.084  14.551  -2.373  1.00  0.00     0.013 C 
HETATM    4  C7  UNL     1      44.664  13.151  -2.399  1.00  0.00    -0.013 C 
HETATM    5  C8  UNL     1      46.006  13.231  -3.069  1.00  0.00     0.018 C 
HETATM    6  C9  UNL     1      43.659  12.299  -3.106  1.00  0.00     0.129 C 
HETATM    7  C10 UNL     1      43.780  10.834  -2.782  1.00  0.00     0.065 C 
HETATM    8  C11 UNL     1      44.986  10.539  -1.968  1.00  0.00     0.128 C 
HETATM    9  C12 UNL     1      45.046  11.374  -0.679  1.00  0.00    -0.017 C 
HETATM   10  C13 UNL     1      46.413  11.053  -0.099  1.00  0.00     0.018 C 
HETATM   11  C14 UNL     1      44.000  10.767   0.226  1.00  0.00     0.018 C 
HETATM   12  C15 UNL     1      44.859  12.844  -0.935  1.00  0.00     0.015 C 
ENDROOT
BRANCH   1  13
HETATM   13  C2  UNL     1      43.939  13.978   1.120  1.00  0.00    -0.061 C 
HETATM   14  C1  UNL     1      44.545  13.378   2.094  1.00  0.00     0.017 C 
BRANCH  13  15
HETATM   15  C3  UNL     1      43.359  15.344   1.393  1.00  0.00     0.198 C 
BRANCH  15  16
HETATM   16  O1  UNL     1      44.114  16.066   2.281  1.00  0.00    -0.397 OA
ATOM     17  H1  UNL     1      45.022  15.787   2.297  1.00  0.00     0.209 HD
ENDBRANCH  15  16
ENDBRANCH  13  15
ENDBRANCH   1  13
BRANCH   6  18
HETATM   18  O2  UNL     1      42.352  12.691  -2.851  1.00  0.00    -0.395 OA
ATOM     19  H2  UNL     1      42.264  13.633  -2.768  1.00  0.00     0.210 HD
ENDBRANCH   6  18
BRANCH   8  20
HETATM   20  O3  UNL     1      44.901   9.189  -1.578  1.00  0.00    -0.395 OA
ATOM     21  H3  UNL     1      44.917   9.172  -0.629  1.00  0.00     0.210 HD
ENDBRANCH   8  20
TORSDOF 5
ENDMDL
