MODEL 1
REMARK VINA RESULT: -7.016803667      0.000      0.000
REMARK  3 active torsions:
REMARK  status: ('A' for Active; 'I' for Inactive)
REMARK    1  A    between atoms: N4_12  and  C8_13 
REMARK    2  A    between atoms: C8_13  and  C9_14 
REMARK    3  A    between atoms: N5_19  and  O1_20 
ROOT
HETATM    1  N1  UNL     1       7.409  47.190  22.492  1.00  0.00    -0.191 NA
HETATM    2  C1  UNL     1       8.290  46.920  21.788  1.00  0.00     0.105 C 
HETATM    3  C2  UNL     1       9.384  46.586  20.912  1.00  0.00     0.112 A 
HETATM    4  C3  UNL     1      10.680  46.914  21.170  1.00  0.00     0.141 A 
HETATM    5  N2  UNL     1      10.937  47.628  22.382  1.00  0.00    -0.081 NA
HETATM    6  N3  UNL     1      11.657  46.577  20.317  1.00  0.00    -0.329 N 
ATOM      7  H3  UNL     1      12.618  46.837  20.536  1.00  0.00     0.168 HD
HETATM    8  C4  UNL     1      11.400  45.899  19.169  1.00  0.00     0.121 A 
HETATM    9  C5  UNL     1      10.110  45.559  18.891  1.00  0.00     0.037 A 
HETATM   10  C6  UNL     1      10.109  44.888  17.693  1.00  0.00     0.035 A 
HETATM   11  C7  UNL     1      11.407  44.826  17.254  1.00  0.00     0.094 A 
HETATM   12  N4  UNL     1      12.162  45.445  18.166  1.00  0.00    -0.337 N 
HETATM   13  C14 UNL     1       9.091  45.898  19.756  1.00  0.00     0.064 A 
HETATM   14  N6  UNL     1       7.886  45.550  19.441  1.00  0.00    -0.397 N 
ATOM     15  H61 UNL     1       7.669  45.041  18.585  1.00  0.00     0.156 HD
ATOM     16  H62 UNL     1       7.133  45.801  20.081  1.00  0.00     0.156 HD
ENDROOT
BRANCH  12  17
HETATM   17  C8  UNL     1      13.600  45.600  18.069  1.00  0.00     0.189 C 
BRANCH  17  18
HETATM   18  C9  UNL     1      14.042  46.519  17.016  1.00  0.00     0.058 A 
HETATM   19  C10 UNL     1      14.108  47.879  17.226  1.00  0.00     0.029 A 
HETATM   20  C11 UNL     1      14.523  48.782  16.247  1.00  0.00     0.003 A 
HETATM   21  C12 UNL     1      14.878  48.260  15.023  1.00  0.00     0.020 A 
HETATM   22  C13 UNL     1      14.808  46.911  14.828  1.00  0.00     0.123 A 
HETATM   23  N5  UNL     1      14.403  46.060  15.789  1.00  0.00    -0.239 N 
BRANCH  23  24
HETATM   24  O1  UNL     1      14.369  44.700  15.494  1.00  0.00    -0.283 OA
ATOM     25  H1  UNL     1      14.711  44.369  14.672  1.00  0.00     0.245 HD
ENDBRANCH  23  24
ENDBRANCH  17  18
ENDBRANCH  12  17
TORSDOF 3
ENDMDL
MODEL 2
REMARK VINA RESULT: -6.888062694      1.214      1.322
REMARK  3 active torsions:
REMARK  status: ('A' for Active; 'I' for Inactive)
REMARK    1  A    between atoms: N4_12  and  C8_13 
REMARK    2  A    between atoms: C8_13  and  C9_14 
REMARK    3  A    between atoms: N5_19  and  O1_20 
ROOT
HETATM    1  N1  UNL     1       7.423  47.185  22.469  1.00  0.00    -0.191 NA
HETATM    2  C1  UNL     1       8.308  46.915  21.770  1.00  0.00     0.105 C 
HETATM    3  C2  UNL     1       9.406  46.581  20.900  1.00  0.00     0.112 A 
HETATM    4  C3  UNL     1      10.702  46.898  21.173  1.00  0.00     0.141 A 
HETATM    5  N2  UNL     1      10.954  47.600  22.392  1.00  0.00    -0.081 NA
HETATM    6  N3  UNL     1      11.684  46.561  20.325  1.00  0.00    -0.329 N 
ATOM      7  H3  UNL     1      12.646  46.812  20.554  1.00  0.00     0.168 HD
HETATM    8  C4  UNL     1      11.433  45.895  19.168  1.00  0.00     0.121 A 
HETATM    9  C5  UNL     1      10.143  45.566  18.877  1.00  0.00     0.037 A 
HETATM   10  C6  UNL     1      10.147  44.905  17.673  1.00  0.00     0.035 A 
HETATM   11  C7  UNL     1      11.449  44.838  17.244  1.00  0.00     0.094 A 
HETATM   12  N4  UNL     1      12.200  45.445  18.169  1.00  0.00    -0.337 N 
HETATM   13  C14 UNL     1       9.119  45.905  19.737  1.00  0.00     0.064 A 
HETATM   14  N6  UNL     1       7.914  45.568  19.408  1.00  0.00    -0.397 N 
ATOM     15  H61 UNL     1       7.701  45.067  18.546  1.00  0.00     0.156 HD
ATOM     16  H62 UNL     1       7.157  45.819  20.044  1.00  0.00     0.156 HD
ENDROOT
BRANCH  12  17
HETATM   17  C8  UNL     1      13.640  45.590  18.085  1.00  0.00     0.189 C 
BRANCH  17  18
HETATM   18  C9  UNL     1      14.089  46.755  17.317  1.00  0.00     0.058 A 
HETATM   19  C10 UNL     1      13.376  47.225  16.236  1.00  0.00     0.029 A 
HETATM   20  C11 UNL     1      13.773  48.330  15.482  1.00  0.00     0.003 A 
HETATM   21  C12 UNL     1      14.938  48.961  15.862  1.00  0.00     0.020 A 
HETATM   22  C13 UNL     1      15.634  48.485  16.935  1.00  0.00     0.123 A 
HETATM   23  N5  UNL     1      15.230  47.416  17.646  1.00  0.00    -0.239 N 
BRANCH  23  24
HETATM   24  O1  UNL     1      16.008  47.009  18.726  1.00  0.00    -0.283 OA
ATOM     25  H1  UNL     1      16.557  46.236  18.670  1.00  0.00     0.245 HD
ENDBRANCH  23  24
ENDBRANCH  17  18
ENDBRANCH  12  17
TORSDOF 3
ENDMDL
MODEL 3
REMARK VINA RESULT: -6.671876817      2.183      3.262
REMARK  3 active torsions:
REMARK  status: ('A' for Active; 'I' for Inactive)
REMARK    1  A    between atoms: N4_12  and  C8_13 
REMARK    2  A    between atoms: C8_13  and  C9_14 
REMARK    3  A    between atoms: N5_19  and  O1_20 
ROOT
HETATM    1  N1  UNL     1       7.461  47.205  22.646  1.00  0.00    -0.191 NA
HETATM    2  C1  UNL     1       8.176  46.847  21.807  1.00  0.00     0.105 C 
HETATM    3  C2  UNL     1       9.066  46.401  20.766  1.00  0.00     0.112 A 
HETATM    4  C3  UNL     1       8.651  45.705  19.671  1.00  0.00     0.141 A 
HETATM    5  N2  UNL     1       7.254  45.418  19.579  1.00  0.00    -0.081 NA
HETATM    6  N3  UNL     1       9.526  45.315  18.733  1.00  0.00    -0.329 N 
ATOM      7  H3  UNL     1       9.187  44.795  17.925  1.00  0.00     0.168 HD
HETATM    8  C4  UNL     1      10.851  45.594  18.832  1.00  0.00     0.121 A 
HETATM    9  C5  UNL     1      11.288  46.290  19.919  1.00  0.00     0.037 A 
HETATM   10  C6  UNL     1      12.646  46.446  19.790  1.00  0.00     0.035 A 
HETATM   11  C7  UNL     1      13.022  45.840  18.618  1.00  0.00     0.094 A 
HETATM   12  N4  UNL     1      11.916  45.335  18.064  1.00  0.00    -0.337 N 
HETATM   13  C14 UNL     1      10.403  46.699  20.894  1.00  0.00     0.064 A 
HETATM   14  N6  UNL     1      10.874  47.356  21.905  1.00  0.00    -0.397 N 
ATOM     15  H61 UNL     1      11.865  47.578  22.000  1.00  0.00     0.156 HD
ATOM     16  H62 UNL     1      10.220  47.659  22.626  1.00  0.00     0.156 HD
ENDROOT
BRANCH  12  17
HETATM   17  C8  UNL     1      11.889  44.608  16.810  1.00  0.00     0.189 C 
BRANCH  17  18
HETATM   18  C9  UNL     1      11.463  45.404  15.655  1.00  0.00     0.058 A 
HETATM   19  C10 UNL     1      12.357  46.160  14.930  1.00  0.00     0.029 A 
HETATM   20  C11 UNL     1      11.986  46.930  13.827  1.00  0.00     0.003 A 
HETATM   21  C12 UNL     1      10.656  46.913  13.470  1.00  0.00     0.020 A 
HETATM   22  C13 UNL     1       9.780  46.160  14.197  1.00  0.00     0.123 A 
HETATM   23  N5  UNL     1      10.163  45.425  15.259  1.00  0.00    -0.239 N 
BRANCH  23  24
HETATM   24  O1  UNL     1       9.195  44.688  15.934  1.00  0.00    -0.283 OA
ATOM     25  H1  UNL     1       8.297  44.991  15.986  1.00  0.00     0.245 HD
ENDBRANCH  23  24
ENDBRANCH  17  18
ENDBRANCH  12  17
TORSDOF 3
ENDMDL
MODEL 4
REMARK VINA RESULT: -6.663264406      1.478      2.694
REMARK  3 active torsions:
REMARK  status: ('A' for Active; 'I' for Inactive)
REMARK    1  A    between atoms: N4_12  and  C8_13 
REMARK    2  A    between atoms: C8_13  and  C9_14 
REMARK    3  A    between atoms: N5_19  and  O1_20 
ROOT
HETATM    1  N1  UNL     1       7.467  47.213  22.515  1.00  0.00    -0.191 NA
HETATM    2  C1  UNL     1       8.240  46.853  21.729  1.00  0.00     0.105 C 
HETATM    3  C2  UNL     1       9.200  46.403  20.754  1.00  0.00     0.112 A 
HETATM    4  C3  UNL     1       8.866  45.681  19.649  1.00  0.00     0.141 A 
HETATM    5  N2  UNL     1       7.482  45.368  19.476  1.00  0.00    -0.081 NA
HETATM    6  N3  UNL     1       9.804  45.290  18.775  1.00  0.00    -0.329 N 
ATOM      7  H3  UNL     1       9.525  44.750  17.956  1.00  0.00     0.168 HD
HETATM    8  C4  UNL     1      11.116  45.594  18.951  1.00  0.00     0.121 A 
HETATM    9  C5  UNL     1      11.472  46.317  20.049  1.00  0.00     0.037 A 
HETATM   10  C6  UNL     1      12.833  46.495  20.003  1.00  0.00     0.035 A 
HETATM   11  C7  UNL     1      13.291  45.875  18.868  1.00  0.00     0.094 A 
HETATM   12  N4  UNL     1      12.230  45.340  18.255  1.00  0.00    -0.337 N 
HETATM   13  C14 UNL     1      10.521  46.728  20.960  1.00  0.00     0.064 A 
HETATM   14  N6  UNL     1      10.918  47.411  21.985  1.00  0.00    -0.397 N 
ATOM     15  H61 UNL     1      11.897  47.652  22.137  1.00  0.00     0.156 HD
ATOM     16  H62 UNL     1      10.215  47.715  22.658  1.00  0.00     0.156 HD
ENDROOT
BRANCH  12  17
HETATM   17  C8  UNL     1      12.294  44.591  17.016  1.00  0.00     0.189 C 
BRANCH  17  18
HETATM   18  C9  UNL     1      12.271  45.417  15.805  1.00  0.00     0.058 A 
HETATM   19  C10 UNL     1      11.101  45.959  15.323  1.00  0.00     0.029 A 
HETATM   20  C11 UNL     1      11.042  46.748  14.174  1.00  0.00     0.003 A 
HETATM   21  C12 UNL     1      12.228  46.981  13.513  1.00  0.00     0.020 A 
HETATM   22  C13 UNL     1      13.381  46.438  14.001  1.00  0.00     0.123 A 
HETATM   23  N5  UNL     1      13.411  45.678  15.112  1.00  0.00    -0.239 N 
BRANCH  23  24
HETATM   24  O1  UNL     1      14.638  45.172  15.532  1.00  0.00    -0.283 OA
ATOM     25  H1  UNL     1      15.309  45.745  15.883  1.00  0.00     0.245 HD
ENDBRANCH  23  24
ENDBRANCH  17  18
ENDBRANCH  12  17
TORSDOF 3
ENDMDL
MODEL 5
REMARK VINA RESULT: -6.565269481      3.077      6.662
REMARK  3 active torsions:
REMARK  status: ('A' for Active; 'I' for Inactive)
REMARK    1  A    between atoms: N4_12  and  C8_13 
REMARK    2  A    between atoms: C8_13  and  C9_14 
REMARK    3  A    between atoms: N5_19  and  O1_20 
ROOT
HETATM    1  N1  UNL     1      19.606  48.355  18.862  1.00  0.00    -0.191 NA
HETATM    2  C1  UNL     1      18.547  47.889  18.787  1.00  0.00     0.105 C 
HETATM    3  C2  UNL     1      17.233  47.307  18.693  1.00  0.00     0.112 A 
HETATM    4  C3  UNL     1      16.674  46.551  19.678  1.00  0.00     0.141 A 
HETATM    5  N2  UNL     1      17.458  46.340  20.855  1.00  0.00    -0.081 NA
HETATM    6  N3  UNL     1      15.445  46.035  19.534  1.00  0.00    -0.329 N 
ATOM      7  H3  UNL     1      15.053  45.472  20.288  1.00  0.00     0.168 HD
HETATM    8  C4  UNL     1      14.710  46.242  18.411  1.00  0.00     0.121 A 
HETATM    9  C5  UNL     1      15.249  46.997  17.414  1.00  0.00     0.037 A 
HETATM   10  C6  UNL     1      14.326  47.062  16.400  1.00  0.00     0.035 A 
HETATM   11  C7  UNL     1      13.227  46.341  16.796  1.00  0.00     0.094 A 
HETATM   12  N4  UNL     1      13.491  45.859  18.014  1.00  0.00    -0.337 N 
HETATM   13  C14 UNL     1      16.512  47.536  17.543  1.00  0.00     0.064 A 
HETATM   14  N6  UNL     1      16.974  48.244  16.563  1.00  0.00    -0.397 N 
ATOM     15  H61 UNL     1      16.440  48.414  15.711  1.00  0.00     0.156 HD
ATOM     16  H62 UNL     1      17.908  48.642  16.659  1.00  0.00     0.156 HD
ENDROOT
BRANCH  12  17
HETATM   17  C8  UNL     1      12.578  45.035  18.782  1.00  0.00     0.189 C 
BRANCH  17  18
HETATM   18  C9  UNL     1      11.591  45.788  19.562  1.00  0.00     0.058 A 
HETATM   19  C10 UNL     1      11.967  46.604  20.606  1.00  0.00     0.029 A 
HETATM   20  C11 UNL     1      11.055  47.334  21.370  1.00  0.00     0.003 A 
HETATM   21  C12 UNL     1       9.723  47.214  21.039  1.00  0.00     0.020 A 
HETATM   22  C13 UNL     1       9.365  46.402  20.002  1.00  0.00     0.123 A 
HETATM   23  N5  UNL     1      10.265  45.707  19.280  1.00  0.00    -0.239 N 
BRANCH  23  24
HETATM   24  O1  UNL     1       9.800  44.908  18.239  1.00  0.00    -0.283 OA
ATOM     25  H1  UNL     1       8.885  44.656  18.187  1.00  0.00     0.245 HD
ENDBRANCH  23  24
ENDBRANCH  17  18
ENDBRANCH  12  17
TORSDOF 3
ENDMDL
