MODEL 1
REMARK VINA RESULT: -7.463940849      0.000      0.000
REMARK  4 active torsions:
REMARK  status: ('A' for Active; 'I' for Inactive)
REMARK    1  A    between atoms: N1_1  and  C1_4 
REMARK    2  A    between atoms: C2_7  and  N3_8 
REMARK    3  A    between atoms: N3_8  and  C3_10 
REMARK    4  A    between atoms: C10_19  and  C11_20 
ROOT
HETATM    1  C1  UNL     1      10.243  45.298  18.782  1.00  0.00     0.128 A 
HETATM    2  N2  UNL     1      11.210  44.685  18.055  1.00  0.00    -0.176 N 
ATOM      3  H2  UNL     1      10.927  44.090  17.276  1.00  0.00     0.186 HD
HETATM    4  C2  UNL     1      12.521  44.820  18.310  1.00  0.00     0.684 A 
HETATM    5  N4  UNL     1      12.850  45.608  19.341  1.00  0.00    -0.201 N 
ATOM      6  H4  UNL     1      13.837  45.734  19.566  1.00  0.00     0.183 HD
HETATM    7  C9  UNL     1      11.940  46.232  20.086  1.00  0.00     0.123 A 
HETATM    8  C10 UNL     1      10.565  46.102  19.834  1.00  0.00     0.052 A 
ENDROOT
BRANCH   8   9
HETATM    9  C11 UNL     1       9.651  46.839  20.673  1.00  0.00     0.065 A 
HETATM   10  C12 UNL     1       8.549  46.289  21.255  1.00  0.00     0.137 A 
HETATM   11  N5  UNL     1       7.779  47.104  22.051  1.00  0.00    -0.309 N 
HETATM   12  N6  UNL     1       8.096  48.363  22.242  1.00  0.00    -0.296 N 
ATOM     13  H5  UNL     1       6.946  46.724  22.501  1.00  0.00     0.186 HD
HETATM   14  C13 UNL     1       9.176  48.911  21.677  1.00  0.00     0.197 A 
ATOM     15  H6  UNL     1       7.502  48.939  22.838  1.00  0.00     0.187 HD
HETATM   16  N7  UNL     1       9.940  48.170  20.907  1.00  0.00    -0.349 N 
ATOM     17  H7  UNL     1      10.765  48.587  20.474  1.00  0.00     0.166 HD
ENDBRANCH   8   9
BRANCH   1  18
HETATM   18  N1  UNL     1       9.040  45.099  18.409  1.00  0.00    -0.384 N 
ATOM     19  H12 UNL     1       8.603  44.178  18.425  1.00  0.00     0.157 HD
ATOM     20  H11 UNL     1       8.516  45.920  18.106  1.00  0.00     0.157 HD
ENDBRANCH   1  18
BRANCH   4  21
HETATM   21  N3  UNL     1      13.448  44.249  17.636  1.00  0.00    -0.192 N 
ATOM     22  H3  UNL     1      14.415  44.428  17.904  1.00  0.00     0.184 HD
BRANCH  21  23
HETATM   23  C3  UNL     1      13.210  43.383  16.540  1.00  0.00     0.049 A 
HETATM   24  C4  UNL     1      12.195  43.637  15.654  1.00  0.00     0.030 A 
HETATM   25  C5  UNL     1      11.977  42.785  14.593  1.00  0.00     0.002 A 
HETATM   26  C6  UNL     1      12.781  41.677  14.424  1.00  0.00     0.000 A 
HETATM   27  C7  UNL     1      13.802  41.432  15.326  1.00  0.00     0.002 A 
HETATM   28  C8  UNL     1      14.014  42.287  16.383  1.00  0.00     0.030 A 
ENDBRANCH  21  23
ENDBRANCH   4  21
TORSDOF 4
ENDMDL
MODEL 2
REMARK VINA RESULT: -7.280756629      0.913      1.107
REMARK  4 active torsions:
REMARK  status: ('A' for Active; 'I' for Inactive)
REMARK    1  A    between atoms: N1_1  and  C1_4 
REMARK    2  A    between atoms: C2_7  and  N3_8 
REMARK    3  A    between atoms: N3_8  and  C3_10 
REMARK    4  A    between atoms: C10_19  and  C11_20 
ROOT
HETATM    1  C1  UNL     1       9.860  45.273  18.806  1.00  0.00     0.128 A 
HETATM    2  N2  UNL     1      10.700  44.520  18.053  1.00  0.00    -0.176 N 
ATOM      3  H2  UNL     1      10.304  43.960  17.298  1.00  0.00     0.186 HD
HETATM    4  C2  UNL     1      12.027  44.476  18.249  1.00  0.00     0.684 A 
HETATM    5  N4  UNL     1      12.507  45.225  19.250  1.00  0.00    -0.201 N 
ATOM      6  H4  UNL     1      13.511  45.217  19.430  1.00  0.00     0.183 HD
HETATM    7  C9  UNL     1      11.726  45.981  20.018  1.00  0.00     0.123 A 
HETATM    8  C10 UNL     1      10.336  46.040  19.827  1.00  0.00     0.052 A 
ENDROOT
BRANCH   8   9
HETATM    9  C11 UNL     1       9.571  46.908  20.688  1.00  0.00     0.065 A 
HETATM   10  C12 UNL     1       8.501  46.493  21.422  1.00  0.00     0.137 A 
HETATM   11  N5  UNL     1       7.879  47.425  22.219  1.00  0.00    -0.309 N 
HETATM   12  N6  UNL     1       8.302  48.666  22.270  1.00  0.00    -0.296 N 
ATOM     13  H5  UNL     1       7.074  47.147  22.781  1.00  0.00     0.186 HD
HETATM   14  C13 UNL     1       9.352  49.083  21.555  1.00  0.00     0.197 A 
ATOM     15  H6  UNL     1       7.817  49.331  22.872  1.00  0.00     0.187 HD
HETATM   16  N7  UNL     1       9.976  48.227  20.778  1.00  0.00    -0.349 N 
ATOM     17  H7  UNL     1      10.777  48.542  20.230  1.00  0.00     0.166 HD
ENDBRANCH   8   9
BRANCH   1  18
HETATM   18  N1  UNL     1       8.626  45.237  18.488  1.00  0.00    -0.384 N 
ATOM     19  H12 UNL     1       8.251  44.579  17.805  1.00  0.00     0.157 HD
ATOM     20  H11 UNL     1       8.013  45.895  18.969  1.00  0.00     0.157 HD
ENDBRANCH   1  18
BRANCH   4  21
HETATM   21  N3  UNL     1      12.835  43.772  17.550  1.00  0.00    -0.192 N 
ATOM     22  H3  UNL     1      13.478  43.151  18.040  1.00  0.00     0.184 HD
BRANCH  21  23
HETATM   23  C3  UNL     1      12.891  43.805  16.134  1.00  0.00     0.049 A 
HETATM   24  C4  UNL     1      13.082  44.987  15.467  1.00  0.00     0.030 A 
HETATM   25  C5  UNL     1      13.134  45.002  14.090  1.00  0.00     0.002 A 
HETATM   26  C6  UNL     1      12.993  43.827  13.385  1.00  0.00     0.000 A 
HETATM   27  C7  UNL     1      12.800  42.639  14.069  1.00  0.00     0.002 A 
HETATM   28  C8  UNL     1      12.750  42.632  15.444  1.00  0.00     0.030 A 
ENDBRANCH  21  23
ENDBRANCH   4  21
TORSDOF 4
ENDMDL
MODEL 3
REMARK VINA RESULT: -7.265398588      1.553      2.194
REMARK  4 active torsions:
REMARK  status: ('A' for Active; 'I' for Inactive)
REMARK    1  A    between atoms: N1_1  and  C1_4 
REMARK    2  A    between atoms: C2_7  and  N3_8 
REMARK    3  A    between atoms: N3_8  and  C3_10 
REMARK    4  A    between atoms: C10_19  and  C11_20 
ROOT
HETATM    1  C1  UNL     1       9.851  45.280  18.755  1.00  0.00     0.128 A 
HETATM    2  N2  UNL     1      10.692  44.534  17.996  1.00  0.00    -0.176 N 
ATOM      3  H2  UNL     1      10.298  43.995  17.224  1.00  0.00     0.186 HD
HETATM    4  C2  UNL     1      12.015  44.469  18.208  1.00  0.00     0.684 A 
HETATM    5  N4  UNL     1      12.492  45.191  19.231  1.00  0.00    -0.201 N 
ATOM      6  H4  UNL     1      13.493  45.166  19.423  1.00  0.00     0.183 HD
HETATM    7  C9  UNL     1      11.709  45.938  20.006  1.00  0.00     0.123 A 
HETATM    8  C10 UNL     1      10.323  46.018  19.800  1.00  0.00     0.052 A 
ENDROOT
BRANCH   8   9
HETATM    9  C11 UNL     1       9.557  46.877  20.670  1.00  0.00     0.065 A 
HETATM   10  C12 UNL     1       8.483  46.454  21.394  1.00  0.00     0.137 A 
HETATM   11  N5  UNL     1       7.861  47.377  22.203  1.00  0.00    -0.309 N 
HETATM   12  N6  UNL     1       8.288  48.616  22.272  1.00  0.00    -0.296 N 
ATOM     13  H5  UNL     1       7.054  47.093  22.758  1.00  0.00     0.186 HD
HETATM   14  C13 UNL     1       9.341  49.039  21.566  1.00  0.00     0.197 A 
ATOM     15  H6  UNL     1       7.803  49.274  22.882  1.00  0.00     0.187 HD
HETATM   16  N7  UNL     1       9.966  48.193  20.780  1.00  0.00    -0.349 N 
ATOM     17  H7  UNL     1      10.769  48.514  20.239  1.00  0.00     0.166 HD
ENDBRANCH   8   9
BRANCH   1  18
HETATM   18  N1  UNL     1       8.620  45.267  18.421  1.00  0.00    -0.384 N 
ATOM     19  H12 UNL     1       7.863  45.286  19.105  1.00  0.00     0.157 HD
ATOM     20  H11 UNL     1       8.421  45.256  17.421  1.00  0.00     0.157 HD
ENDBRANCH   1  18
BRANCH   4  21
HETATM   21  N3  UNL     1      12.824  43.771  17.503  1.00  0.00    -0.192 N 
ATOM     22  H3  UNL     1      12.631  42.776  17.397  1.00  0.00     0.184 HD
BRANCH  21  23
HETATM   23  C3  UNL     1      13.972  44.300  16.862  1.00  0.00     0.049 A 
HETATM   24  C4  UNL     1      15.230  43.991  17.311  1.00  0.00     0.030 A 
HETATM   25  C5  UNL     1      16.336  44.513  16.676  1.00  0.00     0.002 A 
HETATM   26  C6  UNL     1      16.175  45.346  15.589  1.00  0.00     0.000 A 
HETATM   27  C7  UNL     1      14.900  45.650  15.145  1.00  0.00     0.002 A 
HETATM   28  C8  UNL     1      13.800  45.125  15.784  1.00  0.00     0.030 A 
ENDBRANCH  21  23
ENDBRANCH   4  21
TORSDOF 4
ENDMDL
MODEL 4
REMARK VINA RESULT: -7.265171841      1.549      1.926
REMARK  4 active torsions:
REMARK  status: ('A' for Active; 'I' for Inactive)
REMARK    1  A    between atoms: N1_1  and  C1_4 
REMARK    2  A    between atoms: C2_7  and  N3_8 
REMARK    3  A    between atoms: N3_8  and  C3_10 
REMARK    4  A    between atoms: C10_19  and  C11_20 
ROOT
HETATM    1  C1  UNL     1       9.848  45.284  18.757  1.00  0.00     0.128 A 
HETATM    2  N2  UNL     1      10.689  44.538  17.996  1.00  0.00    -0.176 N 
ATOM      3  H2  UNL     1      10.294  44.000  17.224  1.00  0.00     0.186 HD
HETATM    4  C2  UNL     1      12.012  44.473  18.207  1.00  0.00     0.684 A 
HETATM    5  N4  UNL     1      12.490  45.194  19.230  1.00  0.00    -0.201 N 
ATOM      6  H4  UNL     1      13.491  45.169  19.422  1.00  0.00     0.183 HD
HETATM    7  C9  UNL     1      11.708  45.941  20.007  1.00  0.00     0.123 A 
HETATM    8  C10 UNL     1      10.322  46.021  19.801  1.00  0.00     0.052 A 
ENDROOT
BRANCH   8   9
HETATM    9  C11 UNL     1       9.557  46.879  20.672  1.00  0.00     0.065 A 
HETATM   10  C12 UNL     1       8.487  46.454  21.403  1.00  0.00     0.137 A 
HETATM   11  N5  UNL     1       7.865  47.377  22.211  1.00  0.00    -0.309 N 
HETATM   12  N6  UNL     1       8.288  48.617  22.276  1.00  0.00    -0.296 N 
ATOM     13  H5  UNL     1       7.061  47.092  22.771  1.00  0.00     0.186 HD
HETATM   14  C13 UNL     1       9.337  49.043  21.565  1.00  0.00     0.197 A 
ATOM     15  H6  UNL     1       7.803  49.275  22.886  1.00  0.00     0.187 HD
HETATM   16  N7  UNL     1       9.961  48.197  20.778  1.00  0.00    -0.349 N 
ATOM     17  H7  UNL     1      10.761  48.519  20.233  1.00  0.00     0.166 HD
ENDBRANCH   8   9
BRANCH   1  18
HETATM   18  N1  UNL     1       8.618  45.271  18.424  1.00  0.00    -0.384 N 
ATOM     19  H12 UNL     1       8.304  45.033  17.483  1.00  0.00     0.157 HD
ATOM     20  H11 UNL     1       7.945  45.493  19.158  1.00  0.00     0.157 HD
ENDBRANCH   1  18
BRANCH   4  21
HETATM   21  N3  UNL     1      12.821  43.776  17.501  1.00  0.00    -0.192 N 
ATOM     22  H3  UNL     1      12.645  42.775  17.419  1.00  0.00     0.184 HD
BRANCH  21  23
HETATM   23  C3  UNL     1      13.945  44.312  16.826  1.00  0.00     0.049 A 
HETATM   24  C4  UNL     1      13.785  45.148  15.752  1.00  0.00     0.030 A 
HETATM   25  C5  UNL     1      14.889  45.661  15.107  1.00  0.00     0.002 A 
HETATM   26  C6  UNL     1      16.155  45.332  15.543  1.00  0.00     0.000 A 
HETATM   27  C7  UNL     1      16.304  44.487  16.629  1.00  0.00     0.002 A 
HETATM   28  C8  UNL     1      15.197  43.979  17.269  1.00  0.00     0.030 A 
ENDBRANCH  21  23
ENDBRANCH   4  21
TORSDOF 4
ENDMDL
MODEL 5
REMARK VINA RESULT: -7.077478953      1.637      2.398
REMARK  4 active torsions:
REMARK  status: ('A' for Active; 'I' for Inactive)
REMARK    1  A    between atoms: N1_1  and  C1_4 
REMARK    2  A    between atoms: C2_7  and  N3_8 
REMARK    3  A    between atoms: N3_8  and  C3_10 
REMARK    4  A    between atoms: C10_19  and  C11_20 
ROOT
HETATM    1  C1  UNL     1       9.908  45.270  18.714  1.00  0.00     0.128 A 
HETATM    2  N2  UNL     1      10.727  44.523  17.933  1.00  0.00    -0.176 N 
ATOM      3  H2  UNL     1      10.314  43.995  17.164  1.00  0.00     0.186 HD
HETATM    4  C2  UNL     1      12.053  44.443  18.121  1.00  0.00     0.684 A 
HETATM    5  N4  UNL     1      12.556  45.150  19.141  1.00  0.00    -0.201 N 
ATOM      6  H4  UNL     1      13.560  45.114  19.315  1.00  0.00     0.183 HD
HETATM    7  C9  UNL     1      11.795  45.899  19.937  1.00  0.00     0.123 A 
HETATM    8  C10 UNL     1      10.406  45.994  19.756  1.00  0.00     0.052 A 
ENDROOT
BRANCH   8   9
HETATM    9  C11 UNL     1       9.665  46.852  20.648  1.00  0.00     0.065 A 
HETATM   10  C12 UNL     1      10.009  48.144  20.914  1.00  0.00     0.137 A 
HETATM   11  N5  UNL     1       9.196  48.854  21.766  1.00  0.00    -0.309 N 
HETATM   12  N6  UNL     1       8.130  48.307  22.300  1.00  0.00    -0.296 N 
ATOM     13  H5  UNL     1       9.425  49.823  21.986  1.00  0.00     0.186 HD
HETATM   14  C13 UNL     1       7.783  47.041  22.045  1.00  0.00     0.197 A 
ATOM     15  H6  UNL     1       7.549  48.862  22.928  1.00  0.00     0.187 HD
HETATM   16  N7  UNL     1       8.531  46.324  21.237  1.00  0.00    -0.349 N 
ATOM     17  H7  UNL     1       8.270  45.358  21.041  1.00  0.00     0.166 HD
ENDBRANCH   8   9
BRANCH   1  18
HETATM   18  N1  UNL     1       8.672  45.272  18.403  1.00  0.00    -0.384 N 
ATOM     19  H12 UNL     1       8.320  45.700  17.546  1.00  0.00     0.157 HD
ATOM     20  H11 UNL     1       8.039  44.801  19.049  1.00  0.00     0.157 HD
ENDBRANCH   1  18
BRANCH   4  21
HETATM   21  N3  UNL     1      12.842  43.743  17.395  1.00  0.00    -0.192 N 
ATOM     22  H3  UNL     1      12.647  42.748  17.296  1.00  0.00     0.184 HD
BRANCH  21  23
HETATM   23  C3  UNL     1      13.972  44.270  16.721  1.00  0.00     0.049 A 
HETATM   24  C4  UNL     1      15.242  43.975  17.146  1.00  0.00     0.030 A 
HETATM   25  C5  UNL     1      16.330  44.496  16.480  1.00  0.00     0.002 A 
HETATM   26  C6  UNL     1      16.140  45.313  15.386  1.00  0.00     0.000 A 
HETATM   27  C7  UNL     1      14.853  45.603  14.967  1.00  0.00     0.002 A 
HETATM   28  C8  UNL     1      13.771  45.080  15.637  1.00  0.00     0.030 A 
ENDBRANCH  21  23
ENDBRANCH   4  21
TORSDOF 4
ENDMDL
