MODEL 1
REMARK VINA RESULT: -6.510257466      0.000      0.000
REMARK  3 active torsions:
REMARK  status: ('A' for Active; 'I' for Inactive)
REMARK    1  A    between atoms: C2_2  and  N1_3 
REMARK       I    between atoms: C3_5  and  N2_6 
REMARK       I    between atoms: C3_5  and  N4_15 
REMARK    2  A    between atoms: N2_6  and  C4_8 
REMARK    3  A    between atoms: N4_15  and  N5_17 
REMARK       I    between atoms: N5_17  and  C9_19 
REMARK       I    between atoms: C9_19  and  N8_24 
ROOT
HETATM    1  N5  UNL     1      47.610   7.667   1.755  1.00  0.00    -0.116 N 
ATOM      2  H5  UNL     1      46.679   7.497   1.373  1.00  0.00     0.206 HD
HETATM    3  C9  UNL     1      48.315   6.596   2.361  1.00  0.00     0.715 C 
HETATM    4  N6  UNL     1      48.541   5.534   1.675  1.00  0.00    -0.124 N 
ATOM      5  H6  UNL     1      49.050   4.769   2.119  1.00  0.00     0.197 HD
HETATM    6  C10 UNL     1      48.126   5.374   0.348  1.00  0.00     0.196 C 
HETATM    7  N7  UNL     1      47.764   5.228  -0.753  1.00  0.00    -0.171 NA
HETATM    8  N8  UNL     1      48.782   6.650   3.696  1.00  0.00    -0.124 N 
ATOM      9  H8  UNL     1      48.114   6.624   4.467  1.00  0.00     0.197 HD
HETATM   10  C11 UNL     1      50.142   6.740   3.967  1.00  0.00     0.196 C 
HETATM   11  N9  UNL     1      51.292   6.823   4.192  1.00  0.00    -0.171 NA
ENDROOT
BRANCH   1  12
HETATM   12  N4  UNL     1      48.162   8.958   1.668  1.00  0.00    -0.118 N 
HETATM   13  C3  UNL     1      47.721   9.843   0.660  1.00  0.00     0.694 C 
HETATM   14  N1  UNL     1      48.558  10.383  -0.108  1.00  0.00    -0.225 N 
HETATM   15  N2  UNL     1      46.344  10.110   0.526  1.00  0.00    -0.176 N 
ATOM     16  H1  UNL     1      49.536  10.140   0.052  1.00  0.00     0.177 HD
ATOM     17  H2  UNL     1      45.764   9.439   0.021  1.00  0.00     0.186 HD
ATOM     18  H4  UNL     1      48.880   9.253   2.331  1.00  0.00     0.206 HD
BRANCH  14  19
HETATM   19  C2  UNL     1      48.308  11.295  -1.176  1.00  0.00     0.134 C 
HETATM   20  C1  UNL     1      49.350  12.392  -1.120  1.00  0.00     0.027 C 
ENDBRANCH  14  19
BRANCH  15  21
HETATM   21  C4  UNL     1      45.786  11.156   1.009  1.00  0.00     0.120 A 
HETATM   22  C5  UNL     1      44.733  11.727   0.352  1.00  0.00     0.049 A 
HETATM   23  C6  UNL     1      44.118  12.859   0.861  1.00  0.00     0.005 A 
HETATM   24  C7  UNL     1      44.599  13.393   2.047  1.00  0.00     0.017 A 
HETATM   25  C8  UNL     1      45.661  12.777   2.663  1.00  0.00     0.089 A 
HETATM   26  N3  UNL     1      46.244  11.671   2.145  1.00  0.00    -0.352 N 
ATOM     27  H3  UNL     1      47.032  11.236   2.624  1.00  0.00     0.166 HD
ENDBRANCH  15  21
ENDBRANCH   1  12
TORSDOF 3
ENDMDL
MODEL 2
REMARK VINA RESULT: -6.187468952      1.714      3.063
REMARK  3 active torsions:
REMARK  status: ('A' for Active; 'I' for Inactive)
REMARK    1  A    between atoms: C2_2  and  N1_3 
REMARK       I    between atoms: C3_5  and  N2_6 
REMARK       I    between atoms: C3_5  and  N4_15 
REMARK    2  A    between atoms: N2_6  and  C4_8 
REMARK    3  A    between atoms: N4_15  and  N5_17 
REMARK       I    between atoms: N5_17  and  C9_19 
REMARK       I    between atoms: C9_19  and  N8_24 
ROOT
HETATM    1  N5  UNL     1      49.245   8.842   0.965  1.00  0.00    -0.116 N 
ATOM      2  H5  UNL     1      49.733   8.874   1.860  1.00  0.00     0.206 HD
HETATM    3  C9  UNL     1      48.851   7.587   0.436  1.00  0.00     0.715 C 
HETATM    4  N6  UNL     1      48.089   6.828   1.138  1.00  0.00    -0.124 N 
ATOM      5  H6  UNL     1      47.810   5.927   0.748  1.00  0.00     0.197 HD
HETATM    6  C10 UNL     1      47.621   7.175   2.410  1.00  0.00     0.196 C 
HETATM    7  N7  UNL     1      47.244   7.451   3.480  1.00  0.00    -0.171 NA
HETATM    8  N8  UNL     1      49.264   7.135  -0.841  1.00  0.00    -0.124 N 
ATOM      9  H8  UNL     1      50.239   6.874  -0.993  1.00  0.00     0.197 HD
HETATM   10  C11 UNL     1      48.355   7.044  -1.888  1.00  0.00     0.196 C 
HETATM   11  N9  UNL     1      47.585   6.975  -2.773  1.00  0.00    -0.171 NA
ENDROOT
BRANCH   1  12
HETATM   12  N4  UNL     1      48.978  10.045   0.286  1.00  0.00    -0.118 N 
HETATM   13  C3  UNL     1      47.717  10.244  -0.317  1.00  0.00     0.694 C 
HETATM   14  N1  UNL     1      47.647  10.564  -1.531  1.00  0.00    -0.225 N 
HETATM   15  N2  UNL     1      46.546  10.082   0.453  1.00  0.00    -0.176 N 
ATOM     16  H1  UNL     1      48.537  10.661  -2.020  1.00  0.00     0.177 HD
ATOM     17  H2  UNL     1      46.190   9.138   0.604  1.00  0.00     0.186 HD
ATOM     18  H4  UNL     1      49.693  10.770   0.230  1.00  0.00     0.206 HD
BRANCH  14  19
HETATM   19  C2  UNL     1      46.476  10.805  -2.310  1.00  0.00     0.134 C 
HETATM   20  C1  UNL     1      46.416  12.283  -2.634  1.00  0.00     0.027 C 
ENDBRANCH  14  19
BRANCH  15  21
HETATM   21  C4  UNL     1      45.911  11.065   0.971  1.00  0.00     0.120 A 
HETATM   22  C5  UNL     1      44.712  11.451   0.442  1.00  0.00     0.049 A 
HETATM   23  C6  UNL     1      44.011  12.512   0.991  1.00  0.00     0.005 A 
HETATM   24  C7  UNL     1      44.558  13.167   2.084  1.00  0.00     0.017 A 
HETATM   25  C8  UNL     1      45.767  12.735   2.572  1.00  0.00     0.089 A 
HETATM   26  N3  UNL     1      46.431  11.696   2.018  1.00  0.00    -0.352 N 
ATOM     27  H3  UNL     1      47.328  11.398   2.402  1.00  0.00     0.166 HD
ENDBRANCH  15  21
ENDBRANCH   1  12
TORSDOF 3
ENDMDL
MODEL 3
REMARK VINA RESULT: -6.163374712      1.457      1.616
REMARK  3 active torsions:
REMARK  status: ('A' for Active; 'I' for Inactive)
REMARK    1  A    between atoms: C2_2  and  N1_3 
REMARK       I    between atoms: C3_5  and  N2_6 
REMARK       I    between atoms: C3_5  and  N4_15 
REMARK    2  A    between atoms: N2_6  and  C4_8 
REMARK    3  A    between atoms: N4_15  and  N5_17 
REMARK       I    between atoms: N5_17  and  C9_19 
REMARK       I    between atoms: C9_19  and  N8_24 
ROOT
HETATM    1  N5  UNL     1      48.454   7.635   0.357  1.00  0.00    -0.116 N 
ATOM      2  H5  UNL     1      48.422   7.444  -0.645  1.00  0.00     0.206 HD
HETATM    3  C9  UNL     1      48.189   6.584   1.270  1.00  0.00     0.715 C 
HETATM    4  N6  UNL     1      48.907   5.519   1.219  1.00  0.00    -0.124 N 
ATOM      5  H6  UNL     1      48.709   4.769   1.881  1.00  0.00     0.197 HD
HETATM    6  C10 UNL     1      49.947   5.339   0.300  1.00  0.00     0.196 C 
HETATM    7  N7  UNL     1      50.803   5.175  -0.477  1.00  0.00    -0.171 NA
HETATM    8  N8  UNL     1      47.162   6.659   2.242  1.00  0.00    -0.124 N 
ATOM      9  H8  UNL     1      46.185   6.627   1.949  1.00  0.00     0.197 HD
HETATM   10  C11 UNL     1      47.472   6.777   3.592  1.00  0.00     0.196 C 
HETATM   11  N9  UNL     1      47.738   6.884   4.731  1.00  0.00    -0.171 NA
ENDROOT
BRANCH   1  12
HETATM   12  N4  UNL     1      48.760   8.935   0.798  1.00  0.00    -0.118 N 
HETATM   13  C3  UNL     1      48.355  10.049   0.031  1.00  0.00     0.694 C 
HETATM   14  N1  UNL     1      49.203  10.911  -0.317  1.00  0.00    -0.225 N 
HETATM   15  N2  UNL     1      47.001  10.182  -0.338  1.00  0.00    -0.176 N 
ATOM     16  H1  UNL     1      50.162  10.745  -0.012  1.00  0.00     0.177 HD
ATOM     17  H2  UNL     1      46.662   9.657  -1.144  1.00  0.00     0.186 HD
ATOM     18  H4  UNL     1      49.274   9.073   1.668  1.00  0.00     0.206 HD
BRANCH  14  19
HETATM   19  C2  UNL     1      48.988  12.093  -1.086  1.00  0.00     0.134 C 
HETATM   20  C1  UNL     1      50.247  12.932  -1.033  1.00  0.00     0.027 C 
ENDBRANCH  14  19
BRANCH  15  21
HETATM   21  C4  UNL     1      46.177  10.932   0.293  1.00  0.00     0.120 A 
HETATM   22  C5  UNL     1      45.078  11.425  -0.353  1.00  0.00     0.049 A 
HETATM   23  C6  UNL     1      44.177  12.237   0.315  1.00  0.00     0.005 A 
HETATM   24  C7  UNL     1      44.420  12.534   1.647  1.00  0.00     0.017 A 
HETATM   25  C8  UNL     1      45.541  12.010   2.244  1.00  0.00     0.089 A 
HETATM   26  N3  UNL     1      46.406  11.219   1.569  1.00  0.00    -0.352 N 
ATOM     27  H3  UNL     1      47.231  10.845   2.039  1.00  0.00     0.166 HD
ENDBRANCH  15  21
ENDBRANCH   1  12
TORSDOF 3
ENDMDL
MODEL 4
REMARK VINA RESULT: -6.105134644      1.251      1.508
REMARK  3 active torsions:
REMARK  status: ('A' for Active; 'I' for Inactive)
REMARK    1  A    between atoms: C2_2  and  N1_3 
REMARK       I    between atoms: C3_5  and  N2_6 
REMARK       I    between atoms: C3_5  and  N4_15 
REMARK    2  A    between atoms: N2_6  and  C4_8 
REMARK    3  A    between atoms: N4_15  and  N5_17 
REMARK       I    between atoms: N5_17  and  C9_19 
REMARK       I    between atoms: C9_19  and  N8_24 
ROOT
HETATM    1  N5  UNL     1      48.098   7.910   0.830  1.00  0.00    -0.116 N 
ATOM      2  H5  UNL     1      47.362   7.638   0.179  1.00  0.00     0.206 HD
HETATM    3  C9  UNL     1      48.816   6.902   1.522  1.00  0.00     0.715 C 
HETATM    4  N6  UNL     1      49.433   6.001   0.845  1.00  0.00    -0.124 N 
ATOM      5  H6  UNL     1      49.947   5.280   1.352  1.00  0.00     0.197 HD
HETATM    6  C10 UNL     1      49.434   5.960  -0.554  1.00  0.00     0.196 C 
HETATM    7  N7  UNL     1      49.422   5.908  -1.721  1.00  0.00    -0.171 NA
HETATM    8  N8  UNL     1      48.883   6.848   2.935  1.00  0.00    -0.124 N 
ATOM      9  H8  UNL     1      48.051   6.599   3.472  1.00  0.00     0.197 HD
HETATM   10  C11 UNL     1      50.071   7.131   3.599  1.00  0.00     0.196 C 
HETATM   11  N9  UNL     1      51.075   7.378   4.158  1.00  0.00    -0.171 NA
ENDROOT
BRANCH   1  12
HETATM   12  N4  UNL     1      48.378   9.276   1.019  1.00  0.00    -0.118 N 
HETATM   13  C3  UNL     1      48.024  10.208   0.020  1.00  0.00     0.694 C 
HETATM   14  N1  UNL     1      48.893  10.993  -0.440  1.00  0.00    -0.225 N 
HETATM   15  N2  UNL     1      46.696  10.249  -0.452  1.00  0.00    -0.176 N 
ATOM     16  H1  UNL     1      49.831  10.902  -0.048  1.00  0.00     0.177 HD
ATOM     17  H2  UNL     1      46.408   9.569  -1.155  1.00  0.00     0.186 HD
ATOM     18  H4  UNL     1      48.835   9.591   1.875  1.00  0.00     0.206 HD
BRANCH  14  19
HETATM   19  C2  UNL     1      48.729  11.993  -1.443  1.00  0.00     0.134 C 
HETATM   20  C1  UNL     1      49.912  12.935  -1.375  1.00  0.00     0.027 C 
ENDBRANCH  14  19
BRANCH  15  21
HETATM   21  C4  UNL     1      45.835  11.100  -0.038  1.00  0.00     0.120 A 
HETATM   22  C5  UNL     1      45.577  11.207   1.300  1.00  0.00     0.049 A 
HETATM   23  C6  UNL     1      44.648  12.123   1.765  1.00  0.00     0.005 A 
HETATM   24  C7  UNL     1      43.991  12.922   0.841  1.00  0.00     0.017 A 
HETATM   25  C8  UNL     1      44.291  12.770  -0.491  1.00  0.00     0.089 A 
HETATM   26  N3  UNL     1      45.203  11.867  -0.919  1.00  0.00    -0.352 N 
ATOM     27  H3  UNL     1      45.404  11.776  -1.915  1.00  0.00     0.166 HD
ENDBRANCH  15  21
ENDBRANCH   1  12
TORSDOF 3
ENDMDL
MODEL 5
REMARK VINA RESULT: -6.091469846      2.444      4.486
REMARK  3 active torsions:
REMARK  status: ('A' for Active; 'I' for Inactive)
REMARK    1  A    between atoms: C2_2  and  N1_3 
REMARK       I    between atoms: C3_5  and  N2_6 
REMARK       I    between atoms: C3_5  and  N4_15 
REMARK    2  A    between atoms: N2_6  and  C4_8 
REMARK    3  A    between atoms: N4_15  and  N5_17 
REMARK       I    between atoms: N5_17  and  C9_19 
REMARK       I    between atoms: C9_19  and  N8_24 
ROOT
HETATM    1  N5  UNL     1      48.675   9.537   0.337  1.00  0.00    -0.116 N 
ATOM      2  H5  UNL     1      49.381  10.050   0.865  1.00  0.00     0.206 HD
HETATM    3  C9  UNL     1      49.049   8.885  -0.865  1.00  0.00     0.715 C 
HETATM    4  N6  UNL     1      49.988   8.009  -0.831  1.00  0.00    -0.124 N 
ATOM      5  H6  UNL     1      50.250   7.544  -1.701  1.00  0.00     0.197 HD
HETATM    6  C10 UNL     1      50.670   7.660   0.340  1.00  0.00     0.196 C 
HETATM    7  N7  UNL     1      51.256   7.379   1.311  1.00  0.00    -0.171 NA
HETATM    8  N8  UNL     1      48.427   9.159  -2.107  1.00  0.00    -0.124 N 
ATOM      9  H8  UNL     1      48.586  10.057  -2.565  1.00  0.00     0.197 HD
HETATM   10  C11 UNL     1      47.600   8.218  -2.707  1.00  0.00     0.196 C 
HETATM   11  N9  UNL     1      46.895   7.422  -3.209  1.00  0.00    -0.171 NA
ENDROOT
BRANCH   1  12
HETATM   12  N4  UNL     1      47.354   9.494   0.818  1.00  0.00    -0.118 N 
HETATM   13  C3  UNL     1      46.594  10.682   0.889  1.00  0.00     0.694 C 
HETATM   14  N1  UNL     1      46.050  11.013   1.974  1.00  0.00    -0.225 N 
HETATM   15  N2  UNL     1      46.455  11.486  -0.260  1.00  0.00    -0.176 N 
ATOM     16  H1  UNL     1      46.198  10.380   2.760  1.00  0.00     0.177 HD
ATOM     17  H2  UNL     1      47.211  12.127  -0.501  1.00  0.00     0.186 HD
ATOM     18  H4  UNL     1      46.947   8.607   1.116  1.00  0.00     0.206 HD
BRANCH  14  19
HETATM   19  C2  UNL     1      45.253  12.166   2.240  1.00  0.00     0.134 C 
HETATM   20  C1  UNL     1      46.023  13.072   3.177  1.00  0.00     0.027 C 
ENDBRANCH  14  19
BRANCH  15  21
HETATM   21  C4  UNL     1      45.423  11.448  -1.017  1.00  0.00     0.120 A 
HETATM   22  C5  UNL     1      44.819  12.613  -1.397  1.00  0.00     0.049 A 
HETATM   23  C6  UNL     1      43.702  12.590  -2.216  1.00  0.00     0.005 A 
HETATM   24  C7  UNL     1      43.218  11.360  -2.634  1.00  0.00     0.017 A 
HETATM   25  C8  UNL     1      43.866  10.222  -2.219  1.00  0.00     0.089 A 
HETATM   26  N3  UNL     1      44.956  10.272  -1.419  1.00  0.00    -0.352 N 
ATOM     27  H3  UNL     1      45.416   9.410  -1.126  1.00  0.00     0.166 HD
ENDBRANCH  15  21
ENDBRANCH   1  12
TORSDOF 3
ENDMDL
