MODEL 1
REMARK VINA RESULT: -5.660896295      0.000      0.000
REMARK  4 active torsions:
REMARK  status: ('A' for Active; 'I' for Inactive)
REMARK    1  A    between atoms: C2_2  and  C3_3 
REMARK    2  A    between atoms: C3_3  and  C4_4 
REMARK    3  A    between atoms: C4_4  and  C5_5 
REMARK    4  A    between atoms: C5_5  and  C6_6 
ROOT
HETATM    1  C6  UNL     1      -2.384  30.782 -11.600  1.00  0.00     0.030 C 
HETATM    2  C7  UNL     1      -1.094  30.182 -11.081  1.00  0.00     0.060 C 
HETATM    3  N1  UNL     1      -0.177  29.945 -12.124  1.00  0.00    -0.401 N 
ATOM      4  H1  UNL     1       0.802  30.216 -12.036  1.00  0.00     0.158 HD
HETATM    5  C8  UNL     1      -0.659  29.319 -13.300  1.00  0.00     0.125 C 
HETATM    6  C9  UNL     1      -2.059  29.577 -13.681  1.00  0.00     0.035 C 
HETATM    7  C10 UNL     1      -2.640  28.284 -14.256  1.00  0.00     0.239 C 
HETATM    8  N2  UNL     1      -3.437  27.685 -13.220  1.00  0.00    -0.074 N 
ATOM      9  H21 UNL     1      -3.317  26.675 -13.151  1.00  0.00     0.277 HD
ATOM     10  H22 UNL     1      -4.435  27.680 -13.429  1.00  0.00     0.277 HD
HETATM   11  C11 UNL     1      -3.104  28.400 -11.974  1.00  0.00     0.238 C 
HETATM   12  C12 UNL     1      -3.009  29.809 -12.516  1.00  0.00     0.027 C 
ENDROOT
BRANCH   1  13
HETATM   13  C5  UNL     1      -3.242  31.329 -10.508  1.00  0.00     0.010 C 
BRANCH  13  14
HETATM   14  C4  UNL     1      -2.415  31.741  -9.312  1.00  0.00     0.001 C 
BRANCH  14  15
HETATM   15  C3  UNL     1      -3.005  31.176  -8.039  1.00  0.00    -0.000 C 
BRANCH  15  16
HETATM   16  C2  UNL     1      -2.378  29.892  -7.617  1.00  0.00    -0.005 C 
HETATM   17  C1  UNL     1      -2.789  29.465  -6.225  1.00  0.00     0.005 C 
ENDBRANCH  15  16
ENDBRANCH  14  15
ENDBRANCH  13  14
ENDBRANCH   1  13
TORSDOF 4
ENDMDL
MODEL 2
REMARK VINA RESULT: -5.657085690      1.371      2.214
REMARK  4 active torsions:
REMARK  status: ('A' for Active; 'I' for Inactive)
REMARK    1  A    between atoms: C2_2  and  C3_3 
REMARK    2  A    between atoms: C3_3  and  C4_4 
REMARK    3  A    between atoms: C4_4  and  C5_5 
REMARK    4  A    between atoms: C5_5  and  C6_6 
ROOT
HETATM    1  C6  UNL     1      -2.510  31.275  -9.496  1.00  0.00     0.030 C 
HETATM    2  C7  UNL     1      -1.160  30.591  -9.437  1.00  0.00     0.060 C 
HETATM    3  N1  UNL     1      -0.458  30.725 -10.652  1.00  0.00    -0.401 N 
ATOM      4  H1  UNL     1       0.526  30.991 -10.664  1.00  0.00     0.158 HD
HETATM    5  C8  UNL     1      -1.165  30.480 -11.855  1.00  0.00     0.125 C 
HETATM    6  C9  UNL     1      -2.605  30.792 -11.872  1.00  0.00     0.035 C 
HETATM    7  C10 UNL     1      -3.312  29.723 -12.706  1.00  0.00     0.239 C 
HETATM    8  N2  UNL     1      -3.916  28.802 -11.783  1.00  0.00    -0.074 N 
ATOM      9  H21 UNL     1      -3.809  27.826 -12.057  1.00  0.00     0.277 HD
ATOM     10  H22 UNL     1      -4.935  28.826 -11.796  1.00  0.00     0.277 HD
HETATM   11  C11 UNL     1      -3.342  29.104 -10.459  1.00  0.00     0.238 C 
HETATM   12  C12 UNL     1      -3.317  30.614 -10.539  1.00  0.00     0.027 C 
ENDROOT
BRANCH   1  13
HETATM   13  C5  UNL     1      -3.137  31.422  -8.150  1.00  0.00     0.010 C 
BRANCH  13  14
HETATM   14  C4  UNL     1      -2.590  30.406  -7.174  1.00  0.00     0.001 C 
BRANCH  14  15
HETATM   15  C3  UNL     1      -2.986  30.763  -5.758  1.00  0.00    -0.000 C 
BRANCH  15  16
HETATM   16  C2  UNL     1      -3.127  29.577  -4.868  1.00  0.00    -0.005 C 
HETATM   17  C1  UNL     1      -2.756  29.870  -3.431  1.00  0.00     0.005 C 
ENDBRANCH  15  16
ENDBRANCH  14  15
ENDBRANCH  13  14
ENDBRANCH   1  13
TORSDOF 4
ENDMDL
MODEL 3
REMARK VINA RESULT: -5.610831282      2.017      4.896
REMARK  4 active torsions:
REMARK  status: ('A' for Active; 'I' for Inactive)
REMARK    1  A    between atoms: C2_2  and  C3_3 
REMARK    2  A    between atoms: C3_3  and  C4_4 
REMARK    3  A    between atoms: C4_4  and  C5_5 
REMARK    4  A    between atoms: C5_5  and  C6_6 
ROOT
HETATM    1  C6  UNL     1      -2.805  30.568 -10.608  1.00  0.00     0.030 C 
HETATM    2  C7  UNL     1      -1.490  31.321 -10.581  1.00  0.00     0.060 C 
HETATM    3  N1  UNL     1      -0.478  30.570  -9.947  1.00  0.00    -0.401 N 
ATOM      4  H1  UNL     1       0.450  30.486 -10.360  1.00  0.00     0.158 HD
HETATM    5  C8  UNL     1      -0.794  29.937  -8.720  1.00  0.00     0.125 C 
HETATM    6  C9  UNL     1      -2.185  29.490  -8.525  1.00  0.00     0.035 C 
HETATM    7  C10 UNL     1      -2.557  29.726  -7.060  1.00  0.00     0.239 C 
HETATM    8  N2  UNL     1      -3.344  30.928  -7.016  1.00  0.00    -0.074 N 
ATOM      9  H21 UNL     1      -3.105  31.540  -6.236  1.00  0.00     0.277 HD
ATOM     10  H22 UNL     1      -4.317  30.765  -6.755  1.00  0.00     0.277 HD
HETATM   11  C11 UNL     1      -3.193  31.572  -8.333  1.00  0.00     0.238 C 
HETATM   12  C12 UNL     1      -3.237  30.345  -9.215  1.00  0.00     0.027 C 
ENDROOT
BRANCH   1  13
HETATM   13  C5  UNL     1      -3.799  31.188 -11.532  1.00  0.00     0.010 C 
BRANCH  13  14
HETATM   14  C4  UNL     1      -4.179  30.242 -12.648  1.00  0.00     0.001 C 
BRANCH  14  15
HETATM   15  C3  UNL     1      -3.385  28.958 -12.549  1.00  0.00    -0.000 C 
BRANCH  15  16
HETATM   16  C2  UNL     1      -2.583  28.666 -13.770  1.00  0.00    -0.005 C 
HETATM   17  C1  UNL     1      -1.236  29.355 -13.769  1.00  0.00     0.005 C 
ENDBRANCH  15  16
ENDBRANCH  14  15
ENDBRANCH  13  14
ENDBRANCH   1  13
TORSDOF 4
ENDMDL
MODEL 4
REMARK VINA RESULT: -5.552611064      1.599      2.373
REMARK  4 active torsions:
REMARK  status: ('A' for Active; 'I' for Inactive)
REMARK    1  A    between atoms: C2_2  and  C3_3 
REMARK    2  A    between atoms: C3_3  and  C4_4 
REMARK    3  A    between atoms: C4_4  and  C5_5 
REMARK    4  A    between atoms: C5_5  and  C6_6 
ROOT
HETATM    1  C6  UNL     1      -2.248  30.340 -10.509  1.00  0.00     0.030 C 
HETATM    2  C7  UNL     1      -2.916  31.594 -11.034  1.00  0.00     0.060 C 
HETATM    3  N1  UNL     1      -4.120  31.297 -11.703  1.00  0.00    -0.401 N 
ATOM      4  H1  UNL     1      -4.968  31.834 -11.524  1.00  0.00     0.158 HD
HETATM    5  C8  UNL     1      -4.114  30.228 -12.633  1.00  0.00     0.125 C 
HETATM    6  C9  UNL     1      -3.196  29.105 -12.371  1.00  0.00     0.035 C 
HETATM    7  C10 UNL     1      -2.641  28.623 -13.712  1.00  0.00     0.239 C 
HETATM    8  N2  UNL     1      -1.319  29.170 -13.840  1.00  0.00    -0.074 N 
ATOM      9  H21 UNL     1      -1.116  29.522 -14.775  1.00  0.00     0.277 HD
ATOM     10  H22 UNL     1      -0.584  28.464 -13.808  1.00  0.00     0.277 HD
HETATM   11  C11 UNL     1      -1.189  30.195 -12.788  1.00  0.00     0.238 C 
HETATM   12  C12 UNL     1      -1.904  29.484 -11.661  1.00  0.00     0.027 C 
ENDROOT
BRANCH   1  13
HETATM   13  C5  UNL     1      -1.153  30.637  -9.540  1.00  0.00     0.010 C 
BRANCH  13  14
HETATM   14  C4  UNL     1      -1.044  29.562  -8.484  1.00  0.00     0.001 C 
BRANCH  14  15
HETATM   15  C3  UNL     1      -2.418  29.111  -8.042  1.00  0.00    -0.000 C 
BRANCH  15  16
HETATM   16  C2  UNL     1      -2.691  29.378  -6.602  1.00  0.00    -0.005 C 
HETATM   17  C1  UNL     1      -3.007  30.832  -6.322  1.00  0.00     0.005 C 
ENDBRANCH  15  16
ENDBRANCH  14  15
ENDBRANCH  13  14
ENDBRANCH   1  13
TORSDOF 4
ENDMDL
MODEL 5
REMARK VINA RESULT: -5.378726352      4.919      8.385
REMARK  4 active torsions:
REMARK  status: ('A' for Active; 'I' for Inactive)
REMARK    1  A    between atoms: C2_2  and  C3_3 
REMARK    2  A    between atoms: C3_3  and  C4_4 
REMARK    3  A    between atoms: C4_4  and  C5_5 
REMARK    4  A    between atoms: C5_5  and  C6_6 
ROOT
HETATM    1  C6  UNL     1      -2.973  30.114  -4.160  1.00  0.00     0.030 C 
HETATM    2  C7  UNL     1      -1.604  30.763  -4.119  1.00  0.00     0.060 C 
HETATM    3  N1  UNL     1      -1.245  31.129  -2.807  1.00  0.00    -0.401 N 
ATOM      4  H1  UNL     1      -0.318  30.918  -2.437  1.00  0.00     0.158 HD
HETATM    5  C8  UNL     1      -2.212  31.800  -2.018  1.00  0.00     0.125 C 
HETATM    6  C9  UNL     1      -3.629  31.476  -2.261  1.00  0.00     0.035 C 
HETATM    7  C10 UNL     1      -4.442  32.763  -2.114  1.00  0.00     0.239 C 
HETATM    8  N2  UNL     1      -4.722  33.237  -3.442  1.00  0.00    -0.074 N 
ATOM      9  H21 UNL     1      -4.614  34.246  -3.542  1.00  0.00     0.277 HD
ATOM     10  H22 UNL     1      -5.710  33.190  -3.688  1.00  0.00     0.277 HD
HETATM   11  C11 UNL     1      -3.856  32.464  -4.350  1.00  0.00     0.238 C 
HETATM   12  C12 UNL     1      -3.965  31.104  -3.698  1.00  0.00     0.027 C 
ENDROOT
BRANCH   1  13
HETATM   13  C5  UNL     1      -3.248  29.440  -5.462  1.00  0.00     0.010 C 
BRANCH  13  14
HETATM   14  C4  UNL     1      -2.000  29.346  -6.309  1.00  0.00     0.001 C 
BRANCH  14  15
HETATM   15  C3  UNL     1      -2.321  29.623  -7.761  1.00  0.00    -0.000 C 
BRANCH  15  16
HETATM   16  C2  UNL     1      -2.725  31.035  -8.016  1.00  0.00    -0.005 C 
HETATM   17  C1  UNL     1      -2.325  31.523  -9.391  1.00  0.00     0.005 C 
ENDBRANCH  15  16
ENDBRANCH  14  15
ENDBRANCH  13  14
ENDBRANCH   1  13
TORSDOF 4
ENDMDL
