MODEL 1
REMARK VINA RESULT: -5.570085421      0.000      0.000
REMARK  8 active torsions:
REMARK  status: ('A' for Active; 'I' for Inactive)
REMARK    1  A    between atoms: C2_2  and  N1_3 
REMARK    2  A    between atoms: N1_3  and  C3_4 
REMARK    3  A    between atoms: N1_3  and  C5_7 
REMARK    4  A    between atoms: C3_4  and  C4_5 
REMARK    5  A    between atoms: C5_7  and  C6_8 
REMARK    6  A    between atoms: C6_8  and  C7_9 
REMARK    7  A    between atoms: C7_9  and  N2_10 
REMARK       I    between atoms: N2_10  and  C8_12 
REMARK       I    between atoms: C8_12  and  N3_14 
REMARK    8  A    between atoms: N3_14  and  C9_16 
ROOT
HETATM    1  N2  UNL     1      36.194  15.323  11.855  1.00  0.00    -0.343 N 
ATOM      2  H2  UNL     1      37.119  15.730  11.991  1.00  0.00     0.164 HD
HETATM    3  C8  UNL     1      35.691  14.367  12.773  1.00  0.00     0.316 C 
HETATM    4  O1  UNL     1      34.533  13.863  12.596  1.00  0.00    -0.247 OA
HETATM    5  N3  UNL     1      36.446  13.953  13.893  1.00  0.00    -0.339 N 
ATOM      6  H3  UNL     1      37.372  14.362  14.025  1.00  0.00     0.164 HD
ENDROOT
BRANCH   1   7
HETATM    7  C7  UNL     1      35.384  15.714  10.723  1.00  0.00     0.126 C 
BRANCH   7   8
HETATM    8  C6  UNL     1      35.955  15.042   9.493  1.00  0.00     0.050 C 
BRANCH   8   9
HETATM    9  C5  UNL     1      35.329  13.760   9.130  1.00  0.00     0.274 C 
BRANCH   9  10
HETATM   10  N1  UNL     1      36.111  12.568   9.068  1.00  0.00     0.090 N 
BRANCH  10  11
HETATM   11  C2  UNL     1      35.455  11.710  10.115  1.00  0.00     0.268 C 
HETATM   12  C1  UNL     1      34.012  11.473   9.813  1.00  0.00     0.037 C 
ENDBRANCH  10  11
BRANCH  10  13
HETATM   13  C3  UNL     1      37.471  12.653   9.475  1.00  0.00     0.303 C 
BRANCH  13  14
HETATM   14  C4  UNL     1      37.754  11.945  10.775  1.00  0.00     0.252 C 
HETATM   15  F1  UNL     1      38.432  12.819  11.640  1.00  0.00    -0.254 F 
ENDBRANCH  13  14
ENDBRANCH  10  13
ENDBRANCH   9  10
ENDBRANCH   8   9
ENDBRANCH   7   8
ENDBRANCH   1   7
BRANCH   5  16
HETATM   16  C9  UNL     1      35.987  12.980  14.866  1.00  0.00     0.086 C 
HETATM   17  C10 UNL     1      36.263  11.628  14.281  1.00  0.00     0.025 C 
HETATM   18  C11 UNL     1      35.986  10.461  15.152  1.00  0.00     0.002 C 
HETATM   19  C12 UNL     1      34.819  10.586  16.075  1.00  0.00     0.000 C 
HETATM   20  C13 UNL     1      35.281  10.450  17.522  1.00  0.00     0.000 C 
HETATM   21  C14 UNL     1      34.815  11.662  18.287  1.00  0.00     0.000 C 
HETATM   22  C15 UNL     1      35.840  12.743  18.400  1.00  0.00     0.000 C 
HETATM   23  C16 UNL     1      35.744  13.688  17.195  1.00  0.00     0.002 C 
HETATM   24  C17 UNL     1      36.728  13.256  16.135  1.00  0.00     0.025 C 
ENDBRANCH   5  16
TORSDOF 8
ENDMDL
MODEL 2
REMARK VINA RESULT: -5.480717514      1.841      2.556
REMARK  8 active torsions:
REMARK  status: ('A' for Active; 'I' for Inactive)
REMARK    1  A    between atoms: C2_2  and  N1_3 
REMARK    2  A    between atoms: N1_3  and  C3_4 
REMARK    3  A    between atoms: N1_3  and  C5_7 
REMARK    4  A    between atoms: C3_4  and  C4_5 
REMARK    5  A    between atoms: C5_7  and  C6_8 
REMARK    6  A    between atoms: C6_8  and  C7_9 
REMARK    7  A    between atoms: C7_9  and  N2_10 
REMARK       I    between atoms: N2_10  and  C8_12 
REMARK       I    between atoms: C8_12  and  N3_14 
REMARK    8  A    between atoms: N3_14  and  C9_16 
ROOT
HETATM    1  N2  UNL     1      36.629  13.610  11.481  1.00  0.00    -0.343 N 
ATOM      2  H2  UNL     1      37.628  13.434  11.369  1.00  0.00     0.164 HD
HETATM    3  C8  UNL     1      36.062  13.710  12.775  1.00  0.00     0.316 C 
HETATM    4  O1  UNL     1      34.813  13.931  12.907  1.00  0.00    -0.247 OA
HETATM    5  N3  UNL     1      36.852  13.570  13.939  1.00  0.00    -0.339 N 
ATOM      6  H3  UNL     1      37.850  13.393  13.822  1.00  0.00     0.164 HD
ENDROOT
BRANCH   1   7
HETATM    7  C7  UNL     1      35.780  13.759  10.320  1.00  0.00     0.126 C 
BRANCH   7   8
HETATM    8  C6  UNL     1      35.286  12.383   9.930  1.00  0.00     0.050 C 
BRANCH   8   9
HETATM    9  C5  UNL     1      36.164  11.267  10.318  1.00  0.00     0.274 C 
BRANCH   9  10
HETATM   10  N1  UNL     1      35.658  10.194  11.111  1.00  0.00     0.090 N 
BRANCH  10  11
HETATM   11  C2  UNL     1      34.280  10.687  11.461  1.00  0.00     0.268 C 
HETATM   12  C1  UNL     1      34.003  10.562  12.922  1.00  0.00     0.037 C 
ENDBRANCH  10  11
BRANCH  10  13
HETATM   13  C3  UNL     1      36.282   9.952  12.365  1.00  0.00     0.303 C 
BRANCH  13  14
HETATM   14  C4  UNL     1      37.764  10.225  12.361  1.00  0.00     0.252 C 
HETATM   15  F1  UNL     1      38.153  10.688  13.629  1.00  0.00    -0.254 F 
ENDBRANCH  13  14
ENDBRANCH  10  13
ENDBRANCH   9  10
ENDBRANCH   8   9
ENDBRANCH   7   8
ENDBRANCH   1   7
BRANCH   5  16
HETATM   16  C9  UNL     1      36.331  13.662  15.289  1.00  0.00     0.086 C 
HETATM   17  C10 UNL     1      36.036  12.260  15.730  1.00  0.00     0.025 C 
HETATM   18  C11 UNL     1      35.601  12.085  17.135  1.00  0.00     0.002 C 
HETATM   19  C12 UNL     1      34.757  13.176  17.708  1.00  0.00     0.000 C 
HETATM   20  C13 UNL     1      35.452  13.792  18.917  1.00  0.00     0.000 C 
HETATM   21  C14 UNL     1      35.565  15.278  18.698  1.00  0.00     0.000 C 
HETATM   22  C15 UNL     1      36.876  15.713  18.129  1.00  0.00     0.000 C 
HETATM   23  C16 UNL     1      36.826  15.670  16.596  1.00  0.00     0.002 C 
HETATM   24  C17 UNL     1      37.374  14.350  16.110  1.00  0.00     0.025 C 
ENDBRANCH   5  16
TORSDOF 8
ENDMDL
MODEL 3
REMARK VINA RESULT: -5.434512864      1.703      3.254
REMARK  8 active torsions:
REMARK  status: ('A' for Active; 'I' for Inactive)
REMARK    1  A    between atoms: C2_2  and  N1_3 
REMARK    2  A    between atoms: N1_3  and  C3_4 
REMARK    3  A    between atoms: N1_3  and  C5_7 
REMARK    4  A    between atoms: C3_4  and  C4_5 
REMARK    5  A    between atoms: C5_7  and  C6_8 
REMARK    6  A    between atoms: C6_8  and  C7_9 
REMARK    7  A    between atoms: C7_9  and  N2_10 
REMARK       I    between atoms: N2_10  and  C8_12 
REMARK       I    between atoms: C8_12  and  N3_14 
REMARK    8  A    between atoms: N3_14  and  C9_16 
ROOT
HETATM    1  N2  UNL     1      34.755  10.946  12.723  1.00  0.00    -0.343 N 
ATOM      2  H2  UNL     1      35.032   9.984  12.920  1.00  0.00     0.164 HD
HETATM    3  C8  UNL     1      34.864  11.941  13.726  1.00  0.00     0.316 C 
HETATM    4  O1  UNL     1      34.517  13.142  13.471  1.00  0.00    -0.247 OA
HETATM    5  N3  UNL     1      35.352  11.636  15.017  1.00  0.00    -0.339 N 
ATOM      6  H3  UNL     1      35.627  10.672  15.210  1.00  0.00     0.164 HD
ENDROOT
BRANCH   1   7
HETATM    7  C7  UNL     1      34.249  11.306  11.418  1.00  0.00     0.126 C 
BRANCH   7   8
HETATM    8  C6  UNL     1      35.434  11.484  10.495  1.00  0.00     0.050 C 
BRANCH   8   9
HETATM    9  C5  UNL     1      35.570  12.823   9.898  1.00  0.00     0.274 C 
BRANCH   9  10
HETATM   10  N1  UNL     1      36.317  13.839  10.568  1.00  0.00     0.090 N 
BRANCH  10  11
HETATM   11  C2  UNL     1      35.471  15.059  10.326  1.00  0.00     0.268 C 
HETATM   12  C1  UNL     1      35.772  16.145  11.305  1.00  0.00     0.037 C 
ENDBRANCH  10  11
BRANCH  10  13
HETATM   13  C3  UNL     1      37.592  14.175  10.037  1.00  0.00     0.303 C 
BRANCH  13  14
HETATM   14  C4  UNL     1      38.708  13.308  10.560  1.00  0.00     0.252 C 
HETATM   15  F1  UNL     1      38.310  12.726  11.775  1.00  0.00    -0.254 F 
ENDBRANCH  13  14
ENDBRANCH  10  13
ENDBRANCH   9  10
ENDBRANCH   8   9
ENDBRANCH   7   8
ENDBRANCH   1   7
BRANCH   5  16
HETATM   16  C9  UNL     1      35.486  12.609  16.084  1.00  0.00     0.086 C 
HETATM   17  C10 UNL     1      35.240  11.873  17.366  1.00  0.00     0.025 C 
HETATM   18  C11 UNL     1      35.441  12.639  18.618  1.00  0.00     0.002 C 
HETATM   19  C12 UNL     1      35.075  14.086  18.576  1.00  0.00     0.000 C 
HETATM   20  C13 UNL     1      36.298  14.943  18.885  1.00  0.00     0.000 C 
HETATM   21  C14 UNL     1      36.489  15.926  17.759  1.00  0.00     0.000 C 
HETATM   22  C15 UNL     1      37.465  15.481  16.719  1.00  0.00     0.000 C 
HETATM   23  C16 UNL     1      36.747  14.658  15.641  1.00  0.00     0.002 C 
HETATM   24  C17 UNL     1      36.860  13.189  15.970  1.00  0.00     0.025 C 
ENDBRANCH   5  16
TORSDOF 8
ENDMDL
MODEL 4
REMARK VINA RESULT: -5.308615311      1.886      3.265
REMARK  8 active torsions:
REMARK  status: ('A' for Active; 'I' for Inactive)
REMARK    1  A    between atoms: C2_2  and  N1_3 
REMARK    2  A    between atoms: N1_3  and  C3_4 
REMARK    3  A    between atoms: N1_3  and  C5_7 
REMARK    4  A    between atoms: C3_4  and  C4_5 
REMARK    5  A    between atoms: C5_7  and  C6_8 
REMARK    6  A    between atoms: C6_8  and  C7_9 
REMARK    7  A    between atoms: C7_9  and  N2_10 
REMARK       I    between atoms: N2_10  and  C8_12 
REMARK       I    between atoms: C8_12  and  N3_14 
REMARK    8  A    between atoms: N3_14  and  C9_16 
ROOT
HETATM    1  N2  UNL     1      34.983  11.454  11.933  1.00  0.00    -0.343 N 
ATOM      2  H2  UNL     1      35.360  10.507  11.920  1.00  0.00     0.164 HD
HETATM    3  C8  UNL     1      34.986  12.209  13.133  1.00  0.00     0.316 C 
HETATM    4  O1  UNL     1      34.513  13.394  13.141  1.00  0.00    -0.247 OA
HETATM    5  N3  UNL     1      35.505  11.678  14.336  1.00  0.00    -0.339 N 
ATOM      6  H3  UNL     1      35.881  10.730  14.318  1.00  0.00     0.164 HD
ENDROOT
BRANCH   1   7
HETATM    7  C7  UNL     1      34.439  12.039  10.728  1.00  0.00     0.126 C 
BRANCH   7   8
HETATM    8  C6  UNL     1      35.523  12.015   9.674  1.00  0.00     0.050 C 
BRANCH   8   9
HETATM    9  C5  UNL     1      36.788  12.662  10.058  1.00  0.00     0.274 C 
BRANCH   9  10
HETATM   10  N1  UNL     1      37.005  14.045   9.778  1.00  0.00     0.090 N 
BRANCH  10  11
HETATM   11  C2  UNL     1      38.507  14.124   9.739  1.00  0.00     0.268 C 
HETATM   12  C1  UNL     1      39.136  12.777   9.866  1.00  0.00     0.037 C 
ENDBRANCH  10  11
BRANCH  10  13
HETATM   13  C3  UNL     1      36.622  14.984  10.774  1.00  0.00     0.303 C 
BRANCH  13  14
HETATM   14  C4  UNL     1      35.348  15.719  10.449  1.00  0.00     0.252 C 
HETATM   15  F1  UNL     1      35.287  16.899  11.210  1.00  0.00    -0.254 F 
ENDBRANCH  13  14
ENDBRANCH  10  13
ENDBRANCH   9  10
ENDBRANCH   8   9
ENDBRANCH   7   8
ENDBRANCH   1   7
BRANCH   5  16
HETATM   16  C9  UNL     1      35.536  12.400  15.594  1.00  0.00     0.086 C 
HETATM   17  C10 UNL     1      35.306  11.386  16.673  1.00  0.00     0.025 C 
HETATM   18  C11 UNL     1      35.414  11.869  18.069  1.00  0.00     0.002 C 
HETATM   19  C12 UNL     1      34.945  13.264  18.326  1.00  0.00     0.000 C 
HETATM   20  C13 UNL     1      36.092  14.109  18.868  1.00  0.00     0.000 C 
HETATM   21  C14 UNL     1      36.244  15.326  17.992  1.00  0.00     0.000 C 
HETATM   22  C15 UNL     1      37.280  15.183  16.926  1.00  0.00     0.000 C 
HETATM   23  C16 UNL     1      36.657  14.573  15.663  1.00  0.00     0.002 C 
HETATM   24  C17 UNL     1      36.866  13.078  15.670  1.00  0.00     0.025 C 
ENDBRANCH   5  16
TORSDOF 8
ENDMDL
MODEL 5
REMARK VINA RESULT: -5.263730969      4.676      7.077
REMARK  8 active torsions:
REMARK  status: ('A' for Active; 'I' for Inactive)
REMARK    1  A    between atoms: C2_2  and  N1_3 
REMARK    2  A    between atoms: N1_3  and  C3_4 
REMARK    3  A    between atoms: N1_3  and  C5_7 
REMARK    4  A    between atoms: C3_4  and  C4_5 
REMARK    5  A    between atoms: C5_7  and  C6_8 
REMARK    6  A    between atoms: C6_8  and  C7_9 
REMARK    7  A    between atoms: C7_9  and  N2_10 
REMARK       I    between atoms: N2_10  and  C8_12 
REMARK       I    between atoms: C8_12  and  N3_14 
REMARK    8  A    between atoms: N3_14  and  C9_16 
ROOT
HETATM    1  N2  UNL     1      34.998  12.928  19.570  1.00  0.00    -0.343 N 
ATOM      2  H2  UNL     1      34.629  13.749  20.049  1.00  0.00     0.164 HD
HETATM    3  C8  UNL     1      34.649  11.627  20.010  1.00  0.00     0.316 C 
HETATM    4  O1  UNL     1      35.114  10.604  19.406  1.00  0.00    -0.247 OA
HETATM    5  N3  UNL     1      33.789  11.428  21.114  1.00  0.00    -0.339 N 
ATOM      6  H3  UNL     1      33.422  12.253  21.590  1.00  0.00     0.164 HD
ENDROOT
BRANCH   1   7
HETATM    7  C7  UNL     1      35.883  13.080  18.437  1.00  0.00     0.126 C 
BRANCH   7   8
HETATM    8  C6  UNL     1      35.032  13.381  17.224  1.00  0.00     0.050 C 
BRANCH   8   9
HETATM    9  C5  UNL     1      35.337  12.578  16.028  1.00  0.00     0.274 C 
BRANCH   9  10
HETATM   10  N1  UNL     1      35.056  13.090  14.726  1.00  0.00     0.090 N 
BRANCH  10  11
HETATM   11  C2  UNL     1      34.958  11.830  13.909  1.00  0.00     0.268 C 
HETATM   12  C1  UNL     1      33.790  10.995  14.318  1.00  0.00     0.037 C 
ENDBRANCH  10  11
BRANCH  10  13
HETATM   13  C3  UNL     1      36.073  13.852  14.087  1.00  0.00     0.303 C 
BRANCH  13  14
HETATM   14  C4  UNL     1      35.736  14.233  12.669  1.00  0.00     0.252 C 
HETATM   15  F1  UNL     1      36.063  15.584  12.462  1.00  0.00    -0.254 F 
ENDBRANCH  13  14
ENDBRANCH  10  13
ENDBRANCH   9  10
ENDBRANCH   8   9
ENDBRANCH   7   8
ENDBRANCH   1   7
BRANCH   5  16
HETATM   16  C9  UNL     1      33.395  10.124  21.611  1.00  0.00     0.086 C 
HETATM   17  C10 UNL     1      33.338  10.236  23.105  1.00  0.00     0.025 C 
HETATM   18  C11 UNL     1      32.837   9.050  23.839  1.00  0.00     0.002 C 
HETATM   19  C12 UNL     1      33.188   7.718  23.263  1.00  0.00     0.000 C 
HETATM   20  C13 UNL     1      31.918   6.950  22.914  1.00  0.00     0.000 C 
HETATM   21  C14 UNL     1      31.989   6.544  21.465  1.00  0.00     0.000 C 
HETATM   22  C15 UNL     1      31.292   7.481  20.533  1.00  0.00     0.000 C 
HETATM   23  C16 UNL     1      32.254   8.590  20.085  1.00  0.00     0.002 C 
HETATM   24  C17 UNL     1      32.082   9.797  20.976  1.00  0.00     0.025 C 
ENDBRANCH   5  16
TORSDOF 8
ENDMDL
