MODEL 1
REMARK VINA RESULT: -8.961611298      0.000      0.000
REMARK  6 active torsions:
REMARK  status: ('A' for Active; 'I' for Inactive)
REMARK    1  A    between atoms: C3_3  and  C4_4 
REMARK    2  A    between atoms: C4_4  and  C5_5 
REMARK    3  A    between atoms: C6_6  and  O1_7 
REMARK    4  A    between atoms: C8_15  and  N3_16 
REMARK    5  A    between atoms: N4_22  and  C12_23 
REMARK    6  A    between atoms: C14_25  and  C15_26 
ROOT
HETATM    1  C1  UNL     1      59.515  23.473  16.933  1.00  0.00     0.044 C 
HETATM    2  C2  UNL     1      60.243  24.432  17.451  1.00  0.00     0.040 A 
HETATM    3  C3  UNL     1      59.838  25.431  18.301  1.00  0.00    -0.007 A 
HETATM    4  C9  UNL     1      61.003  26.192  18.557  1.00  0.00     0.039 A 
HETATM    5  C10 UNL     1      62.015  25.619  17.862  1.00  0.00     0.014 A 
HETATM    6  C11 UNL     1      63.467  26.086  17.823  1.00  0.00     0.068 C 
HETATM    7  N4  UNL     1      61.590  24.557  17.185  1.00  0.00    -0.315 N 
ENDROOT
BRANCH   7   8
HETATM    8  C12 UNL     1      62.383  23.710  16.345  1.00  0.00     0.046 A 
HETATM    9  C13 UNL     1      62.447  23.873  14.976  1.00  0.00     0.043 A 
HETATM   10  C14 UNL     1      63.221  23.041  14.191  1.00  0.00    -0.018 A 
HETATM   11  C21 UNL     1      63.923  22.041  14.839  1.00  0.00     0.013 A 
HETATM   12  C22 UNL     1      63.876  21.856  16.206  1.00  0.00     0.010 A 
HETATM   13  C23 UNL     1      63.093  22.706  16.963  1.00  0.00    -0.035 A 
HETATM   14  C24 UNL     1      63.007  22.551  18.437  1.00  0.00     0.050 C 
BRANCH  10  15
HETATM   15  C15 UNL     1      63.284  23.221  12.745  1.00  0.00     0.037 A 
HETATM   16  C16 UNL     1      64.393  23.148  11.926  1.00  0.00     0.123 A 
HETATM   17  N5  UNL     1      63.986  23.381  10.660  1.00  0.00    -0.303 N 
HETATM   18  N6  UNL     1      62.680  23.595  10.637  1.00  0.00    -0.251 N 
ATOM     19  H5  UNL     1      64.596  23.390   9.841  1.00  0.00     0.186 HD
HETATM   20  C17 UNL     1      61.833  23.866   9.627  1.00  0.00     0.119 A 
HETATM   21  C20 UNL     1      62.222  23.503  11.911  1.00  0.00     0.139 A 
HETATM   22  C18 UNL     1      60.491  24.045   9.931  1.00  0.00     0.036 A 
HETATM   23  C19 UNL     1      60.025  23.950  11.225  1.00  0.00     0.091 A 
HETATM   24  N7  UNL     1      60.918  23.676  12.207  1.00  0.00    -0.350 N 
ATOM     25  H7  UNL     1      60.602  23.600  13.174  1.00  0.00     0.166 HD
ENDBRANCH  10  15
ENDBRANCH   7   8
BRANCH   3  26
HETATM   26  C4  UNL     1      58.674  25.730  18.833  1.00  0.00     0.033 C 
BRANCH  26  27
HETATM   27  C5  UNL     1      58.124  25.421  20.115  1.00  0.00     0.059 A 
HETATM   28  C6  UNL     1      58.384  26.260  21.212  1.00  0.00     0.158 A 
HETATM   29  N1  UNL     1      57.834  25.985  22.403  1.00  0.00    -0.288 N 
HETATM   30  C7  UNL     1      57.036  24.905  22.538  1.00  0.00     0.327 A 
ATOM     31  H1  UNL     1      58.018  26.588  23.204  1.00  0.00     0.172 HD
HETATM   32  O2  UNL     1      56.550  24.701  23.682  1.00  0.00    -0.247 OA
HETATM   33  N2  UNL     1      56.772  24.086  21.495  1.00  0.00    -0.294 N 
HETATM   34  C8  UNL     1      57.291  24.304  20.275  1.00  0.00     0.117 A 
ATOM     35  H2  UNL     1      56.163  23.282  21.639  1.00  0.00     0.172 HD
BRANCH  28  36
HETATM   36  O1  UNL     1      59.198  27.376  21.108  1.00  0.00    -0.345 OA
ATOM     37  H1  UNL     1      58.859  28.259  21.200  1.00  0.00     0.219 HD
ENDBRANCH  28  36
BRANCH  34  38
HETATM   38  N3  UNL     1      57.015  23.504  19.317  1.00  0.00    -0.385 N 
ATOM     39  H32 UNL     1      56.078  23.107  19.244  1.00  0.00     0.157 HD
ATOM     40  H31 UNL     1      57.698  23.236  18.608  1.00  0.00     0.157 HD
ENDBRANCH  34  38
ENDBRANCH  26  27
ENDBRANCH   3  26
TORSDOF 6
ENDMDL
MODEL 2
REMARK VINA RESULT: -8.937111104      1.581      2.098
REMARK  6 active torsions:
REMARK  status: ('A' for Active; 'I' for Inactive)
REMARK    1  A    between atoms: C3_3  and  C4_4 
REMARK    2  A    between atoms: C4_4  and  C5_5 
REMARK    3  A    between atoms: C6_6  and  O1_7 
REMARK    4  A    between atoms: C8_15  and  N3_16 
REMARK    5  A    between atoms: N4_22  and  C12_23 
REMARK    6  A    between atoms: C14_25  and  C15_26 
ROOT
HETATM    1  C1  UNL     1      59.276  24.235  15.052  1.00  0.00     0.044 C 
HETATM    2  C2  UNL     1      60.147  24.921  15.749  1.00  0.00     0.040 A 
HETATM    3  C3  UNL     1      59.910  25.722  16.839  1.00  0.00    -0.007 A 
HETATM    4  C9  UNL     1      61.180  26.224  17.211  1.00  0.00     0.039 A 
HETATM    5  C10 UNL     1      62.083  25.707  16.344  1.00  0.00     0.014 A 
HETATM    6  C11 UNL     1      63.588  25.960  16.344  1.00  0.00     0.068 C 
HETATM    7  N4  UNL     1      61.493  24.919  15.451  1.00  0.00    -0.315 N 
ENDROOT
BRANCH   7   8
HETATM    8  C12 UNL     1      62.137  24.207  14.388  1.00  0.00     0.046 A 
HETATM    9  C13 UNL     1      62.023  24.585  13.065  1.00  0.00     0.043 A 
HETATM   10  C14 UNL     1      62.655  23.879  12.061  1.00  0.00    -0.018 A 
HETATM   11  C21 UNL     1      63.404  22.780  12.441  1.00  0.00     0.013 A 
HETATM   12  C22 UNL     1      63.534  22.379  13.756  1.00  0.00     0.010 A 
HETATM   13  C23 UNL     1      62.889  23.108  14.737  1.00  0.00    -0.035 A 
HETATM   14  C24 UNL     1      62.996  22.720  16.167  1.00  0.00     0.050 C 
BRANCH  10  15
HETATM   15  C15 UNL     1      62.530  24.286  10.665  1.00  0.00     0.037 A 
HETATM   16  C16 UNL     1      63.524  24.729   9.816  1.00  0.00     0.123 A 
HETATM   17  N5  UNL     1      62.956  24.995   8.620  1.00  0.00    -0.303 N 
HETATM   18  N6  UNL     1      61.657  24.742   8.671  1.00  0.00    -0.251 N 
ATOM     19  H5  UNL     1      63.454  25.339   7.799  1.00  0.00     0.186 HD
HETATM   20  C17 UNL     1      60.686  24.850   7.746  1.00  0.00     0.119 A 
HETATM   21  C20 UNL     1      61.368  24.304   9.923  1.00  0.00     0.139 A 
HETATM   22  C18 UNL     1      59.394  24.502   8.114  1.00  0.00     0.036 A 
HETATM   23  C19 UNL     1      59.100  24.057   9.384  1.00  0.00     0.091 A 
HETATM   24  N7  UNL     1      60.113  23.965  10.280  1.00  0.00    -0.350 N 
ATOM     25  H7  UNL     1      59.926  23.639  11.228  1.00  0.00     0.166 HD
ENDBRANCH  10  15
ENDBRANCH   7   8
BRANCH   3  26
HETATM   26  C4  UNL     1      58.813  26.038  17.489  1.00  0.00     0.033 C 
BRANCH  26  27
HETATM   27  C5  UNL     1      58.129  25.371  18.552  1.00  0.00     0.059 A 
HETATM   28  C6  UNL     1      58.503  25.605  19.885  1.00  0.00     0.158 A 
HETATM   29  N1  UNL     1      57.833  25.005  20.878  1.00  0.00    -0.288 N 
HETATM   30  C7  UNL     1      56.805  24.180  20.588  1.00  0.00     0.327 A 
ATOM     31  H1  UNL     1      58.099  25.170  21.849  1.00  0.00     0.172 HD
HETATM   32  O2  UNL     1      56.215  23.647  21.565  1.00  0.00    -0.247 OA
HETATM   33  N2  UNL     1      56.428  23.942  19.313  1.00  0.00    -0.294 N 
HETATM   34  C8  UNL     1      57.057  24.511  18.271  1.00  0.00     0.117 A 
ATOM     35  H2  UNL     1      55.645  23.313  19.136  1.00  0.00     0.172 HD
BRANCH  28  36
HETATM   36  O1  UNL     1      59.554  26.445  20.218  1.00  0.00    -0.345 OA
ATOM     37  H1  UNL     1      59.775  26.644  21.120  1.00  0.00     0.219 HD
ENDBRANCH  28  36
BRANCH  34  38
HETATM   38  N3  UNL     1      56.667  24.258  17.080  1.00  0.00    -0.385 N 
ATOM     39  H32 UNL     1      56.895  24.905  16.325  1.00  0.00     0.157 HD
ATOM     40  H31 UNL     1      56.130  23.425  16.840  1.00  0.00     0.157 HD
ENDBRANCH  34  38
ENDBRANCH  26  27
ENDBRANCH   3  26
TORSDOF 6
ENDMDL
MODEL 3
REMARK VINA RESULT: -8.850635430      2.941      3.661
REMARK  6 active torsions:
REMARK  status: ('A' for Active; 'I' for Inactive)
REMARK    1  A    between atoms: C3_3  and  C4_4 
REMARK    2  A    between atoms: C4_4  and  C5_5 
REMARK    3  A    between atoms: C6_6  and  O1_7 
REMARK    4  A    between atoms: C8_15  and  N3_16 
REMARK    5  A    between atoms: N4_22  and  C12_23 
REMARK    6  A    between atoms: C14_25  and  C15_26 
ROOT
HETATM    1  C1  UNL     1      58.894  24.066  14.773  1.00  0.00     0.044 C 
HETATM    2  C2  UNL     1      59.632  24.806  15.563  1.00  0.00     0.040 A 
HETATM    3  C3  UNL     1      59.215  25.605  16.600  1.00  0.00    -0.007 A 
HETATM    4  C9  UNL     1      60.399  26.179  17.121  1.00  0.00     0.039 A 
HETATM    5  C10 UNL     1      61.431  25.703  16.386  1.00  0.00     0.014 A 
HETATM    6  C11 UNL     1      62.908  26.038  16.572  1.00  0.00     0.068 C 
HETATM    7  N4  UNL     1      61.003  24.874  15.439  1.00  0.00    -0.315 N 
ENDROOT
BRANCH   7   8
HETATM    8  C12 UNL     1      61.814  24.186  14.480  1.00  0.00     0.046 A 
HETATM    9  C13 UNL     1      61.840  24.534  13.145  1.00  0.00     0.043 A 
HETATM   10  C14 UNL     1      62.633  23.853  12.241  1.00  0.00    -0.018 A 
HETATM   11  C21 UNL     1      63.394  22.810  12.736  1.00  0.00     0.013 A 
HETATM   12  C22 UNL     1      63.386  22.440  14.067  1.00  0.00     0.010 A 
HETATM   13  C23 UNL     1      62.582  23.143  14.944  1.00  0.00    -0.035 A 
HETATM   14  C24 UNL     1      62.537  22.787  16.385  1.00  0.00     0.050 C 
BRANCH  10  15
HETATM   15  C15 UNL     1      62.656  24.229  10.832  1.00  0.00     0.037 A 
HETATM   16  C16 UNL     1      63.747  24.578  10.062  1.00  0.00     0.123 A 
HETATM   17  N5  UNL     1      63.302  24.848   8.816  1.00  0.00    -0.303 N 
HETATM   18  N6  UNL     1      61.989  24.687   8.759  1.00  0.00    -0.251 N 
ATOM     19  H5  UNL     1      63.891  25.134   8.033  1.00  0.00     0.186 HD
HETATM   20  C17 UNL     1      61.109  24.836   7.752  1.00  0.00     0.119 A 
HETATM   21  C20 UNL     1      61.565  24.305   9.991  1.00  0.00     0.139 A 
HETATM   22  C18 UNL     1      59.769  24.588   8.015  1.00  0.00     0.036 A 
HETATM   23  C19 UNL     1      59.338  24.200   9.265  1.00  0.00     0.091 A 
HETATM   24  N7  UNL     1      60.263  24.065  10.246  1.00  0.00    -0.350 N 
ATOM     25  H7  UNL     1      59.973  23.779  11.181  1.00  0.00     0.166 HD
ENDBRANCH  10  15
ENDBRANCH   7   8
BRANCH   3  26
HETATM   26  C4  UNL     1      58.028  25.868  17.099  1.00  0.00     0.033 C 
BRANCH  26  27
HETATM   27  C5  UNL     1      57.264  27.076  17.110  1.00  0.00     0.059 A 
HETATM   28  C6  UNL     1      56.662  27.537  15.928  1.00  0.00     0.158 A 
HETATM   29  N1  UNL     1      55.916  28.651  15.954  1.00  0.00    -0.288 N 
HETATM   30  C7  UNL     1      55.751  29.318  17.116  1.00  0.00     0.327 A 
ATOM     31  H1  UNL     1      55.476  28.993  15.100  1.00  0.00     0.172 HD
HETATM   32  O2  UNL     1      55.039  30.357  17.074  1.00  0.00    -0.247 OA
HETATM   33  N2  UNL     1      56.321  28.890  18.263  1.00  0.00    -0.294 N 
HETATM   34  C8  UNL     1      57.080  27.783  18.307  1.00  0.00     0.117 A 
ATOM     35  H2  UNL     1      56.170  29.423  19.120  1.00  0.00     0.172 HD
BRANCH  28  36
HETATM   36  O1  UNL     1      56.811  26.877  14.719  1.00  0.00    -0.345 OA
ATOM     37  H1  UNL     1      56.798  25.929  14.657  1.00  0.00     0.219 HD
ENDBRANCH  28  36
BRANCH  34  38
HETATM   38  N3  UNL     1      57.601  27.414  19.415  1.00  0.00    -0.385 N 
ATOM     39  H32 UNL     1      57.879  26.442  19.544  1.00  0.00     0.157 HD
ATOM     40  H31 UNL     1      57.754  28.056  20.193  1.00  0.00     0.157 HD
ENDBRANCH  34  38
ENDBRANCH  26  27
ENDBRANCH   3  26
TORSDOF 6
ENDMDL
MODEL 4
REMARK VINA RESULT: -8.840678877      3.816      9.546
REMARK  6 active torsions:
REMARK  status: ('A' for Active; 'I' for Inactive)
REMARK    1  A    between atoms: C3_3  and  C4_4 
REMARK    2  A    between atoms: C4_4  and  C5_5 
REMARK    3  A    between atoms: C6_6  and  O1_7 
REMARK    4  A    between atoms: C8_15  and  N3_16 
REMARK    5  A    between atoms: N4_22  and  C12_23 
REMARK    6  A    between atoms: C14_25  and  C15_26 
ROOT
HETATM    1  C1  UNL     1      60.430  24.904  13.150  1.00  0.00     0.044 C 
HETATM    2  C2  UNL     1      61.432  24.085  13.356  1.00  0.00     0.040 A 
HETATM    3  C3  UNL     1      62.037  23.251  12.449  1.00  0.00    -0.007 A 
HETATM    4  C9  UNL     1      63.055  22.590  13.179  1.00  0.00     0.039 A 
HETATM    5  C10 UNL     1      63.002  23.056  14.449  1.00  0.00     0.014 A 
HETATM    6  C11 UNL     1      63.904  22.638  15.607  1.00  0.00     0.068 C 
HETATM    7  N4  UNL     1      62.034  23.957  14.590  1.00  0.00    -0.315 N 
ENDROOT
BRANCH   7   8
HETATM    8  C12 UNL     1      61.691  24.657  15.791  1.00  0.00     0.046 A 
HETATM    9  C13 UNL     1      60.546  24.380  16.509  1.00  0.00     0.043 A 
HETATM   10  C14 UNL     1      60.240  25.071  17.666  1.00  0.00    -0.018 A 
HETATM   11  C21 UNL     1      61.131  26.049  18.066  1.00  0.00     0.013 A 
HETATM   12  C22 UNL     1      62.283  26.347  17.366  1.00  0.00     0.010 A 
HETATM   13  C23 UNL     1      62.560  25.637  16.214  1.00  0.00    -0.035 A 
HETATM   14  C24 UNL     1      63.786  25.916  15.424  1.00  0.00     0.050 C 
BRANCH  10  15
HETATM   15  C15 UNL     1      59.027  24.771  18.420  1.00  0.00     0.037 A 
HETATM   16  C16 UNL     1      58.048  23.845  18.122  1.00  0.00     0.123 A 
HETATM   17  N5  UNL     1      57.112  23.909  19.094  1.00  0.00    -0.303 N 
HETATM   18  N6  UNL     1      57.451  24.825  19.988  1.00  0.00    -0.251 N 
ATOM     19  H5  UNL     1      56.269  23.336  19.133  1.00  0.00     0.186 HD
HETATM   20  C17 UNL     1      56.847  25.244  21.115  1.00  0.00     0.119 A 
HETATM   21  C20 UNL     1      58.629  25.373  19.595  1.00  0.00     0.139 A 
HETATM   22  C18 UNL     1      57.466  26.245  21.853  1.00  0.00     0.036 A 
HETATM   23  C19 UNL     1      58.662  26.800  21.454  1.00  0.00     0.091 A 
HETATM   24  N7  UNL     1      59.229  26.344  20.311  1.00  0.00    -0.350 N 
ATOM     25  H7  UNL     1      60.115  26.737  19.992  1.00  0.00     0.166 HD
ENDBRANCH  10  15
ENDBRANCH   7   8
BRANCH   3  26
HETATM   26  C4  UNL     1      61.825  23.019  11.173  1.00  0.00     0.033 C 
BRANCH  26  27
HETATM   27  C5  UNL     1      62.113  23.808  10.018  1.00  0.00     0.059 A 
HETATM   28  C6  UNL     1      63.442  23.978   9.596  1.00  0.00     0.158 A 
HETATM   29  N1  UNL     1      63.703  24.689   8.490  1.00  0.00    -0.288 N 
HETATM   30  C7  UNL     1      62.685  25.235   7.792  1.00  0.00     0.327 A 
ATOM     31  H1  UNL     1      64.665  24.816   8.178  1.00  0.00     0.172 HD
HETATM   32  O2  UNL     1      62.995  25.891   6.762  1.00  0.00    -0.247 OA
HETATM   33  N2  UNL     1      61.400  25.083   8.180  1.00  0.00    -0.294 N 
HETATM   34  C8  UNL     1      61.070  24.384   9.278  1.00  0.00     0.117 A 
ATOM     35  H2  UNL     1      60.661  25.511   7.623  1.00  0.00     0.172 HD
BRANCH  28  36
HETATM   36  O1  UNL     1      64.510  23.430  10.289  1.00  0.00    -0.345 OA
ATOM     37  H1  UNL     1      65.386  23.395   9.922  1.00  0.00     0.219 HD
ENDBRANCH  28  36
BRANCH  34  38
HETATM   38  N3  UNL     1      59.841  24.265   9.609  1.00  0.00    -0.385 N 
ATOM     39  H32 UNL     1      59.477  23.353   9.886  1.00  0.00     0.157 HD
ATOM     40  H31 UNL     1      59.191  25.052   9.610  1.00  0.00     0.157 HD
ENDBRANCH  34  38
ENDBRANCH  26  27
ENDBRANCH   3  26
TORSDOF 6
ENDMDL
MODEL 5
REMARK VINA RESULT: -8.810682552      2.821      3.497
REMARK  6 active torsions:
REMARK  status: ('A' for Active; 'I' for Inactive)
REMARK    1  A    between atoms: C3_3  and  C4_4 
REMARK    2  A    between atoms: C4_4  and  C5_5 
REMARK    3  A    between atoms: C6_6  and  O1_7 
REMARK    4  A    between atoms: C8_15  and  N3_16 
REMARK    5  A    between atoms: N4_22  and  C12_23 
REMARK    6  A    between atoms: C14_25  and  C15_26 
ROOT
HETATM    1  C1  UNL     1      58.870  24.058  14.764  1.00  0.00     0.044 C 
HETATM    2  C2  UNL     1      59.602  24.803  15.555  1.00  0.00     0.040 A 
HETATM    3  C3  UNL     1      59.178  25.602  16.588  1.00  0.00    -0.007 A 
HETATM    4  C9  UNL     1      60.358  26.183  17.111  1.00  0.00     0.039 A 
HETATM    5  C10 UNL     1      61.395  25.709  16.380  1.00  0.00     0.014 A 
HETATM    6  C11 UNL     1      62.870  26.052  16.570  1.00  0.00     0.068 C 
HETATM    7  N4  UNL     1      60.973  24.877  15.434  1.00  0.00    -0.315 N 
ENDROOT
BRANCH   7   8
HETATM    8  C12 UNL     1      61.790  24.191  14.478  1.00  0.00     0.046 A 
HETATM    9  C13 UNL     1      61.817  24.535  13.142  1.00  0.00     0.043 A 
HETATM   10  C14 UNL     1      62.615  23.856  12.242  1.00  0.00    -0.018 A 
HETATM   11  C21 UNL     1      63.380  22.818  12.742  1.00  0.00     0.013 A 
HETATM   12  C22 UNL     1      63.372  22.452  14.073  1.00  0.00     0.010 A 
HETATM   13  C23 UNL     1      62.563  23.153  14.947  1.00  0.00    -0.035 A 
HETATM   14  C24 UNL     1      62.517  22.801  16.389  1.00  0.00     0.050 C 
BRANCH  10  15
HETATM   15  C15 UNL     1      62.638  24.227  10.832  1.00  0.00     0.037 A 
HETATM   16  C16 UNL     1      63.730  24.570  10.061  1.00  0.00     0.123 A 
HETATM   17  N5  UNL     1      63.286  24.838   8.814  1.00  0.00    -0.303 N 
HETATM   18  N6  UNL     1      61.972  24.680   8.758  1.00  0.00    -0.251 N 
ATOM     19  H5  UNL     1      63.875  25.120   8.030  1.00  0.00     0.186 HD
HETATM   20  C17 UNL     1      61.093  24.829   7.751  1.00  0.00     0.119 A 
HETATM   21  C20 UNL     1      61.547  24.304   9.991  1.00  0.00     0.139 A 
HETATM   22  C18 UNL     1      59.752  24.586   8.014  1.00  0.00     0.036 A 
HETATM   23  C19 UNL     1      59.320  24.203   9.266  1.00  0.00     0.091 A 
HETATM   24  N7  UNL     1      60.245  24.068  10.247  1.00  0.00    -0.350 N 
ATOM     25  H7  UNL     1      59.954  23.785  11.183  1.00  0.00     0.166 HD
ENDBRANCH  10  15
ENDBRANCH   7   8
BRANCH   3  26
HETATM   26  C4  UNL     1      57.989  25.861  17.084  1.00  0.00     0.033 C 
BRANCH  26  27
HETATM   27  C5  UNL     1      57.229  27.071  17.108  1.00  0.00     0.059 A 
HETATM   28  C6  UNL     1      57.126  27.812  18.297  1.00  0.00     0.158 A 
HETATM   29  N1  UNL     1      56.442  28.965  18.304  1.00  0.00    -0.288 N 
HETATM   30  C7  UNL     1      55.859  29.403  17.168  1.00  0.00     0.327 A 
ATOM     31  H1  UNL     1      56.362  29.508  19.163  1.00  0.00     0.172 HD
HETATM   32  O2  UNL     1      55.231  30.493  17.240  1.00  0.00    -0.247 OA
HETATM   33  N2  UNL     1      55.947  28.706  16.014  1.00  0.00    -0.294 N 
HETATM   34  C8  UNL     1      56.617  27.543  15.939  1.00  0.00     0.117 A 
ATOM     35  H2  UNL     1      55.493  29.072  15.178  1.00  0.00     0.172 HD
BRANCH  28  36
HETATM   36  O1  UNL     1      57.711  27.391  19.480  1.00  0.00    -0.345 OA
ATOM     37  H1  UNL     1      58.384  27.898  19.919  1.00  0.00     0.219 HD
ENDBRANCH  28  36
BRANCH  34  38
HETATM   38  N3  UNL     1      56.675  26.917  14.826  1.00  0.00    -0.385 N 
ATOM     39  H32 UNL     1      57.156  26.018  14.776  1.00  0.00     0.157 HD
ATOM     40  H31 UNL     1      56.256  27.276  13.968  1.00  0.00     0.157 HD
ENDBRANCH  34  38
ENDBRANCH  26  27
ENDBRANCH   3  26
TORSDOF 6
ENDMDL
