MODEL 1
REMARK VINA RESULT: -7.161349520      0.000      0.000
REMARK  20 active torsions:
REMARK  status: ('A' for Active; 'I' for Inactive)
REMARK    1  A    between atoms: C2_2  and  C5_5 
REMARK       I    between atoms: C5_5  and  N1_7 
REMARK    2  A    between atoms: N1_7  and  C6_9 
REMARK    3  A    between atoms: C9_14  and  N3_15 
REMARK    4  A    between atoms: C10_17  and  C11_18 
REMARK    5  A    between atoms: C11_18  and  N4_19 
REMARK       I    between atoms: N4_19  and  C12_20 
REMARK    6  A    between atoms: C12_20  and  C13_22 
REMARK    7  A    between atoms: C13_22  and  C14_23 
REMARK    8  A    between atoms: C14_23  and  N5_24 
REMARK    9  A    between atoms: N6_29  and  C17_30 
REMARK   10  A    between atoms: C17_30  and  C18_31 
REMARK   11  A    between atoms: C18_31  and  C19_32 
REMARK   12  A    between atoms: C19_32  and  C20_33 
REMARK   13  A    between atoms: C20_33  and  C21_34 
REMARK   14  A    between atoms: C21_34  and  C22_35 
REMARK   15  A    between atoms: C22_35  and  C23_36 
REMARK   16  A    between atoms: C23_36  and  C24_37 
REMARK   17  A    between atoms: C24_37  and  C25_38 
REMARK   18  A    between atoms: C25_38  and  C26_39 
REMARK   19  A    between atoms: C26_39  and  N7_40 
REMARK   20  A    between atoms: C30_44  and  N8_45 
REMARK       I    between atoms: N8_45  and  C31_47 
ROOT
HETATM    1  N5  UNL     1      31.925  45.275  -2.301  1.00  0.00    -0.284 N 
HETATM    2  C15 UNL     1      32.675  44.039  -2.131  1.00  0.00     0.318 C 
HETATM    3  O3  UNL     1      32.560  42.980  -2.741  1.00  0.00    -0.262 OA
HETATM    4  C16 UNL     1      33.632  44.370  -1.031  1.00  0.00     0.315 C 
HETATM    5  O4  UNL     1      34.476  43.620  -0.540  1.00  0.00    -0.262 OA
HETATM    6  N6  UNL     1      33.385  45.754  -0.645  1.00  0.00    -0.305 N 
HETATM    7  C30 UNL     1      31.959  45.899  -0.956  1.00  0.00     0.305 C 
ENDROOT
BRANCH   1   8
HETATM    8  C14 UNL     1      31.362  45.777  -3.485  1.00  0.00     0.081 C 
BRANCH   8   9
HETATM    9  C13 UNL     1      30.521  46.947  -3.635  1.00  0.00     0.164 C 
BRANCH   9  10
HETATM   10  C12 UNL     1      29.076  46.712  -3.291  1.00  0.00     0.295 C 
HETATM   11  N4  UNL     1      28.362  45.867  -4.112  1.00  0.00    -0.382 NA
HETATM   12  O2  UNL     1      28.715  47.348  -2.257  1.00  0.00    -0.257 OA
BRANCH  11  13
HETATM   13  C11 UNL     1      27.667  45.044  -4.910  1.00  0.00     0.204 C 
BRANCH  13  14
HETATM   14  C10 UNL     1      28.220  43.795  -5.521  1.00  0.00     0.138 C 
HETATM   15  N3  UNL     1      28.903  42.942  -4.711  1.00  0.00    -0.199 N 
ATOM     16  H3  UNL     1      29.417  42.327  -5.344  1.00  0.00     0.183 HD
BRANCH  15  17
HETATM   17  C9  UNL     1      29.196  42.557  -3.577  1.00  0.00     0.683 A 
HETATM   18  N2  UNL     1      28.895  43.123  -2.400  1.00  0.00    -0.202 N 
HETATM   19  C8  UNL     1      29.231  42.522  -1.250  1.00  0.00     0.110 A 
ATOM     20  H2  UNL     1      28.405  44.017  -2.380  1.00  0.00     0.183 HD
HETATM   21  C7  UNL     1      29.884  41.324  -1.216  1.00  0.00     0.067 A 
HETATM   22  C6  UNL     1      30.218  40.697  -2.443  1.00  0.00     0.124 A 
HETATM   23  N11 UNL     1      29.859  41.347  -3.524  1.00  0.00    -0.176 N 
ATOM     24  H11 UNL     1      30.093  40.913  -4.417  1.00  0.00     0.186 HD
BRANCH  22  25
HETATM   25  N1  UNL     1      30.808  39.570  -2.341  1.00  0.00    -0.312 N 
HETATM   26  C5  UNL     1      30.234  38.333  -2.653  1.00  0.00     0.230 C 
HETATM   27  O1  UNL     1      30.558  37.822  -3.803  1.00  0.00    -0.272 OA
ATOM     28  H1  UNL     1      31.771  39.571  -2.007  1.00  0.00     0.170 HD
BRANCH  26  29
HETATM   29  C2  UNL     1      29.310  37.532  -1.852  1.00  0.00     0.030 C 
HETATM   30  C1  UNL     1      29.562  36.033  -2.108  1.00  0.00     0.025 C 
HETATM   31  C3  UNL     1      27.851  37.737  -2.144  1.00  0.00     0.025 C 
HETATM   32  C4  UNL     1      29.610  37.736  -0.379  1.00  0.00     0.025 C 
ENDBRANCH  26  29
ENDBRANCH  22  25
ENDBRANCH  15  17
ENDBRANCH  13  14
ENDBRANCH  11  13
ENDBRANCH   9  10
ENDBRANCH   8   9
ENDBRANCH   1   8
BRANCH   7  33
HETATM   33  N8  UNL     1      31.057  45.421  -0.007  1.00  0.00    -0.326 N 
HETATM   34  C31 UNL     1      30.129  46.002   0.848  1.00  0.00     0.184 C 
HETATM   35  N9  UNL     1      30.310  46.952   1.675  1.00  0.00    -0.374 N 
HETATM   36  N10 UNL     1      28.762  45.484   0.850  1.00  0.00    -0.064 NA
ATOM     37  H92 UNL     1      31.264  47.313   1.674  1.00  0.00     0.158 HD
ATOM     38  H91 UNL     1      29.628  47.378   2.303  1.00  0.00     0.158 HD
ATOM     39  H8  UNL     1      31.086  44.405   0.081  1.00  0.00     0.166 HD
ENDBRANCH   7  33
BRANCH   6  40
HETATM   40  C17 UNL     1      34.355  46.704  -0.237  1.00  0.00     0.130 C 
BRANCH  40  41
HETATM   41  C18 UNL     1      34.031  47.566   0.913  1.00  0.00     0.020 C 
BRANCH  41  42
HETATM   42  C19 UNL     1      35.092  47.862   1.895  1.00  0.00     0.002 C 
BRANCH  42  43
HETATM   43  C20 UNL     1      35.979  48.997   1.398  1.00  0.00     0.000 C 
BRANCH  43  44
HETATM   44  C21 UNL     1      37.341  48.523   1.085  1.00  0.00     0.000 C 
BRANCH  44  45
HETATM   45  C22 UNL     1      37.730  48.803  -0.365  1.00  0.00     0.000 C 
BRANCH  45  46
HETATM   46  C23 UNL     1      36.859  49.850  -0.978  1.00  0.00     0.000 C 
BRANCH  46  47
HETATM   47  C24 UNL     1      36.762  49.708  -2.460  1.00  0.00     0.002 C 
BRANCH  47  48
HETATM   48  C25 UNL     1      35.828  48.659  -2.953  1.00  0.00     0.028 C 
BRANCH  48  49
HETATM   49  C26 UNL     1      36.363  48.015  -4.189  1.00  0.00     0.236 C 
BRANCH  49  50
HETATM   50  N7  UNL     1      36.321  46.570  -4.128  1.00  0.00    -0.079 N 
HETATM   51  C27 UNL     1      34.987  46.039  -4.288  1.00  0.00     0.271 C 
HETATM   52  C28 UNL     1      37.111  46.045  -5.218  1.00  0.00     0.271 C 
HETATM   53  C29 UNL     1      36.898  46.055  -2.902  1.00  0.00     0.271 C 
ENDBRANCH  49  50
ENDBRANCH  48  49
ENDBRANCH  47  48
ENDBRANCH  46  47
ENDBRANCH  45  46
ENDBRANCH  44  45
ENDBRANCH  43  44
ENDBRANCH  42  43
ENDBRANCH  41  42
ENDBRANCH  40  41
ENDBRANCH   6  40
TORSDOF 20
ENDMDL
MODEL 2
REMARK VINA RESULT: -7.043520641      1.400      2.227
REMARK  20 active torsions:
REMARK  status: ('A' for Active; 'I' for Inactive)
REMARK    1  A    between atoms: C2_2  and  C5_5 
REMARK       I    between atoms: C5_5  and  N1_7 
REMARK    2  A    between atoms: N1_7  and  C6_9 
REMARK    3  A    between atoms: C9_14  and  N3_15 
REMARK    4  A    between atoms: C10_17  and  C11_18 
REMARK    5  A    between atoms: C11_18  and  N4_19 
REMARK       I    between atoms: N4_19  and  C12_20 
REMARK    6  A    between atoms: C12_20  and  C13_22 
REMARK    7  A    between atoms: C13_22  and  C14_23 
REMARK    8  A    between atoms: C14_23  and  N5_24 
REMARK    9  A    between atoms: N6_29  and  C17_30 
REMARK   10  A    between atoms: C17_30  and  C18_31 
REMARK   11  A    between atoms: C18_31  and  C19_32 
REMARK   12  A    between atoms: C19_32  and  C20_33 
REMARK   13  A    between atoms: C20_33  and  C21_34 
REMARK   14  A    between atoms: C21_34  and  C22_35 
REMARK   15  A    between atoms: C22_35  and  C23_36 
REMARK   16  A    between atoms: C23_36  and  C24_37 
REMARK   17  A    between atoms: C24_37  and  C25_38 
REMARK   18  A    between atoms: C25_38  and  C26_39 
REMARK   19  A    between atoms: C26_39  and  N7_40 
REMARK   20  A    between atoms: C30_44  and  N8_45 
REMARK       I    between atoms: N8_45  and  C31_47 
ROOT
HETATM    1  N5  UNL     1      32.104  45.576  -2.186  1.00  0.00    -0.284 N 
HETATM    2  C15 UNL     1      32.789  44.295  -2.088  1.00  0.00     0.318 C 
HETATM    3  O3  UNL     1      32.746  43.340  -2.858  1.00  0.00    -0.262 OA
HETATM    4  C16 UNL     1      33.567  44.422  -0.818  1.00  0.00     0.315 C 
HETATM    5  O4  UNL     1      34.306  43.572  -0.320  1.00  0.00    -0.262 OA
HETATM    6  N6  UNL     1      33.295  45.747  -0.274  1.00  0.00    -0.305 N 
HETATM    7  C30 UNL     1      31.940  46.000  -0.774  1.00  0.00     0.305 C 
ENDROOT
BRANCH   1   8
HETATM    8  C14 UNL     1      31.746  46.266  -3.355  1.00  0.00     0.081 C 
BRANCH   8   9
HETATM    9  C13 UNL     1      30.551  47.053  -3.585  1.00  0.00     0.164 C 
BRANCH   9  10
HETATM   10  C12 UNL     1      29.272  46.272  -3.469  1.00  0.00     0.295 C 
HETATM   11  N4  UNL     1      28.896  45.513  -4.555  1.00  0.00    -0.382 NA
HETATM   12  O2  UNL     1      28.707  46.432  -2.346  1.00  0.00    -0.257 OA
BRANCH  11  13
HETATM   13  C11 UNL     1      28.530  44.774  -5.612  1.00  0.00     0.204 C 
BRANCH  13  14
HETATM   14  C10 UNL     1      27.788  43.478  -5.518  1.00  0.00     0.138 C 
HETATM   15  N3  UNL     1      28.168  42.598  -4.552  1.00  0.00    -0.199 N 
ATOM     16  H3  UNL     1      27.752  41.707  -4.823  1.00  0.00     0.183 HD
BRANCH  15  17
HETATM   17  C9  UNL     1      28.775  42.366  -3.504  1.00  0.00     0.683 A 
HETATM   18  N2  UNL     1      28.775  43.074  -2.366  1.00  0.00    -0.202 N 
HETATM   19  C8  UNL     1      29.438  42.630  -1.288  1.00  0.00     0.110 A 
ATOM     20  H2  UNL     1      28.268  43.958  -2.319  1.00  0.00     0.183 HD
HETATM   21  C7  UNL     1      30.133  41.455  -1.291  1.00  0.00     0.067 A 
HETATM   22  C6  UNL     1      30.152  40.680  -2.479  1.00  0.00     0.124 A 
HETATM   23  N11 UNL     1      29.484  41.182  -3.489  1.00  0.00    -0.176 N 
ATOM     24  H11 UNL     1      29.489  40.640  -4.354  1.00  0.00     0.186 HD
BRANCH  22  25
HETATM   25  N1  UNL     1      30.801  39.583  -2.409  1.00  0.00    -0.312 N 
HETATM   26  C5  UNL     1      30.261  38.316  -2.649  1.00  0.00     0.230 C 
HETATM   27  O1  UNL     1      30.510  37.796  -3.813  1.00  0.00    -0.272 OA
ATOM     28  H1  UNL     1      31.788  39.635  -2.158  1.00  0.00     0.170 HD
BRANCH  26  29
HETATM   29  C2  UNL     1      29.447  37.491  -1.758  1.00  0.00     0.030 C 
HETATM   30  C1  UNL     1      27.952  37.720  -2.055  1.00  0.00     0.025 C 
HETATM   31  C3  UNL     1      29.600  37.773  -0.291  1.00  0.00     0.025 C 
HETATM   32  C4  UNL     1      29.689  36.025  -2.064  1.00  0.00     0.025 C 
ENDBRANCH  26  29
ENDBRANCH  22  25
ENDBRANCH  15  17
ENDBRANCH  13  14
ENDBRANCH  11  13
ENDBRANCH   9  10
ENDBRANCH   8   9
ENDBRANCH   1   8
BRANCH   7  33
HETATM   33  N8  UNL     1      30.888  45.434  -0.055  1.00  0.00    -0.326 N 
HETATM   34  C31 UNL     1      30.003  45.889   0.914  1.00  0.00     0.184 C 
HETATM   35  N9  UNL     1      30.272  46.482   2.008  1.00  0.00    -0.374 N 
HETATM   36  N10 UNL     1      28.572  45.669   0.711  1.00  0.00    -0.064 NA
ATOM     37  H92 UNL     1      31.271  46.634   2.150  1.00  0.00     0.158 HD
ATOM     38  H91 UNL     1      29.623  46.815   2.719  1.00  0.00     0.158 HD
ATOM     39  H8  UNL     1      30.733  44.456  -0.298  1.00  0.00     0.166 HD
ENDBRANCH   7  33
BRANCH   6  40
HETATM   40  C17 UNL     1      34.210  46.584   0.412  1.00  0.00     0.130 C 
BRANCH  40  41
HETATM   41  C18 UNL     1      34.603  47.849  -0.235  1.00  0.00     0.020 C 
BRANCH  41  42
HETATM   42  C19 UNL     1      35.375  47.790  -1.490  1.00  0.00     0.002 C 
BRANCH  42  43
HETATM   43  C20 UNL     1      36.718  47.108  -1.261  1.00  0.00     0.000 C 
BRANCH  43  44
HETATM   44  C21 UNL     1      36.869  45.908  -2.107  1.00  0.00     0.000 C 
BRANCH  44  45
HETATM   45  C22 UNL     1      35.997  45.972  -3.359  1.00  0.00     0.000 C 
BRANCH  45  46
HETATM   46  C23 UNL     1      36.812  46.216  -4.587  1.00  0.00     0.000 C 
BRANCH  46  47
HETATM   47  C24 UNL     1      36.825  47.655  -4.980  1.00  0.00     0.002 C 
BRANCH  47  48
HETATM   48  C25 UNL     1      36.616  47.935  -6.427  1.00  0.00     0.028 C 
BRANCH  48  49
HETATM   49  C26 UNL     1      35.835  46.836  -7.069  1.00  0.00     0.236 C 
BRANCH  49  50
HETATM   50  N7  UNL     1      34.531  47.269  -7.523  1.00  0.00    -0.079 N 
HETATM   51  C27 UNL     1      34.487  48.678  -7.840  1.00  0.00     0.271 C 
HETATM   52  C28 UNL     1      34.213  46.559  -8.739  1.00  0.00     0.271 C 
HETATM   53  C29 UNL     1      33.486  46.961  -6.567  1.00  0.00     0.271 C 
ENDBRANCH  49  50
ENDBRANCH  48  49
ENDBRANCH  47  48
ENDBRANCH  46  47
ENDBRANCH  45  46
ENDBRANCH  44  45
ENDBRANCH  43  44
ENDBRANCH  42  43
ENDBRANCH  41  42
ENDBRANCH  40  41
ENDBRANCH   6  40
TORSDOF 20
ENDMDL
MODEL 3
REMARK VINA RESULT: -6.587215670      2.840      5.505
REMARK  20 active torsions:
REMARK  status: ('A' for Active; 'I' for Inactive)
REMARK    1  A    between atoms: C2_2  and  C5_5 
REMARK       I    between atoms: C5_5  and  N1_7 
REMARK    2  A    between atoms: N1_7  and  C6_9 
REMARK    3  A    between atoms: C9_14  and  N3_15 
REMARK    4  A    between atoms: C10_17  and  C11_18 
REMARK    5  A    between atoms: C11_18  and  N4_19 
REMARK       I    between atoms: N4_19  and  C12_20 
REMARK    6  A    between atoms: C12_20  and  C13_22 
REMARK    7  A    between atoms: C13_22  and  C14_23 
REMARK    8  A    between atoms: C14_23  and  N5_24 
REMARK    9  A    between atoms: N6_29  and  C17_30 
REMARK   10  A    between atoms: C17_30  and  C18_31 
REMARK   11  A    between atoms: C18_31  and  C19_32 
REMARK   12  A    between atoms: C19_32  and  C20_33 
REMARK   13  A    between atoms: C20_33  and  C21_34 
REMARK   14  A    between atoms: C21_34  and  C22_35 
REMARK   15  A    between atoms: C22_35  and  C23_36 
REMARK   16  A    between atoms: C23_36  and  C24_37 
REMARK   17  A    between atoms: C24_37  and  C25_38 
REMARK   18  A    between atoms: C25_38  and  C26_39 
REMARK   19  A    between atoms: C26_39  and  N7_40 
REMARK   20  A    between atoms: C30_44  and  N8_45 
REMARK       I    between atoms: N8_45  and  C31_47 
ROOT
HETATM    1  N5  UNL     1      27.826  43.115  -3.344  1.00  0.00    -0.284 N 
HETATM    2  C15 UNL     1      28.210  44.351  -4.010  1.00  0.00     0.318 C 
HETATM    3  O3  UNL     1      28.083  44.659  -5.191  1.00  0.00    -0.262 OA
HETATM    4  C16 UNL     1      28.796  45.166  -2.902  1.00  0.00     0.315 C 
HETATM    5  O4  UNL     1      29.264  46.301  -2.991  1.00  0.00    -0.262 OA
HETATM    6  N6  UNL     1      28.710  44.367  -1.685  1.00  0.00    -0.305 N 
HETATM    7  C30 UNL     1      28.786  43.003  -2.219  1.00  0.00     0.305 C 
ENDROOT
BRANCH   1   8
HETATM    8  C14 UNL     1      26.753  42.269  -3.666  1.00  0.00     0.081 C 
BRANCH   8   9
HETATM    9  C13 UNL     1      25.462  42.648  -4.205  1.00  0.00     0.164 C 
BRANCH   9  10
HETATM   10  C12 UNL     1      24.305  42.348  -3.293  1.00  0.00     0.295 C 
HETATM   11  N4  UNL     1      23.631  41.164  -3.498  1.00  0.00    -0.382 NA
HETATM   12  O2  UNL     1      24.114  43.262  -2.436  1.00  0.00    -0.257 OA
BRANCH  11  13
HETATM   13  C11 UNL     1      22.975  40.012  -3.696  1.00  0.00     0.204 C 
BRANCH  13  14
HETATM   14  C10 UNL     1      23.640  38.701  -3.974  1.00  0.00     0.138 C 
HETATM   15  N3  UNL     1      24.916  38.531  -3.536  1.00  0.00    -0.199 N 
ATOM     16  H3  UNL     1      25.269  37.722  -4.047  1.00  0.00     0.183 HD
BRANCH  15  17
HETATM   17  C9  UNL     1      25.849  38.889  -2.814  1.00  0.00     0.683 A 
HETATM   18  N2  UNL     1      25.797  39.416  -1.582  1.00  0.00    -0.202 N 
HETATM   19  C8  UNL     1      26.924  39.678  -0.906  1.00  0.00     0.110 A 
ATOM     20  H2  UNL     1      24.892  39.618  -1.157  1.00  0.00     0.183 HD
HETATM   21  C7  UNL     1      28.162  39.426  -1.423  1.00  0.00     0.067 A 
HETATM   22  C6  UNL     1      28.254  38.868  -2.724  1.00  0.00     0.124 A 
HETATM   23  N11 UNL     1      27.109  38.643  -3.322  1.00  0.00    -0.176 N 
ATOM     24  H11 UNL     1      27.155  38.245  -4.260  1.00  0.00     0.186 HD
BRANCH  22  25
HETATM   25  N1  UNL     1      29.438  38.637  -3.139  1.00  0.00    -0.312 N 
HETATM   26  C5  UNL     1      29.929  37.379  -3.504  1.00  0.00     0.230 C 
HETATM   27  O1  UNL     1      29.981  37.130  -4.778  1.00  0.00    -0.272 OA
ATOM     28  H1  UNL     1      30.076  39.430  -3.211  1.00  0.00     0.170 HD
BRANCH  26  29
HETATM   29  C2  UNL     1      30.394  36.298  -2.636  1.00  0.00     0.030 C 
HETATM   30  C1  UNL     1      29.214  35.747  -1.812  1.00  0.00     0.025 C 
HETATM   31  C3  UNL     1      31.432  36.681  -1.621  1.00  0.00     0.025 C 
HETATM   32  C4  UNL     1      30.860  35.132  -3.487  1.00  0.00     0.025 C 
ENDBRANCH  26  29
ENDBRANCH  22  25
ENDBRANCH  15  17
ENDBRANCH  13  14
ENDBRANCH  11  13
ENDBRANCH   9  10
ENDBRANCH   8   9
ENDBRANCH   1   8
BRANCH   7  33
HETATM   33  N8  UNL     1      30.058  42.512  -2.511  1.00  0.00    -0.326 N 
HETATM   34  C31 UNL     1      30.978  41.712  -1.847  1.00  0.00     0.184 C 
HETATM   35  N9  UNL     1      31.435  41.853  -0.667  1.00  0.00    -0.374 N 
HETATM   36  N10 UNL     1      31.538  40.560  -2.551  1.00  0.00    -0.064 NA
ATOM     37  H92 UNL     1      31.045  42.657  -0.176  1.00  0.00     0.158 HD
ATOM     38  H91 UNL     1      32.111  41.265  -0.180  1.00  0.00     0.158 HD
ATOM     39  H8  UNL     1      30.390  42.812  -3.427  1.00  0.00     0.166 HD
ENDBRANCH   7  33
BRANCH   6  40
HETATM   40  C17 UNL     1      28.454  44.846  -0.376  1.00  0.00     0.130 C 
BRANCH  40  41
HETATM   41  C18 UNL     1      27.158  45.502  -0.125  1.00  0.00     0.020 C 
BRANCH  41  42
HETATM   42  C19 UNL     1      27.143  46.948   0.167  1.00  0.00     0.002 C 
BRANCH  42  43
HETATM   43  C20 UNL     1      27.436  47.200   1.641  1.00  0.00     0.000 C 
BRANCH  43  44
HETATM   44  C21 UNL     1      28.576  48.119   1.818  1.00  0.00     0.000 C 
BRANCH  44  45
HETATM   45  C22 UNL     1      29.700  47.492   2.640  1.00  0.00     0.000 C 
BRANCH  45  46
HETATM   46  C23 UNL     1      30.650  46.724   1.781  1.00  0.00     0.000 C 
BRANCH  46  47
HETATM   47  C24 UNL     1      31.240  47.565   0.698  1.00  0.00     0.002 C 
BRANCH  47  48
HETATM   48  C25 UNL     1      31.732  46.831  -0.500  1.00  0.00     0.028 C 
BRANCH  48  49
HETATM   49  C26 UNL     1      33.150  46.403  -0.310  1.00  0.00     0.236 C 
BRANCH  49  50
HETATM   50  N7  UNL     1      33.600  45.490  -1.338  1.00  0.00    -0.079 N 
HETATM   51  C27 UNL     1      34.697  46.017  -2.116  1.00  0.00     0.271 C 
HETATM   52  C28 UNL     1      34.082  44.287  -0.700  1.00  0.00     0.271 C 
HETATM   53  C29 UNL     1      32.527  45.095  -2.229  1.00  0.00     0.271 C 
ENDBRANCH  49  50
ENDBRANCH  48  49
ENDBRANCH  47  48
ENDBRANCH  46  47
ENDBRANCH  45  46
ENDBRANCH  44  45
ENDBRANCH  43  44
ENDBRANCH  42  43
ENDBRANCH  41  42
ENDBRANCH  40  41
ENDBRANCH   6  40
TORSDOF 20
ENDMDL
MODEL 4
REMARK VINA RESULT: -6.584837985      1.432      3.226
REMARK  20 active torsions:
REMARK  status: ('A' for Active; 'I' for Inactive)
REMARK    1  A    between atoms: C2_2  and  C5_5 
REMARK       I    between atoms: C5_5  and  N1_7 
REMARK    2  A    between atoms: N1_7  and  C6_9 
REMARK    3  A    between atoms: C9_14  and  N3_15 
REMARK    4  A    between atoms: C10_17  and  C11_18 
REMARK    5  A    between atoms: C11_18  and  N4_19 
REMARK       I    between atoms: N4_19  and  C12_20 
REMARK    6  A    between atoms: C12_20  and  C13_22 
REMARK    7  A    between atoms: C13_22  and  C14_23 
REMARK    8  A    between atoms: C14_23  and  N5_24 
REMARK    9  A    between atoms: N6_29  and  C17_30 
REMARK   10  A    between atoms: C17_30  and  C18_31 
REMARK   11  A    between atoms: C18_31  and  C19_32 
REMARK   12  A    between atoms: C19_32  and  C20_33 
REMARK   13  A    between atoms: C20_33  and  C21_34 
REMARK   14  A    between atoms: C21_34  and  C22_35 
REMARK   15  A    between atoms: C22_35  and  C23_36 
REMARK   16  A    between atoms: C23_36  and  C24_37 
REMARK   17  A    between atoms: C24_37  and  C25_38 
REMARK   18  A    between atoms: C25_38  and  C26_39 
REMARK   19  A    between atoms: C26_39  and  N7_40 
REMARK   20  A    between atoms: C30_44  and  N8_45 
REMARK       I    between atoms: N8_45  and  C31_47 
ROOT
HETATM    1  N5  UNL     1      32.145  45.560  -2.185  1.00  0.00    -0.284 N 
HETATM    2  C15 UNL     1      32.796  44.260  -2.091  1.00  0.00     0.318 C 
HETATM    3  O3  UNL     1      32.697  43.295  -2.843  1.00  0.00    -0.262 OA
HETATM    4  C16 UNL     1      33.625  44.385  -0.854  1.00  0.00     0.315 C 
HETATM    5  O4  UNL     1      34.357  43.522  -0.369  1.00  0.00    -0.262 OA
HETATM    6  N6  UNL     1      33.412  45.726  -0.322  1.00  0.00    -0.305 N 
HETATM    7  C30 UNL     1      32.046  46.010  -0.776  1.00  0.00     0.305 C 
ENDROOT
BRANCH   1   8
HETATM    8  C14 UNL     1      31.763  46.241  -3.352  1.00  0.00     0.081 C 
BRANCH   8   9
HETATM    9  C13 UNL     1      30.584  47.059  -3.550  1.00  0.00     0.164 C 
BRANCH   9  10
HETATM   10  C12 UNL     1      29.289  46.300  -3.455  1.00  0.00     0.295 C 
HETATM   11  N4  UNL     1      28.905  45.568  -4.557  1.00  0.00    -0.382 NA
HETATM   12  O2  UNL     1      28.721  46.450  -2.332  1.00  0.00    -0.257 OA
BRANCH  11  13
HETATM   13  C11 UNL     1      28.531  44.855  -5.629  1.00  0.00     0.204 C 
BRANCH  13  14
HETATM   14  C10 UNL     1      27.818  43.541  -5.560  1.00  0.00     0.138 C 
HETATM   15  N3  UNL     1      28.198  42.662  -4.595  1.00  0.00    -0.199 N 
ATOM     16  H3  UNL     1      27.808  41.764  -4.882  1.00  0.00     0.183 HD
BRANCH  15  17
HETATM   17  C9  UNL     1      28.790  42.434  -3.537  1.00  0.00     0.683 A 
HETATM   18  N2  UNL     1      28.777  43.149  -2.403  1.00  0.00    -0.202 N 
HETATM   19  C8  UNL     1      29.423  42.709  -1.314  1.00  0.00     0.110 A 
ATOM     20  H2  UNL     1      28.272  44.034  -2.369  1.00  0.00     0.183 HD
HETATM   21  C7  UNL     1      30.114  41.532  -1.301  1.00  0.00     0.067 A 
HETATM   22  C6  UNL     1      30.148  40.750  -2.484  1.00  0.00     0.124 A 
HETATM   23  N11 UNL     1      29.495  41.247  -3.506  1.00  0.00    -0.176 N 
ATOM     24  H11 UNL     1      29.510  40.701  -4.367  1.00  0.00     0.186 HD
BRANCH  22  25
HETATM   25  N1  UNL     1      30.792  39.651  -2.398  1.00  0.00    -0.312 N 
HETATM   26  C5  UNL     1      30.247  38.383  -2.622  1.00  0.00     0.230 C 
HETATM   27  O1  UNL     1      30.496  37.847  -3.779  1.00  0.00    -0.272 OA
ATOM     28  H1  UNL     1      31.779  39.702  -2.146  1.00  0.00     0.170 HD
BRANCH  26  29
HETATM   29  C2  UNL     1      29.428  37.573  -1.722  1.00  0.00     0.030 C 
HETATM   30  C1  UNL     1      27.935  37.807  -2.022  1.00  0.00     0.025 C 
HETATM   31  C3  UNL     1      29.583  37.872  -0.258  1.00  0.00     0.025 C 
HETATM   32  C4  UNL     1      29.662  36.102  -2.011  1.00  0.00     0.025 C 
ENDBRANCH  26  29
ENDBRANCH  22  25
ENDBRANCH  15  17
ENDBRANCH  13  14
ENDBRANCH  11  13
ENDBRANCH   9  10
ENDBRANCH   8   9
ENDBRANCH   1   8
BRANCH   7  33
HETATM   33  N8  UNL     1      31.007  45.487  -0.008  1.00  0.00    -0.326 N 
HETATM   34  C31 UNL     1      30.141  45.995   0.951  1.00  0.00     0.184 C 
HETATM   35  N9  UNL     1      30.431  46.645   2.006  1.00  0.00    -0.374 N 
HETATM   36  N10 UNL     1      28.706  45.770   0.786  1.00  0.00    -0.064 NA
ATOM     37  H92 UNL     1      31.433  46.802   2.122  1.00  0.00     0.158 HD
ATOM     38  H91 UNL     1      29.795  47.018   2.711  1.00  0.00     0.158 HD
ATOM     39  H8  UNL     1      30.845  44.498  -0.195  1.00  0.00     0.166 HD
ENDBRANCH   7  33
BRANCH   6  40
HETATM   40  C17 UNL     1      34.376  46.546   0.315  1.00  0.00     0.130 C 
BRANCH  40  41
HETATM   41  C18 UNL     1      34.781  47.787  -0.368  1.00  0.00     0.020 C 
BRANCH  41  42
HETATM   42  C19 UNL     1      35.742  47.698  -1.483  1.00  0.00     0.002 C 
BRANCH  42  43
HETATM   43  C20 UNL     1      37.144  47.410  -0.961  1.00  0.00     0.000 C 
BRANCH  43  44
HETATM   44  C21 UNL     1      37.460  48.227   0.225  1.00  0.00     0.000 C 
BRANCH  44  45
HETATM   45  C22 UNL     1      38.247  49.485  -0.133  1.00  0.00     0.000 C 
BRANCH  45  46
HETATM   46  C23 UNL     1      37.839  50.650   0.708  1.00  0.00     0.000 C 
BRANCH  46  47
HETATM   47  C24 UNL     1      37.545  50.255   2.116  1.00  0.00     0.002 C 
BRANCH  47  48
HETATM   48  C25 UNL     1      36.330  50.866   2.722  1.00  0.00     0.028 C 
BRANCH  48  49
HETATM   49  C26 UNL     1      35.095  50.354   2.056  1.00  0.00     0.236 C 
BRANCH  49  50
HETATM   50  N7  UNL     1      33.981  50.228   2.969  1.00  0.00    -0.079 N 
HETATM   51  C27 UNL     1      34.149  51.009   4.174  1.00  0.00     0.271 C 
HETATM   52  C28 UNL     1      32.795  50.727   2.313  1.00  0.00     0.271 C 
HETATM   53  C29 UNL     1      33.716  48.848   3.327  1.00  0.00     0.271 C 
ENDBRANCH  49  50
ENDBRANCH  48  49
ENDBRANCH  47  48
ENDBRANCH  46  47
ENDBRANCH  45  46
ENDBRANCH  44  45
ENDBRANCH  43  44
ENDBRANCH  42  43
ENDBRANCH  41  42
ENDBRANCH  40  41
ENDBRANCH   6  40
TORSDOF 20
ENDMDL
MODEL 5
REMARK VINA RESULT: -6.539966854      2.551      4.268
REMARK  20 active torsions:
REMARK  status: ('A' for Active; 'I' for Inactive)
REMARK    1  A    between atoms: C2_2  and  C5_5 
REMARK       I    between atoms: C5_5  and  N1_7 
REMARK    2  A    between atoms: N1_7  and  C6_9 
REMARK    3  A    between atoms: C9_14  and  N3_15 
REMARK    4  A    between atoms: C10_17  and  C11_18 
REMARK    5  A    between atoms: C11_18  and  N4_19 
REMARK       I    between atoms: N4_19  and  C12_20 
REMARK    6  A    between atoms: C12_20  and  C13_22 
REMARK    7  A    between atoms: C13_22  and  C14_23 
REMARK    8  A    between atoms: C14_23  and  N5_24 
REMARK    9  A    between atoms: N6_29  and  C17_30 
REMARK   10  A    between atoms: C17_30  and  C18_31 
REMARK   11  A    between atoms: C18_31  and  C19_32 
REMARK   12  A    between atoms: C19_32  and  C20_33 
REMARK   13  A    between atoms: C20_33  and  C21_34 
REMARK   14  A    between atoms: C21_34  and  C22_35 
REMARK   15  A    between atoms: C22_35  and  C23_36 
REMARK   16  A    between atoms: C23_36  and  C24_37 
REMARK   17  A    between atoms: C24_37  and  C25_38 
REMARK   18  A    between atoms: C25_38  and  C26_39 
REMARK   19  A    between atoms: C26_39  and  N7_40 
REMARK   20  A    between atoms: C30_44  and  N8_45 
REMARK       I    between atoms: N8_45  and  C31_47 
ROOT
HETATM    1  N5  UNL     1      28.498  43.929  -1.756  1.00  0.00    -0.284 N 
HETATM    2  C15 UNL     1      28.638  45.065  -2.656  1.00  0.00     0.318 C 
HETATM    3  O3  UNL     1      28.410  45.124  -3.861  1.00  0.00    -0.262 OA
HETATM    4  C16 UNL     1      29.123  46.154  -1.755  1.00  0.00     0.315 C 
HETATM    5  O4  UNL     1      29.387  47.313  -2.077  1.00  0.00    -0.262 OA
HETATM    6  N6  UNL     1      29.226  45.593  -0.413  1.00  0.00    -0.305 N 
HETATM    7  C30 UNL     1      29.510  44.183  -0.702  1.00  0.00     0.305 C 
ENDROOT
BRANCH   1   8
HETATM    8  C14 UNL     1      27.572  42.878  -1.846  1.00  0.00     0.081 C 
BRANCH   8   9
HETATM    9  C13 UNL     1      26.435  42.628  -0.982  1.00  0.00     0.164 C 
BRANCH   9  10
HETATM   10  C12 UNL     1      25.107  42.692  -1.683  1.00  0.00     0.295 C 
HETATM   11  N4  UNL     1      25.121  42.906  -3.044  1.00  0.00    -0.382 NA
HETATM   12  O2  UNL     1      24.132  42.531  -0.889  1.00  0.00    -0.257 OA
BRANCH  11  13
HETATM   13  C11 UNL     1      25.135  43.114  -4.368  1.00  0.00     0.204 C 
BRANCH  13  14
HETATM   14  C10 UNL     1      25.330  42.037  -5.389  1.00  0.00     0.138 C 
HETATM   15  N3  UNL     1      25.599  40.781  -4.942  1.00  0.00    -0.199 N 
ATOM     16  H3  UNL     1      25.962  40.281  -5.753  1.00  0.00     0.183 HD
BRANCH  15  17
HETATM   17  C9  UNL     1      25.612  39.959  -4.023  1.00  0.00     0.683 A 
HETATM   18  N2  UNL     1      24.664  39.076  -3.680  1.00  0.00    -0.202 N 
HETATM   19  C8  UNL     1      24.879  38.196  -2.692  1.00  0.00     0.110 A 
ATOM     20  H2  UNL     1      23.773  39.073  -4.176  1.00  0.00     0.183 HD
HETATM   21  C7  UNL     1      26.052  38.152  -1.995  1.00  0.00     0.067 A 
HETATM   22  C6  UNL     1      27.077  39.073  -2.332  1.00  0.00     0.124 A 
HETATM   23  N11 UNL     1      26.791  39.902  -3.307  1.00  0.00    -0.176 N 
ATOM     24  H11 UNL     1      27.515  40.574  -3.562  1.00  0.00     0.186 HD
BRANCH  22  25
HETATM   25  N1  UNL     1      28.156  38.965  -1.659  1.00  0.00    -0.312 N 
HETATM   26  C5  UNL     1      29.396  38.591  -2.186  1.00  0.00     0.230 C 
HETATM   27  O1  UNL     1      30.237  39.554  -2.414  1.00  0.00    -0.272 OA
ATOM     28  H1  UNL     1      28.110  39.166  -0.660  1.00  0.00     0.170 HD
BRANCH  26  29
HETATM   29  C2  UNL     1      29.876  37.250  -2.517  1.00  0.00     0.030 C 
HETATM   30  C1  UNL     1      30.144  37.152  -4.032  1.00  0.00     0.025 C 
HETATM   31  C3  UNL     1      28.926  36.127  -2.216  1.00  0.00     0.025 C 
HETATM   32  C4  UNL     1      31.225  37.020  -1.862  1.00  0.00     0.025 C 
ENDBRANCH  26  29
ENDBRANCH  22  25
ENDBRANCH  15  17
ENDBRANCH  13  14
ENDBRANCH  11  13
ENDBRANCH   9  10
ENDBRANCH   8   9
ENDBRANCH   1   8
BRANCH   7  33
HETATM   33  N8  UNL     1      30.833  43.856  -0.994  1.00  0.00    -0.326 N 
HETATM   34  C31 UNL     1      31.510  42.684  -1.307  1.00  0.00     0.184 C 
HETATM   35  N9  UNL     1      31.503  41.580  -0.674  1.00  0.00    -0.374 N 
HETATM   36  N10 UNL     1      32.365  42.667  -2.493  1.00  0.00    -0.064 NA
ATOM     37  H92 UNL     1      30.907  41.592   0.154  1.00  0.00     0.158 HD
ATOM     38  H91 UNL     1      32.000  40.720  -0.904  1.00  0.00     0.158 HD
ATOM     39  H8  UNL     1      31.449  44.668  -0.972  1.00  0.00     0.166 HD
ENDBRANCH   7  33
BRANCH   6  40
HETATM   40  C17 UNL     1      28.947  46.259   0.807  1.00  0.00     0.130 C 
BRANCH  40  41
HETATM   41  C18 UNL     1      30.060  46.452   1.754  1.00  0.00     0.020 C 
BRANCH  41  42
HETATM   42  C19 UNL     1      31.393  46.787   1.219  1.00  0.00     0.002 C 
BRANCH  42  43
HETATM   43  C20 UNL     1      31.981  47.984   1.957  1.00  0.00     0.000 C 
BRANCH  43  44
HETATM   44  C21 UNL     1      32.755  47.565   3.140  1.00  0.00     0.000 C 
BRANCH  44  45
HETATM   45  C22 UNL     1      34.220  47.294   2.805  1.00  0.00     0.000 C 
BRANCH  45  46
HETATM   46  C23 UNL     1      34.823  48.413   2.020  1.00  0.00     0.000 C 
BRANCH  46  47
HETATM   47  C24 UNL     1      36.056  47.994   1.293  1.00  0.00     0.002 C 
BRANCH  47  48
HETATM   48  C25 UNL     1      35.990  48.063  -0.192  1.00  0.00     0.028 C 
BRANCH  48  49
HETATM   49  C26 UNL     1      35.028  47.052  -0.725  1.00  0.00     0.236 C 
BRANCH  49  50
HETATM   50  N7  UNL     1      35.481  46.446  -1.958  1.00  0.00    -0.079 N 
HETATM   51  C27 UNL     1      36.915  46.276  -2.006  1.00  0.00     0.271 C 
HETATM   52  C28 UNL     1      34.902  45.127  -2.057  1.00  0.00     0.271 C 
HETATM   53  C29 UNL     1      35.047  47.187  -3.126  1.00  0.00     0.271 C 
ENDBRANCH  49  50
ENDBRANCH  48  49
ENDBRANCH  47  48
ENDBRANCH  46  47
ENDBRANCH  45  46
ENDBRANCH  44  45
ENDBRANCH  43  44
ENDBRANCH  42  43
ENDBRANCH  41  42
ENDBRANCH  40  41
ENDBRANCH   6  40
TORSDOF 20
ENDMDL
