MODEL 1
REMARK VINA RESULT: -6.629945101      0.000      0.000
REMARK  18 active torsions:
REMARK  status: ('A' for Active; 'I' for Inactive)
REMARK    1  A    between atoms: C5_5  and  N1_6 
REMARK       I    between atoms: N1_6  and  C6_8 
REMARK    2  A    between atoms: C6_8  and  C7_10 
REMARK    3  A    between atoms: C7_10  and  C8_11 
REMARK    4  A    between atoms: C8_11  and  C9_12 
REMARK    5  A    between atoms: C9_12  and  C10_13 
REMARK       I    between atoms: N2_16  and  C13_17 
REMARK    6  A    between atoms: C13_17  and  C14_19 
REMARK    7  A    between atoms: C14_19  and  C15_20 
REMARK    8  A    between atoms: C14_19  and  N4_29 
REMARK    9  A    between atoms: C15_20  and  C16_21 
REMARK   10  A    between atoms: C16_21  and  C17_22 
REMARK   11  A    between atoms: C17_22  and  C18_23 
REMARK   12  A    between atoms: C18_23  and  N3_24 
REMARK       I    between atoms: N3_24  and  C19_26 
REMARK   13  A    between atoms: C21_32  and  C22_33 
REMARK   14  A    between atoms: C22_33  and  C23_34 
REMARK   15  A    between atoms: C23_34  and  C24_35 
REMARK   16  A    between atoms: C24_35  and  N6_36 
REMARK   17  A    between atoms: C27_45  and  C28_46 
REMARK   18  A    between atoms: C28_46  and  C30_48 
ROOT
HETATM    1  C1  UNL     1      28.224  48.304  -3.379  1.00  0.00     0.017 C 
HETATM    2  C2  UNL     1      27.776  47.288  -3.877  1.00  0.00    -0.087 C 
HETATM    3  C3  UNL     1      27.242  46.096  -4.497  1.00  0.00     0.091 C 
HETATM    4  C4  UNL     1      27.694  44.911  -4.314  1.00  0.00     0.047 C 
HETATM    5  C5  UNL     1      27.335  43.534  -4.826  1.00  0.00     0.153 C 
HETATM    6  C12 UNL     1      28.823  43.356  -4.705  1.00  0.00     0.164 C 
HETATM    7  N2  UNL     1      28.750  44.292  -3.566  1.00  0.00    -0.311 N 
HETATM    8  C13 UNL     1      29.358  44.437  -2.313  1.00  0.00     0.272 C 
HETATM    9  O2  UNL     1      28.794  45.297  -1.531  1.00  0.00    -0.266 OA
ENDROOT
BRANCH   5  10
HETATM   10  N1  UNL     1      26.518  42.800  -3.916  1.00  0.00    -0.349 N 
HETATM   11  C6  UNL     1      25.597  41.815  -4.401  1.00  0.00     0.218 C 
HETATM   12  O1  UNL     1      25.557  41.654  -5.638  1.00  0.00    -0.274 OA
ATOM     13  H1  UNL     1      26.590  42.977  -2.914  1.00  0.00     0.163 HD
BRANCH  11  14
HETATM   14  C7  UNL     1      24.778  41.083  -3.418  1.00  0.00     0.103 C 
BRANCH  14  15
HETATM   15  C8  UNL     1      25.456  39.854  -2.941  1.00  0.00     0.009 C 
BRANCH  15  16
HETATM   16  C9  UNL     1      26.217  40.089  -1.671  1.00  0.00     0.000 C 
BRANCH  16  17
HETATM   17  C10 UNL     1      26.950  38.774  -1.378  1.00  0.00    -0.005 C 
HETATM   18  C11 UNL     1      26.810  37.894  -2.573  1.00  0.00     0.005 C 
ENDBRANCH  16  17
ENDBRANCH  15  16
ENDBRANCH  14  15
ENDBRANCH  11  14
ENDBRANCH   5  10
BRANCH   8  19
HETATM   19  C14 UNL     1      30.511  43.786  -1.759  1.00  0.00     0.105 C 
BRANCH  19  20
HETATM   20  C15 UNL     1      30.219  42.692  -0.773  1.00  0.00     0.065 C 
BRANCH  20  21
HETATM   21  C16 UNL     1      29.616  41.422  -1.186  1.00  0.00     0.008 C 
BRANCH  21  22
HETATM   22  C17 UNL     1      30.751  40.726  -2.003  1.00  0.00     0.020 C 
BRANCH  22  23
HETATM   23  C18 UNL     1      30.198  39.733  -2.977  1.00  0.00     0.122 C 
BRANCH  23  24
HETATM   24  N3  UNL     1      30.417  38.404  -2.451  1.00  0.00    -0.361 N 
HETATM   25  C19 UNL     1      30.376  37.232  -3.272  1.00  0.00     0.213 C 
HETATM   26  C20 UNL     1      30.602  35.884  -2.691  1.00  0.00     0.117 C 
HETATM   27  O3  UNL     1      30.138  37.406  -4.500  1.00  0.00    -0.274 OA
ATOM     28  H3  UNL     1      30.609  38.298  -1.455  1.00  0.00     0.162 HD
ENDBRANCH  23  24
ENDBRANCH  22  23
ENDBRANCH  21  22
ENDBRANCH  20  21
ENDBRANCH  19  20
BRANCH  19  29
HETATM   29  N4  UNL     1      31.668  44.610  -1.443  1.00  0.00    -0.221 N 
HETATM   30  N5  UNL     1      31.407  45.689  -0.678  1.00  0.00    -0.313 N 
HETATM   31  C21 UNL     1      32.210  46.257   0.276  1.00  0.00     0.192 C 
ATOM     32  H5  UNL     1      30.503  46.136  -0.827  1.00  0.00     0.181 HD
HETATM   33  C26 UNL     1      33.608  45.887   0.364  1.00  0.00     0.246 C 
HETATM   34  O4  UNL     1      34.139  46.270   1.468  1.00  0.00    -0.271 OA
HETATM   35  N9  UNL     1      34.518  45.204  -0.477  1.00  0.00    -0.324 N 
HETATM   36  C27 UNL     1      34.316  44.727  -1.794  1.00  0.00     0.086 C 
ATOM     37  H9  UNL     1      35.442  45.033  -0.082  1.00  0.00     0.169 HD
HETATM   38  C32 UNL     1      32.925  44.243  -2.028  1.00  0.00     0.289 C 
HETATM   39  O5  UNL     1      32.799  43.342  -2.891  1.00  0.00    -0.264 OA
BRANCH  31  40
HETATM   40  C22 UNL     1      32.038  47.815   0.105  1.00  0.00     0.041 C 
BRANCH  40  41
HETATM   41  C23 UNL     1      30.782  48.080  -0.611  1.00  0.00     0.047 C 
BRANCH  41  42
HETATM   42  C24 UNL     1      29.669  48.579   0.209  1.00  0.00     0.063 C 
BRANCH  42  43
HETATM   43  N6  UNL     1      28.571  47.770   0.554  1.00  0.00    -0.347 N 
HETATM   44  C25 UNL     1      28.393  46.900   1.442  1.00  0.00     0.200 C 
HETATM   45  N7  UNL     1      27.080  46.274   1.455  1.00  0.00    -0.067 NA
HETATM   46  N8  UNL     1      29.309  46.519   2.429  1.00  0.00    -0.067 NA
ATOM     47  H6  UNL     1      27.753  47.920  -0.038  1.00  0.00     0.167 HD
ENDBRANCH  42  43
ENDBRANCH  41  42
ENDBRANCH  40  41
ENDBRANCH  31  40
BRANCH  36  48
HETATM   48  C28 UNL     1      34.885  45.521  -2.921  1.00  0.00     0.037 C 
HETATM   49  C29 UNL     1      36.337  45.911  -2.560  1.00  0.00     0.016 C 
BRANCH  48  50
HETATM   50  C30 UNL     1      34.193  46.823  -3.179  1.00  0.00     0.006 C 
HETATM   51  C31 UNL     1      34.791  48.034  -2.567  1.00  0.00     0.006 C 
ENDBRANCH  48  50
ENDBRANCH  36  48
ENDBRANCH  19  29
ENDBRANCH   8  19
TORSDOF 18
ENDMDL
MODEL 2
REMARK VINA RESULT: -6.455757322      2.696      6.856
REMARK  18 active torsions:
REMARK  status: ('A' for Active; 'I' for Inactive)
REMARK    1  A    between atoms: C5_5  and  N1_6 
REMARK       I    between atoms: N1_6  and  C6_8 
REMARK    2  A    between atoms: C6_8  and  C7_10 
REMARK    3  A    between atoms: C7_10  and  C8_11 
REMARK    4  A    between atoms: C8_11  and  C9_12 
REMARK    5  A    between atoms: C9_12  and  C10_13 
REMARK       I    between atoms: N2_16  and  C13_17 
REMARK    6  A    between atoms: C13_17  and  C14_19 
REMARK    7  A    between atoms: C14_19  and  C15_20 
REMARK    8  A    between atoms: C14_19  and  N4_29 
REMARK    9  A    between atoms: C15_20  and  C16_21 
REMARK   10  A    between atoms: C16_21  and  C17_22 
REMARK   11  A    between atoms: C17_22  and  C18_23 
REMARK   12  A    between atoms: C18_23  and  N3_24 
REMARK       I    between atoms: N3_24  and  C19_26 
REMARK   13  A    between atoms: C21_32  and  C22_33 
REMARK   14  A    between atoms: C22_33  and  C23_34 
REMARK   15  A    between atoms: C23_34  and  C24_35 
REMARK   16  A    between atoms: C24_35  and  N6_36 
REMARK   17  A    between atoms: C27_45  and  C28_46 
REMARK   18  A    between atoms: C28_46  and  C30_48 
ROOT
HETATM    1  C1  UNL     1      28.186  45.303  -4.835  1.00  0.00     0.017 C 
HETATM    2  C2  UNL     1      28.850  44.476  -4.239  1.00  0.00    -0.087 C 
HETATM    3  C3  UNL     1      29.663  43.497  -3.554  1.00  0.00     0.091 C 
HETATM    4  C4  UNL     1      29.896  43.491  -2.294  1.00  0.00     0.047 C 
HETATM    5  C5  UNL     1      30.689  42.613  -1.352  1.00  0.00     0.153 C 
HETATM    6  C12 UNL     1      30.895  43.935  -0.665  1.00  0.00     0.164 C 
HETATM    7  N2  UNL     1      29.550  44.295  -1.157  1.00  0.00    -0.311 N 
HETATM    8  C13 UNL     1      28.437  45.003  -0.685  1.00  0.00     0.272 C 
HETATM    9  O2  UNL     1      27.362  44.854  -1.385  1.00  0.00    -0.266 OA
ENDROOT
BRANCH   5  10
HETATM   10  N1  UNL     1      29.880  41.651  -0.677  1.00  0.00    -0.349 N 
HETATM   11  C6  UNL     1      29.818  40.298  -1.148  1.00  0.00     0.218 C 
HETATM   12  O1  UNL     1      30.496  40.032  -2.161  1.00  0.00    -0.274 OA
ATOM     13  H1  UNL     1      29.343  41.928   0.144  1.00  0.00     0.163 HD
BRANCH  11  14
HETATM   14  C7  UNL     1      28.968  39.344  -0.413  1.00  0.00     0.103 C 
BRANCH  14  15
HETATM   15  C8  UNL     1      29.407  37.944  -0.617  1.00  0.00     0.009 C 
BRANCH  15  16
HETATM   16  C9  UNL     1      28.701  37.296  -1.770  1.00  0.00     0.000 C 
BRANCH  16  17
HETATM   17  C10 UNL     1      29.492  36.019  -2.076  1.00  0.00    -0.005 C 
HETATM   18  C11 UNL     1      30.922  36.397  -2.261  1.00  0.00     0.005 C 
ENDBRANCH  16  17
ENDBRANCH  15  16
ENDBRANCH  14  15
ENDBRANCH  11  14
ENDBRANCH   5  10
BRANCH   8  19
HETATM   19  C14 UNL     1      28.302  45.871   0.450  1.00  0.00     0.105 C 
BRANCH  19  20
HETATM   20  C15 UNL     1      26.901  46.320   0.750  1.00  0.00     0.065 C 
BRANCH  20  21
HETATM   21  C16 UNL     1      26.604  47.691   1.173  1.00  0.00     0.008 C 
BRANCH  21  22
HETATM   22  C17 UNL     1      25.762  47.498   2.475  1.00  0.00     0.020 C 
BRANCH  22  23
HETATM   23  C18 UNL     1      26.637  47.390   3.685  1.00  0.00     0.122 C 
BRANCH  23  24
HETATM   24  N3  UNL     1      26.370  48.520   4.546  1.00  0.00    -0.361 N 
HETATM   25  C19 UNL     1      27.134  49.730   4.494  1.00  0.00     0.213 C 
HETATM   26  C20 UNL     1      26.830  50.866   5.401  1.00  0.00     0.117 C 
HETATM   27  O3  UNL     1      28.069  49.775   3.647  1.00  0.00    -0.274 OA
ATOM     28  H3  UNL     1      25.605  48.453   5.219  1.00  0.00     0.162 HD
ENDBRANCH  23  24
ENDBRANCH  22  23
ENDBRANCH  21  22
ENDBRANCH  20  21
ENDBRANCH  19  20
BRANCH  19  29
HETATM   29  N4  UNL     1      29.332  46.876   0.662  1.00  0.00    -0.221 N 
HETATM   30  N5  UNL     1      29.658  47.595  -0.430  1.00  0.00    -0.313 N 
HETATM   31  C21 UNL     1      30.035  48.912  -0.488  1.00  0.00     0.192 C 
ATOM     32  H5  UNL     1      29.621  47.101  -1.322  1.00  0.00     0.181 HD
HETATM   33  C26 UNL     1      30.398  49.618   0.724  1.00  0.00     0.246 C 
HETATM   34  O4  UNL     1      30.435  50.889   0.548  1.00  0.00    -0.271 OA
HETATM   35  N9  UNL     1      30.716  49.235   2.049  1.00  0.00    -0.324 N 
HETATM   36  C27 UNL     1      30.866  47.932   2.580  1.00  0.00     0.086 C 
ATOM     37  H9  UNL     1      30.857  50.000   2.708  1.00  0.00     0.169 HD
HETATM   38  C32 UNL     1      29.937  46.944   1.960  1.00  0.00     0.289 C 
HETATM   39  O5  UNL     1      29.601  45.980   2.689  1.00  0.00    -0.264 OA
BRANCH  31  40
HETATM   40  C22 UNL     1      31.190  48.979  -1.560  1.00  0.00     0.041 C 
BRANCH  40  41
HETATM   41  C23 UNL     1      31.615  47.611  -1.887  1.00  0.00     0.047 C 
BRANCH  41  42
HETATM   42  C24 UNL     1      32.758  47.497  -2.805  1.00  0.00     0.063 C 
BRANCH  42  43
HETATM   43  N6  UNL     1      33.896  46.731  -2.491  1.00  0.00    -0.347 N 
HETATM   44  C25 UNL     1      34.177  45.515  -2.637  1.00  0.00     0.200 C 
HETATM   45  N7  UNL     1      35.492  45.113  -2.161  1.00  0.00    -0.067 NA
HETATM   46  N8  UNL     1      33.375  44.543  -3.244  1.00  0.00    -0.067 NA
ATOM     47  H6  UNL     1      34.645  47.272  -2.058  1.00  0.00     0.167 HD
ENDBRANCH  42  43
ENDBRANCH  41  42
ENDBRANCH  40  41
ENDBRANCH  31  40
BRANCH  36  48
HETATM   48  C28 UNL     1      32.251  47.419   2.795  1.00  0.00     0.037 C 
HETATM   49  C29 UNL     1      33.143  48.598   3.247  1.00  0.00     0.016 C 
BRANCH  48  50
HETATM   50  C30 UNL     1      32.917  46.885   1.566  1.00  0.00     0.006 C 
HETATM   51  C31 UNL     1      34.067  47.656   1.037  1.00  0.00     0.006 C 
ENDBRANCH  48  50
ENDBRANCH  36  48
ENDBRANCH  19  29
ENDBRANCH   8  19
TORSDOF 18
ENDMDL
MODEL 3
REMARK VINA RESULT: -6.395472204      2.768      4.781
REMARK  18 active torsions:
REMARK  status: ('A' for Active; 'I' for Inactive)
REMARK    1  A    between atoms: C5_5  and  N1_6 
REMARK       I    between atoms: N1_6  and  C6_8 
REMARK    2  A    between atoms: C6_8  and  C7_10 
REMARK    3  A    between atoms: C7_10  and  C8_11 
REMARK    4  A    between atoms: C8_11  and  C9_12 
REMARK    5  A    between atoms: C9_12  and  C10_13 
REMARK       I    between atoms: N2_16  and  C13_17 
REMARK    6  A    between atoms: C13_17  and  C14_19 
REMARK    7  A    between atoms: C14_19  and  C15_20 
REMARK    8  A    between atoms: C14_19  and  N4_29 
REMARK    9  A    between atoms: C15_20  and  C16_21 
REMARK   10  A    between atoms: C16_21  and  C17_22 
REMARK   11  A    between atoms: C17_22  and  C18_23 
REMARK   12  A    between atoms: C18_23  and  N3_24 
REMARK       I    between atoms: N3_24  and  C19_26 
REMARK   13  A    between atoms: C21_32  and  C22_33 
REMARK   14  A    between atoms: C22_33  and  C23_34 
REMARK   15  A    between atoms: C23_34  and  C24_35 
REMARK   16  A    between atoms: C24_35  and  N6_36 
REMARK   17  A    between atoms: C27_45  and  C28_46 
REMARK   18  A    between atoms: C28_46  and  C30_48 
ROOT
HETATM    1  C1  UNL     1      23.809  44.628  -0.111  1.00  0.00     0.017 C 
HETATM    2  C2  UNL     1      23.305  43.667  -0.660  1.00  0.00    -0.087 C 
HETATM    3  C3  UNL     1      22.683  42.544  -1.324  1.00  0.00     0.091 C 
HETATM    4  C4  UNL     1      23.307  41.663  -2.013  1.00  0.00     0.047 C 
HETATM    5  C5  UNL     1      22.911  40.428  -2.791  1.00  0.00     0.153 C 
HETATM    6  C12 UNL     1      24.058  40.885  -3.650  1.00  0.00     0.164 C 
HETATM    7  N2  UNL     1      24.662  41.402  -2.406  1.00  0.00    -0.311 N 
HETATM    8  C13 UNL     1      25.943  41.496  -1.846  1.00  0.00     0.272 C 
HETATM    9  O2  UNL     1      25.966  41.819  -0.595  1.00  0.00    -0.266 OA
ENDROOT
BRANCH   5  10
HETATM   10  N1  UNL     1      23.095  39.223  -2.051  1.00  0.00    -0.349 N 
HETATM   11  C6  UNL     1      22.222  38.105  -2.257  1.00  0.00     0.218 C 
HETATM   12  O1  UNL     1      21.314  38.258  -3.099  1.00  0.00    -0.274 OA
ATOM     13  H1  UNL     1      23.853  39.157  -1.371  1.00  0.00     0.163 HD
BRANCH  11  14
HETATM   14  C7  UNL     1      22.458  36.883  -1.467  1.00  0.00     0.103 C 
BRANCH  14  15
HETATM   15  C8  UNL     1      23.831  36.358  -1.659  1.00  0.00     0.009 C 
BRANCH  15  16
HETATM   16  C9  UNL     1      24.051  35.858  -3.055  1.00  0.00     0.000 C 
BRANCH  16  17
HETATM   17  C10 UNL     1      23.300  34.523  -3.140  1.00  0.00    -0.005 C 
HETATM   18  C11 UNL     1      22.857  34.333  -4.551  1.00  0.00     0.005 C 
ENDBRANCH  16  17
ENDBRANCH  15  16
ENDBRANCH  14  15
ENDBRANCH  11  14
ENDBRANCH   5  10
BRANCH   8  19
HETATM   19  C14 UNL     1      27.234  41.294  -2.440  1.00  0.00     0.105 C 
BRANCH  19  20
HETATM   20  C15 UNL     1      27.829  39.931  -2.236  1.00  0.00     0.065 C 
BRANCH  20  21
HETATM   21  C16 UNL     1      27.684  39.207  -0.970  1.00  0.00     0.008 C 
BRANCH  21  22
HETATM   22  C17 UNL     1      29.159  38.942  -0.529  1.00  0.00     0.020 C 
BRANCH  22  23
HETATM   23  C18 UNL     1      30.086  38.908  -1.704  1.00  0.00     0.122 C 
BRANCH  23  24
HETATM   24  N3  UNL     1      30.669  37.587  -1.789  1.00  0.00    -0.361 N 
HETATM   25  C19 UNL     1      30.261  36.624  -2.767  1.00  0.00     0.213 C 
HETATM   26  C20 UNL     1      30.883  35.276  -2.816  1.00  0.00     0.117 C 
HETATM   27  O3  UNL     1      29.355  36.980  -3.571  1.00  0.00    -0.274 OA
ATOM     28  H3  UNL     1      31.400  37.332  -1.125  1.00  0.00     0.162 HD
ENDBRANCH  23  24
ENDBRANCH  22  23
ENDBRANCH  21  22
ENDBRANCH  20  21
ENDBRANCH  19  20
BRANCH  19  29
HETATM   29  N4  UNL     1      28.182  42.397  -2.391  1.00  0.00    -0.221 N 
HETATM   30  N5  UNL     1      28.744  42.610  -1.184  1.00  0.00    -0.313 N 
HETATM   31  C21 UNL     1      30.016  43.045  -0.914  1.00  0.00     0.192 C 
ATOM     32  H5  UNL     1      28.153  42.425  -0.374  1.00  0.00     0.181 HD
HETATM   33  C26 UNL     1      30.832  43.607  -1.972  1.00  0.00     0.246 C 
HETATM   34  O4  UNL     1      32.067  43.689  -1.635  1.00  0.00    -0.271 OA
HETATM   35  N9  UNL     1      30.584  44.081  -3.282  1.00  0.00    -0.324 N 
HETATM   36  C27 UNL     1      29.346  44.232  -3.948  1.00  0.00     0.086 C 
ATOM     37  H9  UNL     1      31.410  44.351  -3.817  1.00  0.00     0.169 HD
HETATM   38  C32 UNL     1      28.359  43.175  -3.582  1.00  0.00     0.289 C 
HETATM   39  O5  UNL     1      27.513  42.890  -4.463  1.00  0.00    -0.264 OA
BRANCH  31  40
HETATM   40  C22 UNL     1      29.875  44.046   0.297  1.00  0.00     0.041 C 
BRANCH  40  41
HETATM   41  C23 UNL     1      28.784  44.989   0.012  1.00  0.00     0.047 C 
BRANCH  41  42
HETATM   42  C24 UNL     1      29.073  46.404   0.283  1.00  0.00     0.063 C 
BRANCH  42  43
HETATM   43  N6  UNL     1      30.097  46.805   1.161  1.00  0.00    -0.347 N 
HETATM   44  C25 UNL     1      30.150  46.945   2.408  1.00  0.00     0.200 C 
HETATM   45  N7  UNL     1      31.428  47.397   2.936  1.00  0.00    -0.067 NA
HETATM   46  N8  UNL     1      29.127  46.667   3.320  1.00  0.00    -0.067 NA
ATOM     47  H6  UNL     1      30.974  47.026   0.689  1.00  0.00     0.167 HD
ENDBRANCH  42  43
ENDBRANCH  41  42
ENDBRANCH  40  41
ENDBRANCH  31  40
BRANCH  36  48
HETATM   48  C28 UNL     1      28.766  45.603  -4.047  1.00  0.00     0.037 C 
HETATM   49  C29 UNL     1      29.851  46.623  -3.633  1.00  0.00     0.016 C 
BRANCH  48  50
HETATM   50  C30 UNL     1      27.622  45.865  -3.119  1.00  0.00     0.006 C 
HETATM   51  C31 UNL     1      26.349  46.316  -3.731  1.00  0.00     0.006 C 
ENDBRANCH  48  50
ENDBRANCH  36  48
ENDBRANCH  19  29
ENDBRANCH   8  19
TORSDOF 18
ENDMDL
MODEL 4
REMARK VINA RESULT: -6.303655325      1.324      1.490
REMARK  18 active torsions:
REMARK  status: ('A' for Active; 'I' for Inactive)
REMARK    1  A    between atoms: C5_5  and  N1_6 
REMARK       I    between atoms: N1_6  and  C6_8 
REMARK    2  A    between atoms: C6_8  and  C7_10 
REMARK    3  A    between atoms: C7_10  and  C8_11 
REMARK    4  A    between atoms: C8_11  and  C9_12 
REMARK    5  A    between atoms: C9_12  and  C10_13 
REMARK       I    between atoms: N2_16  and  C13_17 
REMARK    6  A    between atoms: C13_17  and  C14_19 
REMARK    7  A    between atoms: C14_19  and  C15_20 
REMARK    8  A    between atoms: C14_19  and  N4_29 
REMARK    9  A    between atoms: C15_20  and  C16_21 
REMARK   10  A    between atoms: C16_21  and  C17_22 
REMARK   11  A    between atoms: C17_22  and  C18_23 
REMARK   12  A    between atoms: C18_23  and  N3_24 
REMARK       I    between atoms: N3_24  and  C19_26 
REMARK   13  A    between atoms: C21_32  and  C22_33 
REMARK   14  A    between atoms: C22_33  and  C23_34 
REMARK   15  A    between atoms: C23_34  and  C24_35 
REMARK   16  A    between atoms: C24_35  and  N6_36 
REMARK   17  A    between atoms: C27_45  and  C28_46 
REMARK   18  A    between atoms: C28_46  and  C30_48 
ROOT
HETATM    1  C1  UNL     1      26.904  47.036  -1.322  1.00  0.00     0.017 C 
HETATM    2  C2  UNL     1      26.675  46.165  -2.138  1.00  0.00    -0.087 C 
HETATM    3  C3  UNL     1      26.391  45.151  -3.130  1.00  0.00     0.091 C 
HETATM    4  C4  UNL     1      27.199  44.219  -3.476  1.00  0.00     0.047 C 
HETATM    5  C5  UNL     1      27.155  43.069  -4.458  1.00  0.00     0.153 C 
HETATM    6  C12 UNL     1      28.619  43.402  -4.555  1.00  0.00     0.164 C 
HETATM    7  N2  UNL     1      28.528  43.800  -3.136  1.00  0.00    -0.311 N 
HETATM    8  C13 UNL     1      29.329  43.712  -1.990  1.00  0.00     0.272 C 
HETATM    9  O2  UNL     1      28.724  43.990  -0.883  1.00  0.00    -0.266 OA
ENDROOT
BRANCH   5  10
HETATM   10  N1  UNL     1      26.813  41.829  -3.844  1.00  0.00    -0.349 N 
HETATM   11  C6  UNL     1      25.466  41.338  -3.902  1.00  0.00     0.218 C 
HETATM   12  O1  UNL     1      24.641  42.054  -4.505  1.00  0.00    -0.274 OA
ATOM     13  H1  UNL     1      27.529  41.287  -3.361  1.00  0.00     0.163 HD
BRANCH  11  14
HETATM   14  C7  UNL     1      25.167  40.049  -3.254  1.00  0.00     0.103 C 
BRANCH  14  15
HETATM   15  C8  UNL     1      26.301  39.569  -2.430  1.00  0.00     0.009 C 
BRANCH  15  16
HETATM   16  C9  UNL     1      26.380  38.072  -2.401  1.00  0.00     0.000 C 
BRANCH  16  17
HETATM   17  C10 UNL     1      25.049  37.575  -2.976  1.00  0.00    -0.005 C 
HETATM   18  C11 UNL     1      24.548  36.481  -2.097  1.00  0.00     0.005 C 
ENDBRANCH  16  17
ENDBRANCH  15  16
ENDBRANCH  14  15
ENDBRANCH  11  14
ENDBRANCH   5  10
BRANCH   8  19
HETATM   19  C14 UNL     1      30.714  43.366  -1.849  1.00  0.00     0.105 C 
BRANCH  19  20
HETATM   20  C15 UNL     1      30.982  42.051  -1.175  1.00  0.00     0.065 C 
BRANCH  20  21
HETATM   21  C16 UNL     1      31.323  40.848  -1.938  1.00  0.00     0.008 C 
BRANCH  21  22
HETATM   22  C17 UNL     1      29.973  40.065  -2.011  1.00  0.00     0.020 C 
BRANCH  22  23
HETATM   23  C18 UNL     1      29.969  39.079  -3.137  1.00  0.00     0.122 C 
BRANCH  23  24
HETATM   24  N3  UNL     1      30.156  37.755  -2.587  1.00  0.00    -0.361 N 
HETATM   25  C19 UNL     1      30.436  36.612  -3.403  1.00  0.00     0.213 C 
HETATM   26  C20 UNL     1      30.616  35.268  -2.798  1.00  0.00     0.117 C 
HETATM   27  O3  UNL     1      30.516  36.809  -4.648  1.00  0.00    -0.274 OA
ATOM     28  H3  UNL     1      30.086  37.630  -1.577  1.00  0.00     0.162 HD
ENDBRANCH  23  24
ENDBRANCH  22  23
ENDBRANCH  21  22
ENDBRANCH  20  21
ENDBRANCH  19  20
BRANCH  19  29
HETATM   29  N4  UNL     1      31.649  44.431  -1.520  1.00  0.00    -0.221 N 
HETATM   30  N5  UNL     1      31.154  45.395  -0.718  1.00  0.00    -0.313 N 
HETATM   31  C21 UNL     1      31.817  46.110   0.245  1.00  0.00     0.192 C 
ATOM     32  H5  UNL     1      30.166  45.619  -0.842  1.00  0.00     0.181 HD
HETATM   33  C26 UNL     1      33.264  46.080   0.306  1.00  0.00     0.246 C 
HETATM   34  O4  UNL     1      33.709  46.546   1.415  1.00  0.00    -0.271 OA
HETATM   35  N9  UNL     1      34.294  45.657  -0.568  1.00  0.00    -0.324 N 
HETATM   36  C27 UNL     1      34.186  45.184  -1.897  1.00  0.00     0.086 C 
ATOM     37  H9  UNL     1      35.239  45.699  -0.189  1.00  0.00     0.169 HD
HETATM   38  C32 UNL     1      32.945  44.390  -2.130  1.00  0.00     0.289 C 
HETATM   39  O5  UNL     1      33.021  43.511  -3.021  1.00  0.00    -0.264 OA
BRANCH  31  40
HETATM   40  C22 UNL     1      31.276  47.587   0.127  1.00  0.00     0.041 C 
BRANCH  40  41
HETATM   41  C23 UNL     1      29.940  47.656   0.734  1.00  0.00     0.047 C 
BRANCH  41  42
HETATM   42  C24 UNL     1      29.902  47.646   2.204  1.00  0.00     0.063 C 
BRANCH  42  43
HETATM   43  N6  UNL     1      28.762  48.045   2.926  1.00  0.00    -0.347 N 
HETATM   44  C25 UNL     1      28.139  47.538   3.891  1.00  0.00     0.200 C 
HETATM   45  N7  UNL     1      26.976  48.284   4.349  1.00  0.00    -0.067 NA
HETATM   46  N8  UNL     1      28.481  46.370   4.581  1.00  0.00    -0.067 NA
ATOM     47  H6  UNL     1      28.361  48.925   2.599  1.00  0.00     0.167 HD
ENDBRANCH  42  43
ENDBRANCH  41  42
ENDBRANCH  40  41
ENDBRANCH  31  40
BRANCH  36  48
HETATM   48  C28 UNL     1      34.529  46.123  -3.004  1.00  0.00     0.037 C 
HETATM   49  C29 UNL     1      36.069  46.237  -3.089  1.00  0.00     0.016 C 
BRANCH  48  50
HETATM   50  C30 UNL     1      34.054  47.528  -2.801  1.00  0.00     0.006 C 
HETATM   51  C31 UNL     1      32.695  47.856  -3.295  1.00  0.00     0.006 C 
ENDBRANCH  48  50
ENDBRANCH  36  48
ENDBRANCH  19  29
ENDBRANCH   8  19
TORSDOF 18
ENDMDL
MODEL 5
REMARK VINA RESULT: -6.267569997      3.089      9.539
REMARK  18 active torsions:
REMARK  status: ('A' for Active; 'I' for Inactive)
REMARK    1  A    between atoms: C5_5  and  N1_6 
REMARK       I    between atoms: N1_6  and  C6_8 
REMARK    2  A    between atoms: C6_8  and  C7_10 
REMARK    3  A    between atoms: C7_10  and  C8_11 
REMARK    4  A    between atoms: C8_11  and  C9_12 
REMARK    5  A    between atoms: C9_12  and  C10_13 
REMARK       I    between atoms: N2_16  and  C13_17 
REMARK    6  A    between atoms: C13_17  and  C14_19 
REMARK    7  A    between atoms: C14_19  and  C15_20 
REMARK    8  A    between atoms: C14_19  and  N4_29 
REMARK    9  A    between atoms: C15_20  and  C16_21 
REMARK   10  A    between atoms: C16_21  and  C17_22 
REMARK   11  A    between atoms: C17_22  and  C18_23 
REMARK   12  A    between atoms: C18_23  and  N3_24 
REMARK       I    between atoms: N3_24  and  C19_26 
REMARK   13  A    between atoms: C21_32  and  C22_33 
REMARK   14  A    between atoms: C22_33  and  C23_34 
REMARK   15  A    between atoms: C23_34  and  C24_35 
REMARK   16  A    between atoms: C24_35  and  N6_36 
REMARK   17  A    between atoms: C27_45  and  C28_46 
REMARK   18  A    between atoms: C28_46  and  C30_48 
ROOT
HETATM    1  C1  UNL     1      28.522  36.928  -1.774  1.00  0.00     0.017 C 
HETATM    2  C2  UNL     1      29.425  37.715  -1.986  1.00  0.00    -0.087 C 
HETATM    3  C3  UNL     1      30.511  38.629  -2.260  1.00  0.00     0.091 C 
HETATM    4  C4  UNL     1      30.376  39.885  -2.473  1.00  0.00     0.047 C 
HETATM    5  C5  UNL     1      31.314  41.031  -2.778  1.00  0.00     0.153 C 
HETATM    6  C12 UNL     1      30.124  41.487  -3.577  1.00  0.00     0.164 C 
HETATM    7  N2  UNL     1      29.297  40.827  -2.547  1.00  0.00    -0.311 N 
HETATM    8  C13 UNL     1      28.083  41.072  -1.890  1.00  0.00     0.272 C 
HETATM    9  O2  UNL     1      27.862  40.322  -0.862  1.00  0.00    -0.266 OA
ENDROOT
BRANCH   5  10
HETATM   10  N1  UNL     1      31.650  41.795  -1.621  1.00  0.00    -0.349 N 
HETATM   11  C6  UNL     1      32.454  42.976  -1.741  1.00  0.00     0.218 C 
HETATM   12  O1  UNL     1      32.831  43.275  -2.892  1.00  0.00    -0.274 OA
ATOM     13  H1  UNL     1      31.317  41.499  -0.704  1.00  0.00     0.163 HD
BRANCH  11  14
HETATM   14  C7  UNL     1      32.770  43.730  -0.515  1.00  0.00     0.103 C 
BRANCH  14  15
HETATM   15  C8  UNL     1      34.077  44.421  -0.613  1.00  0.00     0.009 C 
BRANCH  15  16
HETATM   16  C9  UNL     1      33.948  45.900  -0.406  1.00  0.00     0.000 C 
BRANCH  16  17
HETATM   17  C10 UNL     1      35.010  46.540  -1.308  1.00  0.00    -0.005 C 
HETATM   18  C11 UNL     1      35.534  45.484  -2.221  1.00  0.00     0.005 C 
ENDBRANCH  16  17
ENDBRANCH  15  16
ENDBRANCH  14  15
ENDBRANCH  11  14
ENDBRANCH   5  10
BRANCH   8  19
HETATM   19  C14 UNL     1      27.045  42.019  -2.180  1.00  0.00     0.105 C 
BRANCH  19  20
HETATM   20  C15 UNL     1      26.458  42.713  -0.984  1.00  0.00     0.065 C 
BRANCH  20  21
HETATM   21  C16 UNL     1      26.630  44.152  -0.765  1.00  0.00     0.008 C 
BRANCH  21  22
HETATM   22  C17 UNL     1      28.084  44.427  -1.266  1.00  0.00     0.020 C 
BRANCH  22  23
HETATM   23  C18 UNL     1      29.080  44.312  -0.154  1.00  0.00     0.122 C 
BRANCH  23  24
HETATM   24  N3  UNL     1      29.813  45.555  -0.065  1.00  0.00    -0.361 N 
HETATM   25  C19 UNL     1      30.095  46.198   1.182  1.00  0.00     0.213 C 
HETATM   26  C20 UNL     1      30.848  47.477   1.229  1.00  0.00     0.117 C 
HETATM   27  O3  UNL     1      29.671  45.626   2.225  1.00  0.00    -0.274 OA
ATOM     28  H3  UNL     1      30.143  45.991  -0.927  1.00  0.00     0.162 HD
ENDBRANCH  23  24
ENDBRANCH  22  23
ENDBRANCH  21  22
ENDBRANCH  20  21
ENDBRANCH  19  20
BRANCH  19  29
HETATM   29  N4  UNL     1      26.094  41.684  -3.228  1.00  0.00    -0.221 N 
HETATM   30  N5  UNL     1      25.376  40.564  -3.008  1.00  0.00    -0.313 N 
HETATM   31  C21 UNL     1      24.078  40.313  -3.371  1.00  0.00     0.192 C 
ATOM     32  H5  UNL     1      25.856  39.813  -2.512  1.00  0.00     0.181 HD
HETATM   33  C26 UNL     1      23.407  41.180  -4.318  1.00  0.00     0.246 C 
HETATM   34  O4  UNL     1      22.138  40.993  -4.326  1.00  0.00    -0.271 OA
HETATM   35  N9  UNL     1      23.824  42.180  -5.229  1.00  0.00    -0.324 N 
HETATM   36  C27 UNL     1      25.139  42.583  -5.558  1.00  0.00     0.086 C 
ATOM     37  H9  UNL     1      23.076  42.675  -5.713  1.00  0.00     0.169 HD
HETATM   38  C32 UNL     1      26.073  42.514  -4.397  1.00  0.00     0.289 C 
HETATM   39  O5  UNL     1      27.029  43.326  -4.417  1.00  0.00    -0.264 OA
BRANCH  31  40
HETATM   40  C22 UNL     1      24.053  38.810  -3.849  1.00  0.00     0.041 C 
BRANCH  40  41
HETATM   41  C23 UNL     1      25.206  38.106  -3.270  1.00  0.00     0.047 C 
BRANCH  41  42
HETATM   42  C24 UNL     1      24.889  37.003  -2.352  1.00  0.00     0.063 C 
BRANCH  42  43
HETATM   43  N6  UNL     1      23.791  37.052  -1.474  1.00  0.00    -0.347 N 
HETATM   44  C25 UNL     1      22.643  36.542  -1.509  1.00  0.00     0.200 C 
HETATM   45  N7  UNL     1      21.784  36.853  -0.376  1.00  0.00    -0.067 NA
HETATM   46  N8  UNL     1      22.143  35.685  -2.494  1.00  0.00    -0.067 NA
ATOM     47  H6  UNL     1      23.961  37.614  -0.641  1.00  0.00     0.167 HD
ENDBRANCH  42  43
ENDBRANCH  41  42
ENDBRANCH  40  41
ENDBRANCH  31  40
BRANCH  36  48
HETATM   48  C28 UNL     1      25.722  42.094  -6.842  1.00  0.00     0.037 C 
HETATM   49  C29 UNL     1      26.010  43.317  -7.744  1.00  0.00     0.016 C 
BRANCH  48  50
HETATM   50  C30 UNL     1      24.808  41.230  -7.652  1.00  0.00     0.006 C 
HETATM   51  C31 UNL     1      25.123  41.085  -9.094  1.00  0.00     0.006 C 
ENDBRANCH  48  50
ENDBRANCH  36  48
ENDBRANCH  19  29
ENDBRANCH   8  19
TORSDOF 18
ENDMDL
