MODEL 1
REMARK VINA RESULT: -5.426495619      0.000      0.000
REMARK  2 active torsions:
REMARK  status: ('A' for Active; 'I' for Inactive)
REMARK    1  A    between atoms: N2_4  and  N3_6 
REMARK    2  A    between atoms: C1_8  and  C2_9 
ROOT
HETATM    1  N3  UNL     1      25.885  56.141  46.323  1.00  0.00    -0.296 N 
ATOM      2  H3  UNL     1      24.957  55.946  46.697  1.00  0.00     0.187 HD
HETATM    3  C1  UNL     1      26.304  55.457  45.330  1.00  0.00     0.139 C 
ENDROOT
BRANCH   3   4
HETATM    4  C2  UNL     1      27.634  55.700  44.754  1.00  0.00     0.065 A 
HETATM    5  C3  UNL     1      27.978  55.679  43.422  1.00  0.00     0.119 A 
HETATM    6  N4  UNL     1      29.289  55.948  43.271  1.00  0.00    -0.360 N 
HETATM    7  C4  UNL     1      29.778  56.140  44.510  1.00  0.00     0.180 A 
ATOM      8  H4  UNL     1      29.808  55.998  42.394  1.00  0.00     0.166 HD
HETATM    9  N5  UNL     1      28.774  55.989  45.410  1.00  0.00    -0.350 N 
ATOM     10  H5  UNL     1      28.869  56.080  46.421  1.00  0.00     0.166 HD
ENDBRANCH   3   4
BRANCH   1  11
HETATM   11  N2  UNL     1      26.644  57.137  46.912  1.00  0.00    -0.250 N 
HETATM   12  N1  UNL     1      26.330  57.579  48.052  1.00  0.00    -0.331 N 
ATOM     13  H12 UNL     1      25.515  57.191  48.526  1.00  0.00     0.178 HD
ATOM     14  H11 UNL     1      26.889  58.313  48.485  1.00  0.00     0.178 HD
ATOM     15  H2  UNL     1      27.457  57.514  46.424  1.00  0.00     0.207 HD
ENDBRANCH   1  11
TORSDOF 2
ENDMDL
MODEL 2
REMARK VINA RESULT: -5.297499768      2.675      4.629
REMARK  2 active torsions:
REMARK  status: ('A' for Active; 'I' for Inactive)
REMARK    1  A    between atoms: N2_4  and  N3_6 
REMARK    2  A    between atoms: C1_8  and  C2_9 
ROOT
HETATM    1  N3  UNL     1      28.147  54.668  41.100  1.00  0.00    -0.296 N 
ATOM      2  H3  UNL     1      27.726  54.687  40.170  1.00  0.00     0.187 HD
HETATM    3  C1  UNL     1      28.137  55.735  41.800  1.00  0.00     0.139 C 
ENDROOT
BRANCH   3   4
HETATM    4  C2  UNL     1      28.728  55.759  43.145  1.00  0.00     0.065 A 
HETATM    5  C3  UNL     1      29.903  56.367  43.525  1.00  0.00     0.119 A 
HETATM    6  N4  UNL     1      30.126  56.180  44.839  1.00  0.00    -0.360 N 
HETATM    7  C4  UNL     1      29.091  55.452  45.295  1.00  0.00     0.180 A 
ATOM      8  H4  UNL     1      30.920  56.522  45.381  1.00  0.00     0.166 HD
HETATM    9  N5  UNL     1      28.243  55.196  44.268  1.00  0.00    -0.350 N 
ATOM     10  H5  UNL     1      27.376  54.663  44.336  1.00  0.00     0.166 HD
ENDBRANCH   3   4
BRANCH   1  11
HETATM   11  N2  UNL     1      28.706  53.487  41.553  1.00  0.00    -0.250 N 
HETATM   12  N1  UNL     1      28.421  52.395  40.987  1.00  0.00    -0.331 N 
ATOM     13  H12 UNL     1      27.776  52.401  40.196  1.00  0.00     0.178 HD
ATOM     14  H11 UNL     1      28.833  51.524  41.322  1.00  0.00     0.178 HD
ATOM     15  H2  UNL     1      29.349  53.498  42.345  1.00  0.00     0.207 HD
ENDBRANCH   1  11
TORSDOF 2
ENDMDL
MODEL 3
REMARK VINA RESULT: -5.247823273      1.710      2.422
REMARK  2 active torsions:
REMARK  status: ('A' for Active; 'I' for Inactive)
REMARK    1  A    between atoms: N2_4  and  N3_6 
REMARK    2  A    between atoms: C1_8  and  C2_9 
ROOT
HETATM    1  N3  UNL     1      29.350  55.788  46.445  1.00  0.00    -0.296 N 
ATOM      2  H3  UNL     1      29.662  55.474  47.364  1.00  0.00     0.187 HD
HETATM    3  C1  UNL     1      29.568  55.042  45.433  1.00  0.00     0.139 C 
ENDROOT
BRANCH   3   4
HETATM    4  C2  UNL     1      29.136  55.448  44.089  1.00  0.00     0.065 A 
HETATM    5  C3  UNL     1      29.762  56.342  43.250  1.00  0.00     0.119 A 
HETATM    6  N4  UNL     1      29.077  56.465  42.098  1.00  0.00    -0.360 N 
HETATM    7  C4  UNL     1      28.013  55.648  42.205  1.00  0.00     0.180 A 
ATOM      8  H4  UNL     1      29.316  57.057  41.303  1.00  0.00     0.166 HD
HETATM    9  N5  UNL     1      28.049  55.031  43.413  1.00  0.00    -0.350 N 
ATOM     10  H5  UNL     1      27.361  54.360  43.754  1.00  0.00     0.166 HD
ENDBRANCH   3   4
BRANCH   1  11
HETATM   11  N2  UNL     1      28.704  57.008  46.343  1.00  0.00    -0.250 N 
HETATM   12  N1  UNL     1      27.594  57.184  46.918  1.00  0.00    -0.331 N 
ATOM     13  H12 UNL     1      27.187  56.418  47.454  1.00  0.00     0.178 HD
ATOM     14  H11 UNL     1      27.119  58.083  46.843  1.00  0.00     0.178 HD
ATOM     15  H2  UNL     1      29.126  57.764  45.803  1.00  0.00     0.207 HD
ENDBRANCH   1  11
TORSDOF 2
ENDMDL
MODEL 4
REMARK VINA RESULT: -5.237088984      1.032      1.123
REMARK  2 active torsions:
REMARK  status: ('A' for Active; 'I' for Inactive)
REMARK    1  A    between atoms: N2_4  and  N3_6 
REMARK    2  A    between atoms: C1_8  and  C2_9 
ROOT
HETATM    1  N3  UNL     1      26.086  56.490  46.069  1.00  0.00    -0.296 N 
ATOM      2  H3  UNL     1      25.067  56.548  46.054  1.00  0.00     0.187 HD
HETATM    3  C1  UNL     1      26.674  55.794  45.177  1.00  0.00     0.139 C 
ENDROOT
BRANCH   3   4
HETATM    4  C2  UNL     1      28.139  55.679  45.154  1.00  0.00     0.065 A 
HETATM    5  C3  UNL     1      29.029  56.529  44.537  1.00  0.00     0.119 A 
HETATM    6  N4  UNL     1      30.293  56.106  44.730  1.00  0.00    -0.360 N 
HETATM    7  C4  UNL     1      30.205  54.987  45.471  1.00  0.00     0.180 A 
ATOM      8  H4  UNL     1      31.146  56.547  44.384  1.00  0.00     0.166 HD
HETATM    9  N5  UNL     1      28.899  54.727  45.728  1.00  0.00    -0.350 N 
ATOM     10  H5  UNL     1      28.549  53.937  46.270  1.00  0.00     0.166 HD
ENDBRANCH   3   4
BRANCH   1  11
HETATM   11  N2  UNL     1      26.776  57.171  47.056  1.00  0.00    -0.250 N 
HETATM   12  N1  UNL     1      26.189  57.503  48.123  1.00  0.00    -0.331 N 
ATOM     13  H12 UNL     1      25.206  57.261  48.242  1.00  0.00     0.178 HD
ATOM     14  H11 UNL     1      26.699  58.004  48.850  1.00  0.00     0.178 HD
ATOM     15  H2  UNL     1      27.761  57.404  46.921  1.00  0.00     0.207 HD
ENDBRANCH   1  11
TORSDOF 2
ENDMDL
MODEL 5
REMARK VINA RESULT: -5.061818541      2.154      4.623
REMARK  2 active torsions:
REMARK  status: ('A' for Active; 'I' for Inactive)
REMARK    1  A    between atoms: N2_4  and  N3_6 
REMARK    2  A    between atoms: C1_8  and  C2_9 
ROOT
HETATM    1  N3  UNL     1      28.279  54.704  41.102  1.00  0.00    -0.296 N 
ATOM      2  H3  UNL     1      28.176  54.793  40.091  1.00  0.00     0.187 HD
HETATM    3  C1  UNL     1      28.134  55.742  41.829  1.00  0.00     0.139 C 
ENDROOT
BRANCH   3   4
HETATM    4  C2  UNL     1      28.271  55.666  43.289  1.00  0.00     0.065 A 
HETATM    5  C3  UNL     1      27.258  55.566  44.215  1.00  0.00     0.119 A 
HETATM    6  N4  UNL     1      27.763  55.519  45.462  1.00  0.00    -0.360 N 
HETATM    7  C4  UNL     1      29.100  55.590  45.328  1.00  0.00     0.180 A 
ATOM      8  H4  UNL     1      27.238  55.445  46.334  1.00  0.00     0.166 HD
HETATM    9  N5  UNL     1      29.408  55.679  44.011  1.00  0.00    -0.350 N 
ATOM     10  H5  UNL     1      30.352  55.745  43.628  1.00  0.00     0.166 HD
ENDBRANCH   3   4
BRANCH   1  11
HETATM   11  N2  UNL     1      28.572  53.460  41.634  1.00  0.00    -0.250 N 
HETATM   12  N1  UNL     1      28.415  52.421  40.933  1.00  0.00    -0.331 N 
ATOM     13  H12 UNL     1      28.073  52.516  39.977  1.00  0.00     0.178 HD
ATOM     14  H11 UNL     1      28.631  51.505  41.326  1.00  0.00     0.178 HD
ATOM     15  H2  UNL     1      28.914  53.383  42.592  1.00  0.00     0.207 HD
ENDBRANCH   1  11
TORSDOF 2
ENDMDL
