MODEL 1
REMARK VINA RESULT: -7.725167119      0.000      0.000
REMARK  11 active torsions:
REMARK  status: ('A' for Active; 'I' for Inactive)
REMARK    1  A    between atoms: C2_2  and  N1_3 
REMARK    2  A    between atoms: C2_2  and  C13_24 
REMARK       I    between atoms: N1_3  and  C3_5 
REMARK    3  A    between atoms: C3_5  and  C4_7 
REMARK    4  A    between atoms: C4_7  and  C5_9 
REMARK    5  A    between atoms: C5_9  and  C6_10 
REMARK    6  A    between atoms: C5_9  and  N5_18 
REMARK    7  A    between atoms: C6_10  and  C7_11 
REMARK    8  A    between atoms: C7_11  and  C8_12 
REMARK    9  A    between atoms: C8_12  and  N2_13 
REMARK   10  A    between atoms: N5_18  and  C10_19 
REMARK   11  A    between atoms: N5_18  and  C11_21 
REMARK       I    between atoms: C13_24  and  N7_26 
ROOT
HETATM    1  C11 UNL     1      -4.114   0.299  12.759  1.00  0.00     0.188 C 
HETATM    2  C12 UNL     1      -4.363  -0.122  14.111  1.00  0.00     0.105 C 
HETATM    3  N6  UNL     1      -4.568  -0.441  15.198  1.00  0.00    -0.191 NA
ENDROOT
BRANCH   1   4
HETATM    4  N5  UNL     1      -4.353   1.689  12.481  1.00  0.00    -0.313 N 
BRANCH   4   5
HETATM    5  C5  UNL     1      -3.802   2.725  13.337  1.00  0.00     0.172 C 
BRANCH   5   6
HETATM    6  C4  UNL     1      -2.639   3.347  12.574  1.00  0.00     0.239 C 
HETATM    7  O2  UNL     1      -1.564   2.687  12.411  1.00  0.00    -0.285 OA
BRANCH   6   8
HETATM    8  C3  UNL     1      -2.703   4.675  12.019  1.00  0.00     0.290 C 
HETATM    9  N1  UNL     1      -3.097   4.890  10.681  1.00  0.00    -0.342 N 
ATOM     10  H1  UNL     1      -3.336   4.077  10.113  1.00  0.00     0.163 HD
HETATM   11  O1  UNL     1      -2.413   5.697  12.696  1.00  0.00    -0.264 OA
BRANCH   9  12
HETATM   12  C2  UNL     1      -3.180   6.196  10.073  1.00  0.00     0.173 C 
HETATM   13  C1  UNL     1      -2.075   6.271   9.020  1.00  0.00     0.042 C 
BRANCH  12  14
HETATM   14  C13 UNL     1      -4.482   6.353   9.418  1.00  0.00     0.242 C 
HETATM   15  O4  UNL     1      -4.535   6.058   8.172  1.00  0.00    -0.271 OA
HETATM   16  N7  UNL     1      -5.653   6.804  10.077  1.00  0.00    -0.350 N 
HETATM   17  C14 UNL     1      -5.822   7.184  11.449  1.00  0.00     0.126 C 
HETATM   18  C17 UNL     1      -6.940   6.966   9.448  1.00  0.00     0.126 C 
HETATM   19  C15 UNL     1      -7.034   8.124  11.483  1.00  0.00     0.021 C 
HETATM   20  C16 UNL     1      -7.369   8.327  10.010  1.00  0.00     0.021 C 
ENDBRANCH  12  14
ENDBRANCH   9  12
ENDBRANCH   6   8
ENDBRANCH   5   6
BRANCH   5  21
HETATM   21  C6  UNL     1      -4.773   3.814  13.624  1.00  0.00     0.039 C 
BRANCH  21  22
HETATM   22  C7  UNL     1      -5.099   4.045  15.066  1.00  0.00     0.047 C 
BRANCH  22  23
HETATM   23  C8  UNL     1      -6.079   3.012  15.521  1.00  0.00     0.063 C 
BRANCH  23  24
HETATM   24  N2  UNL     1      -5.706   2.210  16.619  1.00  0.00    -0.347 N 
HETATM   25  C9  UNL     1      -6.286   1.253  17.187  1.00  0.00     0.200 C 
HETATM   26  N3  UNL     1      -5.605   0.650  18.304  1.00  0.00    -0.067 NA
HETATM   27  N4  UNL     1      -7.545   0.689  16.858  1.00  0.00    -0.067 NA
ATOM     28  H2  UNL     1      -4.802   2.451  17.025  1.00  0.00     0.167 HD
ENDBRANCH  23  24
ENDBRANCH  22  23
ENDBRANCH  21  22
ENDBRANCH   5  21
ENDBRANCH   4   5
BRANCH   4  29
HETATM   29  C10 UNL     1      -5.098   2.055  11.351  1.00  0.00     0.356 C 
HETATM   30  O3  UNL     1      -4.569   2.055  10.220  1.00  0.00    -0.283 OA
ENDBRANCH   4  29
ENDBRANCH   1   4
TORSDOF 11
ENDMDL
MODEL 2
REMARK VINA RESULT: -7.401471251      1.129      1.241
REMARK  11 active torsions:
REMARK  status: ('A' for Active; 'I' for Inactive)
REMARK    1  A    between atoms: C2_2  and  N1_3 
REMARK    2  A    between atoms: C2_2  and  C13_24 
REMARK       I    between atoms: N1_3  and  C3_5 
REMARK    3  A    between atoms: C3_5  and  C4_7 
REMARK    4  A    between atoms: C4_7  and  C5_9 
REMARK    5  A    between atoms: C5_9  and  C6_10 
REMARK    6  A    between atoms: C5_9  and  N5_18 
REMARK    7  A    between atoms: C6_10  and  C7_11 
REMARK    8  A    between atoms: C7_11  and  C8_12 
REMARK    9  A    between atoms: C8_12  and  N2_13 
REMARK   10  A    between atoms: N5_18  and  C10_19 
REMARK   11  A    between atoms: N5_18  and  C11_21 
REMARK       I    between atoms: C13_24  and  N7_26 
ROOT
HETATM    1  C11 UNL     1      -4.073   0.331  12.778  1.00  0.00     0.188 C 
HETATM    2  C12 UNL     1      -4.368  -0.105  14.116  1.00  0.00     0.105 C 
HETATM    3  N6  UNL     1      -4.610  -0.435  15.191  1.00  0.00    -0.191 NA
ENDROOT
BRANCH   1   4
HETATM    4  N5  UNL     1      -4.357   1.711  12.491  1.00  0.00    -0.313 N 
BRANCH   4   5
HETATM    5  C5  UNL     1      -3.801   2.771  13.312  1.00  0.00     0.172 C 
BRANCH   5   6
HETATM    6  C4  UNL     1      -2.665   3.393  12.509  1.00  0.00     0.239 C 
HETATM    7  O2  UNL     1      -1.549   2.790  12.419  1.00  0.00    -0.285 OA
BRANCH   6   8
HETATM    8  C3  UNL     1      -2.801   4.660  11.834  1.00  0.00     0.290 C 
HETATM    9  N1  UNL     1      -3.607   4.791  10.684  1.00  0.00    -0.342 N 
ATOM     10  H1  UNL     1      -4.094   3.964  10.339  1.00  0.00     0.163 HD
HETATM   11  O1  UNL     1      -2.211   5.697  12.236  1.00  0.00    -0.264 OA
BRANCH   9  12
HETATM   12  C2  UNL     1      -3.781   6.033   9.968  1.00  0.00     0.173 C 
HETATM   13  C1  UNL     1      -3.855   5.686   8.482  1.00  0.00     0.042 C 
BRANCH  12  14
HETATM   14  C13 UNL     1      -5.037   6.668  10.380  1.00  0.00     0.242 C 
HETATM   15  O4  UNL     1      -6.078   5.920  10.393  1.00  0.00    -0.271 OA
HETATM   16  N7  UNL     1      -5.154   8.030  10.752  1.00  0.00    -0.350 N 
HETATM   17  C14 UNL     1      -4.133   9.036  10.810  1.00  0.00     0.126 C 
HETATM   18  C17 UNL     1      -6.380   8.670  11.156  1.00  0.00     0.126 C 
HETATM   19  C15 UNL     1      -4.856  10.382  10.670  1.00  0.00     0.021 C 
HETATM   20  C16 UNL     1      -6.296   9.983  10.369  1.00  0.00     0.021 C 
ENDBRANCH  12  14
ENDBRANCH   9  12
ENDBRANCH   6   8
ENDBRANCH   5   6
BRANCH   5  21
HETATM   21  C6  UNL     1      -4.780   3.853  13.600  1.00  0.00     0.039 C 
BRANCH  21  22
HETATM   22  C7  UNL     1      -5.100   4.087  15.043  1.00  0.00     0.047 C 
BRANCH  22  23
HETATM   23  C8  UNL     1      -6.075   3.052  15.504  1.00  0.00     0.063 C 
BRANCH  23  24
HETATM   24  N2  UNL     1      -5.695   2.253  16.602  1.00  0.00    -0.347 N 
HETATM   25  C9  UNL     1      -6.268   1.294  17.172  1.00  0.00     0.200 C 
HETATM   26  N3  UNL     1      -5.580   0.695  18.287  1.00  0.00    -0.067 NA
HETATM   27  N4  UNL     1      -7.526   0.724  16.848  1.00  0.00    -0.067 NA
ATOM     28  H2  UNL     1      -4.791   2.498  17.005  1.00  0.00     0.167 HD
ENDBRANCH  23  24
ENDBRANCH  22  23
ENDBRANCH  21  22
ENDBRANCH   5  21
ENDBRANCH   4   5
BRANCH   4  29
HETATM   29  C10 UNL     1      -5.152   2.043  11.385  1.00  0.00     0.356 C 
HETATM   30  O3  UNL     1      -4.719   1.880  10.224  1.00  0.00    -0.283 OA
ENDBRANCH   4  29
ENDBRANCH   1   4
TORSDOF 11
ENDMDL
MODEL 3
REMARK VINA RESULT: -7.209709422      2.117      4.550
REMARK  11 active torsions:
REMARK  status: ('A' for Active; 'I' for Inactive)
REMARK    1  A    between atoms: C2_2  and  N1_3 
REMARK    2  A    between atoms: C2_2  and  C13_24 
REMARK       I    between atoms: N1_3  and  C3_5 
REMARK    3  A    between atoms: C3_5  and  C4_7 
REMARK    4  A    between atoms: C4_7  and  C5_9 
REMARK    5  A    between atoms: C5_9  and  C6_10 
REMARK    6  A    between atoms: C5_9  and  N5_18 
REMARK    7  A    between atoms: C6_10  and  C7_11 
REMARK    8  A    between atoms: C7_11  and  C8_12 
REMARK    9  A    between atoms: C8_12  and  N2_13 
REMARK   10  A    between atoms: N5_18  and  C10_19 
REMARK   11  A    between atoms: N5_18  and  C11_21 
REMARK       I    between atoms: C13_24  and  N7_26 
ROOT
HETATM    1  C11 UNL     1      -5.892   2.381  16.261  1.00  0.00     0.188 C 
HETATM    2  C12 UNL     1      -6.767   1.379  16.806  1.00  0.00     0.105 C 
HETATM    3  N6  UNL     1      -7.459   0.562  17.230  1.00  0.00    -0.191 NA
ENDROOT
BRANCH   1   4
HETATM    4  N5  UNL     1      -4.987   1.935  15.238  1.00  0.00    -0.313 N 
BRANCH   4   5
HETATM    5  C5  UNL     1      -4.631   2.802  14.129  1.00  0.00     0.172 C 
BRANCH   5   6
HETATM    6  C4  UNL     1      -3.588   3.780  14.657  1.00  0.00     0.239 C 
HETATM    7  O2  UNL     1      -2.590   3.345  15.315  1.00  0.00    -0.285 OA
BRANCH   6   8
HETATM    8  C3  UNL     1      -3.685   5.201  14.442  1.00  0.00     0.290 C 
HETATM    9  N1  UNL     1      -2.962   5.834  13.408  1.00  0.00    -0.342 N 
ATOM     10  H1  UNL     1      -2.366   5.257  12.814  1.00  0.00     0.163 HD
HETATM   11  O1  UNL     1      -4.411   5.938  15.160  1.00  0.00    -0.264 OA
BRANCH   9  12
HETATM   12  C2  UNL     1      -3.020   7.252  13.145  1.00  0.00     0.173 C 
HETATM   13  C1  UNL     1      -1.592   7.785  13.250  1.00  0.00     0.042 C 
BRANCH  12  14
HETATM   14  C13 UNL     1      -3.524   7.482  11.788  1.00  0.00     0.242 C 
HETATM   15  O4  UNL     1      -2.646   7.716  10.884  1.00  0.00    -0.271 OA
HETATM   16  N7  UNL     1      -4.897   7.459  11.436  1.00  0.00    -0.350 N 
HETATM   17  C14 UNL     1      -6.035   7.220  12.274  1.00  0.00     0.126 C 
HETATM   18  C17 UNL     1      -5.409   7.686  10.108  1.00  0.00     0.126 C 
HETATM   19  C15 UNL     1      -7.226   7.887  11.574  1.00  0.00     0.021 C 
HETATM   20  C16 UNL     1      -6.583   8.626  10.405  1.00  0.00     0.021 C 
ENDBRANCH  12  14
ENDBRANCH   9  12
ENDBRANCH   6   8
ENDBRANCH   5   6
BRANCH   5  21
HETATM   21  C6  UNL     1      -4.011   2.066  12.995  1.00  0.00     0.039 C 
BRANCH  21  22
HETATM   22  C7  UNL     1      -4.719   2.161  11.680  1.00  0.00     0.047 C 
BRANCH  22  23
HETATM   23  C8  UNL     1      -4.827   3.597  11.282  1.00  0.00     0.063 C 
BRANCH  23  24
HETATM   24  N2  UNL     1      -4.157   3.991  10.105  1.00  0.00    -0.347 N 
HETATM   25  C9  UNL     1      -2.957   4.286   9.889  1.00  0.00     0.200 C 
HETATM   26  N3  UNL     1      -2.610   4.651   8.539  1.00  0.00    -0.067 NA
HETATM   27  N4  UNL     1      -1.890   4.303  10.823  1.00  0.00    -0.067 NA
ATOM     28  H2  UNL     1      -4.756   4.047   9.281  1.00  0.00     0.167 HD
ENDBRANCH  23  24
ENDBRANCH  22  23
ENDBRANCH  21  22
ENDBRANCH   5  21
ENDBRANCH   4   5
BRANCH   4  29
HETATM   29  C10 UNL     1      -4.411   0.660  15.325  1.00  0.00     0.356 C 
HETATM   30  O3  UNL     1      -3.589   0.400  16.229  1.00  0.00    -0.283 OA
ENDBRANCH   4  29
ENDBRANCH   1   4
TORSDOF 11
ENDMDL
MODEL 4
REMARK VINA RESULT: -7.074623887      2.153      3.695
REMARK  11 active torsions:
REMARK  status: ('A' for Active; 'I' for Inactive)
REMARK    1  A    between atoms: C2_2  and  N1_3 
REMARK    2  A    between atoms: C2_2  and  C13_24 
REMARK       I    between atoms: N1_3  and  C3_5 
REMARK    3  A    between atoms: C3_5  and  C4_7 
REMARK    4  A    between atoms: C4_7  and  C5_9 
REMARK    5  A    between atoms: C5_9  and  C6_10 
REMARK    6  A    between atoms: C5_9  and  N5_18 
REMARK    7  A    between atoms: C6_10  and  C7_11 
REMARK    8  A    between atoms: C7_11  and  C8_12 
REMARK    9  A    between atoms: C8_12  and  N2_13 
REMARK   10  A    between atoms: N5_18  and  C10_19 
REMARK   11  A    between atoms: N5_18  and  C11_21 
REMARK       I    between atoms: C13_24  and  N7_26 
ROOT
HETATM    1  C11 UNL     1      -3.299   5.214  13.263  1.00  0.00     0.188 C 
HETATM    2  C12 UNL     1      -4.261   4.739  14.221  1.00  0.00     0.105 C 
HETATM    3  N6  UNL     1      -5.033   4.341  14.976  1.00  0.00    -0.191 NA
ENDROOT
BRANCH   1   4
HETATM    4  N5  UNL     1      -3.075   4.367  12.125  1.00  0.00    -0.313 N 
BRANCH   4   5
HETATM    5  C5  UNL     1      -4.152   4.065  11.198  1.00  0.00     0.172 C 
BRANCH   5   6
HETATM    6  C4  UNL     1      -3.748   4.657   9.853  1.00  0.00     0.239 C 
HETATM    7  O2  UNL     1      -3.013   3.985   9.061  1.00  0.00    -0.285 OA
BRANCH   6   8
HETATM    8  C3  UNL     1      -4.169   5.968   9.430  1.00  0.00     0.290 C 
HETATM    9  N1  UNL     1      -5.172   6.133   8.453  1.00  0.00    -0.342 N 
ATOM     10  H1  UNL     1      -5.595   5.297   8.050  1.00  0.00     0.163 HD
HETATM   11  O1  UNL     1      -3.665   7.018   9.909  1.00  0.00    -0.264 OA
BRANCH   9  12
HETATM   12  C2  UNL     1      -5.634   7.421   7.991  1.00  0.00     0.173 C 
HETATM   13  C1  UNL     1      -5.136   7.588   6.557  1.00  0.00     0.042 C 
BRANCH  12  14
HETATM   14  C13 UNL     1      -7.100   7.452   8.000  1.00  0.00     0.242 C 
HETATM   15  O4  UNL     1      -7.696   6.322   7.893  1.00  0.00    -0.271 OA
HETATM   16  N7  UNL     1      -7.869   8.637   8.116  1.00  0.00    -0.350 N 
HETATM   17  C14 UNL     1      -7.418   9.991   8.245  1.00  0.00     0.126 C 
HETATM   18  C17 UNL     1      -9.309   8.685   8.123  1.00  0.00     0.126 C 
HETATM   19  C15 UNL     1      -8.565  10.872   7.733  1.00  0.00     0.021 C 
HETATM   20  C16 UNL     1      -9.566   9.865   7.178  1.00  0.00     0.021 C 
ENDBRANCH  12  14
ENDBRANCH   9  12
ENDBRANCH   6   8
ENDBRANCH   5   6
BRANCH   5  21
HETATM   21  C6  UNL     1      -4.348   2.604  10.996  1.00  0.00     0.039 C 
BRANCH  21  22
HETATM   22  C7  UNL     1      -5.149   1.895  12.042  1.00  0.00     0.047 C 
BRANCH  22  23
HETATM   23  C8  UNL     1      -4.262   0.946  12.781  1.00  0.00     0.063 C 
BRANCH  23  24
HETATM   24  N2  UNL     1      -3.859   1.319  14.079  1.00  0.00    -0.347 N 
HETATM   25  C9  UNL     1      -4.102   0.817  15.204  1.00  0.00     0.200 C 
HETATM   26  N3  UNL     1      -3.516   1.468  16.347  1.00  0.00    -0.067 NA
HETATM   27  N4  UNL     1      -4.892  -0.326  15.486  1.00  0.00    -0.067 NA
ATOM     28  H2  UNL     1      -3.263   2.146  14.111  1.00  0.00     0.167 HD
ENDBRANCH  23  24
ENDBRANCH  22  23
ENDBRANCH  21  22
ENDBRANCH   5  21
ENDBRANCH   4   5
BRANCH   4  29
HETATM   29  C10 UNL     1      -1.795   3.851  11.881  1.00  0.00     0.356 C 
HETATM   30  O3  UNL     1      -1.412   2.813  12.461  1.00  0.00    -0.283 OA
ENDBRANCH   4  29
ENDBRANCH   1   4
TORSDOF 11
ENDMDL
MODEL 5
REMARK VINA RESULT: -7.051086429      2.741      3.710
REMARK  11 active torsions:
REMARK  status: ('A' for Active; 'I' for Inactive)
REMARK    1  A    between atoms: C2_2  and  N1_3 
REMARK    2  A    between atoms: C2_2  and  C13_24 
REMARK       I    between atoms: N1_3  and  C3_5 
REMARK    3  A    between atoms: C3_5  and  C4_7 
REMARK    4  A    between atoms: C4_7  and  C5_9 
REMARK    5  A    between atoms: C5_9  and  C6_10 
REMARK    6  A    between atoms: C5_9  and  N5_18 
REMARK    7  A    between atoms: C6_10  and  C7_11 
REMARK    8  A    between atoms: C7_11  and  C8_12 
REMARK    9  A    between atoms: C8_12  and  N2_13 
REMARK   10  A    between atoms: N5_18  and  C10_19 
REMARK   11  A    between atoms: N5_18  and  C11_21 
REMARK       I    between atoms: C13_24  and  N7_26 
ROOT
HETATM    1  C11 UNL     1      -4.241   0.355  12.757  1.00  0.00     0.188 C 
HETATM    2  C12 UNL     1      -4.424  -0.115  14.103  1.00  0.00     0.105 C 
HETATM    3  N6  UNL     1      -4.575  -0.472  15.187  1.00  0.00    -0.191 NA
ENDROOT
BRANCH   1   4
HETATM    4  N5  UNL     1      -4.400   1.769  12.559  1.00  0.00    -0.313 N 
BRANCH   4   5
HETATM    5  C5  UNL     1      -3.837   2.720  13.501  1.00  0.00     0.172 C 
BRANCH   5   6
HETATM    6  C4  UNL     1      -2.578   3.284  12.852  1.00  0.00     0.239 C 
HETATM    7  O2  UNL     1      -1.791   2.510  12.221  1.00  0.00    -0.285 OA
BRANCH   6   8
HETATM    8  C3  UNL     1      -2.234   4.681  12.924  1.00  0.00     0.290 C 
HETATM    9  N1  UNL     1      -3.145   5.680  12.520  1.00  0.00    -0.342 N 
ATOM     10  H1  UNL     1      -4.059   5.387  12.174  1.00  0.00     0.163 HD
HETATM   11  O1  UNL     1      -1.114   5.072  13.346  1.00  0.00    -0.264 OA
BRANCH   9  12
HETATM   12  C2  UNL     1      -2.855   7.093  12.571  1.00  0.00     0.173 C 
HETATM   13  C1  UNL     1      -4.026   7.814  11.904  1.00  0.00     0.042 C 
BRANCH  12  14
HETATM   14  C13 UNL     1      -2.754   7.526  13.967  1.00  0.00     0.242 C 
HETATM   15  O4  UNL     1      -3.729   7.211  14.736  1.00  0.00    -0.271 OA
HETATM   16  N7  UNL     1      -1.660   8.259  14.494  1.00  0.00    -0.350 N 
HETATM   17  C14 UNL     1      -0.477   8.712  13.824  1.00  0.00     0.126 C 
HETATM   18  C17 UNL     1      -1.546   8.695  15.863  1.00  0.00     0.126 C 
HETATM   19  C15 UNL     1       0.038   9.909  14.635  1.00  0.00     0.021 C 
HETATM   20  C16 UNL     1      -1.058  10.136  15.670  1.00  0.00     0.021 C 
ENDBRANCH  12  14
ENDBRANCH   9  12
ENDBRANCH   6   8
ENDBRANCH   5   6
BRANCH   5  21
HETATM   21  C6  UNL     1      -4.743   3.868  13.775  1.00  0.00     0.039 C 
BRANCH  21  22
HETATM   22  C7  UNL     1      -5.106   4.095  15.209  1.00  0.00     0.047 C 
BRANCH  22  23
HETATM   23  C8  UNL     1      -6.091   3.056  15.637  1.00  0.00     0.063 C 
BRANCH  23  24
HETATM   24  N2  UNL     1      -5.711   2.205  16.695  1.00  0.00    -0.347 N 
HETATM   25  C9  UNL     1      -6.284   1.219  17.219  1.00  0.00     0.200 C 
HETATM   26  N3  UNL     1      -5.596   0.568  18.305  1.00  0.00    -0.067 NA
HETATM   27  N4  UNL     1      -7.540   0.664  16.867  1.00  0.00    -0.067 NA
ATOM     28  H2  UNL     1      -4.807   2.432  17.110  1.00  0.00     0.167 HD
ENDBRANCH  23  24
ENDBRANCH  22  23
ENDBRANCH  21  22
ENDBRANCH   5  21
ENDBRANCH   4   5
BRANCH   4  29
HETATM   29  C10 UNL     1      -5.075   2.243  11.425  1.00  0.00     0.356 C 
HETATM   30  O3  UNL     1      -4.563   2.129  10.292  1.00  0.00    -0.283 OA
ENDBRANCH   4  29
ENDBRANCH   1   4
TORSDOF 11
ENDMDL
