MODEL 1
REMARK VINA RESULT: -6.689381851      0.000      0.000
REMARK  14 active torsions:
REMARK  status: ('A' for Active; 'I' for Inactive)
REMARK    1  A    between atoms: C2_2  and  C3_3 
REMARK    2  A    between atoms: C3_3  and  C6_6 
REMARK       I    between atoms: C6_6  and  N1_8 
REMARK    3  A    between atoms: N1_8  and  C7_9 
REMARK    4  A    between atoms: N1_8  and  C17_27 
REMARK    5  A    between atoms: C7_9  and  C8_10 
REMARK       I    between atoms: C8_10  and  N2_12 
REMARK    6  A    between atoms: N2_12  and  C9_14 
REMARK    7  A    between atoms: C9_14  and  C11_16 
REMARK       I    between atoms: C11_16  and  N3_18 
REMARK    8  A    between atoms: N3_18  and  C12_20 
REMARK    9  A    between atoms: C12_20  and  C13_21 
REMARK   10  A    between atoms: C12_20  and  C14_24 
REMARK   11  A    between atoms: C17_27  and  C18_28 
REMARK   12  A    between atoms: C17_27  and  C19_30 
REMARK   13  A    between atoms: C19_30  and  C20_31 
REMARK   14  A    between atoms: C19_30  and  C21_34 
ROOT
HETATM    1  C6  UNL     1      -2.820   5.086   8.599  1.00  0.00     0.229 C 
HETATM    2  O1  UNL     1      -2.354   3.881   8.641  1.00  0.00    -0.272 OA
HETATM    3  N1  UNL     1      -3.759   5.390   9.635  1.00  0.00    -0.328 N 
ENDROOT
BRANCH   3   4
HETATM    4  C7  UNL     1      -3.993   4.305  10.575  1.00  0.00     0.229 C 
BRANCH   4   5
HETATM    5  C8  UNL     1      -3.274   4.412  11.841  1.00  0.00     0.236 C 
HETATM    6  O2  UNL     1      -2.092   3.981  12.060  1.00  0.00    -0.272 OA
HETATM    7  N2  UNL     1      -3.924   5.045  12.935  1.00  0.00    -0.347 N 
ATOM      8  H2  UNL     1      -4.869   5.408  12.814  1.00  0.00     0.163 HD
BRANCH   7   9
HETATM    9  C9  UNL     1      -3.279   5.181  14.201  1.00  0.00     0.172 C 
HETATM   10  C10 UNL     1      -3.832   6.327  15.024  1.00  0.00     0.042 C 
BRANCH   9  11
HETATM   11  C11 UNL     1      -3.436   3.950  15.038  1.00  0.00     0.240 C 
HETATM   12  O3  UNL     1      -2.464   3.561  15.733  1.00  0.00    -0.271 OA
HETATM   13  N3  UNL     1      -4.640   3.217  15.066  1.00  0.00    -0.346 N 
ATOM     14  H3  UNL     1      -5.431   3.528  14.503  1.00  0.00     0.163 HD
BRANCH  13  15
HETATM   15  C12 UNL     1      -4.767   2.039  15.877  1.00  0.00     0.177 C 
BRANCH  15  16
HETATM   16  C13 UNL     1      -4.665   0.843  15.012  1.00  0.00     0.254 C 
HETATM   17  N4  UNL     1      -4.696  -0.470  15.554  1.00  0.00    -0.060 NA
HETATM   18  O4  UNL     1      -4.545   1.027  13.762  1.00  0.00    -0.275 OA
ENDBRANCH  15  16
BRANCH  15  19
HETATM   19  C14 UNL     1      -6.101   2.000  16.592  1.00  0.00     0.009 C 
HETATM   20  C15 UNL     1      -6.007   1.652  18.050  1.00  0.00     0.012 C 
HETATM   21  C16 UNL     1      -6.828   3.327  16.474  1.00  0.00     0.012 C 
ENDBRANCH  15  19
ENDBRANCH  13  15
ENDBRANCH   9  11
ENDBRANCH   7   9
ENDBRANCH   4   5
ENDBRANCH   3   4
BRANCH   3  22
HETATM   22  C17 UNL     1      -4.476   6.645   9.677  1.00  0.00     0.184 C 
BRANCH  22  23
HETATM   23  C18 UNL     1      -5.825   6.427   9.037  1.00  0.00     0.261 C 
HETATM   24  O5  UNL     1      -6.256   7.045   8.104  1.00  0.00    -0.304 OA
ENDBRANCH  22  23
BRANCH  22  25
HETATM   25  C19 UNL     1      -4.565   7.369  10.962  1.00  0.00     0.018 C 
BRANCH  25  26
HETATM   26  C20 UNL     1      -5.809   7.834  11.493  1.00  0.00     0.259 C 
HETATM   27  N5  UNL     1      -6.564   7.060  12.415  1.00  0.00    -0.058 NA
HETATM   28  O6  UNL     1      -6.321   8.932  11.204  1.00  0.00    -0.272 OA
ENDBRANCH  25  26
BRANCH  25  29
HETATM   29  C21 UNL     1      -3.433   8.386  11.031  1.00  0.00     0.022 A 
HETATM   30  C22 UNL     1      -2.093   7.996  11.561  1.00  0.00     0.010 A 
HETATM   31  C23 UNL     1      -2.983   8.997  12.292  1.00  0.00     0.010 A 
ENDBRANCH  25  29
ENDBRANCH  22  25
ENDBRANCH   3  22
BRANCH   1  32
HETATM   32  C3  UNL     1      -2.308   5.900   7.521  1.00  0.00     0.033 C 
HETATM   33  C4  UNL     1      -1.202   5.113   6.778  1.00  0.00     0.025 C 
HETATM   34  C5  UNL     1      -3.257   6.350   6.471  1.00  0.00     0.025 C 
BRANCH  32  35
HETATM   35  C2  UNL     1      -1.557   7.093   8.114  1.00  0.00     0.014 C 
HETATM   36  C1  UNL     1      -0.219   6.678   8.664  1.00  0.00     0.006 C 
ENDBRANCH  32  35
ENDBRANCH   1  32
TORSDOF 14
ENDMDL
MODEL 2
REMARK VINA RESULT: -6.464995217      2.065      3.506
REMARK  14 active torsions:
REMARK  status: ('A' for Active; 'I' for Inactive)
REMARK    1  A    between atoms: C2_2  and  C3_3 
REMARK    2  A    between atoms: C3_3  and  C6_6 
REMARK       I    between atoms: C6_6  and  N1_8 
REMARK    3  A    between atoms: N1_8  and  C7_9 
REMARK    4  A    between atoms: N1_8  and  C17_27 
REMARK    5  A    between atoms: C7_9  and  C8_10 
REMARK       I    between atoms: C8_10  and  N2_12 
REMARK    6  A    between atoms: N2_12  and  C9_14 
REMARK    7  A    between atoms: C9_14  and  C11_16 
REMARK       I    between atoms: C11_16  and  N3_18 
REMARK    8  A    between atoms: N3_18  and  C12_20 
REMARK    9  A    between atoms: C12_20  and  C13_21 
REMARK   10  A    between atoms: C12_20  and  C14_24 
REMARK   11  A    between atoms: C17_27  and  C18_28 
REMARK   12  A    between atoms: C17_27  and  C19_30 
REMARK   13  A    between atoms: C19_30  and  C20_31 
REMARK   14  A    between atoms: C19_30  and  C21_34 
ROOT
HETATM    1  C6  UNL     1      -2.388   6.498  10.858  1.00  0.00     0.229 C 
HETATM    2  O1  UNL     1      -1.653   5.452  11.050  1.00  0.00    -0.272 OA
HETATM    3  N1  UNL     1      -3.563   6.256  10.077  1.00  0.00    -0.328 N 
ENDROOT
BRANCH   3   4
HETATM    4  C7  UNL     1      -3.744   4.871   9.671  1.00  0.00     0.229 C 
BRANCH   4   5
HETATM    5  C8  UNL     1      -4.378   4.009  10.664  1.00  0.00     0.236 C 
HETATM    6  O2  UNL     1      -4.952   4.409  11.732  1.00  0.00    -0.272 OA
HETATM    7  N2  UNL     1      -4.368   2.605  10.446  1.00  0.00    -0.347 N 
ATOM      8  H2  UNL     1      -3.923   2.232   9.608  1.00  0.00     0.163 HD
BRANCH   7   9
HETATM    9  C9  UNL     1      -4.968   1.707  11.378  1.00  0.00     0.172 C 
HETATM   10  C10 UNL     1      -4.760   0.251  11.011  1.00  0.00     0.042 C 
BRANCH   9  11
HETATM   11  C11 UNL     1      -4.402   1.877  12.754  1.00  0.00     0.240 C 
HETATM   12  O3  UNL     1      -3.160   1.773  12.916  1.00  0.00    -0.271 OA
HETATM   13  N3  UNL     1      -5.222   2.150  13.868  1.00  0.00    -0.346 N 
ATOM     14  H3  UNL     1      -6.231   2.234  13.741  1.00  0.00     0.163 HD
BRANCH  13  15
HETATM   15  C12 UNL     1      -4.657   2.309  15.178  1.00  0.00     0.177 C 
BRANCH  15  16
HETATM   16  C13 UNL     1      -4.330   0.976  15.729  1.00  0.00     0.254 C 
HETATM   17  N4  UNL     1      -4.976  -0.200  15.259  1.00  0.00    -0.060 NA
HETATM   18  O4  UNL     1      -3.452   0.913  16.642  1.00  0.00    -0.275 OA
ENDBRANCH  15  16
BRANCH  15  19
HETATM   19  C14 UNL     1      -5.625   2.993  16.120  1.00  0.00     0.009 C 
HETATM   20  C15 UNL     1      -6.367   4.146  15.507  1.00  0.00     0.012 C 
HETATM   21  C16 UNL     1      -6.649   2.014  16.664  1.00  0.00     0.012 C 
ENDBRANCH  15  19
ENDBRANCH  13  15
ENDBRANCH   9  11
ENDBRANCH   7   9
ENDBRANCH   4   5
ENDBRANCH   3   4
BRANCH   3  22
HETATM   22  C17 UNL     1      -4.439   7.327   9.659  1.00  0.00     0.184 C 
BRANCH  22  23
HETATM   23  C18 UNL     1      -4.139   7.629   8.210  1.00  0.00     0.261 C 
HETATM   24  O5  UNL     1      -3.744   8.680   7.790  1.00  0.00    -0.304 OA
ENDBRANCH  22  23
BRANCH  22  25
HETATM   25  C19 UNL     1      -5.886   7.206   9.927  1.00  0.00     0.018 C 
BRANCH  25  26
HETATM   26  C20 UNL     1      -6.869   7.318   8.893  1.00  0.00     0.259 C 
HETATM   27  N5  UNL     1      -7.296   8.581   8.402  1.00  0.00    -0.058 NA
HETATM   28  O6  UNL     1      -7.416   6.342   8.346  1.00  0.00    -0.272 OA
ENDBRANCH  25  26
BRANCH  25  29
HETATM   29  C21 UNL     1      -6.217   7.984  11.194  1.00  0.00     0.022 A 
HETATM   30  C22 UNL     1      -6.444   7.272  12.486  1.00  0.00     0.010 A 
HETATM   31  C23 UNL     1      -7.567   8.025  11.779  1.00  0.00     0.010 A 
ENDBRANCH  25  29
ENDBRANCH  22  25
ENDBRANCH   3  22
BRANCH   1  32
HETATM   32  C3  UNL     1      -1.892   7.710  11.467  1.00  0.00     0.033 C 
HETATM   33  C4  UNL     1      -0.621   7.379  12.284  1.00  0.00     0.025 C 
HETATM   34  C5  UNL     1      -1.518   8.838  10.577  1.00  0.00     0.025 C 
BRANCH  32  35
HETATM   35  C2  UNL     1      -2.887   8.173  12.533  1.00  0.00     0.014 C 
HETATM   36  C1  UNL     1      -2.921   7.223  13.699  1.00  0.00     0.006 C 
ENDBRANCH  32  35
ENDBRANCH   1  32
TORSDOF 14
ENDMDL
MODEL 3
REMARK VINA RESULT: -6.453336964      2.270      4.346
REMARK  14 active torsions:
REMARK  status: ('A' for Active; 'I' for Inactive)
REMARK    1  A    between atoms: C2_2  and  C3_3 
REMARK    2  A    between atoms: C3_3  and  C6_6 
REMARK       I    between atoms: C6_6  and  N1_8 
REMARK    3  A    between atoms: N1_8  and  C7_9 
REMARK    4  A    between atoms: N1_8  and  C17_27 
REMARK    5  A    between atoms: C7_9  and  C8_10 
REMARK       I    between atoms: C8_10  and  N2_12 
REMARK    6  A    between atoms: N2_12  and  C9_14 
REMARK    7  A    between atoms: C9_14  and  C11_16 
REMARK       I    between atoms: C11_16  and  N3_18 
REMARK    8  A    between atoms: N3_18  and  C12_20 
REMARK    9  A    between atoms: C12_20  and  C13_21 
REMARK   10  A    between atoms: C12_20  and  C14_24 
REMARK   11  A    between atoms: C17_27  and  C18_28 
REMARK   12  A    between atoms: C17_27  and  C19_30 
REMARK   13  A    between atoms: C19_30  and  C20_31 
REMARK   14  A    between atoms: C19_30  and  C21_34 
ROOT
HETATM    1  C6  UNL     1      -1.629   7.764  12.479  1.00  0.00     0.229 C 
HETATM    2  O1  UNL     1      -1.352   7.929  13.731  1.00  0.00    -0.272 OA
HETATM    3  N1  UNL     1      -1.414   6.432  11.999  1.00  0.00    -0.328 N 
ENDROOT
BRANCH   3   4
HETATM    4  C7  UNL     1      -0.962   5.492  13.012  1.00  0.00     0.229 C 
BRANCH   4   5
HETATM    5  C8  UNL     1      -1.972   5.095  13.989  1.00  0.00     0.236 C 
HETATM    6  O2  UNL     1      -1.761   4.366  15.016  1.00  0.00    -0.272 OA
HETATM    7  N2  UNL     1      -3.306   5.545  13.802  1.00  0.00    -0.347 N 
ATOM      8  H2  UNL     1      -3.529   6.132  12.998  1.00  0.00     0.163 HD
BRANCH   7   9
HETATM    9  C9  UNL     1      -4.341   5.192  14.719  1.00  0.00     0.172 C 
HETATM   10  C10 UNL     1      -5.518   6.146  14.674  1.00  0.00     0.042 C 
BRANCH   9  11
HETATM   11  C11 UNL     1      -4.894   3.830  14.432  1.00  0.00     0.240 C 
HETATM   12  O3  UNL     1      -6.139   3.690  14.335  1.00  0.00    -0.271 OA
HETATM   13  N3  UNL     1      -4.059   2.707  14.269  1.00  0.00    -0.346 N 
ATOM     14  H3  UNL     1      -3.048   2.816  14.348  1.00  0.00     0.163 HD
BRANCH  13  15
HETATM   15  C12 UNL     1      -4.612   1.411  13.994  1.00  0.00     0.177 C 
BRANCH  15  16
HETATM   16  C13 UNL     1      -4.404   0.537  15.169  1.00  0.00     0.254 C 
HETATM   17  N4  UNL     1      -3.742   1.007  16.336  1.00  0.00    -0.060 NA
HETATM   18  O4  UNL     1      -4.835  -0.655  15.103  1.00  0.00    -0.275 OA
ENDBRANCH  15  16
BRANCH  15  19
HETATM   19  C14 UNL     1      -3.948   0.768  12.795  1.00  0.00     0.009 C 
HETATM   20  C15 UNL     1      -4.844   0.628  11.598  1.00  0.00     0.012 C 
HETATM   21  C16 UNL     1      -2.715   1.542  12.368  1.00  0.00     0.012 C 
ENDBRANCH  15  19
ENDBRANCH  13  15
ENDBRANCH   9  11
ENDBRANCH   7   9
ENDBRANCH   4   5
ENDBRANCH   3   4
BRANCH   3  22
HETATM   22  C17 UNL     1      -1.553   6.089  10.602  1.00  0.00     0.184 C 
BRANCH  22  23
HETATM   23  C18 UNL     1      -0.553   5.002  10.292  1.00  0.00     0.261 C 
HETATM   24  O5  UNL     1       0.375   5.110   9.541  1.00  0.00    -0.304 OA
ENDBRANCH  22  23
BRANCH  22  25
HETATM   25  C19 UNL     1      -2.900   5.790  10.075  1.00  0.00     0.018 C 
BRANCH  25  26
HETATM   26  C20 UNL     1      -3.555   4.540  10.313  1.00  0.00     0.259 C 
HETATM   27  N5  UNL     1      -4.604   4.416  11.262  1.00  0.00    -0.058 NA
HETATM   28  O6  UNL     1      -3.271   3.483   9.719  1.00  0.00    -0.272 OA
ENDBRANCH  25  26
BRANCH  25  29
HETATM   29  C21 UNL     1      -2.983   6.278   8.634  1.00  0.00     0.022 A 
HETATM   30  C22 UNL     1      -3.819   7.461   8.280  1.00  0.00     0.010 A 
HETATM   31  C23 UNL     1      -4.163   6.060   7.782  1.00  0.00     0.010 A 
ENDBRANCH  25  29
ENDBRANCH  22  25
ENDBRANCH   3  22
BRANCH   1  32
HETATM   32  C3  UNL     1      -2.104   8.946  11.800  1.00  0.00     0.033 C 
HETATM   33  C4  UNL     1      -1.924  10.169  12.731  1.00  0.00     0.025 C 
HETATM   34  C5  UNL     1      -1.462   9.321  10.514  1.00  0.00     0.025 C 
BRANCH  32  35
HETATM   35  C2  UNL     1      -3.622   8.848  11.635  1.00  0.00     0.014 C 
HETATM   36  C1  UNL     1      -4.168  10.033  10.884  1.00  0.00     0.006 C 
ENDBRANCH  32  35
ENDBRANCH   1  32
TORSDOF 14
ENDMDL
MODEL 4
REMARK VINA RESULT: -6.356024863      1.655      4.105
REMARK  14 active torsions:
REMARK  status: ('A' for Active; 'I' for Inactive)
REMARK    1  A    between atoms: C2_2  and  C3_3 
REMARK    2  A    between atoms: C3_3  and  C6_6 
REMARK       I    between atoms: C6_6  and  N1_8 
REMARK    3  A    between atoms: N1_8  and  C7_9 
REMARK    4  A    between atoms: N1_8  and  C17_27 
REMARK    5  A    between atoms: C7_9  and  C8_10 
REMARK       I    between atoms: C8_10  and  N2_12 
REMARK    6  A    between atoms: N2_12  and  C9_14 
REMARK    7  A    between atoms: C9_14  and  C11_16 
REMARK       I    between atoms: C11_16  and  N3_18 
REMARK    8  A    between atoms: N3_18  and  C12_20 
REMARK    9  A    between atoms: C12_20  and  C13_21 
REMARK   10  A    between atoms: C12_20  and  C14_24 
REMARK   11  A    between atoms: C17_27  and  C18_28 
REMARK   12  A    between atoms: C17_27  and  C19_30 
REMARK   13  A    between atoms: C19_30  and  C20_31 
REMARK   14  A    between atoms: C19_30  and  C21_34 
ROOT
HETATM    1  C6  UNL     1      -5.483   6.993  10.542  1.00  0.00     0.229 C 
HETATM    2  O1  UNL     1      -6.099   6.470  11.550  1.00  0.00    -0.272 OA
HETATM    3  N1  UNL     1      -4.444   6.173   9.996  1.00  0.00    -0.328 N 
ENDROOT
BRANCH   3   4
HETATM    4  C7  UNL     1      -4.292   4.881  10.645  1.00  0.00     0.229 C 
BRANCH   4   5
HETATM    5  C8  UNL     1      -3.422   4.872  11.818  1.00  0.00     0.236 C 
HETATM    6  O2  UNL     1      -2.183   4.562  11.817  1.00  0.00    -0.272 OA
HETATM    7  N2  UNL     1      -3.978   5.233  13.074  1.00  0.00    -0.347 N 
ATOM      8  H2  UNL     1      -4.963   5.490  13.131  1.00  0.00     0.163 HD
BRANCH   7   9
HETATM    9  C9  UNL     1      -3.183   5.243  14.259  1.00  0.00     0.172 C 
HETATM   10  C10 UNL     1      -3.528   6.388  15.191  1.00  0.00     0.042 C 
BRANCH   9  11
HETATM   11  C11 UNL     1      -3.360   3.987  15.055  1.00  0.00     0.240 C 
HETATM   12  O3  UNL     1      -2.386   3.544  15.714  1.00  0.00    -0.271 OA
HETATM   13  N3  UNL     1      -4.585   3.291  15.085  1.00  0.00    -0.346 N 
ATOM     14  H3  UNL     1      -5.379   3.646  14.551  1.00  0.00     0.163 HD
BRANCH  13  15
HETATM   15  C12 UNL     1      -4.731   2.088  15.856  1.00  0.00     0.177 C 
BRANCH  15  16
HETATM   16  C13 UNL     1      -4.619   0.920  14.955  1.00  0.00     0.254 C 
HETATM   17  N4  UNL     1      -4.288   1.071  13.581  1.00  0.00    -0.060 NA
HETATM   18  O4  UNL     1      -4.830  -0.229  15.450  1.00  0.00    -0.275 OA
ENDBRANCH  15  16
BRANCH  15  19
HETATM   19  C14 UNL     1      -6.078   2.033  16.547  1.00  0.00     0.009 C 
HETATM   20  C15 UNL     1      -6.008   1.658  17.999  1.00  0.00     0.012 C 
HETATM   21  C16 UNL     1      -6.806   3.360  16.440  1.00  0.00     0.012 C 
ENDBRANCH  15  19
ENDBRANCH  13  15
ENDBRANCH   9  11
ENDBRANCH   7   9
ENDBRANCH   4   5
ENDBRANCH   3   4
BRANCH   3  22
HETATM   22  C17 UNL     1      -3.569   6.642   8.945  1.00  0.00     0.184 C 
BRANCH  22  23
HETATM   23  C18 UNL     1      -2.259   7.042   9.581  1.00  0.00     0.261 C 
HETATM   24  O5  UNL     1      -1.783   8.142   9.552  1.00  0.00    -0.304 OA
ENDBRANCH  22  23
BRANCH  22  25
HETATM   25  C19 UNL     1      -3.386   5.802   7.745  1.00  0.00     0.018 C 
BRANCH  25  26
HETATM   26  C20 UNL     1      -2.196   5.042   7.517  1.00  0.00     0.259 C 
HETATM   27  N5  UNL     1      -1.291   5.367   6.471  1.00  0.00    -0.058 NA
HETATM   28  O6  UNL     1      -1.858   4.058   8.201  1.00  0.00    -0.272 OA
ENDBRANCH  25  26
BRANCH  25  29
HETATM   29  C21 UNL     1      -3.884   6.570   6.528  1.00  0.00     0.022 A 
HETATM   30  C22 UNL     1      -3.869   8.062   6.512  1.00  0.00     0.010 A 
HETATM   31  C23 UNL     1      -5.176   7.275   6.499  1.00  0.00     0.010 A 
ENDBRANCH  25  29
ENDBRANCH  22  25
ENDBRANCH   3  22
BRANCH   1  32
HETATM   32  C3  UNL     1      -5.956   8.301  10.152  1.00  0.00     0.033 C 
HETATM   33  C4  UNL     1      -6.919   8.833  11.239  1.00  0.00     0.025 C 
HETATM   34  C5  UNL     1      -4.952   9.375   9.942  1.00  0.00     0.025 C 
BRANCH  32  35
HETATM   35  C2  UNL     1      -6.855   8.158   8.922  1.00  0.00     0.014 C 
HETATM   36  C1  UNL     1      -8.310   8.159   9.306  1.00  0.00     0.006 C 
ENDBRANCH  32  35
ENDBRANCH   1  32
TORSDOF 14
ENDMDL
MODEL 5
REMARK VINA RESULT: -6.342938868      2.035      3.986
REMARK  14 active torsions:
REMARK  status: ('A' for Active; 'I' for Inactive)
REMARK    1  A    between atoms: C2_2  and  C3_3 
REMARK    2  A    between atoms: C3_3  and  C6_6 
REMARK       I    between atoms: C6_6  and  N1_8 
REMARK    3  A    between atoms: N1_8  and  C7_9 
REMARK    4  A    between atoms: N1_8  and  C17_27 
REMARK    5  A    between atoms: C7_9  and  C8_10 
REMARK       I    between atoms: C8_10  and  N2_12 
REMARK    6  A    between atoms: N2_12  and  C9_14 
REMARK    7  A    between atoms: C9_14  and  C11_16 
REMARK       I    between atoms: C11_16  and  N3_18 
REMARK    8  A    between atoms: N3_18  and  C12_20 
REMARK    9  A    between atoms: C12_20  and  C13_21 
REMARK   10  A    between atoms: C12_20  and  C14_24 
REMARK   11  A    between atoms: C17_27  and  C18_28 
REMARK   12  A    between atoms: C17_27  and  C19_30 
REMARK   13  A    between atoms: C19_30  and  C20_31 
REMARK   14  A    between atoms: C19_30  and  C21_34 
ROOT
HETATM    1  C6  UNL     1      -1.388   8.321  11.866  1.00  0.00     0.229 C 
HETATM    2  O1  UNL     1      -0.186   7.855  11.766  1.00  0.00    -0.272 OA
HETATM    3  N1  UNL     1      -2.271   7.898  10.822  1.00  0.00    -0.328 N 
ENDROOT
BRANCH   3   4
HETATM    4  C7  UNL     1      -1.673   6.988   9.857  1.00  0.00     0.229 C 
BRANCH   4   5
HETATM    5  C8  UNL     1      -1.776   5.571  10.191  1.00  0.00     0.236 C 
HETATM    6  O2  UNL     1      -1.894   4.619   9.349  1.00  0.00    -0.272 OA
HETATM    7  N2  UNL     1      -1.745   5.195  11.561  1.00  0.00    -0.347 N 
ATOM      8  H2  UNL     1      -1.651   5.917  12.276  1.00  0.00     0.163 HD
BRANCH   7   9
HETATM    9  C9  UNL     1      -1.843   3.828  11.956  1.00  0.00     0.172 C 
HETATM   10  C10 UNL     1      -0.496   3.137  12.026  1.00  0.00     0.042 C 
BRANCH   9  11
HETATM   11  C11 UNL     1      -2.458   3.686  13.314  1.00  0.00     0.240 C 
HETATM   12  O3  UNL     1      -1.860   4.179  14.304  1.00  0.00    -0.271 OA
HETATM   13  N3  UNL     1      -3.682   3.018  13.511  1.00  0.00    -0.346 N 
ATOM     14  H3  UNL     1      -4.171   2.615  12.710  1.00  0.00     0.163 HD
BRANCH  13  15
HETATM   15  C12 UNL     1      -4.253   2.895  14.823  1.00  0.00     0.177 C 
BRANCH  15  16
HETATM   16  C13 UNL     1      -4.286   1.466  15.204  1.00  0.00     0.254 C 
HETATM   17  N4  UNL     1      -3.781   1.019  16.455  1.00  0.00    -0.060 NA
HETATM   18  O4  UNL     1      -4.781   0.645  14.373  1.00  0.00    -0.275 OA
ENDBRANCH  15  16
BRANCH  15  19
HETATM   19  C14 UNL     1      -5.666   3.435  14.866  1.00  0.00     0.009 C 
HETATM   20  C15 UNL     1      -6.419   3.091  16.119  1.00  0.00     0.012 C 
HETATM   21  C16 UNL     1      -5.684   4.945  14.710  1.00  0.00     0.012 C 
ENDBRANCH  15  19
ENDBRANCH  13  15
ENDBRANCH   9  11
ENDBRANCH   7   9
ENDBRANCH   4   5
ENDBRANCH   3   4
BRANCH   3  22
HETATM   22  C17 UNL     1      -3.617   8.413  10.700  1.00  0.00     0.184 C 
BRANCH  22  23
HETATM   23  C18 UNL     1      -3.779   8.953   9.300  1.00  0.00     0.261 C 
HETATM   24  O5  UNL     1      -3.839  10.115   9.009  1.00  0.00    -0.304 OA
ENDBRANCH  22  23
BRANCH  22  25
HETATM   25  C19 UNL     1      -4.746   7.555  11.113  1.00  0.00     0.018 C 
BRANCH  25  26
HETATM   26  C20 UNL     1      -5.027   6.303  10.480  1.00  0.00     0.259 C 
HETATM   27  N5  UNL     1      -5.004   5.079  11.201  1.00  0.00    -0.058 NA
HETATM   28  O6  UNL     1      -5.312   6.183   9.273  1.00  0.00    -0.272 OA
ENDBRANCH  25  26
BRANCH  25  29
HETATM   29  C21 UNL     1      -5.970   8.431  11.342  1.00  0.00     0.022 A 
HETATM   30  C22 UNL     1      -7.199   7.870  11.975  1.00  0.00     0.010 A 
HETATM   31  C23 UNL     1      -7.189   8.335  10.522  1.00  0.00     0.010 A 
ENDBRANCH  25  29
ENDBRANCH  22  25
ENDBRANCH   3  22
BRANCH   1  32
HETATM   32  C3  UNL     1      -1.618   9.175  13.007  1.00  0.00     0.033 C 
HETATM   33  C4  UNL     1      -0.257   9.522  13.658  1.00  0.00     0.025 C 
HETATM   34  C5  UNL     1      -2.301  10.475  12.784  1.00  0.00     0.025 C 
BRANCH  32  35
HETATM   35  C2  UNL     1      -2.334   8.371  14.094  1.00  0.00     0.014 C 
HETATM   36  C1  UNL     1      -1.906   8.806  15.469  1.00  0.00     0.006 C 
ENDBRANCH  32  35
ENDBRANCH   1  32
TORSDOF 14
ENDMDL
