MODEL 1
REMARK VINA RESULT: -7.164021150      0.000      0.000
REMARK  6 active torsions:
REMARK  status: ('A' for Active; 'I' for Inactive)
REMARK    1  A    between atoms: N1_1  and  N2_4 
REMARK    2  A    between atoms: N2_4  and  C1_6 
REMARK    3  A    between atoms: C1_6  and  N3_8 
REMARK    4  A    between atoms: N3_8  and  C2_10 
REMARK    5  A    between atoms: C3_15  and  S2_16 
REMARK    6  A    between atoms: S2_16  and  N6_17 
ROOT
HETATM    1  C2  UNL     1      36.130  49.305   9.071  1.00  0.00     0.701 A 
HETATM    2  N4  UNL     1      36.991  48.493   8.464  1.00  0.00    -0.130 N 
ATOM      3  H4  UNL     1      37.944  48.719   8.178  1.00  0.00     0.205 HD
HETATM    4  N5  UNL     1      36.374  47.338   8.303  1.00  0.00    -0.260 N 
ATOM      5  H5  UNL     1      36.773  46.507   7.865  1.00  0.00     0.190 HD
HETATM    6  C3  UNL     1      35.135  47.438   8.810  1.00  0.00     0.253 A 
HETATM    7  N7  UNL     1      34.964  48.678   9.302  1.00  0.00    -0.162 N 
ATOM      8  H7  UNL     1      34.131  49.059   9.751  1.00  0.00     0.186 HD
ENDROOT
BRANCH   1   9
HETATM    9  N3  UNL     1      36.409  50.525   9.384  1.00  0.00    -0.163 N 
ATOM     10  H3  UNL     1      37.276  50.959   9.066  1.00  0.00     0.186 HD
BRANCH   9  11
HETATM   11  C1  UNL     1      35.491  51.244  10.175  1.00  0.00     0.204 C 
HETATM   12  S1  UNL     1      34.408  52.190   9.422  1.00  0.00    -0.039 SA
BRANCH  11  13
HETATM   13  N2  UNL     1      35.522  51.137  11.585  1.00  0.00    -0.282 N 
ATOM     14  H2  UNL     1      35.928  50.307  12.014  1.00  0.00     0.189 HD
BRANCH  13  15
HETATM   15  N1  UNL     1      35.001  52.157  12.408  1.00  0.00    -0.343 N 
ATOM     16  H12 UNL     1      34.468  52.910  11.971  1.00  0.00     0.176 HD
ATOM     17  H11 UNL     1      35.149  52.151  13.417  1.00  0.00     0.176 HD
ENDBRANCH  13  15
ENDBRANCH  11  13
ENDBRANCH   9  11
ENDBRANCH   1   9
BRANCH   6  18
HETATM   18  S2  UNL     1      33.977  46.108   8.795  1.00  0.00     0.290 S 
HETATM   19  O1  UNL     1      32.888  46.520   7.821  1.00  0.00    -0.198 OA
HETATM   20  O2  UNL     1      33.417  45.858  10.144  1.00  0.00    -0.198 OA
BRANCH  18  21
HETATM   21  N6  UNL     1      34.807  44.707   8.270  1.00  0.00    -0.322 N 
ATOM     22  H62 UNL     1      35.670  44.700   7.726  1.00  0.00     0.169 HD
ATOM     23  H61 UNL     1      34.283  43.897   8.600  1.00  0.00     0.169 HD
ENDBRANCH  18  21
ENDBRANCH   6  18
TORSDOF 6
ENDMDL
MODEL 2
REMARK VINA RESULT: -7.151293974      3.005      5.474
REMARK  6 active torsions:
REMARK  status: ('A' for Active; 'I' for Inactive)
REMARK    1  A    between atoms: N1_1  and  N2_4 
REMARK    2  A    between atoms: N2_4  and  C1_6 
REMARK    3  A    between atoms: C1_6  and  N3_8 
REMARK    4  A    between atoms: N3_8  and  C2_10 
REMARK    5  A    between atoms: C3_15  and  S2_16 
REMARK    6  A    between atoms: S2_16  and  N6_17 
ROOT
HETATM    1  C2  UNL     1      35.456  48.298   9.348  1.00  0.00     0.701 A 
HETATM    2  N4  UNL     1      36.573  48.445   8.640  1.00  0.00    -0.130 N 
ATOM      3  H4  UNL     1      37.086  47.711   8.151  1.00  0.00     0.205 HD
HETATM    4  N5  UNL     1      36.891  49.724   8.694  1.00  0.00    -0.260 N 
ATOM      5  H5  UNL     1      37.701  50.155   8.247  1.00  0.00     0.190 HD
HETATM    6  C3  UNL     1      35.971  50.365   9.433  1.00  0.00     0.253 A 
HETATM    7  N7  UNL     1      35.054  49.476   9.854  1.00  0.00    -0.162 N 
ATOM      8  H7  UNL     1      34.233  49.657  10.432  1.00  0.00     0.186 HD
ENDROOT
BRANCH   1   9
HETATM    9  N3  UNL     1      34.864  47.163   9.505  1.00  0.00    -0.163 N 
ATOM     10  H3  UNL     1      35.078  46.570  10.307  1.00  0.00     0.186 HD
BRANCH   9  11
HETATM   11  C1  UNL     1      33.915  46.760   8.543  1.00  0.00     0.204 C 
HETATM   12  S1  UNL     1      32.673  47.757   8.230  1.00  0.00    -0.039 SA
BRANCH  11  13
HETATM   13  N2  UNL     1      34.052  45.521   7.876  1.00  0.00    -0.282 N 
ATOM     14  H2  UNL     1      33.637  45.401   6.953  1.00  0.00     0.189 HD
BRANCH  13  15
HETATM   15  N1  UNL     1      34.752  44.447   8.465  1.00  0.00    -0.343 N 
ATOM     16  H12 UNL     1      34.438  43.496   8.267  1.00  0.00     0.176 HD
ATOM     17  H11 UNL     1      35.553  44.608   9.075  1.00  0.00     0.176 HD
ENDBRANCH  13  15
ENDBRANCH  11  13
ENDBRANCH   9  11
ENDBRANCH   1   9
BRANCH   6  18
HETATM   18  S2  UNL     1      36.028  52.098   9.752  1.00  0.00     0.290 S 
HETATM   19  O1  UNL     1      35.295  52.754   8.596  1.00  0.00    -0.198 OA
HETATM   20  O2  UNL     1      37.422  52.589   9.845  1.00  0.00    -0.198 OA
BRANCH  18  21
HETATM   21  N6  UNL     1      35.241  52.374  11.246  1.00  0.00    -0.322 N 
ATOM     22  H62 UNL     1      35.521  51.978  12.143  1.00  0.00     0.169 HD
ATOM     23  H61 UNL     1      34.455  52.999  11.069  1.00  0.00     0.169 HD
ENDBRANCH  18  21
ENDBRANCH   6  18
TORSDOF 6
ENDMDL
MODEL 3
REMARK VINA RESULT: -6.927800580      1.120      1.318
REMARK  6 active torsions:
REMARK  status: ('A' for Active; 'I' for Inactive)
REMARK    1  A    between atoms: N1_1  and  N2_4 
REMARK    2  A    between atoms: N2_4  and  C1_6 
REMARK    3  A    between atoms: C1_6  and  N3_8 
REMARK    4  A    between atoms: N3_8  and  C2_10 
REMARK    5  A    between atoms: C3_15  and  S2_16 
REMARK    6  A    between atoms: S2_16  and  N6_17 
ROOT
HETATM    1  C2  UNL     1      35.635  49.437  10.059  1.00  0.00     0.701 A 
HETATM    2  N4  UNL     1      36.642  48.944   9.342  1.00  0.00    -0.130 N 
ATOM      3  H4  UNL     1      37.614  49.253   9.365  1.00  0.00     0.205 HD
HETATM    4  N5  UNL     1      36.141  47.979   8.596  1.00  0.00    -0.260 N 
ATOM      5  H5  UNL     1      36.665  47.406   7.935  1.00  0.00     0.190 HD
HETATM    6  C3  UNL     1      34.827  47.876   8.852  1.00  0.00     0.253 A 
HETATM    7  N7  UNL     1      34.490  48.792   9.777  1.00  0.00    -0.162 N 
ATOM      8  H7  UNL     1      33.567  48.961  10.178  1.00  0.00     0.186 HD
ENDROOT
BRANCH   1   9
HETATM    9  N3  UNL     1      35.774  50.403  10.902  1.00  0.00    -0.163 N 
ATOM     10  H3  UNL     1      36.320  50.276  11.755  1.00  0.00     0.186 HD
BRANCH   9  11
HETATM   11  C1  UNL     1      35.154  51.638  10.619  1.00  0.00     0.204 C 
HETATM   12  S1  UNL     1      35.510  52.368   9.215  1.00  0.00    -0.039 SA
BRANCH  11  13
HETATM   13  N2  UNL     1      34.250  52.213  11.542  1.00  0.00    -0.282 N 
ATOM     14  H2  UNL     1      34.536  53.032  12.077  1.00  0.00     0.189 HD
BRANCH  13  15
HETATM   15  N1  UNL     1      32.960  51.676  11.734  1.00  0.00    -0.343 N 
ATOM     16  H12 UNL     1      32.243  51.871  11.034  1.00  0.00     0.176 HD
ATOM     17  H11 UNL     1      32.740  51.105  12.550  1.00  0.00     0.176 HD
ENDBRANCH  13  15
ENDBRANCH  11  13
ENDBRANCH   9  11
ENDBRANCH   1   9
BRANCH   6  18
HETATM   18  S2  UNL     1      33.779  46.700   8.059  1.00  0.00     0.290 S 
HETATM   19  O1  UNL     1      33.862  47.008   6.576  1.00  0.00    -0.198 OA
HETATM   20  O2  UNL     1      32.383  46.798   8.546  1.00  0.00    -0.198 OA
BRANCH  18  21
HETATM   21  N6  UNL     1      34.385  45.141   8.423  1.00  0.00    -0.322 N 
ATOM     22  H62 UNL     1      35.337  44.821   8.245  1.00  0.00     0.169 HD
ATOM     23  H61 UNL     1      33.626  44.606   8.843  1.00  0.00     0.169 HD
ENDBRANCH  18  21
ENDBRANCH   6  18
TORSDOF 6
ENDMDL
MODEL 4
REMARK VINA RESULT: -6.892152596      1.434      1.640
REMARK  6 active torsions:
REMARK  status: ('A' for Active; 'I' for Inactive)
REMARK    1  A    between atoms: N1_1  and  N2_4 
REMARK    2  A    between atoms: N2_4  and  C1_6 
REMARK    3  A    between atoms: C1_6  and  N3_8 
REMARK    4  A    between atoms: N3_8  and  C2_10 
REMARK    5  A    between atoms: C3_15  and  S2_16 
REMARK    6  A    between atoms: S2_16  and  N6_17 
ROOT
HETATM    1  C2  UNL     1      35.639  49.434  10.288  1.00  0.00     0.701 A 
HETATM    2  N4  UNL     1      36.595  49.176   9.400  1.00  0.00    -0.130 N 
ATOM      3  H4  UNL     1      37.515  49.614   9.351  1.00  0.00     0.205 HD
HETATM    4  N5  UNL     1      36.122  48.245   8.593  1.00  0.00    -0.260 N 
ATOM      5  H5  UNL     1      36.621  47.834   7.804  1.00  0.00     0.190 HD
HETATM    6  C3  UNL     1      34.877  47.929   8.985  1.00  0.00     0.253 A 
HETATM    7  N7  UNL     1      34.556  48.672  10.058  1.00  0.00    -0.162 N 
ATOM      8  H7  UNL     1      33.681  48.661  10.583  1.00  0.00     0.186 HD
ENDROOT
BRANCH   1   9
HETATM    9  N3  UNL     1      35.768  50.303  11.233  1.00  0.00    -0.163 N 
ATOM     10  H3  UNL     1      36.365  50.113  12.038  1.00  0.00     0.186 HD
BRANCH   9  11
HETATM   11  C1  UNL     1      35.065  51.521  11.127  1.00  0.00     0.204 C 
HETATM   12  S1  UNL     1      33.724  51.710  12.019  1.00  0.00    -0.039 SA
BRANCH  11  13
HETATM   13  N2  UNL     1      35.527  52.541  10.263  1.00  0.00    -0.282 N 
ATOM     14  H2  UNL     1      34.850  53.107   9.751  1.00  0.00     0.189 HD
BRANCH  13  15
HETATM   15  N1  UNL     1      36.905  52.791  10.097  1.00  0.00    -0.343 N 
ATOM     16  H12 UNL     1      37.454  53.047  10.918  1.00  0.00     0.176 HD
ATOM     17  H11 UNL     1      37.349  52.721   9.181  1.00  0.00     0.176 HD
ENDBRANCH  13  15
ENDBRANCH  11  13
ENDBRANCH   9  11
ENDBRANCH   1   9
BRANCH   6  18
HETATM   18  S2  UNL     1      33.888  46.719   8.168  1.00  0.00     0.290 S 
HETATM   19  O1  UNL     1      33.814  47.159   6.717  1.00  0.00    -0.198 OA
HETATM   20  O2  UNL     1      32.536  46.627   8.766  1.00  0.00    -0.198 OA
BRANCH  18  21
HETATM   21  N6  UNL     1      34.674  45.209   8.338  1.00  0.00    -0.322 N 
ATOM     22  H62 UNL     1      35.468  45.021   8.950  1.00  0.00     0.169 HD
ATOM     23  H61 UNL     1      34.205  44.546   7.722  1.00  0.00     0.169 HD
ENDBRANCH  18  21
ENDBRANCH   6  18
TORSDOF 6
ENDMDL
MODEL 5
REMARK VINA RESULT: -6.829292659      3.275      5.766
REMARK  6 active torsions:
REMARK  status: ('A' for Active; 'I' for Inactive)
REMARK    1  A    between atoms: N1_1  and  N2_4 
REMARK    2  A    between atoms: N2_4  and  C1_6 
REMARK    3  A    between atoms: C1_6  and  N3_8 
REMARK    4  A    between atoms: N3_8  and  C2_10 
REMARK    5  A    between atoms: C3_15  and  S2_16 
REMARK    6  A    between atoms: S2_16  and  N6_17 
ROOT
HETATM    1  C2  UNL     1      33.715  48.706   9.601  1.00  0.00     0.701 A 
HETATM    2  N4  UNL     1      33.201  49.681   8.857  1.00  0.00    -0.130 N 
ATOM      3  H4  UNL     1      32.610  49.571   8.032  1.00  0.00     0.205 HD
HETATM    4  N5  UNL     1      33.602  50.818   9.391  1.00  0.00    -0.260 N 
ATOM      5  H5  UNL     1      33.372  51.751   9.047  1.00  0.00     0.190 HD
HETATM    6  C3  UNL     1      34.362  50.545  10.463  1.00  0.00     0.253 A 
HETATM    7  N7  UNL     1      34.443  49.211  10.612  1.00  0.00    -0.162 N 
ATOM      8  H7  UNL     1      34.948  48.695  11.333  1.00  0.00     0.186 HD
ENDROOT
BRANCH   1   9
HETATM    9  N3  UNL     1      33.520  47.454   9.359  1.00  0.00    -0.163 N 
ATOM     10  H3  UNL     1      32.715  46.966   9.752  1.00  0.00     0.186 HD
BRANCH   9  11
HETATM   11  C1  UNL     1      34.444  46.775   8.538  1.00  0.00     0.204 C 
HETATM   12  S1  UNL     1      35.905  47.445   8.316  1.00  0.00    -0.039 SA
BRANCH  11  13
HETATM   13  N2  UNL     1      34.096  45.546   7.932  1.00  0.00    -0.282 N 
ATOM     14  H2  UNL     1      33.371  45.530   7.215  1.00  0.00     0.189 HD
BRANCH  13  15
HETATM   15  N1  UNL     1      34.733  44.343   8.299  1.00  0.00    -0.343 N 
ATOM     16  H12 UNL     1      34.690  44.049   9.275  1.00  0.00     0.176 HD
ATOM     17  H11 UNL     1      35.228  43.774   7.612  1.00  0.00     0.176 HD
ENDBRANCH  13  15
ENDBRANCH  11  13
ENDBRANCH   9  11
ENDBRANCH   1   9
BRANCH   6  18
HETATM   18  S2  UNL     1      35.099  51.794  11.466  1.00  0.00     0.290 S 
HETATM   19  O1  UNL     1      36.084  51.072  12.367  1.00  0.00    -0.198 OA
HETATM   20  O2  UNL     1      34.084  52.521  12.264  1.00  0.00    -0.198 OA
BRANCH  18  21
HETATM   21  N6  UNL     1      35.880  52.901  10.421  1.00  0.00    -0.322 N 
ATOM     22  H62 UNL     1      36.406  52.652   9.583  1.00  0.00     0.169 HD
ATOM     23  H61 UNL     1      35.722  53.838  10.791  1.00  0.00     0.169 HD
ENDBRANCH  18  21
ENDBRANCH   6  18
TORSDOF 6
ENDMDL
