MODEL 1
REMARK VINA RESULT: -4.295554097      0.000      0.000
REMARK  9 active torsions:
REMARK  status: ('A' for Active; 'I' for Inactive)
REMARK    1  A    between atoms: C2_2  and  C3_3 
REMARK    2  A    between atoms: C3_3  and  O1_4 
REMARK    3  A    between atoms: C3_3  and  C4_6 
REMARK    4  A    between atoms: C5_7  and  C6_8 
REMARK    5  A    between atoms: C7_9  and  O2_10 
REMARK    6  A    between atoms: C10_14  and  O3_15 
REMARK    7  A    between atoms: C11_17  and  C12_18 
REMARK    8  A    between atoms: C12_18  and  C13_19 
REMARK    9  A    between atoms: C14_20  and  C15_21 
ROOT
HETATM    1  C6  UNL     1      49.466  27.490  15.476  1.00  0.00     0.043 C 
HETATM    2  C7  UNL     1      49.229  26.822  16.814  1.00  0.00     0.126 C 
HETATM    3  C8  UNL     1      48.114  25.798  16.730  1.00  0.00     0.035 C 
HETATM    4  C9  UNL     1      46.846  26.516  16.419  1.00  0.00     0.034 C 
HETATM    5  C10 UNL     1      46.965  27.529  15.313  1.00  0.00     0.123 C 
HETATM    6  C11 UNL     1      48.266  27.387  14.569  1.00  0.00     0.028 C 
ENDROOT
BRANCH   1   7
HETATM    7  C5  UNL     1      50.563  26.738  14.807  1.00  0.00    -0.020 C 
HETATM    8  C4  UNL     1      51.292  25.824  15.410  1.00  0.00     0.005 C 
BRANCH   8   9
HETATM    9  C3  UNL     1      52.364  25.120  14.681  1.00  0.00     0.163 C 
BRANCH   9  10
HETATM   10  C2  UNL     1      52.009  23.701  14.391  1.00  0.00    -0.002 C 
HETATM   11  C1  UNL     1      50.981  23.136  15.009  1.00  0.00     0.010 C 
ENDBRANCH   9  10
BRANCH   9  12
HETATM   12  O1  UNL     1      53.508  25.096  15.486  1.00  0.00    -0.388 OA
ATOM     13  H1  UNL     1      54.034  25.849  15.241  1.00  0.00     0.210 HD
ENDBRANCH   9  12
ENDBRANCH   8   9
ENDBRANCH   1   7
BRANCH   2  14
HETATM   14  O2  UNL     1      48.890  27.750  17.799  1.00  0.00    -0.395 OA
ATOM     15  H2  UNL     1      49.291  27.536  18.634  1.00  0.00     0.210 HD
ENDBRANCH   2  14
BRANCH   6  16
HETATM   16  C12 UNL     1      48.392  28.378  13.444  1.00  0.00     0.034 C 
BRANCH  16  17
HETATM   17  C13 UNL     1      47.235  28.439  12.554  1.00  0.00    -0.030 C 
HETATM   18  C14 UNL     1      47.340  28.672  11.259  1.00  0.00    -0.031 C 
BRANCH  18  19
HETATM   19  C15 UNL     1      48.576  28.905  10.491  1.00  0.00     0.022 C 
HETATM   20  C16 UNL     1      48.269  29.512   9.118  1.00  0.00     0.009 C 
ENDBRANCH  18  19
ENDBRANCH  16  17
ENDBRANCH   6  16
BRANCH   5  21
HETATM   21  O3  UNL     1      46.792  28.780  15.864  1.00  0.00    -0.395 OA
ATOM     22  H3  UNL     1      46.164  29.251  15.328  1.00  0.00     0.210 HD
ENDBRANCH   5  21
TORSDOF 9
ENDMDL
MODEL 2
REMARK VINA RESULT: -4.283254033      2.402      6.342
REMARK  9 active torsions:
REMARK  status: ('A' for Active; 'I' for Inactive)
REMARK    1  A    between atoms: C2_2  and  C3_3 
REMARK    2  A    between atoms: C3_3  and  O1_4 
REMARK    3  A    between atoms: C3_3  and  C4_6 
REMARK    4  A    between atoms: C5_7  and  C6_8 
REMARK    5  A    between atoms: C7_9  and  O2_10 
REMARK    6  A    between atoms: C10_14  and  O3_15 
REMARK    7  A    between atoms: C11_17  and  C12_18 
REMARK    8  A    between atoms: C12_18  and  C13_19 
REMARK    9  A    between atoms: C14_20  and  C15_21 
ROOT
HETATM    1  C6  UNL     1      47.985  27.880  12.291  1.00  0.00     0.043 C 
HETATM    2  C7  UNL     1      46.487  28.091  12.369  1.00  0.00     0.126 C 
HETATM    3  C8  UNL     1      46.138  29.235  13.302  1.00  0.00     0.035 C 
HETATM    4  C9  UNL     1      46.555  28.853  14.681  1.00  0.00     0.034 C 
HETATM    5  C10 UNL     1      47.937  28.261  14.768  1.00  0.00     0.123 C 
HETATM    6  C11 UNL     1      48.702  28.453  13.486  1.00  0.00     0.028 C 
ENDROOT
BRANCH   1   7
HETATM    7  C5  UNL     1      48.466  28.645  11.107  1.00  0.00    -0.020 C 
HETATM    8  C4  UNL     1      47.687  29.013  10.113  1.00  0.00     0.005 C 
BRANCH   8   9
HETATM    9  C3  UNL     1      48.236  29.769   8.971  1.00  0.00     0.163 C 
BRANCH   9  10
HETATM   10  C2  UNL     1      47.272  30.778   8.448  1.00  0.00    -0.002 C 
HETATM   11  C1  UNL     1      46.004  30.747   8.838  1.00  0.00     0.010 C 
ENDBRANCH   9  10
BRANCH   9  12
HETATM   12  O1  UNL     1      48.494  28.874   7.927  1.00  0.00    -0.388 OA
ATOM     13  H1  UNL     1      48.731  28.045   8.326  1.00  0.00     0.210 HD
ENDBRANCH   9  12
ENDBRANCH   8   9
ENDBRANCH   1   7
BRANCH   2  14
HETATM   14  O2  UNL     1      45.830  26.947  12.824  1.00  0.00    -0.395 OA
ATOM     15  H2  UNL     1      45.422  26.471  12.111  1.00  0.00     0.210 HD
ENDBRANCH   2  14
BRANCH   6  16
HETATM   16  C12 UNL     1      50.095  27.886  13.563  1.00  0.00     0.034 C 
BRANCH  16  17
HETATM   17  C13 UNL     1      50.756  28.070  14.853  1.00  0.00    -0.030 C 
HETATM   18  C14 UNL     1      51.289  27.072  15.532  1.00  0.00    -0.031 C 
BRANCH  18  19
HETATM   19  C15 UNL     1      51.324  25.649  15.149  1.00  0.00     0.022 C 
HETATM   20  C16 UNL     1      52.756  25.105  15.169  1.00  0.00     0.009 C 
ENDBRANCH  18  19
ENDBRANCH  16  17
ENDBRANCH   6  16
BRANCH   5  21
HETATM   21  O3  UNL     1      47.808  26.937  15.127  1.00  0.00    -0.395 OA
ATOM     22  H3  UNL     1      48.680  26.566  15.190  1.00  0.00     0.210 HD
ENDBRANCH   5  21
TORSDOF 9
ENDMDL
MODEL 3
REMARK VINA RESULT: -3.756215832      2.085      5.153
REMARK  9 active torsions:
REMARK  status: ('A' for Active; 'I' for Inactive)
REMARK    1  A    between atoms: C2_2  and  C3_3 
REMARK    2  A    between atoms: C3_3  and  O1_4 
REMARK    3  A    between atoms: C3_3  and  C4_6 
REMARK    4  A    between atoms: C5_7  and  C6_8 
REMARK    5  A    between atoms: C7_9  and  O2_10 
REMARK    6  A    between atoms: C10_14  and  O3_15 
REMARK    7  A    between atoms: C11_17  and  C12_18 
REMARK    8  A    between atoms: C12_18  and  C13_19 
REMARK    9  A    between atoms: C14_20  and  C15_21 
ROOT
HETATM    1  C6  UNL     1      49.906  24.629  14.680  1.00  0.00     0.043 C 
HETATM    2  C7  UNL     1      49.651  23.156  14.924  1.00  0.00     0.126 C 
HETATM    3  C8  UNL     1      50.533  22.621  16.036  1.00  0.00     0.035 C 
HETATM    4  C9  UNL     1      51.951  22.706  15.587  1.00  0.00     0.034 C 
HETATM    5  C10 UNL     1      52.322  24.023  14.958  1.00  0.00     0.123 C 
HETATM    6  C11 UNL     1      51.258  25.064  15.184  1.00  0.00     0.028 C 
ENDROOT
BRANCH   1   7
HETATM    7  C5  UNL     1      48.899  25.379  15.482  1.00  0.00    -0.020 C 
HETATM    8  C4  UNL     1      48.702  25.185  16.768  1.00  0.00     0.005 C 
BRANCH   8   9
HETATM    9  C3  UNL     1      47.685  25.966  17.496  1.00  0.00     0.163 C 
BRANCH   9  10
HETATM   10  C2  UNL     1      47.627  27.382  17.035  1.00  0.00    -0.002 C 
HETATM   11  C1  UNL     1      46.776  27.734  16.080  1.00  0.00     0.010 C 
ENDBRANCH   9  10
BRANCH   9  12
HETATM   12  O1  UNL     1      48.031  25.994  18.852  1.00  0.00    -0.388 OA
ATOM     13  H1  UNL     1      48.907  25.632  18.921  1.00  0.00     0.210 HD
ENDBRANCH   9  12
ENDBRANCH   8   9
ENDBRANCH   1   7
BRANCH   2  14
HETATM   14  O2  UNL     1      49.891  22.397  13.779  1.00  0.00    -0.395 OA
ATOM     15  H2  UNL     1      49.256  22.581  13.097  1.00  0.00     0.210 HD
ENDBRANCH   2  14
BRANCH   6  16
HETATM   16  C12 UNL     1      51.623  26.393  14.581  1.00  0.00     0.034 C 
BRANCH  16  17
HETATM   17  C13 UNL     1      51.131  27.553  15.319  1.00  0.00    -0.030 C 
HETATM   18  C14 UNL     1      50.201  28.361  14.845  1.00  0.00    -0.031 C 
BRANCH  18  19
HETATM   19  C15 UNL     1      49.509  28.262  13.548  1.00  0.00     0.022 C 
HETATM   20  C16 UNL     1      48.500  29.401  13.370  1.00  0.00     0.009 C 
ENDBRANCH  18  19
ENDBRANCH  16  17
ENDBRANCH   6  16
BRANCH   5  21
HETATM   21  O3  UNL     1      52.580  23.796  13.624  1.00  0.00    -0.395 OA
ATOM     22  H3  UNL     1      52.150  24.479  13.123  1.00  0.00     0.210 HD
ENDBRANCH   5  21
TORSDOF 9
ENDMDL
MODEL 4
REMARK VINA RESULT: -3.706639193      1.638      5.633
REMARK  9 active torsions:
REMARK  status: ('A' for Active; 'I' for Inactive)
REMARK    1  A    between atoms: C2_2  and  C3_3 
REMARK    2  A    between atoms: C3_3  and  O1_4 
REMARK    3  A    between atoms: C3_3  and  C4_6 
REMARK    4  A    between atoms: C5_7  and  C6_8 
REMARK    5  A    between atoms: C7_9  and  O2_10 
REMARK    6  A    between atoms: C10_14  and  O3_15 
REMARK    7  A    between atoms: C11_17  and  C12_18 
REMARK    8  A    between atoms: C12_18  and  C13_19 
REMARK    9  A    between atoms: C14_20  and  C15_21 
ROOT
HETATM    1  C6  UNL     1      48.329  27.214  14.269  1.00  0.00     0.043 C 
HETATM    2  C7  UNL     1      47.154  27.688  15.098  1.00  0.00     0.126 C 
HETATM    3  C8  UNL     1      47.616  28.365  16.374  1.00  0.00     0.035 C 
HETATM    4  C9  UNL     1      48.308  27.347  17.216  1.00  0.00     0.034 C 
HETATM    5  C10 UNL     1      49.295  26.493  16.466  1.00  0.00     0.123 C 
HETATM    6  C11 UNL     1      49.578  27.047  15.095  1.00  0.00     0.028 C 
ENDROOT
BRANCH   1   7
HETATM    7  C5  UNL     1      48.621  28.289  13.281  1.00  0.00    -0.020 C 
HETATM    8  C4  UNL     1      48.067  28.352  12.089  1.00  0.00     0.005 C 
BRANCH   8   9
HETATM    9  C3  UNL     1      48.407  29.450  11.163  1.00  0.00     0.163 C 
BRANCH   9  10
HETATM   10  C2  UNL     1      48.440  28.997   9.743  1.00  0.00    -0.002 C 
HETATM   11  C1  UNL     1      47.967  29.785   8.785  1.00  0.00     0.010 C 
ENDBRANCH   9  10
BRANCH   9  12
HETATM   12  O1  UNL     1      49.691  29.912  11.472  1.00  0.00    -0.388 OA
ATOM     13  H1  UNL     1      50.211  29.150  11.702  1.00  0.00     0.210 HD
ENDBRANCH   9  12
ENDBRANCH   8   9
ENDBRANCH   1   7
BRANCH   2  14
HETATM   14  O2  UNL     1      46.314  26.631  15.450  1.00  0.00    -0.395 OA
ATOM     15  H2  UNL     1      45.402  26.837  15.278  1.00  0.00     0.210 HD
ENDBRANCH   2  14
BRANCH   6  16
HETATM   16  C12 UNL     1      50.581  26.217  14.341  1.00  0.00     0.034 C 
BRANCH  16  17
HETATM   17  C13 UNL     1      51.823  25.956  15.064  1.00  0.00    -0.030 C 
HETATM   18  C14 UNL     1      52.383  24.762  15.117  1.00  0.00    -0.031 C 
BRANCH  18  19
HETATM   19  C15 UNL     1      51.896  23.520  14.492  1.00  0.00     0.022 C 
HETATM   20  C16 UNL     1      51.043  22.705  15.470  1.00  0.00     0.009 C 
ENDBRANCH  18  19
ENDBRANCH  16  17
ENDBRANCH   6  16
BRANCH   5  21
HETATM   21  O3  UNL     1      48.805  25.206  16.438  1.00  0.00    -0.395 OA
ATOM     22  H3  UNL     1      48.963  24.814  17.289  1.00  0.00     0.210 HD
ENDBRANCH   5  21
TORSDOF 9
ENDMDL
MODEL 5
REMARK VINA RESULT: -3.643804800      1.767      1.964
REMARK  9 active torsions:
REMARK  status: ('A' for Active; 'I' for Inactive)
REMARK    1  A    between atoms: C2_2  and  C3_3 
REMARK    2  A    between atoms: C3_3  and  O1_4 
REMARK    3  A    between atoms: C3_3  and  C4_6 
REMARK    4  A    between atoms: C5_7  and  C6_8 
REMARK    5  A    between atoms: C7_9  and  O2_10 
REMARK    6  A    between atoms: C10_14  and  O3_15 
REMARK    7  A    between atoms: C11_17  and  C12_18 
REMARK    8  A    between atoms: C12_18  and  C13_19 
REMARK    9  A    between atoms: C14_20  and  C15_21 
ROOT
HETATM    1  C6  UNL     1      49.667  26.602  14.465  1.00  0.00     0.043 C 
HETATM    2  C7  UNL     1      49.783  26.819  15.959  1.00  0.00     0.126 C 
HETATM    3  C8  UNL     1      48.419  26.857  16.620  1.00  0.00     0.035 C 
HETATM    4  C9  UNL     1      47.686  28.048  16.105  1.00  0.00     0.034 C 
HETATM    5  C10 UNL     1      47.757  28.219  14.612  1.00  0.00     0.123 C 
HETATM    6  C11 UNL     1      48.309  26.990  13.939  1.00  0.00     0.028 C 
ENDROOT
BRANCH   1   7
HETATM    7  C5  UNL     1      49.804  25.138  14.230  1.00  0.00    -0.020 C 
HETATM    8  C4  UNL     1      50.341  24.309  15.099  1.00  0.00     0.005 C 
BRANCH   8   9
HETATM    9  C3  UNL     1      50.443  22.869  14.795  1.00  0.00     0.163 C 
BRANCH   9  10
HETATM   10  C2  UNL     1      51.634  22.554  13.955  1.00  0.00    -0.002 C 
HETATM   11  C1  UNL     1      51.983  21.291  13.748  1.00  0.00     0.010 C 
ENDBRANCH   9  10
BRANCH   9  12
HETATM   12  O1  UNL     1      49.315  22.488  14.061  1.00  0.00    -0.388 OA
ATOM     13  H1  UNL     1      48.974  23.274  13.651  1.00  0.00     0.210 HD
ENDBRANCH   9  12
ENDBRANCH   8   9
ENDBRANCH   1   7
BRANCH   2  14
HETATM   14  O2  UNL     1      50.440  28.014  16.255  1.00  0.00    -0.395 OA
ATOM     15  H2  UNL     1      51.153  28.181  15.650  1.00  0.00     0.210 HD
ENDBRANCH   2  14
BRANCH   6  16
HETATM   16  C12 UNL     1      48.365  27.136  12.442  1.00  0.00     0.034 C 
BRANCH  16  17
HETATM   17  C13 UNL     1      47.191  27.771  11.847  1.00  0.00    -0.030 C 
HETATM   18  C14 UNL     1      47.275  28.682  10.896  1.00  0.00    -0.031 C 
BRANCH  18  19
HETATM   19  C15 UNL     1      48.500  29.214  10.275  1.00  0.00     0.022 C 
HETATM   20  C16 UNL     1      48.239  29.671   8.836  1.00  0.00     0.009 C 
ENDBRANCH  18  19
ENDBRANCH  16  17
ENDBRANCH   6  16
BRANCH   5  21
HETATM   21  O3  UNL     1      48.493  29.354  14.350  1.00  0.00    -0.395 OA
ATOM     22  H3  UNL     1      48.048  29.839  13.666  1.00  0.00     0.210 HD
ENDBRANCH   5  21
TORSDOF 9
ENDMDL
