MODEL 1
REMARK VINA RESULT: -7.854371046      0.000      0.000
REMARK  6 active torsions:
REMARK  status: ('A' for Active; 'I' for Inactive)
REMARK    1  A    between atoms: C1_2  and  C2_3 
REMARK    2  A    between atoms: C1_2  and  C10_18 
REMARK    3  A    between atoms: C2_3  and  N2_4 
REMARK       I    between atoms: N2_4  and  C3_6 
REMARK       I    between atoms: C3_6  and  N3_8 
REMARK    4  A    between atoms: N3_8  and  N4_10 
REMARK    5  A    between atoms: C4_12  and  C5_13 
REMARK    6  A    between atoms: C10_18  and  C11_19 
ROOT
HETATM    1  N2  UNL     1      50.604  24.676  14.738  1.00  0.00    -0.337 N 
ATOM      2  H2  UNL     1      51.354  25.017  14.136  1.00  0.00     0.164 HD
HETATM    3  C3  UNL     1      49.585  25.562  15.138  1.00  0.00     0.335 C 
HETATM    4  O1  UNL     1      48.669  25.152  15.874  1.00  0.00    -0.246 OA
HETATM    5  N3  UNL     1      49.595  26.905  14.714  1.00  0.00    -0.252 N 
ATOM      6  H3  UNL     1      50.342  27.250  14.110  1.00  0.00     0.191 HD
ENDROOT
BRANCH   1   7
HETATM    7  C2  UNL     1      50.614  23.281  15.166  1.00  0.00     0.178 C 
BRANCH   7   8
HETATM    8  C1  UNL     1      51.972  22.656  14.932  1.00  0.00     0.038 C 
HETATM    9  N1  UNL     1      52.876  23.651  14.466  1.00  0.00    -0.106 NA
BRANCH   8  10
HETATM   10  C10 UNL     1      51.997  21.327  14.330  1.00  0.00     0.002 C 
BRANCH  10  11
HETATM   11  C11 UNL     1      51.781  21.065  12.920  1.00  0.00     0.010 C 
HETATM   12  C12 UNL     1      51.294  19.716  12.455  1.00  0.00     0.008 C 
HETATM   13  C13 UNL     1      52.056  19.986  11.159  1.00  0.00     0.001 C 
HETATM   14  C14 UNL     1      52.837  21.097  11.893  1.00  0.00     0.008 C 
ENDBRANCH  10  11
ENDBRANCH   8  10
ENDBRANCH   7   8
ENDBRANCH   1   7
BRANCH   5  15
HETATM   15  N4  UNL     1      48.571  27.759  15.127  1.00  0.00    -0.311 N 
HETATM   16  C4  UNL     1      47.805  28.389  14.312  1.00  0.00     0.085 C 
ATOM     17  H4  UNL     1      48.424  27.889  16.128  1.00  0.00     0.185 HD
BRANCH  16  18
HETATM   18  C5  UNL     1      47.987  28.228  12.869  1.00  0.00     0.025 C 
HETATM   19  C6  UNL     1      46.671  28.414  12.109  1.00  0.00     0.010 C 
HETATM   20  C7  UNL     1      47.138  28.677  10.700  1.00  0.00     0.001 C 
HETATM   21  C8  UNL     1      48.562  29.127  10.778  1.00  0.00     0.001 C 
HETATM   22  C9  UNL     1      48.831  29.345  12.262  1.00  0.00     0.010 C 
ENDBRANCH  16  18
ENDBRANCH   5  15
TORSDOF 6
ENDMDL
MODEL 2
REMARK VINA RESULT: -7.701147562      1.114      1.116
REMARK  6 active torsions:
REMARK  status: ('A' for Active; 'I' for Inactive)
REMARK    1  A    between atoms: C1_2  and  C2_3 
REMARK    2  A    between atoms: C1_2  and  C10_18 
REMARK    3  A    between atoms: C2_3  and  N2_4 
REMARK       I    between atoms: N2_4  and  C3_6 
REMARK       I    between atoms: C3_6  and  N3_8 
REMARK    4  A    between atoms: N3_8  and  N4_10 
REMARK    5  A    between atoms: C4_12  and  C5_13 
REMARK    6  A    between atoms: C10_18  and  C11_19 
ROOT
HETATM    1  N2  UNL     1      50.238  24.534  14.669  1.00  0.00    -0.337 N 
ATOM      2  H2  UNL     1      49.399  24.027  14.386  1.00  0.00     0.164 HD
HETATM    3  C3  UNL     1      50.156  25.919  14.910  1.00  0.00     0.335 C 
HETATM    4  O1  UNL     1      51.176  26.544  15.255  1.00  0.00    -0.246 OA
HETATM    5  N3  UNL     1      48.933  26.602  14.765  1.00  0.00    -0.252 N 
ATOM      6  H3  UNL     1      48.091  26.098  14.482  1.00  0.00     0.191 HD
ENDROOT
BRANCH   1   7
HETATM    7  C2  UNL     1      51.495  23.807  14.814  1.00  0.00     0.178 C 
BRANCH   7   8
HETATM    8  C1  UNL     1      51.242  22.324  14.979  1.00  0.00     0.038 C 
HETATM    9  N1  UNL     1      50.969  22.041  16.346  1.00  0.00    -0.106 NA
BRANCH   8  10
HETATM   10  C10 UNL     1      52.090  21.416  14.215  1.00  0.00     0.002 C 
BRANCH  10  11
HETATM   11  C11 UNL     1      51.834  21.018  12.844  1.00  0.00     0.010 C 
HETATM   12  C12 UNL     1      51.496  19.588  12.509  1.00  0.00     0.008 C 
HETATM   13  C13 UNL     1      52.147  19.844  11.152  1.00  0.00     0.001 C 
HETATM   14  C14 UNL     1      52.821  21.096  11.753  1.00  0.00     0.008 C 
ENDBRANCH  10  11
ENDBRANCH   8  10
ENDBRANCH   7   8
ENDBRANCH   1   7
BRANCH   5  15
HETATM   15  N4  UNL     1      48.884  27.975  15.011  1.00  0.00    -0.311 N 
HETATM   16  C4  UNL     1      48.633  28.846  14.102  1.00  0.00     0.085 C 
ATOM     17  H4  UNL     1      49.057  28.302  15.962  1.00  0.00     0.185 HD
BRANCH  16  18
HETATM   18  C5  UNL     1      48.382  28.413  12.728  1.00  0.00     0.025 C 
HETATM   19  C6  UNL     1      46.894  28.484  12.375  1.00  0.00     0.010 C 
HETATM   20  C7  UNL     1      46.910  28.467  10.868  1.00  0.00     0.001 C 
HETATM   21  C8  UNL     1      48.276  28.890  10.431  1.00  0.00     0.001 C 
HETATM   22  C9  UNL     1      48.967  29.377  11.698  1.00  0.00     0.010 C 
ENDBRANCH  16  18
ENDBRANCH   5  15
TORSDOF 6
ENDMDL
MODEL 3
REMARK VINA RESULT: -7.600544502      0.712      1.123
REMARK  6 active torsions:
REMARK  status: ('A' for Active; 'I' for Inactive)
REMARK    1  A    between atoms: C1_2  and  C2_3 
REMARK    2  A    between atoms: C1_2  and  C10_18 
REMARK    3  A    between atoms: C2_3  and  N2_4 
REMARK       I    between atoms: N2_4  and  C3_6 
REMARK       I    between atoms: C3_6  and  N3_8 
REMARK    4  A    between atoms: N3_8  and  N4_10 
REMARK    5  A    between atoms: C4_12  and  C5_13 
REMARK    6  A    between atoms: C10_18  and  C11_19 
ROOT
HETATM    1  N2  UNL     1      51.111  24.986  14.911  1.00  0.00    -0.337 N 
ATOM      2  H2  UNL     1      51.801  25.400  14.284  1.00  0.00     0.164 HD
HETATM    3  C3  UNL     1      49.972  25.734  15.269  1.00  0.00     0.335 C 
HETATM    4  O1  UNL     1      49.126  25.235  16.035  1.00  0.00    -0.246 OA
HETATM    5  N3  UNL     1      49.783  27.037  14.772  1.00  0.00    -0.252 N 
ATOM      6  H3  UNL     1      50.471  27.455  14.144  1.00  0.00     0.191 HD
ENDROOT
BRANCH   1   7
HETATM    7  C2  UNL     1      51.326  23.634  15.414  1.00  0.00     0.178 C 
BRANCH   7   8
HETATM    8  C1  UNL     1      51.144  22.614  14.311  1.00  0.00     0.038 C 
HETATM    9  N1  UNL     1      49.756  22.421  14.071  1.00  0.00    -0.106 NA
BRANCH   8  10
HETATM   10  C10 UNL     1      52.037  21.461  14.319  1.00  0.00     0.002 C 
BRANCH  10  11
HETATM   11  C11 UNL     1      52.285  20.612  13.169  1.00  0.00     0.010 C 
HETATM   12  C12 UNL     1      52.708  21.208  11.850  1.00  0.00     0.008 C 
HETATM   13  C13 UNL     1      52.007  20.022  11.191  1.00  0.00     0.001 C 
HETATM   14  C14 UNL     1      51.268  19.765  12.521  1.00  0.00     0.008 C 
ENDBRANCH  10  11
ENDBRANCH   8  10
ENDBRANCH   7   8
ENDBRANCH   1   7
BRANCH   5  15
HETATM   15  N4  UNL     1      48.644  27.752  15.146  1.00  0.00    -0.311 N 
HETATM   16  C4  UNL     1      47.848  28.304  14.304  1.00  0.00     0.085 C 
ATOM     17  H4  UNL     1      48.434  27.841  16.141  1.00  0.00     0.185 HD
BRANCH  16  18
HETATM   18  C5  UNL     1      48.118  28.198  12.870  1.00  0.00     0.025 C 
HETATM   19  C6  UNL     1      46.830  28.266  12.045  1.00  0.00     0.010 C 
HETATM   20  C7  UNL     1      47.337  28.610  10.668  1.00  0.00     0.001 C 
HETATM   21  C8  UNL     1      48.701  29.202  10.829  1.00  0.00     0.001 C 
HETATM   22  C9  UNL     1      48.870  29.411  12.328  1.00  0.00     0.010 C 
ENDBRANCH  16  18
ENDBRANCH   5  15
TORSDOF 6
ENDMDL
MODEL 4
REMARK VINA RESULT: -7.527137042      1.331      7.545
REMARK  6 active torsions:
REMARK  status: ('A' for Active; 'I' for Inactive)
REMARK    1  A    between atoms: C1_2  and  C2_3 
REMARK    2  A    between atoms: C1_2  and  C10_18 
REMARK    3  A    between atoms: C2_3  and  N2_4 
REMARK       I    between atoms: N2_4  and  C3_6 
REMARK       I    between atoms: C3_6  and  N3_8 
REMARK    4  A    between atoms: N3_8  and  N4_10 
REMARK    5  A    between atoms: C4_12  and  C5_13 
REMARK    6  A    between atoms: C10_18  and  C11_19 
ROOT
HETATM    1  N2  UNL     1      50.120  25.137  14.599  1.00  0.00    -0.337 N 
ATOM      2  H2  UNL     1      49.286  24.814  14.108  1.00  0.00     0.164 HD
HETATM    3  C3  UNL     1      51.089  24.198  15.002  1.00  0.00     0.335 C 
HETATM    4  O1  UNL     1      52.108  24.586  15.603  1.00  0.00    -0.246 OA
HETATM    5  N3  UNL     1      50.915  22.826  14.733  1.00  0.00    -0.252 N 
ATOM      6  H3  UNL     1      50.083  22.499  14.241  1.00  0.00     0.191 HD
ENDROOT
BRANCH   1   7
HETATM    7  C2  UNL     1      50.280  26.562  14.868  1.00  0.00     0.178 C 
BRANCH   7   8
HETATM    8  C1  UNL     1      48.999  27.153  15.417  1.00  0.00     0.038 C 
HETATM    9  N1  UNL     1      48.288  26.154  16.136  1.00  0.00    -0.106 NA
BRANCH   8  10
HETATM   10  C10 UNL     1      48.267  28.072  14.552  1.00  0.00     0.002 C 
BRANCH  10  11
HETATM   11  C11 UNL     1      48.332  28.056  13.103  1.00  0.00     0.010 C 
HETATM   12  C12 UNL     1      48.963  29.199  12.349  1.00  0.00     0.008 C 
HETATM   13  C13 UNL     1      48.001  28.864  11.212  1.00  0.00     0.001 C 
HETATM   14  C14 UNL     1      47.157  28.049  12.214  1.00  0.00     0.008 C 
ENDBRANCH  10  11
ENDBRANCH   8  10
ENDBRANCH   7   8
ENDBRANCH   1   7
BRANCH   5  15
HETATM   15  N4  UNL     1      51.893  21.921  15.145  1.00  0.00    -0.311 N 
HETATM   16  C4  UNL     1      52.383  21.014  14.380  1.00  0.00     0.085 C 
ATOM     17  H4  UNL     1      52.236  21.982  16.104  1.00  0.00     0.185 HD
BRANCH  16  18
HETATM   18  C5  UNL     1      51.914  20.895  12.999  1.00  0.00     0.025 C 
HETATM   19  C6  UNL     1      53.061  21.054  11.997  1.00  0.00     0.010 C 
HETATM   20  C7  UNL     1      52.488  20.449  10.740  1.00  0.00     0.001 C 
HETATM   21  C8  UNL     1      51.353  19.564  11.148  1.00  0.00     0.001 C 
HETATM   22  C9  UNL     1      51.435  19.484  12.667  1.00  0.00     0.010 C 
ENDBRANCH  16  18
ENDBRANCH   5  15
TORSDOF 6
ENDMDL
MODEL 5
REMARK VINA RESULT: -7.427103205      1.104      7.575
REMARK  6 active torsions:
REMARK  status: ('A' for Active; 'I' for Inactive)
REMARK    1  A    between atoms: C1_2  and  C2_3 
REMARK    2  A    between atoms: C1_2  and  C10_18 
REMARK    3  A    between atoms: C2_3  and  N2_4 
REMARK       I    between atoms: N2_4  and  C3_6 
REMARK       I    between atoms: C3_6  and  N3_8 
REMARK    4  A    between atoms: N3_8  and  N4_10 
REMARK    5  A    between atoms: C4_12  and  C5_13 
REMARK    6  A    between atoms: C10_18  and  C11_19 
ROOT
HETATM    1  N2  UNL     1      50.570  25.007  14.542  1.00  0.00    -0.337 N 
ATOM      2  H2  UNL     1      51.148  25.398  13.798  1.00  0.00     0.164 HD
HETATM    3  C3  UNL     1      50.851  23.713  15.023  1.00  0.00     0.335 C 
HETATM    4  O1  UNL     1      50.148  23.229  15.930  1.00  0.00    -0.246 OA
HETATM    5  N3  UNL     1      51.916  22.963  14.488  1.00  0.00    -0.252 N 
ATOM      6  H3  UNL     1      52.497  23.351  13.745  1.00  0.00     0.191 HD
ENDROOT
BRANCH   1   7
HETATM    7  C2  UNL     1      49.471  25.800  15.082  1.00  0.00     0.178 C 
BRANCH   7   8
HETATM    8  C1  UNL     1      49.619  27.256  14.695  1.00  0.00     0.038 C 
HETATM    9  N1  UNL     1      50.739  27.813  15.372  1.00  0.00    -0.106 NA
BRANCH   8  10
HETATM   10  C10 UNL     1      48.395  28.039  14.572  1.00  0.00     0.002 C 
BRANCH  10  11
HETATM   11  C11 UNL     1      47.959  28.688  13.349  1.00  0.00     0.010 C 
HETATM   12  C12 UNL     1      47.070  27.965  12.370  1.00  0.00     0.008 C 
HETATM   13  C13 UNL     1      47.729  28.812  11.283  1.00  0.00     0.001 C 
HETATM   14  C14 UNL     1      48.863  29.140  12.277  1.00  0.00     0.008 C 
ENDBRANCH  10  11
ENDBRANCH   8  10
ENDBRANCH   7   8
ENDBRANCH   1   7
BRANCH   5  15
HETATM   15  N4  UNL     1      52.168  21.684  14.987  1.00  0.00    -0.311 N 
HETATM   16  C4  UNL     1      52.231  20.638  14.245  1.00  0.00     0.085 C 
ATOM     17  H4  UNL     1      52.309  21.575  15.991  1.00  0.00     0.185 HD
BRANCH  16  18
HETATM   18  C5  UNL     1      52.033  20.756  12.801  1.00  0.00     0.025 C 
HETATM   19  C6  UNL     1      53.365  20.784  12.047  1.00  0.00     0.010 C 
HETATM   20  C7  UNL     1      52.956  20.437  10.638  1.00  0.00     0.001 C 
HETATM   21  C8  UNL     1      51.625  19.759  10.714  1.00  0.00     0.001 C 
HETATM   22  C9  UNL     1      51.388  19.510  12.198  1.00  0.00     0.010 C 
ENDBRANCH  16  18
ENDBRANCH   5  15
TORSDOF 6
ENDMDL
