MODEL 1
REMARK VINA RESULT: -6.961592875      0.000      0.000
REMARK  12 active torsions:
REMARK  status: ('A' for Active; 'I' for Inactive)
REMARK    1  A    between atoms: C4_4  and  N1_5 
REMARK    2  A    between atoms: C5_9  and  O1_10 
REMARK    3  A    between atoms: C6_12  and  S1_13 
REMARK    4  A    between atoms: S1_13  and  C7_14 
REMARK    5  A    between atoms: C8_16  and  C9_17 
REMARK    6  A    between atoms: C9_17  and  O3_18 
REMARK    7  A    between atoms: O3_18  and  S2_19 
REMARK    8  A    between atoms: S2_19  and  N2_22 
REMARK    9  A    between atoms: N2_22  and  C10_24 
REMARK   10  A    between atoms: C15_29  and  O6_30 
REMARK   11  A    between atoms: C16_32  and  O7_33 
REMARK   12  A    between atoms: C17_35  and  O8_36 
ROOT
HETATM    1  C7  UNL     1       6.968  41.148  50.307  1.00  0.00     0.215 C 
HETATM    2  O2  UNL     1       6.571  41.428  51.599  1.00  0.00    -0.363 OA
HETATM    3  C8  UNL     1       7.636  42.103  52.167  1.00  0.00     0.179 C 
HETATM    4  C15 UNL     1       8.900  41.644  51.515  1.00  0.00     0.181 C 
HETATM    5  C16 UNL     1       8.366  40.583  50.542  1.00  0.00     0.188 C 
ENDROOT
BRANCH   1   6
HETATM    6  S1  UNL     1       5.905  40.060  49.392  1.00  0.00    -0.125 SA
BRANCH   6   7
HETATM    7  C6  UNL     1       4.200  40.036  50.007  1.00  0.00     0.109 C 
HETATM    8  C5  UNL     1       3.738  41.443  50.162  1.00  0.00     0.164 C 
HETATM    9  C4  UNL     1       2.294  41.598  49.746  1.00  0.00     0.213 C 
HETATM   10  C3  UNL     1       1.542  40.399  50.241  1.00  0.00     0.042 C 
HETATM   11  C2  UNL     1       1.914  39.242  49.337  1.00  0.00     0.013 C 
HETATM   12  C1  UNL     1       1.384  37.932  49.881  1.00  0.00     0.012 C 
HETATM   13  C17 UNL     1       3.390  39.202  49.050  1.00  0.00     0.138 C 
BRANCH   8  14
HETATM   14  O1  UNL     1       4.465  42.340  49.374  1.00  0.00    -0.392 OA
ATOM     15  H1  UNL     1       4.591  43.115  49.908  1.00  0.00     0.210 HD
ENDBRANCH   8  14
BRANCH   9  16
HETATM   16  N1  UNL     1       1.734  42.853  50.214  1.00  0.00    -0.073 N 
ATOM     17  H13 UNL     1       0.741  42.753  50.424  1.00  0.00     0.274 HD
ATOM     18  H12 UNL     1       2.080  43.081  51.146  1.00  0.00     0.274 HD
ATOM     19  H11 UNL     1       1.893  43.626  49.569  1.00  0.00     0.274 HD
ENDBRANCH   9  16
BRANCH  13  20
HETATM   20  O8  UNL     1       3.814  37.872  49.201  1.00  0.00    -0.394 OA
ATOM     21  H8  UNL     1       4.096  37.564  48.348  1.00  0.00     0.210 HD
ENDBRANCH  13  20
ENDBRANCH   6   7
ENDBRANCH   1   6
BRANCH   5  22
HETATM   22  O7  UNL     1       9.127  40.596  49.390  1.00  0.00    -0.389 OA
ATOM     23  H7  UNL     1       9.687  39.830  49.327  1.00  0.00     0.210 HD
ENDBRANCH   5  22
BRANCH   3  24
HETATM   24  C9  UNL     1       7.391  43.604  51.958  1.00  0.00     0.226 C 
BRANCH  24  25
HETATM   25  O3  UNL     1       6.228  43.921  52.619  1.00  0.00    -0.257 OA
BRANCH  25  26
HETATM   26  S2  UNL     1       5.440  45.261  51.987  1.00  0.00     0.358 S 
HETATM   27  O4  UNL     1       6.502  46.186  51.468  1.00  0.00    -0.176 OA
HETATM   28  O5  UNL     1       4.584  44.737  50.841  1.00  0.00    -0.176 OA
BRANCH  26  29
HETATM   29  N2  UNL     1       4.461  45.954  53.176  1.00  0.00    -0.292 N 
ATOM     30  H2  UNL     1       4.861  46.449  53.974  1.00  0.00     0.174 HD
BRANCH  29  31
HETATM   31  C10 UNL     1       3.063  45.817  53.015  1.00  0.00     0.095 C 
HETATM   32  C11 UNL     1       2.236  46.819  53.769  1.00  0.00     0.026 C 
HETATM   33  C12 UNL     1       1.162  46.001  54.454  1.00  0.00     0.002 C 
HETATM   34  C13 UNL     1       1.074  44.728  53.635  1.00  0.00     0.002 C 
HETATM   35  C14 UNL     1       2.533  44.447  53.343  1.00  0.00     0.026 C 
ENDBRANCH  29  31
ENDBRANCH  26  29
ENDBRANCH  25  26
ENDBRANCH  24  25
ENDBRANCH   3  24
BRANCH   4  36
HETATM   36  O6  UNL     1       9.845  41.142  52.371  1.00  0.00    -0.390 OA
ATOM     37  H6  UNL     1      10.690  41.575  52.335  1.00  0.00     0.210 HD
ENDBRANCH   4  36
TORSDOF 12
ENDMDL
MODEL 2
REMARK VINA RESULT: -6.851113025      2.027      4.950
REMARK  12 active torsions:
REMARK  status: ('A' for Active; 'I' for Inactive)
REMARK    1  A    between atoms: C4_4  and  N1_5 
REMARK    2  A    between atoms: C5_9  and  O1_10 
REMARK    3  A    between atoms: C6_12  and  S1_13 
REMARK    4  A    between atoms: S1_13  and  C7_14 
REMARK    5  A    between atoms: C8_16  and  C9_17 
REMARK    6  A    between atoms: C9_17  and  O3_18 
REMARK    7  A    between atoms: O3_18  and  S2_19 
REMARK    8  A    between atoms: S2_19  and  N2_22 
REMARK    9  A    between atoms: N2_22  and  C10_24 
REMARK   10  A    between atoms: C15_29  and  O6_30 
REMARK   11  A    between atoms: C16_32  and  O7_33 
REMARK   12  A    between atoms: C17_35  and  O8_36 
ROOT
HETATM    1  C7  UNL     1       4.615  39.756  49.701  1.00  0.00     0.215 C 
HETATM    2  O2  UNL     1       4.773  40.969  49.064  1.00  0.00    -0.363 OA
HETATM    3  C8  UNL     1       3.503  41.511  48.995  1.00  0.00     0.179 C 
HETATM    4  C15 UNL     1       2.507  40.398  48.938  1.00  0.00     0.181 C 
HETATM    5  C16 UNL     1       3.431  39.171  48.936  1.00  0.00     0.188 C 
ENDROOT
BRANCH   1   6
HETATM    6  S1  UNL     1       6.044  38.701  49.717  1.00  0.00    -0.125 SA
BRANCH   6   7
HETATM    7  C6  UNL     1       7.409  39.355  50.714  1.00  0.00     0.109 C 
HETATM    8  C5  UNL     1       8.329  40.103  49.814  1.00  0.00     0.164 C 
HETATM    9  C4  UNL     1       8.857  41.352  50.481  1.00  0.00     0.213 C 
HETATM   10  C3  UNL     1       9.155  41.017  51.912  1.00  0.00     0.042 C 
HETATM   11  C2  UNL     1       7.825  40.925  52.629  1.00  0.00     0.013 C 
HETATM   12  C1  UNL     1       7.996  40.373  54.030  1.00  0.00     0.012 C 
HETATM   13  C17 UNL     1       6.801  40.170  51.825  1.00  0.00     0.138 C 
BRANCH   8  14
HETATM   14  O1  UNL     1       7.706  40.529  48.637  1.00  0.00    -0.392 OA
ATOM     15  H1  UNL     1       8.301  40.306  47.931  1.00  0.00     0.210 HD
ENDBRANCH   8  14
BRANCH   9  16
HETATM   16  N1  UNL     1      10.003  41.893  49.773  1.00  0.00    -0.073 N 
ATOM     17  H13 UNL     1       9.858  42.877  49.544  1.00  0.00     0.274 HD
ATOM     18  H12 UNL     1      10.806  41.983  50.396  1.00  0.00     0.274 HD
ATOM     19  H11 UNL     1      10.246  41.358  48.940  1.00  0.00     0.274 HD
ENDBRANCH   9  16
BRANCH  13  20
HETATM   20  O8  UNL     1       6.160  39.272  52.693  1.00  0.00    -0.394 OA
ATOM     21  H8  UNL     1       5.235  39.279  52.477  1.00  0.00     0.210 HD
ENDBRANCH  13  20
ENDBRANCH   6   7
ENDBRANCH   1   6
BRANCH   5  22
HETATM   22  O7  UNL     1       2.826  38.143  49.631  1.00  0.00    -0.389 OA
ATOM     23  H7  UNL     1       2.608  37.412  49.064  1.00  0.00     0.210 HD
ENDBRANCH   5  22
BRANCH   3  24
HETATM   24  C9  UNL     1       3.313  42.392  50.237  1.00  0.00     0.226 C 
BRANCH  24  25
HETATM   25  O3  UNL     1       4.238  43.406  50.161  1.00  0.00    -0.257 OA
BRANCH  25  26
HETATM   26  S2  UNL     1       4.898  43.825  51.646  1.00  0.00     0.358 S 
HETATM   27  O4  UNL     1       4.585  42.705  52.594  1.00  0.00    -0.176 OA
HETATM   28  O5  UNL     1       6.400  43.926  51.418  1.00  0.00    -0.176 OA
BRANCH  26  29
HETATM   29  N2  UNL     1       4.281  45.319  52.137  1.00  0.00    -0.292 N 
ATOM     30  H2  UNL     1       4.520  46.182  51.648  1.00  0.00     0.174 HD
BRANCH  29  31
HETATM   31  C10 UNL     1       3.417  45.319  53.257  1.00  0.00     0.095 C 
HETATM   32  C11 UNL     1       2.342  44.271  53.229  1.00  0.00     0.026 C 
HETATM   33  C12 UNL     1       1.070  45.007  53.592  1.00  0.00     0.002 C 
HETATM   34  C13 UNL     1       1.545  46.237  54.342  1.00  0.00     0.002 C 
HETATM   35  C14 UNL     1       2.758  46.643  53.532  1.00  0.00     0.026 C 
ENDBRANCH  29  31
ENDBRANCH  26  29
ENDBRANCH  25  26
ENDBRANCH  24  25
ENDBRANCH   3  24
BRANCH   4  36
HETATM   36  O6  UNL     1       1.669  40.423  47.853  1.00  0.00    -0.390 OA
ATOM     37  H6  UNL     1       1.662  39.629  47.332  1.00  0.00     0.210 HD
ENDBRANCH   4  36
TORSDOF 12
ENDMDL
MODEL 3
REMARK VINA RESULT: -6.781426430      2.659      5.523
REMARK  12 active torsions:
REMARK  status: ('A' for Active; 'I' for Inactive)
REMARK    1  A    between atoms: C4_4  and  N1_5 
REMARK    2  A    between atoms: C5_9  and  O1_10 
REMARK    3  A    between atoms: C6_12  and  S1_13 
REMARK    4  A    between atoms: S1_13  and  C7_14 
REMARK    5  A    between atoms: C8_16  and  C9_17 
REMARK    6  A    between atoms: C9_17  and  O3_18 
REMARK    7  A    between atoms: O3_18  and  S2_19 
REMARK    8  A    between atoms: S2_19  and  N2_22 
REMARK    9  A    between atoms: N2_22  and  C10_24 
REMARK   10  A    between atoms: C15_29  and  O6_30 
REMARK   11  A    between atoms: C16_32  and  O7_33 
REMARK   12  A    between atoms: C17_35  and  O8_36 
ROOT
HETATM    1  C7  UNL     1       4.493  39.692  49.410  1.00  0.00     0.215 C 
HETATM    2  O2  UNL     1       4.637  40.711  48.491  1.00  0.00    -0.363 OA
HETATM    3  C8  UNL     1       3.406  41.338  48.448  1.00  0.00     0.179 C 
HETATM    4  C15 UNL     1       2.345  40.338  48.773  1.00  0.00     0.181 C 
HETATM    5  C16 UNL     1       3.181  39.062  48.951  1.00  0.00     0.188 C 
ENDROOT
BRANCH   1   6
HETATM    6  S1  UNL     1       5.841  38.540  49.505  1.00  0.00    -0.125 SA
BRANCH   6   7
HETATM    7  C6  UNL     1       7.272  39.182  50.413  1.00  0.00     0.109 C 
HETATM    8  C5  UNL     1       8.191  39.833  49.440  1.00  0.00     0.164 C 
HETATM    9  C4  UNL     1       8.802  41.090  50.015  1.00  0.00     0.213 C 
HETATM   10  C3  UNL     1       9.138  40.822  51.451  1.00  0.00     0.042 C 
HETATM   11  C2  UNL     1       7.833  40.835  52.219  1.00  0.00     0.013 C 
HETATM   12  C1  UNL     1       8.031  40.355  53.642  1.00  0.00     0.012 C 
HETATM   13  C17 UNL     1       6.746  40.087  51.496  1.00  0.00     0.138 C 
BRANCH   8  14
HETATM   14  O1  UNL     1       7.544  40.222  48.263  1.00  0.00    -0.392 OA
ATOM     15  H1  UNL     1       6.771  39.674  48.196  1.00  0.00     0.210 HD
ENDBRANCH   8  14
BRANCH   9  16
HETATM   16  N1  UNL     1       9.944  41.535  49.237  1.00  0.00    -0.073 N 
ATOM     17  H13 UNL     1      10.474  42.244  49.742  1.00  0.00     0.274 HD
ATOM     18  H12 UNL     1      10.652  40.804  49.181  1.00  0.00     0.274 HD
ATOM     19  H11 UNL     1       9.688  41.866  48.307  1.00  0.00     0.274 HD
ENDBRANCH   9  16
BRANCH  13  20
HETATM   20  O8  UNL     1       6.097  39.271  52.437  1.00  0.00    -0.394 OA
ATOM     21  H8  UNL     1       5.187  39.543  52.471  1.00  0.00     0.210 HD
ENDBRANCH  13  20
ENDBRANCH   6   7
ENDBRANCH   1   6
BRANCH   5  22
HETATM   22  O7  UNL     1       2.613  38.278  49.935  1.00  0.00    -0.389 OA
ATOM     23  H7  UNL     1       2.164  37.523  49.572  1.00  0.00     0.210 HD
ENDBRANCH   5  22
BRANCH   3  24
HETATM   24  C9  UNL     1       3.443  42.490  49.462  1.00  0.00     0.226 C 
BRANCH  24  25
HETATM   25  O3  UNL     1       2.860  42.031  50.619  1.00  0.00    -0.257 OA
BRANCH  25  26
HETATM   26  S2  UNL     1       3.350  42.863  51.993  1.00  0.00     0.358 S 
HETATM   27  O4  UNL     1       2.113  43.150  52.793  1.00  0.00    -0.176 OA
HETATM   28  O5  UNL     1       4.265  41.909  52.750  1.00  0.00    -0.176 OA
BRANCH  26  29
HETATM   29  N2  UNL     1       4.201  44.250  51.540  1.00  0.00    -0.292 N 
ATOM     30  H2  UNL     1       3.820  44.913  50.865  1.00  0.00     0.174 HD
BRANCH  29  31
HETATM   31  C10 UNL     1       5.466  44.450  52.140  1.00  0.00     0.095 C 
HETATM   32  C11 UNL     1       5.794  45.878  52.468  1.00  0.00     0.026 C 
HETATM   33  C12 UNL     1       7.199  46.086  51.944  1.00  0.00     0.002 C 
HETATM   34  C13 UNL     1       7.790  44.691  51.879  1.00  0.00     0.002 C 
HETATM   35  C14 UNL     1       6.620  43.884  51.357  1.00  0.00     0.026 C 
ENDBRANCH  29  31
ENDBRANCH  26  29
ENDBRANCH  25  26
ENDBRANCH  24  25
ENDBRANCH   3  24
BRANCH   4  36
HETATM   36  O6  UNL     1       1.369  40.196  47.821  1.00  0.00    -0.390 OA
ATOM     37  H6  UNL     1       0.650  39.624  48.064  1.00  0.00     0.210 HD
ENDBRANCH   4  36
TORSDOF 12
ENDMDL
MODEL 4
REMARK VINA RESULT: -6.761093322      2.852      7.012
REMARK  12 active torsions:
REMARK  status: ('A' for Active; 'I' for Inactive)
REMARK    1  A    between atoms: C4_4  and  N1_5 
REMARK    2  A    between atoms: C5_9  and  O1_10 
REMARK    3  A    between atoms: C6_12  and  S1_13 
REMARK    4  A    between atoms: S1_13  and  C7_14 
REMARK    5  A    between atoms: C8_16  and  C9_17 
REMARK    6  A    between atoms: C9_17  and  O3_18 
REMARK    7  A    between atoms: O3_18  and  S2_19 
REMARK    8  A    between atoms: S2_19  and  N2_22 
REMARK    9  A    between atoms: N2_22  and  C10_24 
REMARK   10  A    between atoms: C15_29  and  O6_30 
REMARK   11  A    between atoms: C16_32  and  O7_33 
REMARK   12  A    between atoms: C17_35  and  O8_36 
ROOT
HETATM    1  C7  UNL     1       4.655  43.336  51.778  1.00  0.00     0.215 C 
HETATM    2  O2  UNL     1       4.079  42.089  51.909  1.00  0.00    -0.363 OA
HETATM    3  C8  UNL     1       2.715  42.314  51.879  1.00  0.00     0.179 C 
HETATM    4  C15 UNL     1       2.440  43.678  52.423  1.00  0.00     0.181 C 
HETATM    5  C16 UNL     1       3.855  44.140  52.799  1.00  0.00     0.188 C 
ENDROOT
BRANCH   1   6
HETATM    6  S1  UNL     1       6.411  43.407  52.033  1.00  0.00    -0.125 SA
BRANCH   6   7
HETATM    7  C6  UNL     1       7.215  41.784  51.950  1.00  0.00     0.109 C 
HETATM    8  C5  UNL     1       8.565  41.961  51.349  1.00  0.00     0.164 C 
HETATM    9  C4  UNL     1       9.588  41.075  52.022  1.00  0.00     0.213 C 
HETATM   10  C3  UNL     1       8.943  39.747  52.285  1.00  0.00     0.042 C 
HETATM   11  C2  UNL     1       8.005  39.939  53.458  1.00  0.00     0.013 C 
HETATM   12  C1  UNL     1       7.136  38.715  53.668  1.00  0.00     0.012 C 
HETATM   13  C17 UNL     1       7.207  41.209  53.341  1.00  0.00     0.138 C 
BRANCH   8  14
HETATM   14  O1  UNL     1       9.045  43.268  51.473  1.00  0.00    -0.392 OA
ATOM     15  H1  UNL     1       9.392  43.502  50.620  1.00  0.00     0.210 HD
ENDBRANCH   8  14
BRANCH   9  16
HETATM   16  N1  UNL     1      10.805  40.971  51.237  1.00  0.00    -0.073 N 
ATOM     17  H13 UNL     1      11.626  40.945  51.841  1.00  0.00     0.274 HD
ATOM     18  H12 UNL     1      10.883  40.049  50.809  1.00  0.00     0.274 HD
ATOM     19  H11 UNL     1      10.892  41.707  50.537  1.00  0.00     0.274 HD
ENDBRANCH   9  16
BRANCH  13  20
HETATM   20  O8  UNL     1       5.873  40.900  53.654  1.00  0.00    -0.394 OA
ATOM     21  H8  UNL     1       5.327  41.576  53.270  1.00  0.00     0.210 HD
ENDBRANCH  13  20
ENDBRANCH   6   7
ENDBRANCH   1   6
BRANCH   5  22
HETATM   22  O7  UNL     1       3.964  45.500  52.583  1.00  0.00    -0.389 OA
ATOM     23  H7  UNL     1       3.126  45.892  52.365  1.00  0.00     0.210 HD
ENDBRANCH   5  22
BRANCH   3  24
HETATM   24  C9  UNL     1       2.260  42.172  50.420  1.00  0.00     0.226 C 
BRANCH  24  25
HETATM   25  O3  UNL     1       1.526  41.013  50.335  1.00  0.00    -0.257 OA
BRANCH  25  26
HETATM   26  S2  UNL     1       2.261  39.818  49.414  1.00  0.00     0.358 S 
HETATM   27  O4  UNL     1       1.328  38.642  49.402  1.00  0.00    -0.176 OA
HETATM   28  O5  UNL     1       2.400  40.401  48.014  1.00  0.00    -0.176 OA
BRANCH  26  29
HETATM   29  N2  UNL     1       3.784  39.468  50.054  1.00  0.00    -0.292 N 
ATOM     30  H2  UNL     1       3.919  39.309  51.053  1.00  0.00     0.174 HD
BRANCH  29  31
HETATM   31  C10 UNL     1       4.863  39.405  49.143  1.00  0.00     0.095 C 
HETATM   32  C11 UNL     1       5.646  38.124  49.174  1.00  0.00     0.026 C 
HETATM   33  C12 UNL     1       7.097  38.555  49.212  1.00  0.00     0.002 C 
HETATM   34  C13 UNL     1       7.091  39.958  48.637  1.00  0.00     0.002 C 
HETATM   35  C14 UNL     1       5.842  40.542  49.261  1.00  0.00     0.026 C 
ENDBRANCH  29  31
ENDBRANCH  26  29
ENDBRANCH  25  26
ENDBRANCH  24  25
ENDBRANCH   3  24
BRANCH   4  36
HETATM   36  O6  UNL     1       1.577  43.716  53.487  1.00  0.00    -0.390 OA
ATOM     37  H6  UNL     1       1.110  44.536  53.597  1.00  0.00     0.210 HD
ENDBRANCH   4  36
TORSDOF 12
ENDMDL
MODEL 5
REMARK VINA RESULT: -6.732756498      2.035      2.553
REMARK  12 active torsions:
REMARK  status: ('A' for Active; 'I' for Inactive)
REMARK    1  A    between atoms: C4_4  and  N1_5 
REMARK    2  A    between atoms: C5_9  and  O1_10 
REMARK    3  A    between atoms: C6_12  and  S1_13 
REMARK    4  A    between atoms: S1_13  and  C7_14 
REMARK    5  A    between atoms: C8_16  and  C9_17 
REMARK    6  A    between atoms: C9_17  and  O3_18 
REMARK    7  A    between atoms: O3_18  and  S2_19 
REMARK    8  A    between atoms: S2_19  and  N2_22 
REMARK    9  A    between atoms: N2_22  and  C10_24 
REMARK   10  A    between atoms: C15_29  and  O6_30 
REMARK   11  A    between atoms: C16_32  and  O7_33 
REMARK   12  A    between atoms: C17_35  and  O8_36 
ROOT
HETATM    1  C7  UNL     1       6.905  39.833  51.312  1.00  0.00     0.215 C 
HETATM    2  O2  UNL     1       6.600  40.932  52.088  1.00  0.00    -0.363 OA
HETATM    3  C8  UNL     1       7.366  40.793  53.231  1.00  0.00     0.179 C 
HETATM    4  C15 UNL     1       7.592  39.338  53.485  1.00  0.00     0.181 C 
HETATM    5  C16 UNL     1       6.792  38.707  52.336  1.00  0.00     0.188 C 
ENDROOT
BRANCH   1   6
HETATM    6  S1  UNL     1       5.887  39.595  49.877  1.00  0.00    -0.125 SA
BRANCH   6   7
HETATM    7  C6  UNL     1       4.122  39.859  50.196  1.00  0.00     0.109 C 
HETATM    8  C5  UNL     1       3.861  41.325  50.195  1.00  0.00     0.164 C 
HETATM    9  C4  UNL     1       2.541  41.649  49.534  1.00  0.00     0.213 C 
HETATM   10  C3  UNL     1       1.547  40.610  49.959  1.00  0.00     0.042 C 
HETATM   11  C2  UNL     1       1.878  39.345  49.194  1.00  0.00     0.013 C 
HETATM   12  C1  UNL     1       1.076  38.169  49.710  1.00  0.00     0.012 C 
HETATM   13  C17 UNL     1       3.358  39.076  49.163  1.00  0.00     0.138 C 
BRANCH   8  14
HETATM   14  O1  UNL     1       4.831  42.046  49.493  1.00  0.00    -0.392 OA
ATOM     15  H1  UNL     1       5.629  41.977  50.004  1.00  0.00     0.210 HD
ENDBRANCH   8  14
BRANCH   9  16
HETATM   16  N1  UNL     1       2.111  43.003  49.832  1.00  0.00    -0.073 N 
ATOM     17  H13 UNL     1       1.404  43.315  49.167  1.00  0.00     0.274 HD
ATOM     18  H12 UNL     1       1.558  43.028  50.689  1.00  0.00     0.274 HD
ATOM     19  H11 UNL     1       2.884  43.666  49.879  1.00  0.00     0.274 HD
ENDBRANCH   9  16
BRANCH  13  20
HETATM   20  O8  UNL     1       3.545  37.715  49.454  1.00  0.00    -0.394 OA
ATOM     21  H8  UNL     1       3.212  37.216  48.717  1.00  0.00     0.210 HD
ENDBRANCH  13  20
ENDBRANCH   6   7
ENDBRANCH   1   6
BRANCH   5  22
HETATM   22  O7  UNL     1       7.432  37.559  51.912  1.00  0.00    -0.389 OA
ATOM     23  H7  UNL     1       7.823  37.083  52.636  1.00  0.00     0.210 HD
ENDBRANCH   5  22
BRANCH   3  24
HETATM   24  C9  UNL     1       8.682  41.549  52.995  1.00  0.00     0.226 C 
BRANCH  24  25
HETATM   25  O3  UNL     1       8.405  42.890  53.115  1.00  0.00    -0.257 OA
BRANCH  25  26
HETATM   26  S2  UNL     1       8.216  43.670  51.641  1.00  0.00     0.358 S 
HETATM   27  O4  UNL     1       8.949  44.976  51.742  1.00  0.00    -0.176 OA
HETATM   28  O5  UNL     1       8.875  42.768  50.607  1.00  0.00    -0.176 OA
BRANCH  26  29
HETATM   29  N2  UNL     1       6.571  43.843  51.300  1.00  0.00    -0.292 N 
ATOM     30  H2  UNL     1       6.186  43.593  50.389  1.00  0.00     0.174 HD
BRANCH  29  31
HETATM   31  C10 UNL     1       5.752  44.349  52.336  1.00  0.00     0.095 C 
HETATM   32  C11 UNL     1       4.496  43.567  52.592  1.00  0.00     0.026 C 
HETATM   33  C12 UNL     1       3.398  44.606  52.668  1.00  0.00     0.002 C 
HETATM   34  C13 UNL     1       4.118  45.893  53.023  1.00  0.00     0.002 C 
HETATM   35  C14 UNL     1       5.365  45.794  52.171  1.00  0.00     0.026 C 
ENDBRANCH  29  31
ENDBRANCH  26  29
ENDBRANCH  25  26
ENDBRANCH  24  25
ENDBRANCH   3  24
BRANCH   4  36
HETATM   36  O6  UNL     1       7.182  38.893  54.715  1.00  0.00    -0.390 OA
ATOM     37  H6  UNL     1       7.884  38.672  55.317  1.00  0.00     0.210 HD
ENDBRANCH   4  36
TORSDOF 12
ENDMDL
