MODEL 1
REMARK VINA RESULT: -7.107497781      0.000      0.000
REMARK  8 active torsions:
REMARK  status: ('A' for Active; 'I' for Inactive)
REMARK    1  A    between atoms: N1_1  and  C1_4 
REMARK    2  A    between atoms: C2_7  and  N3_8 
REMARK    3  A    between atoms: N3_8  and  C3_9 
REMARK    4  A    between atoms: N3_8  and  C6_16 
REMARK    5  A    between atoms: C3_9  and  C4_10 
REMARK    6  A    between atoms: C4_10  and  C5_11 
REMARK    7  A    between atoms: C5_11  and  N4_12 
REMARK    8  A    between atoms: C6_16  and  C7_17 
ROOT
HETATM    1  N3  UNL     1      41.842  30.092  17.385  1.00  0.00    -0.215 N 
ENDROOT
BRANCH   1   2
HETATM    2  C2  UNL     1      42.750  29.804  16.327  1.00  0.00     0.699 A 
HETATM    3  N2  UNL     1      42.366  29.089  15.227  1.00  0.00    -0.022 N 
HETATM    4  C1  UNL     1      43.262  28.821  14.245  1.00  0.00     0.694 A 
ATOM      5  H2  UNL     1      41.405  28.757  15.145  1.00  0.00     0.203 HD
HETATM    6  N7  UNL     1      44.532  29.244  14.324  1.00  0.00    -0.141 N 
HETATM    7  C10 UNL     1      44.939  29.956  15.402  1.00  0.00     0.352 A 
ATOM      8  H7  UNL     1      45.189  29.031  13.574  1.00  0.00     0.189 HD
HETATM    9  N6  UNL     1      44.016  30.187  16.333  1.00  0.00    -0.140 N 
HETATM   10  O1  UNL     1      46.118  30.381  15.533  1.00  0.00    -0.246 OA
ATOM     11  H6  UNL     1      44.320  30.723  17.146  1.00  0.00     0.189 HD
BRANCH   4  12
HETATM   12  N1  UNL     1      42.889  28.136  13.190  1.00  0.00    -0.234 N 
ATOM     13  H12 UNL     1      43.126  27.145  13.141  1.00  0.00     0.174 HD
ATOM     14  H11 UNL     1      42.373  28.598  12.441  1.00  0.00     0.174 HD
ENDBRANCH   4  12
ENDBRANCH   1   2
BRANCH   1  15
HETATM   15  C3  UNL     1      41.900  31.269  18.184  1.00  0.00     0.143 C 
BRANCH  15  16
HETATM   16  C4  UNL     1      40.614  32.000  18.442  1.00  0.00     0.048 C 
BRANCH  16  17
HETATM   17  C5  UNL     1      40.618  32.383  19.949  1.00  0.00     0.231 C 
BRANCH  17  18
HETATM   18  N4  UNL     1      41.950  32.222  20.484  1.00  0.00    -0.079 N 
ATOM     19  H43 UNL     1      42.524  33.054  20.347  1.00  0.00     0.274 HD
ATOM     20  H42 UNL     1      41.957  32.207  21.504  1.00  0.00     0.274 HD
ATOM     21  H41 UNL     1      42.379  31.388  20.085  1.00  0.00     0.274 HD
ENDBRANCH  17  18
ENDBRANCH  16  17
ENDBRANCH  15  16
ENDBRANCH   1  15
BRANCH   1  22
HETATM   22  C6  UNL     1      40.776  29.132  17.691  1.00  0.00     0.174 C 
BRANCH  22  23
HETATM   23  C7  UNL     1      40.675  28.927  19.175  1.00  0.00     0.205 C 
HETATM   24  C8  UNL     1      39.218  28.748  19.635  1.00  0.00     0.062 C 
HETATM   25  C9  UNL     1      39.443  27.258  19.614  1.00  0.00     0.235 C 
HETATM   26  N5  UNL     1      40.853  27.538  19.628  1.00  0.00    -0.069 N 
ATOM     27  H52 UNL     1      41.474  26.929  19.096  1.00  0.00     0.277 HD
ATOM     28  H51 UNL     1      41.373  27.370  20.489  1.00  0.00     0.277 HD
ENDBRANCH  22  23
ENDBRANCH   1  22
TORSDOF 8
ENDMDL
MODEL 2
REMARK VINA RESULT: -6.537555043      1.171      1.877
REMARK  8 active torsions:
REMARK  status: ('A' for Active; 'I' for Inactive)
REMARK    1  A    between atoms: N1_1  and  C1_4 
REMARK    2  A    between atoms: C2_7  and  N3_8 
REMARK    3  A    between atoms: N3_8  and  C3_9 
REMARK    4  A    between atoms: N3_8  and  C6_16 
REMARK    5  A    between atoms: C3_9  and  C4_10 
REMARK    6  A    between atoms: C4_10  and  C5_11 
REMARK    7  A    between atoms: C5_11  and  N4_12 
REMARK    8  A    between atoms: C6_16  and  C7_17 
ROOT
HETATM    1  N3  UNL     1      41.799  30.231  17.367  1.00  0.00    -0.215 N 
ENDROOT
BRANCH   1   2
HETATM    2  C2  UNL     1      42.861  29.853  16.498  1.00  0.00     0.699 A 
HETATM    3  N2  UNL     1      44.168  29.914  16.893  1.00  0.00    -0.022 N 
HETATM    4  C1  UNL     1      45.155  29.560  16.033  1.00  0.00     0.694 A 
ATOM      5  H2  UNL     1      44.401  30.226  17.837  1.00  0.00     0.203 HD
HETATM    6  N7  UNL     1      44.881  29.146  14.788  1.00  0.00    -0.141 N 
HETATM    7  C10 UNL     1      43.594  29.075  14.370  1.00  0.00     0.352 A 
ATOM      8  H7  UNL     1      45.639  28.885  14.157  1.00  0.00     0.189 HD
HETATM    9  N6  UNL     1      42.670  29.435  15.258  1.00  0.00    -0.140 N 
HETATM   10  O1  UNL     1      43.274  28.693  13.213  1.00  0.00    -0.246 OA
ATOM     11  H6  UNL     1      41.700  29.382  14.945  1.00  0.00     0.189 HD
BRANCH   4  12
HETATM   12  N1  UNL     1      46.408  29.619  16.418  1.00  0.00    -0.234 N 
ATOM     13  H12 UNL     1      46.811  30.530  16.638  1.00  0.00     0.174 HD
ATOM     14  H11 UNL     1      46.958  28.763  16.489  1.00  0.00     0.174 HD
ENDBRANCH   4  12
ENDBRANCH   1   2
BRANCH   1  15
HETATM   15  C3  UNL     1      41.691  31.512  17.980  1.00  0.00     0.143 C 
BRANCH  15  16
HETATM   16  C4  UNL     1      40.322  31.976  18.387  1.00  0.00     0.048 C 
BRANCH  16  17
HETATM   17  C5  UNL     1      40.410  32.340  19.897  1.00  0.00     0.231 C 
BRANCH  17  18
HETATM   18  N4  UNL     1      41.774  32.191  20.350  1.00  0.00    -0.079 N 
ATOM     19  H43 UNL     1      42.226  31.371  19.946  1.00  0.00     0.274 HD
ATOM     20  H42 UNL     1      42.390  32.904  19.959  1.00  0.00     0.274 HD
ATOM     21  H41 UNL     1      41.795  32.181  21.369  1.00  0.00     0.274 HD
ENDBRANCH  17  18
ENDBRANCH  16  17
ENDBRANCH  15  16
ENDBRANCH   1  15
BRANCH   1  22
HETATM   22  C6  UNL     1      40.741  29.259  17.664  1.00  0.00     0.174 C 
BRANCH  22  23
HETATM   23  C7  UNL     1      40.665  29.016  19.144  1.00  0.00     0.205 C 
HETATM   24  C8  UNL     1      39.244  28.638  19.594  1.00  0.00     0.062 C 
HETATM   25  C9  UNL     1      39.664  27.191  19.547  1.00  0.00     0.235 C 
HETATM   26  N5  UNL     1      41.024  27.654  19.572  1.00  0.00    -0.069 N 
ATOM     27  H52 UNL     1      41.722  27.142  19.033  1.00  0.00     0.277 HD
ATOM     28  H51 UNL     1      41.561  27.540  20.433  1.00  0.00     0.277 HD
ENDBRANCH  22  23
ENDBRANCH   1  22
TORSDOF 8
ENDMDL
MODEL 3
REMARK VINA RESULT: -6.480049122      1.328      3.022
REMARK  8 active torsions:
REMARK  status: ('A' for Active; 'I' for Inactive)
REMARK    1  A    between atoms: N1_1  and  C1_4 
REMARK    2  A    between atoms: C2_7  and  N3_8 
REMARK    3  A    between atoms: N3_8  and  C3_9 
REMARK    4  A    between atoms: N3_8  and  C6_16 
REMARK    5  A    between atoms: C3_9  and  C4_10 
REMARK    6  A    between atoms: C4_10  and  C5_11 
REMARK    7  A    between atoms: C5_11  and  N4_12 
REMARK    8  A    between atoms: C6_16  and  C7_17 
ROOT
HETATM    1  N3  UNL     1      41.684  29.516  18.337  1.00  0.00    -0.215 N 
ENDROOT
BRANCH   1   2
HETATM    2  C2  UNL     1      42.641  29.494  17.283  1.00  0.00     0.699 A 
HETATM    3  N2  UNL     1      42.299  29.130  16.011  1.00  0.00    -0.022 N 
HETATM    4  C1  UNL     1      43.241  29.107  15.035  1.00  0.00     0.694 A 
ATOM      5  H2  UNL     1      41.335  28.874  15.795  1.00  0.00     0.203 HD
HETATM    6  N7  UNL     1      44.516  29.437  15.287  1.00  0.00    -0.141 N 
HETATM    7  C10 UNL     1      44.882  29.804  16.538  1.00  0.00     0.352 A 
ATOM      8  H7  UNL     1      45.208  29.412  14.538  1.00  0.00     0.189 HD
HETATM    9  N6  UNL     1      43.915  29.807  17.454  1.00  0.00    -0.140 N 
HETATM   10  O1  UNL     1      46.063  30.125  16.836  1.00  0.00    -0.246 OA
ATOM     11  H6  UNL     1      44.188  30.083  18.397  1.00  0.00     0.189 HD
BRANCH   4  12
HETATM   12  N1  UNL     1      42.908  28.757  13.815  1.00  0.00    -0.234 N 
ATOM     13  H12 UNL     1      43.186  29.358  13.039  1.00  0.00     0.174 HD
ATOM     14  H11 UNL     1      42.381  27.897  13.660  1.00  0.00     0.174 HD
ENDBRANCH   4  12
ENDBRANCH   1   2
BRANCH   1  15
HETATM   15  C3  UNL     1      40.568  28.635  18.415  1.00  0.00     0.143 C 
BRANCH  15  16
HETATM   16  C4  UNL     1      40.176  28.125  19.772  1.00  0.00     0.048 C 
BRANCH  16  17
HETATM   17  C5  UNL     1      38.739  27.550  19.630  1.00  0.00     0.231 C 
BRANCH  17  18
HETATM   18  N4  UNL     1      37.779  28.628  19.696  1.00  0.00    -0.079 N 
ATOM     19  H43 UNL     1      38.110  29.402  20.272  1.00  0.00     0.274 HD
ATOM     20  H42 UNL     1      37.700  29.128  18.811  1.00  0.00     0.274 HD
ATOM     21  H41 UNL     1      36.881  28.265  20.016  1.00  0.00     0.274 HD
ENDBRANCH  17  18
ENDBRANCH  16  17
ENDBRANCH  15  16
ENDBRANCH   1  15
BRANCH   1  22
HETATM   22  C6  UNL     1      41.836  30.496  19.417  1.00  0.00     0.174 C 
BRANCH  22  23
HETATM   23  C7  UNL     1      41.221  31.806  19.016  1.00  0.00     0.205 C 
HETATM   24  C8  UNL     1      39.899  31.613  18.254  1.00  0.00     0.062 C 
HETATM   25  C9  UNL     1      39.170  31.859  19.549  1.00  0.00     0.235 C 
HETATM   26  N5  UNL     1      40.385  32.444  20.046  1.00  0.00    -0.069 N 
ATOM     27  H52 UNL     1      40.628  32.303  21.026  1.00  0.00     0.277 HD
ATOM     28  H51 UNL     1      40.429  33.459  20.149  1.00  0.00     0.277 HD
ENDBRANCH  22  23
ENDBRANCH   1  22
TORSDOF 8
ENDMDL
MODEL 4
REMARK VINA RESULT: -6.373072389      1.201      1.315
REMARK  8 active torsions:
REMARK  status: ('A' for Active; 'I' for Inactive)
REMARK    1  A    between atoms: N1_1  and  C1_4 
REMARK    2  A    between atoms: C2_7  and  N3_8 
REMARK    3  A    between atoms: N3_8  and  C3_9 
REMARK    4  A    between atoms: N3_8  and  C6_16 
REMARK    5  A    between atoms: C3_9  and  C4_10 
REMARK    6  A    between atoms: C4_10  and  C5_11 
REMARK    7  A    between atoms: C5_11  and  N4_12 
REMARK    8  A    between atoms: C6_16  and  C7_17 
ROOT
HETATM    1  N3  UNL     1      42.209  30.331  17.896  1.00  0.00    -0.215 N 
ENDROOT
BRANCH   1   2
HETATM    2  C2  UNL     1      43.079  29.944  16.838  1.00  0.00     0.699 A 
HETATM    3  N2  UNL     1      42.600  29.405  15.676  1.00  0.00    -0.022 N 
HETATM    4  C1  UNL     1      43.460  29.034  14.695  1.00  0.00     0.694 A 
ATOM      5  H2  UNL     1      41.596  29.282  15.548  1.00  0.00     0.203 HD
HETATM    6  N7  UNL     1      44.785  29.183  14.835  1.00  0.00    -0.141 N 
HETATM    7  C10 UNL     1      45.287  29.715  15.975  1.00  0.00     0.352 A 
ATOM      8  H7  UNL     1      45.414  28.896  14.084  1.00  0.00     0.189 HD
HETATM    9  N6  UNL     1      44.395  30.060  16.901  1.00  0.00    -0.140 N 
HETATM   10  O1  UNL     1      46.521  29.881  16.164  1.00  0.00    -0.246 OA
ATOM     11  H6  UNL     1      44.771  30.462  17.761  1.00  0.00     0.189 HD
BRANCH   4  12
HETATM   12  N1  UNL     1      42.996  28.518  13.582  1.00  0.00    -0.234 N 
ATOM     13  H12 UNL     1      42.471  27.645  13.627  1.00  0.00     0.174 HD
ATOM     14  H11 UNL     1      43.165  28.992  12.694  1.00  0.00     0.174 HD
ENDBRANCH   4  12
ENDBRANCH   1   2
BRANCH   1  15
HETATM   15  C3  UNL     1      41.614  31.620  18.005  1.00  0.00     0.143 C 
BRANCH  15  16
HETATM   16  C4  UNL     1      40.972  31.983  19.312  1.00  0.00     0.048 C 
BRANCH  16  17
HETATM   17  C5  UNL     1      39.445  32.093  19.039  1.00  0.00     0.231 C 
BRANCH  17  18
HETATM   18  N4  UNL     1      38.715  31.773  20.244  1.00  0.00    -0.079 N 
ATOM     19  H43 UNL     1      39.240  32.009  21.086  1.00  0.00     0.274 HD
ATOM     20  H42 UNL     1      37.920  32.395  20.389  1.00  0.00     0.274 HD
ATOM     21  H41 UNL     1      38.438  30.792  20.224  1.00  0.00     0.274 HD
ENDBRANCH  17  18
ENDBRANCH  16  17
ENDBRANCH  15  16
ENDBRANCH   1  15
BRANCH   1  22
HETATM   22  C6  UNL     1      41.894  29.361  18.951  1.00  0.00     0.174 C 
BRANCH  22  23
HETATM   23  C7  UNL     1      40.829  28.413  18.479  1.00  0.00     0.205 C 
HETATM   24  C8  UNL     1      40.400  27.432  19.582  1.00  0.00     0.062 C 
HETATM   25  C9  UNL     1      39.231  28.338  19.869  1.00  0.00     0.235 C 
HETATM   26  N5  UNL     1      39.452  28.923  18.576  1.00  0.00    -0.069 N 
ATOM     27  H52 UNL     1      39.294  29.924  18.461  1.00  0.00     0.277 HD
ATOM     28  H51 UNL     1      38.797  28.703  17.824  1.00  0.00     0.277 HD
ENDBRANCH  22  23
ENDBRANCH   1  22
TORSDOF 8
ENDMDL
MODEL 5
REMARK VINA RESULT: -6.222828591      2.762      5.437
REMARK  8 active torsions:
REMARK  status: ('A' for Active; 'I' for Inactive)
REMARK    1  A    between atoms: N1_1  and  C1_4 
REMARK    2  A    between atoms: C2_7  and  N3_8 
REMARK    3  A    between atoms: N3_8  and  C3_9 
REMARK    4  A    between atoms: N3_8  and  C6_16 
REMARK    5  A    between atoms: C3_9  and  C4_10 
REMARK    6  A    between atoms: C4_10  and  C5_11 
REMARK    7  A    between atoms: C5_11  and  N4_12 
REMARK    8  A    between atoms: C6_16  and  C7_17 
ROOT
HETATM    1  N3  UNL     1      40.841  30.225  17.545  1.00  0.00    -0.215 N 
ENDROOT
BRANCH   1   2
HETATM    2  C2  UNL     1      40.118  29.347  18.401  1.00  0.00     0.699 A 
HETATM    3  N2  UNL     1      40.620  28.131  18.772  1.00  0.00    -0.022 N 
HETATM    4  C1  UNL     1      39.896  27.314  19.577  1.00  0.00     0.694 A 
ATOM      5  H2  UNL     1      41.540  27.838  18.442  1.00  0.00     0.203 HD
HETATM    6  N7  UNL     1      38.684  27.671  20.026  1.00  0.00    -0.141 N 
HETATM    7  C10 UNL     1      38.162  28.871  19.675  1.00  0.00     0.352 A 
ATOM      8  H7  UNL     1      38.156  27.041  20.630  1.00  0.00     0.189 HD
HETATM    9  N6  UNL     1      38.919  29.629  18.883  1.00  0.00    -0.140 N 
HETATM   10  O1  UNL     1      37.031  29.263  20.065  1.00  0.00    -0.246 OA
ATOM     11  H6  UNL     1      38.528  30.533  18.618  1.00  0.00     0.189 HD
BRANCH   4  12
HETATM   12  N1  UNL     1      40.382  26.148  19.931  1.00  0.00    -0.234 N 
ATOM     13  H12 UNL     1      40.629  25.478  19.203  1.00  0.00     0.174 HD
ATOM     14  H11 UNL     1      40.505  25.929  20.920  1.00  0.00     0.174 HD
ENDBRANCH   4  12
ENDBRANCH   1   2
BRANCH   1  15
HETATM   15  C3  UNL     1      41.039  31.609  17.811  1.00  0.00     0.143 C 
BRANCH  15  16
HETATM   16  C4  UNL     1      40.882  32.076  19.229  1.00  0.00     0.048 C 
BRANCH  16  17
HETATM   17  C5  UNL     1      42.234  31.789  19.942  1.00  0.00     0.231 C 
BRANCH  17  18
HETATM   18  N4  UNL     1      42.364  32.651  21.094  1.00  0.00    -0.079 N 
ATOM     19  H43 UNL     1      43.129  33.317  20.991  1.00  0.00     0.274 HD
ATOM     20  H42 UNL     1      41.597  33.320  21.164  1.00  0.00     0.274 HD
ATOM     21  H41 UNL     1      42.457  32.083  21.936  1.00  0.00     0.274 HD
ENDBRANCH  17  18
ENDBRANCH  16  17
ENDBRANCH  15  16
ENDBRANCH   1  15
BRANCH   1  22
HETATM   22  C6  UNL     1      41.424  29.694  16.308  1.00  0.00     0.174 C 
BRANCH  22  23
HETATM   23  C7  UNL     1      42.779  30.298  16.075  1.00  0.00     0.205 C 
HETATM   24  C8  UNL     1      43.903  29.446  16.688  1.00  0.00     0.062 C 
HETATM   25  C9  UNL     1      44.124  28.841  15.326  1.00  0.00     0.235 C 
HETATM   26  N5  UNL     1      43.401  29.959  14.785  1.00  0.00    -0.069 N 
ATOM     27  H52 UNL     1      42.795  29.802  13.979  1.00  0.00     0.277 HD
ATOM     28  H51 UNL     1      43.923  30.683  14.291  1.00  0.00     0.277 HD
ENDBRANCH  22  23
ENDBRANCH   1  22
TORSDOF 8
ENDMDL
