MODEL 1
REMARK VINA RESULT: -8.828189455      0.000      0.000
REMARK  11 active torsions:
REMARK  status: ('A' for Active; 'I' for Inactive)
REMARK    1  A    between atoms: N1_2  and  N2_3 
REMARK    2  A    between atoms: N1_2  and  C9_32 
REMARK       I    between atoms: N2_3  and  C2_4 
REMARK    3  A    between atoms: C2_4  and  C3_6 
REMARK    4  A    between atoms: C4_11  and  C5_12 
REMARK    5  A    between atoms: C5_12  and  C6_13 
REMARK    6  A    between atoms: C7_16  and  N6_17 
REMARK    7  A    between atoms: C8_22  and  N8_23 
REMARK    8  A    between atoms: N10_28  and  N11_29 
REMARK    9  A    between atoms: C10_35  and  C11_36 
REMARK   10  A    between atoms: C12_42  and  N15_43 
REMARK   11  A    between atoms: C13_48  and  N17_49 
ROOT
HETATM    1  N2  UNL     1      15.520 -12.759  48.210  1.00  0.00    -0.261 NA
HETATM    2  C2  UNL     1      15.693 -11.533  48.972  1.00  0.00     0.383 C 
HETATM    3  O1  UNL     1      15.780 -10.446  48.521  1.00  0.00    -0.246 OA
ENDROOT
BRANCH   2   4
HETATM    4  C3  UNL     1      15.753 -11.759  50.435  1.00  0.00     0.229 A 
HETATM    5  N3  UNL     1      15.867 -12.890  51.114  1.00  0.00    -0.277 N 
HETATM    6  N4  UNL     1      15.953 -12.587  52.409  1.00  0.00    -0.285 N 
ATOM      7  H3  UNL     1      15.885 -13.829  50.715  1.00  0.00     0.189 HD
HETATM    8  C4  UNL     1      15.896 -11.232  52.576  1.00  0.00     0.126 A 
ATOM      9  H4  UNL     1      16.047 -13.267  53.164  1.00  0.00     0.188 HD
HETATM   10  N10 UNL     1      15.771 -10.740  51.358  1.00  0.00    -0.225 N 
BRANCH   8  11
HETATM   11  C5  UNL     1      16.006 -10.550  53.876  1.00  0.00     0.157 C 
BRANCH  11  12
HETATM   12  C6  UNL     1      16.938 -11.245  54.805  1.00  0.00     0.120 A 
HETATM   13  N5  UNL     1      16.464 -11.914  55.850  1.00  0.00    -0.179 N 
HETATM   14  C7  UNL     1      17.266 -12.560  56.728  1.00  0.00     0.691 A 
ATOM     15  H5  UNL     1      15.455 -11.940  55.997  1.00  0.00     0.185 HD
HETATM   16  N7  UNL     1      18.605 -12.492  56.488  1.00  0.00    -0.023 N 
HETATM   17  C8  UNL     1      19.112 -11.826  55.444  1.00  0.00     0.691 A 
ATOM     18  H7  UNL     1      19.245 -12.967  57.126  1.00  0.00     0.203 HD
HETATM   19  N9  UNL     1      18.281 -11.215  54.620  1.00  0.00    -0.179 N 
ATOM     20  H9  UNL     1      18.661 -10.705  53.822  1.00  0.00     0.185 HD
BRANCH  14  21
HETATM   21  N6  UNL     1      16.836 -13.190  57.737  1.00  0.00    -0.234 N 
ATOM     22  H62 UNL     1      16.206 -13.983  57.611  1.00  0.00     0.174 HD
ATOM     23  H61 UNL     1      17.092 -12.962  58.698  1.00  0.00     0.174 HD
ENDBRANCH  14  21
BRANCH  17  24
HETATM   24  N8  UNL     1      20.422 -11.802  55.276  1.00  0.00    -0.234 N 
ATOM     25  H82 UNL     1      21.074 -11.999  56.035  1.00  0.00     0.174 HD
ATOM     26  H81 UNL     1      20.797 -11.580  54.354  1.00  0.00     0.174 HD
ENDBRANCH  17  24
ENDBRANCH  11  12
ENDBRANCH   8  11
BRANCH  10  27
HETATM   27  N11 UNL     1      15.658  -9.395  50.992  1.00  0.00    -0.335 N 
ATOM     28 2H11 UNL     1      15.539  -9.016  50.053  1.00  0.00     0.177 HD
ATOM     29 1H11 UNL     1      15.694  -8.637  51.674  1.00  0.00     0.177 HD
ENDBRANCH  10  27
ENDBRANCH   2   4
BRANCH   1  30
HETATM   30  N1  UNL     1      15.372 -13.808  47.544  1.00  0.00    -0.057 N 
HETATM   31  C1  UNL     1      16.385 -14.876  47.419  1.00  0.00     0.213 C 
BRANCH  30  32
HETATM   32  C9  UNL     1      14.148 -14.028  46.779  1.00  0.00     0.725 A 
HETATM   33  N12 UNL     1      13.856 -13.234  45.769  1.00  0.00    -0.171 N 
HETATM   34  C10 UNL     1      12.694 -13.422  45.057  1.00  0.00     0.169 A 
ATOM     35  H12 UNL     1      14.492 -12.479  45.515  1.00  0.00     0.186 HD
HETATM   36  N16 UNL     1      11.927 -14.417  45.444  1.00  0.00    -0.173 N 
HETATM   37  C13 UNL     1      12.202 -15.261  46.488  1.00  0.00     0.692 A 
ATOM     38  H16 UNL     1      11.061 -14.574  44.928  1.00  0.00     0.186 HD
HETATM   39  N18 UNL     1      13.327 -15.059  47.157  1.00  0.00    -0.020 N 
ATOM     40  H18 UNL     1      13.578 -15.662  47.941  1.00  0.00     0.203 HD
BRANCH  34  41
HETATM   41  C11 UNL     1      12.393 -12.466  43.993  1.00  0.00     0.146 A 
HETATM   42  N13 UNL     1      12.987 -11.262  43.859  1.00  0.00    -0.234 N 
HETATM   43  O2  UNL     1      12.513 -10.581  42.901  1.00  0.00    -0.155 OA
ATOM     44  H13 UNL     1      13.739 -10.935  44.465  1.00  0.00     0.197 HD
HETATM   45  N14 UNL     1      11.593 -11.282  42.351  1.00  0.00    -0.224 N 
HETATM   46  C12 UNL     1      11.452 -12.496  42.992  1.00  0.00     0.154 A 
ATOM     47  H14 UNL     1      11.040 -10.984  41.547  1.00  0.00     0.198 HD
BRANCH  46  48
HETATM   48  N15 UNL     1      10.570 -13.346  42.699  1.00  0.00    -0.382 N 
ATOM     49 2H15 UNL     1      10.544 -14.292  43.081  1.00  0.00     0.157 HD
ATOM     50 1H15 UNL     1       9.798 -13.318  42.033  1.00  0.00     0.157 HD
ENDBRANCH  46  48
ENDBRANCH  34  41
BRANCH  37  51
HETATM   51  N17 UNL     1      11.368 -16.212  46.776  1.00  0.00    -0.234 N 
ATOM     52 2H17 UNL     1      11.174 -16.511  47.732  1.00  0.00     0.174 HD
ATOM     53 1H17 UNL     1      10.878 -16.694  46.023  1.00  0.00     0.174 HD
ENDBRANCH  37  51
ENDBRANCH  30  32
ENDBRANCH   1  30
TORSDOF 11
ENDMDL
MODEL 2
REMARK VINA RESULT: -8.675253160      2.759      9.714
REMARK  11 active torsions:
REMARK  status: ('A' for Active; 'I' for Inactive)
REMARK    1  A    between atoms: N1_2  and  N2_3 
REMARK    2  A    between atoms: N1_2  and  C9_32 
REMARK       I    between atoms: N2_3  and  C2_4 
REMARK    3  A    between atoms: C2_4  and  C3_6 
REMARK    4  A    between atoms: C4_11  and  C5_12 
REMARK    5  A    between atoms: C5_12  and  C6_13 
REMARK    6  A    between atoms: C7_16  and  N6_17 
REMARK    7  A    between atoms: C8_22  and  N8_23 
REMARK    8  A    between atoms: N10_28  and  N11_29 
REMARK    9  A    between atoms: C10_35  and  C11_36 
REMARK   10  A    between atoms: C12_42  and  N15_43 
REMARK   11  A    between atoms: C13_48  and  N17_49 
ROOT
HETATM    1  N2  UNL     1      14.422 -15.412  50.281  1.00  0.00    -0.261 NA
HETATM    2  C2  UNL     1      13.148 -15.094  49.657  1.00  0.00     0.383 C 
HETATM    3  O1  UNL     1      12.105 -15.568  49.936  1.00  0.00    -0.246 OA
ENDROOT
BRANCH   2   4
HETATM    4  C3  UNL     1      13.260 -14.074  48.588  1.00  0.00     0.229 A 
HETATM    5  N3  UNL     1      13.173 -12.755  48.663  1.00  0.00    -0.277 N 
HETATM    6  N4  UNL     1      13.413 -12.256  47.450  1.00  0.00    -0.285 N 
ATOM      7  H3  UNL     1      12.958 -12.215  49.501  1.00  0.00     0.189 HD
HETATM    8  C4  UNL     1      13.665 -13.271  46.569  1.00  0.00     0.126 A 
ATOM      9  H4  UNL     1      13.410 -11.264  47.215  1.00  0.00     0.188 HD
HETATM   10  N10 UNL     1      13.564 -14.377  47.282  1.00  0.00    -0.225 N 
BRANCH   8  11
HETATM   11  C5  UNL     1      14.011 -13.074  45.152  1.00  0.00     0.157 C 
BRANCH  11  12
HETATM   12  C6  UNL     1      12.812 -13.075  44.270  1.00  0.00     0.120 A 
HETATM   13  N5  UNL     1      12.560 -12.035  43.484  1.00  0.00    -0.179 N 
HETATM   14  C7  UNL     1      11.484 -11.981  42.666  1.00  0.00     0.691 A 
ATOM     15  H5  UNL     1      13.205 -11.245  43.497  1.00  0.00     0.185 HD
HETATM   16  N7  UNL     1      10.654 -13.062  42.686  1.00  0.00    -0.023 N 
HETATM   17  C8  UNL     1      10.881 -14.123  43.468  1.00  0.00     0.691 A 
ATOM     18  H7  UNL     1       9.830 -13.062  42.084  1.00  0.00     0.203 HD
HETATM   19  N9  UNL     1      11.948 -14.120  44.246  1.00  0.00    -0.179 N 
ATOM     20  H9  UNL     1      12.128 -14.926  44.844  1.00  0.00     0.185 HD
BRANCH  14  21
HETATM   21  N6  UNL     1      11.218 -10.995  41.919  1.00  0.00    -0.234 N 
ATOM     22  H62 UNL     1      11.882 -10.225  41.840  1.00  0.00     0.174 HD
ATOM     23  H61 UNL     1      10.365 -10.919  41.365  1.00  0.00     0.174 HD
ENDBRANCH  14  21
BRANCH  17  24
HETATM   24  N8  UNL     1      10.031 -15.134  43.437  1.00  0.00    -0.234 N 
ATOM     25  H82 UNL     1       9.352 -15.255  42.685  1.00  0.00     0.174 HD
ATOM     26  H81 UNL     1      10.053 -15.821  44.191  1.00  0.00     0.174 HD
ENDBRANCH  17  24
ENDBRANCH  11  12
ENDBRANCH   8  11
BRANCH  10  27
HETATM   27  N11 UNL     1      13.720 -15.693  46.834  1.00  0.00    -0.335 N 
ATOM     28 2H11 UNL     1      14.430 -16.366  47.123  1.00  0.00     0.177 HD
ATOM     29 1H11 UNL     1      13.105 -16.110  46.135  1.00  0.00     0.177 HD
ENDBRANCH  10  27
ENDBRANCH   2   4
BRANCH   1  30
HETATM   30  N1  UNL     1      15.513 -15.694  50.824  1.00  0.00    -0.057 N 
HETATM   31  C1  UNL     1      16.154 -17.024  50.784  1.00  0.00     0.213 C 
BRANCH  30  32
HETATM   32  C9  UNL     1      16.228 -14.689  51.606  1.00  0.00     0.725 A 
HETATM   33  N12 UNL     1      15.840 -13.431  51.566  1.00  0.00    -0.171 N 
HETATM   34  C10 UNL     1      16.522 -12.476  52.284  1.00  0.00     0.169 A 
ATOM     35  H12 UNL     1      15.032 -13.165  51.004  1.00  0.00     0.186 HD
HETATM   36  N16 UNL     1      17.550 -12.897  52.986  1.00  0.00    -0.173 N 
HETATM   37  C13 UNL     1      17.979 -14.197  53.049  1.00  0.00     0.692 A 
ATOM     38  H16 UNL     1      18.068 -12.204  53.526  1.00  0.00     0.186 HD
HETATM   39  N18 UNL     1      17.305 -15.097  52.351  1.00  0.00    -0.020 N 
ATOM     40  H18 UNL     1      17.583 -16.079  52.366  1.00  0.00     0.203 HD
BRANCH  34  41
HETATM   41  C11 UNL     1      16.086 -11.088  52.144  1.00  0.00     0.146 A 
HETATM   42  N13 UNL     1      15.695 -10.304  53.171  1.00  0.00    -0.234 N 
HETATM   43  O2  UNL     1      15.295  -9.162  52.798  1.00  0.00    -0.155 OA
ATOM     44  H13 UNL     1      15.719 -10.602  54.146  1.00  0.00     0.197 HD
HETATM   45  N14 UNL     1      15.398  -9.119  51.521  1.00  0.00    -0.224 N 
HETATM   46  C12 UNL     1      15.890 -10.310  51.028  1.00  0.00     0.154 A 
ATOM     47  H14 UNL     1      15.150  -8.313  50.946  1.00  0.00     0.198 HD
BRANCH  46  48
HETATM   48  N15 UNL     1      16.020 -10.562  49.802  1.00  0.00    -0.382 N 
ATOM     49 2H15 UNL     1      16.349 -11.456  49.436  1.00  0.00     0.157 HD
ATOM     50 1H15 UNL     1      15.906  -9.975  48.975  1.00  0.00     0.157 HD
ENDBRANCH  46  48
ENDBRANCH  34  41
BRANCH  37  51
HETATM   51  N17 UNL     1      19.008 -14.494  53.781  1.00  0.00    -0.234 N 
ATOM     52 2H17 UNL     1      19.746 -13.826  54.000  1.00  0.00     0.174 HD
ATOM     53 1H17 UNL     1      19.099 -15.437  54.159  1.00  0.00     0.174 HD
ENDBRANCH  37  51
ENDBRANCH  30  32
ENDBRANCH   1  30
TORSDOF 11
ENDMDL
MODEL 3
REMARK VINA RESULT: -8.457485080      2.470      9.552
REMARK  11 active torsions:
REMARK  status: ('A' for Active; 'I' for Inactive)
REMARK    1  A    between atoms: N1_2  and  N2_3 
REMARK    2  A    between atoms: N1_2  and  C9_32 
REMARK       I    between atoms: N2_3  and  C2_4 
REMARK    3  A    between atoms: C2_4  and  C3_6 
REMARK    4  A    between atoms: C4_11  and  C5_12 
REMARK    5  A    between atoms: C5_12  and  C6_13 
REMARK    6  A    between atoms: C7_16  and  N6_17 
REMARK    7  A    between atoms: C8_22  and  N8_23 
REMARK    8  A    between atoms: N10_28  and  N11_29 
REMARK    9  A    between atoms: C10_35  and  C11_36 
REMARK   10  A    between atoms: C12_42  and  N15_43 
REMARK   11  A    between atoms: C13_48  and  N17_49 
ROOT
HETATM    1  N2  UNL     1      15.824 -15.641  50.010  1.00  0.00    -0.261 NA
HETATM    2  C2  UNL     1      15.591 -15.581  48.576  1.00  0.00     0.383 C 
HETATM    3  O1  UNL     1      16.073 -16.292  47.767  1.00  0.00    -0.246 OA
ENDROOT
BRANCH   2   4
HETATM    4  C3  UNL     1      14.652 -14.505  48.182  1.00  0.00     0.229 A 
HETATM    5  N3  UNL     1      13.618 -14.001  48.838  1.00  0.00    -0.277 N 
HETATM    6  N4  UNL     1      13.120 -12.998  48.114  1.00  0.00    -0.285 N 
ATOM      7  H3  UNL     1      13.264 -14.323  49.738  1.00  0.00     0.189 HD
HETATM    8  C4  UNL     1      13.845 -12.846  46.966  1.00  0.00     0.126 A 
ATOM      9  H4  UNL     1      12.315 -12.429  48.378  1.00  0.00     0.188 HD
HETATM   10  N10 UNL     1      14.778 -13.778  47.022  1.00  0.00    -0.225 N 
BRANCH   8  11
HETATM   11  C5  UNL     1      13.595 -11.803  45.957  1.00  0.00     0.157 C 
BRANCH  11  12
HETATM   12  C6  UNL     1      12.732 -12.286  44.845  1.00  0.00     0.120 A 
HETATM   13  N5  UNL     1      12.304 -13.543  44.829  1.00  0.00    -0.179 N 
HETATM   14  C7  UNL     1      11.522 -14.036  43.841  1.00  0.00     0.691 A 
ATOM     15  H5  UNL     1      12.575 -14.162  45.593  1.00  0.00     0.185 HD
HETATM   16  N7  UNL     1      11.188 -13.169  42.844  1.00  0.00    -0.023 N 
HETATM   17  C8  UNL     1      11.606 -11.898  42.832  1.00  0.00     0.691 A 
ATOM     18  H7  UNL     1      10.599 -13.501  42.079  1.00  0.00     0.203 HD
HETATM   19  N9  UNL     1      12.366 -11.472  43.823  1.00  0.00    -0.179 N 
ATOM     20  H9  UNL     1      12.688 -10.505  43.821  1.00  0.00     0.185 HD
BRANCH  14  21
HETATM   21  N6  UNL     1      11.114 -15.233  43.800  1.00  0.00    -0.234 N 
ATOM     22  H62 UNL     1      11.783 -16.000  43.856  1.00  0.00     0.174 HD
ATOM     23  H61 UNL     1      10.130 -15.493  43.724  1.00  0.00     0.174 HD
ENDBRANCH  14  21
BRANCH  17  24
HETATM   24  N8  UNL     1      11.244 -11.116  41.830  1.00  0.00    -0.234 N 
ATOM     25  H82 UNL     1      11.923 -10.663  41.218  1.00  0.00     0.174 HD
ATOM     26  H81 UNL     1      10.251 -10.961  41.659  1.00  0.00     0.174 HD
ENDBRANCH  17  24
ENDBRANCH  11  12
ENDBRANCH   8  11
BRANCH  10  27
HETATM   27  N11 UNL     1      15.769 -14.046  46.072  1.00  0.00    -0.335 N 
ATOM     28 2H11 UNL     1      16.315 -14.902  45.971  1.00  0.00     0.177 HD
ATOM     29 1H11 UNL     1      16.049 -13.366  45.366  1.00  0.00     0.177 HD
ENDBRANCH  10  27
ENDBRANCH   2   4
BRANCH   1  30
HETATM   30  N1  UNL     1      16.033 -15.701  51.242  1.00  0.00    -0.057 N 
HETATM   31  C1  UNL     1      15.727 -16.870  52.091  1.00  0.00     0.213 C 
BRANCH  30  32
HETATM   32  C9  UNL     1      16.575 -14.548  51.954  1.00  0.00     0.725 A 
HETATM   33  N12 UNL     1      16.106 -13.343  51.702  1.00  0.00    -0.171 N 
HETATM   34  C10 UNL     1      16.627 -12.249  52.354  1.00  0.00     0.169 A 
ATOM     35  H12 UNL     1      15.356 -13.220  51.023  1.00  0.00     0.186 HD
HETATM   36  N16 UNL     1      17.590 -12.488  53.216  1.00  0.00    -0.173 N 
HETATM   37  C13 UNL     1      18.099 -13.728  53.502  1.00  0.00     0.692 A 
ATOM     38  H16 UNL     1      17.989 -11.690  53.711  1.00  0.00     0.186 HD
HETATM   39  N18 UNL     1      17.581 -14.764  52.862  1.00  0.00    -0.020 N 
ATOM     40  H18 UNL     1      17.924 -15.708  53.041  1.00  0.00     0.203 HD
BRANCH  34  41
HETATM   41  C11 UNL     1      16.113 -10.933  51.980  1.00  0.00     0.146 A 
HETATM   42  N13 UNL     1      16.070 -10.462  50.716  1.00  0.00    -0.234 N 
HETATM   43  O2  UNL     1      15.647  -9.270  50.647  1.00  0.00    -0.155 OA
ATOM     44  H13 UNL     1      16.348 -11.009  49.902  1.00  0.00     0.197 HD
HETATM   45  N14 UNL     1      15.386  -8.886  51.842  1.00  0.00    -0.224 N 
HETATM   46  C12 UNL     1      15.662  -9.887  52.749  1.00  0.00     0.154 A 
ATOM     47  H14 UNL     1      15.024  -7.964  52.088  1.00  0.00     0.198 HD
BRANCH  46  48
HETATM   48  N15 UNL     1      15.564  -9.750  53.997  1.00  0.00    -0.382 N 
ATOM     49 2H15 UNL     1      16.153  -9.126  54.548  1.00  0.00     0.157 HD
ATOM     50 1H15 UNL     1      14.984 -10.228  54.686  1.00  0.00     0.157 HD
ENDBRANCH  46  48
ENDBRANCH  34  41
BRANCH  37  51
HETATM   51  N17 UNL     1      19.051 -13.840  54.376  1.00  0.00    -0.234 N 
ATOM     52 2H17 UNL     1      19.991 -14.154  54.138  1.00  0.00     0.174 HD
ATOM     53 1H17 UNL     1      18.865 -13.610  55.352  1.00  0.00     0.174 HD
ENDBRANCH  37  51
ENDBRANCH  30  32
ENDBRANCH   1  30
TORSDOF 11
ENDMDL
MODEL 4
REMARK VINA RESULT: -8.454443947      1.624      2.484
REMARK  11 active torsions:
REMARK  status: ('A' for Active; 'I' for Inactive)
REMARK    1  A    between atoms: N1_2  and  N2_3 
REMARK    2  A    between atoms: N1_2  and  C9_32 
REMARK       I    between atoms: N2_3  and  C2_4 
REMARK    3  A    between atoms: C2_4  and  C3_6 
REMARK    4  A    between atoms: C4_11  and  C5_12 
REMARK    5  A    between atoms: C5_12  and  C6_13 
REMARK    6  A    between atoms: C7_16  and  N6_17 
REMARK    7  A    between atoms: C8_22  and  N8_23 
REMARK    8  A    between atoms: N10_28  and  N11_29 
REMARK    9  A    between atoms: C10_35  and  C11_36 
REMARK   10  A    between atoms: C12_42  and  N15_43 
REMARK   11  A    between atoms: C13_48  and  N17_49 
ROOT
HETATM    1  N2  UNL     1      14.809 -12.576  48.345  1.00  0.00    -0.261 NA
HETATM    2  C2  UNL     1      15.527 -11.507  49.021  1.00  0.00     0.383 C 
HETATM    3  O1  UNL     1      15.977 -10.545  48.509  1.00  0.00    -0.246 OA
ENDROOT
BRANCH   2   4
HETATM    4  C3  UNL     1      15.659 -11.726  50.481  1.00  0.00     0.229 A 
HETATM    5  N3  UNL     1      15.831 -12.852  51.157  1.00  0.00    -0.277 N 
HETATM    6  N4  UNL     1      15.968 -12.542  52.446  1.00  0.00    -0.285 N 
ATOM      7  H3  UNL     1      15.854 -13.792  50.761  1.00  0.00     0.189 HD
HETATM    8  C4  UNL     1      15.886 -11.187  52.612  1.00  0.00     0.126 A 
ATOM      9  H4  UNL     1      16.113 -13.216  53.198  1.00  0.00     0.188 HD
HETATM   10  N10 UNL     1      15.694 -10.704  51.399  1.00  0.00    -0.225 N 
BRANCH   8  11
HETATM   11  C5  UNL     1      16.037 -10.498  53.904  1.00  0.00     0.157 C 
BRANCH  11  12
HETATM   12  C6  UNL     1      16.968 -11.211  54.821  1.00  0.00     0.120 A 
HETATM   13  N5  UNL     1      16.494 -11.879  55.867  1.00  0.00    -0.179 N 
HETATM   14  C7  UNL     1      17.294 -12.540  56.735  1.00  0.00     0.691 A 
ATOM     15  H5  UNL     1      15.486 -11.894  56.021  1.00  0.00     0.185 HD
HETATM   16  N7  UNL     1      18.632 -12.488  56.485  1.00  0.00    -0.023 N 
HETATM   17  C8  UNL     1      19.139 -11.823  55.440  1.00  0.00     0.691 A 
ATOM     18  H7  UNL     1      19.271 -12.974  57.115  1.00  0.00     0.203 HD
HETATM   19  N9  UNL     1      18.310 -11.196  54.626  1.00  0.00    -0.179 N 
ATOM     20  H9  UNL     1      18.689 -10.687  53.828  1.00  0.00     0.185 HD
BRANCH  14  21
HETATM   21  N6  UNL     1      16.864 -13.171  57.744  1.00  0.00    -0.234 N 
ATOM     22  H62 UNL     1      15.969 -12.915  58.160  1.00  0.00     0.174 HD
ATOM     23  H61 UNL     1      17.360 -13.950  58.177  1.00  0.00     0.174 HD
ENDBRANCH  14  21
BRANCH  17  24
HETATM   24  N8  UNL     1      20.448 -11.814  55.263  1.00  0.00    -0.234 N 
ATOM     25  H82 UNL     1      21.084 -11.339  55.903  1.00  0.00     0.174 HD
ATOM     26  H81 UNL     1      20.840 -12.301  54.456  1.00  0.00     0.174 HD
ENDBRANCH  17  24
ENDBRANCH  11  12
ENDBRANCH   8  11
BRANCH  10  27
HETATM   27  N11 UNL     1      15.531  -9.363  51.036  1.00  0.00    -0.335 N 
ATOM     28 2H11 UNL     1      15.435  -8.983  50.094  1.00  0.00     0.177 HD
ATOM     29 1H11 UNL     1      15.501  -8.609  51.722  1.00  0.00     0.177 HD
ENDBRANCH  10  27
ENDBRANCH   2   4
BRANCH   1  30
HETATM   30  N1  UNL     1      14.193 -13.489  47.753  1.00  0.00    -0.057 N 
HETATM   31  C1  UNL     1      14.089 -14.883  48.232  1.00  0.00     0.213 C 
BRANCH  30  32
HETATM   32  C9  UNL     1      13.550 -13.230  46.468  1.00  0.00     0.725 A 
HETATM   33  N12 UNL     1      12.755 -14.137  45.938  1.00  0.00    -0.171 N 
HETATM   34  C10 UNL     1      12.163 -13.908  44.718  1.00  0.00     0.169 A 
ATOM     35  H12 UNL     1      12.578 -15.011  46.434  1.00  0.00     0.186 HD
HETATM   36  N16 UNL     1      12.437 -12.759  44.143  1.00  0.00    -0.173 N 
HETATM   37  C13 UNL     1      13.259 -11.795  44.667  1.00  0.00     0.692 A 
ATOM     38  H16 UNL     1      12.007 -12.570  43.238  1.00  0.00     0.186 HD
HETATM   39  N18 UNL     1      13.816 -12.039  45.842  1.00  0.00    -0.020 N 
ATOM     40  H18 UNL     1      14.433 -11.351  46.275  1.00  0.00     0.203 HD
BRANCH  34  41
HETATM   41  C11 UNL     1      11.348 -14.981  44.152  1.00  0.00     0.146 A 
HETATM   42  N13 UNL     1      11.576 -16.297  44.347  1.00  0.00    -0.234 N 
HETATM   43  O2  UNL     1      10.779 -17.039  43.701  1.00  0.00    -0.155 OA
ATOM     44  H13 UNL     1      12.315 -16.656  44.952  1.00  0.00     0.197 HD
HETATM   45  N14 UNL     1       9.984 -16.272  43.051  1.00  0.00    -0.224 N 
HETATM   46  C12 UNL     1      10.284 -14.946  43.282  1.00  0.00     0.154 A 
ATOM     47  H14 UNL     1       9.231 -16.598  42.444  1.00  0.00     0.198 HD
BRANCH  46  48
HETATM   48  N15 UNL     1       9.705 -13.984  42.711  1.00  0.00    -0.382 N 
ATOM     49 2H15 UNL     1      10.189 -13.160  42.354  1.00  0.00     0.157 HD
ATOM     50 1H15 UNL     1       8.717 -13.791  42.549  1.00  0.00     0.157 HD
ENDBRANCH  46  48
ENDBRANCH  34  41
BRANCH  37  51
HETATM   51  N17 UNL     1      13.453 -10.696  44.006  1.00  0.00    -0.234 N 
ATOM     52 2H17 UNL     1      12.750 -10.283  43.393  1.00  0.00     0.174 HD
ATOM     53 1H17 UNL     1      14.347 -10.212  44.089  1.00  0.00     0.174 HD
ENDBRANCH  37  51
ENDBRANCH  30  32
ENDBRANCH   1  30
TORSDOF 11
ENDMDL
MODEL 5
REMARK VINA RESULT: -8.350787102      1.779      2.273
REMARK  11 active torsions:
REMARK  status: ('A' for Active; 'I' for Inactive)
REMARK    1  A    between atoms: N1_2  and  N2_3 
REMARK    2  A    between atoms: N1_2  and  C9_32 
REMARK       I    between atoms: N2_3  and  C2_4 
REMARK    3  A    between atoms: C2_4  and  C3_6 
REMARK    4  A    between atoms: C4_11  and  C5_12 
REMARK    5  A    between atoms: C5_12  and  C6_13 
REMARK    6  A    between atoms: C7_16  and  N6_17 
REMARK    7  A    between atoms: C8_22  and  N8_23 
REMARK    8  A    between atoms: N10_28  and  N11_29 
REMARK    9  A    between atoms: C10_35  and  C11_36 
REMARK   10  A    between atoms: C12_42  and  N15_43 
REMARK   11  A    between atoms: C13_48  and  N17_49 
ROOT
HETATM    1  N2  UNL     1      15.615 -12.128  49.190  1.00  0.00    -0.261 NA
HETATM    2  C2  UNL     1      15.978 -10.753  49.488  1.00  0.00     0.383 C 
HETATM    3  O1  UNL     1      16.376  -9.959  48.710  1.00  0.00    -0.246 OA
ENDROOT
BRANCH   2   4
HETATM    4  C3  UNL     1      15.801 -10.398  50.915  1.00  0.00     0.229 A 
HETATM    5  N3  UNL     1      14.934  -9.573  51.483  1.00  0.00    -0.277 N 
HETATM    6  N4  UNL     1      15.109  -9.636  52.803  1.00  0.00    -0.285 N 
ATOM      7  H3  UNL     1      14.253  -8.992  50.995  1.00  0.00     0.189 HD
HETATM    8  C4  UNL     1      16.108 -10.521  53.101  1.00  0.00     0.126 A 
ATOM      9  H4  UNL     1      14.576  -9.102  53.489  1.00  0.00     0.188 HD
HETATM   10  N10 UNL     1      16.523 -10.976  51.933  1.00  0.00    -0.225 N 
BRANCH   8  11
HETATM   11  C5  UNL     1      16.532 -10.864  54.467  1.00  0.00     0.157 C 
BRANCH  11  12
HETATM   12  C6  UNL     1      16.965 -12.283  54.587  1.00  0.00     0.120 A 
HETATM   13  N5  UNL     1      16.062 -13.256  54.624  1.00  0.00    -0.179 N 
HETATM   14  C7  UNL     1      16.399 -14.562  54.737  1.00  0.00     0.691 A 
ATOM     15  H5  UNL     1      15.074 -13.008  54.566  1.00  0.00     0.185 HD
HETATM   16  N7  UNL     1      17.731 -14.839  54.812  1.00  0.00    -0.023 N 
HETATM   17  C8  UNL     1      18.663 -13.880  54.778  1.00  0.00     0.691 A 
ATOM     18  H7  UNL     1      18.028 -15.811  54.897  1.00  0.00     0.203 HD
HETATM   19  N9  UNL     1      18.276 -12.623  54.667  1.00  0.00    -0.179 N 
ATOM     20  H9  UNL     1      18.981 -11.887  54.640  1.00  0.00     0.185 HD
BRANCH  14  21
HETATM   21  N6  UNL     1      15.555 -15.502  54.788  1.00  0.00    -0.234 N 
ATOM     22  H62 UNL     1      15.299 -15.909  55.687  1.00  0.00     0.174 HD
ATOM     23  H61 UNL     1      15.087 -15.887  53.967  1.00  0.00     0.174 HD
ENDBRANCH  14  21
BRANCH  17  24
HETATM   24  N8  UNL     1      19.937 -14.224  54.859  1.00  0.00    -0.234 N 
ATOM     25  H82 UNL     1      20.311 -15.049  54.391  1.00  0.00     0.174 HD
ATOM     26  H81 UNL     1      20.571 -13.643  55.408  1.00  0.00     0.174 HD
ENDBRANCH  17  24
ENDBRANCH  11  12
ENDBRANCH   8  11
BRANCH  10  27
HETATM   27  N11 UNL     1      17.545 -11.901  51.697  1.00  0.00    -0.335 N 
ATOM     28 2H11 UNL     1      17.730 -12.414  50.835  1.00  0.00     0.177 HD
ATOM     29 1H11 UNL     1      18.225 -12.159  52.412  1.00  0.00     0.177 HD
ENDBRANCH  10  27
ENDBRANCH   2   4
BRANCH   1  30
HETATM   30  N1  UNL     1      15.306 -13.311  48.922  1.00  0.00    -0.057 N 
HETATM   31  C1  UNL     1      15.084 -14.371  49.927  1.00  0.00     0.213 C 
BRANCH  30  32
HETATM   32  C9  UNL     1      15.185 -13.744  47.533  1.00  0.00     0.725 A 
HETATM   33  N12 UNL     1      14.437 -13.057  46.695  1.00  0.00    -0.171 N 
HETATM   34  C10 UNL     1      14.302 -13.471  45.391  1.00  0.00     0.169 A 
ATOM     35  H12 UNL     1      13.957 -12.215  47.014  1.00  0.00     0.186 HD
HETATM   36  N16 UNL     1      14.954 -14.562  45.055  1.00  0.00    -0.173 N 
HETATM   37  C13 UNL     1      15.740 -15.299  45.901  1.00  0.00     0.692 A 
ATOM     38  H16 UNL     1      14.868 -14.885  44.091  1.00  0.00     0.186 HD
HETATM   39  N18 UNL     1      15.854 -14.879  47.151  1.00  0.00    -0.020 N 
ATOM     40  H18 UNL     1      16.430 -15.392  47.819  1.00  0.00     0.203 HD
BRANCH  34  41
HETATM   41  C11 UNL     1      13.404 -12.705  44.529  1.00  0.00     0.146 A 
HETATM   42  N13 UNL     1      13.593 -11.414  44.184  1.00  0.00    -0.234 N 
HETATM   43  O2  UNL     1      12.647 -10.944  43.485  1.00  0.00    -0.155 OA
ATOM     44  H13 UNL     1      14.414 -10.874  44.458  1.00  0.00     0.197 HD
HETATM   45  N14 UNL     1      11.787 -11.882  43.325  1.00  0.00    -0.224 N 
HETATM   46  C12 UNL     1      12.194 -13.034  43.964  1.00  0.00     0.154 A 
ATOM     47  H14 UNL     1      10.920 -11.788  42.797  1.00  0.00     0.198 HD
BRANCH  46  48
HETATM   48  N15 UNL     1      11.502 -14.084  44.027  1.00  0.00    -0.382 N 
ATOM     49 2H15 UNL     1      11.897 -15.024  44.074  1.00  0.00     0.157 HD
ATOM     50 1H15 UNL     1      10.494 -14.233  43.982  1.00  0.00     0.157 HD
ENDBRANCH  46  48
ENDBRANCH  34  41
BRANCH  37  51
HETATM   51  N17 UNL     1      16.338 -16.360  45.454  1.00  0.00    -0.234 N 
ATOM     52 2H17 UNL     1      16.143 -16.763  44.537  1.00  0.00     0.174 HD
ATOM     53 1H17 UNL     1      17.034 -16.826  46.035  1.00  0.00     0.174 HD
ENDBRANCH  37  51
ENDBRANCH  30  32
ENDBRANCH   1  30
TORSDOF 11
ENDMDL
