MODEL 1
REMARK VINA RESULT: -9.634953064      0.000      0.000
REMARK  17 active torsions:
REMARK  status: ('A' for Active; 'I' for Inactive)
REMARK    1  A    between atoms: N1_1  and  C1_5 
REMARK    2  A    between atoms: C1_5  and  C2_6 
REMARK    3  A    between atoms: C2_6  and  C3_7 
REMARK    4  A    between atoms: C3_7  and  C4_8 
REMARK    5  A    between atoms: C4_8  and  C5_9 
REMARK    6  A    between atoms: C4_8  and  N4_22 
REMARK    7  A    between atoms: C5_9  and  N2_10 
REMARK    8  A    between atoms: C8_14  and  C9_15 
REMARK    9  A    between atoms: C9_15  and  O1_16 
REMARK   10  A    between atoms: N3_18  and  O2_20 
REMARK       I    between atoms: N4_22  and  C10_24 
REMARK   11  A    between atoms: C10_24  and  C11_26 
REMARK   12  A    between atoms: N5_30  and  C15_31 
REMARK   13  A    between atoms: C15_31  and  O4_32 
REMARK   14  A    between atoms: C15_31  and  C16_34 
REMARK   15  A    between atoms: C16_34  and  N6_42 
REMARK   16  A    between atoms: C17_35  and  C18_36 
REMARK       I    between atoms: N6_42  and  C24_43 
REMARK   17  A    between atoms: C24_43  and  C25_45 
ROOT
HETATM    1  C11 UNL     1      12.269  23.778   6.393  1.00  0.00     0.178 C 
HETATM    2  C12 UNL     1      11.405  22.467   6.127  1.00  0.00     0.037 C 
HETATM    3  C13 UNL     1      11.294  22.573   4.577  1.00  0.00     0.022 C 
HETATM    4  C14 UNL     1      12.357  23.508   4.175  1.00  0.00     0.126 C 
HETATM    5  N5  UNL     1      13.170  23.498   5.436  1.00  0.00    -0.346 N 
ENDROOT
BRANCH   1   6
HETATM    6  C10 UNL     1      11.334  24.951   6.201  1.00  0.00     0.241 C 
HETATM    7  N4  UNL     1       9.942  24.650   6.216  1.00  0.00    -0.353 N 
ATOM      8  H4  UNL     1       9.707  23.686   6.449  1.00  0.00     0.163 HD
HETATM    9  O3  UNL     1      11.776  26.063   6.004  1.00  0.00    -0.271 OA
BRANCH   7  10
HETATM   10  C4  UNL     1       8.799  25.524   5.946  1.00  0.00     0.102 C 
BRANCH  10  11
HETATM   11  C3  UNL     1       8.901  25.571   4.374  1.00  0.00     0.028 C 
BRANCH  11  12
HETATM   12  C2  UNL     1       8.297  24.331   3.878  1.00  0.00     0.029 C 
BRANCH  12  13
HETATM   13  C1  UNL     1       8.693  24.057   2.424  1.00  0.00     0.230 C 
BRANCH  13  14
HETATM   14  N1  UNL     1       9.724  25.045   2.162  1.00  0.00    -0.079 N 
ATOM     15  H13 UNL     1       9.650  25.893   2.724  1.00  0.00     0.274 HD
ATOM     16  H12 UNL     1      10.654  24.782   2.488  1.00  0.00     0.274 HD
ATOM     17  H11 UNL     1       9.657  25.198   1.156  1.00  0.00     0.274 HD
ENDBRANCH  13  14
ENDBRANCH  12  13
ENDBRANCH  11  12
ENDBRANCH  10  11
BRANCH  10  18
HETATM   18  C5  UNL     1       9.029  26.897   6.443  1.00  0.00     0.149 C 
BRANCH  18  19
HETATM   19  N2  UNL     1       8.653  27.065   7.798  1.00  0.00    -0.361 N 
HETATM   20  C6  UNL     1       9.309  27.064   9.079  1.00  0.00     0.078 C 
HETATM   21  S1  UNL     1      10.514  26.165   9.694  1.00  0.00    -0.065 SA
HETATM   22  C7  UNL     1       8.439  28.125   9.588  1.00  0.00     0.103 C 
HETATM   23  C8  UNL     1       7.470  27.476   8.578  1.00  0.00     0.167 C 
BRANCH  23  24
HETATM   24  C9  UNL     1       6.377  28.271   8.075  1.00  0.00     0.159 C 
HETATM   25  N3  UNL     1       5.334  27.751   7.473  1.00  0.00    -0.249 N 
ATOM     26  H3  UNL     1       4.553  28.275   7.079  1.00  0.00     0.196 HD
BRANCH  24  27
HETATM   27  O1  UNL     1       6.342  29.641   8.206  1.00  0.00    -0.347 OA
ATOM     28  H1  UNL     1       5.983  30.206   7.532  1.00  0.00     0.219 HD
ENDBRANCH  24  27
BRANCH  25  29
HETATM   29  O2  UNL     1       5.471  26.344   7.463  1.00  0.00    -0.288 OA
ATOM     30  H2  UNL     1       4.710  25.967   7.037  1.00  0.00     0.244 HD
ENDBRANCH  25  29
ENDBRANCH  23  24
ENDBRANCH  18  19
ENDBRANCH  10  18
ENDBRANCH   7  10
ENDBRANCH   1   6
BRANCH   5  31
HETATM   31  C15 UNL     1      14.505  23.249   5.256  1.00  0.00     0.180 C 
BRANCH  31  32
HETATM   32  O4  UNL     1      15.218  24.282   4.845  1.00  0.00    -0.344 OA
ATOM     33  H4  UNL     1      15.550  24.844   5.535  1.00  0.00     0.219 HD
ENDBRANCH  31  32
BRANCH  31  34
HETATM   34  C16 UNL     1      15.240  21.924   5.557  1.00  0.00     0.158 C 
HETATM   35  C17 UNL     1      15.047  20.833   4.683  1.00  0.00     0.027 C 
BRANCH  35  36
HETATM   36  C18 UNL     1      15.794  19.600   5.025  1.00  0.00     0.011 C 
HETATM   37  C19 UNL     1      15.142  18.515   4.147  1.00  0.00     0.009 C 
HETATM   38  C20 UNL     1      15.801  17.164   4.206  1.00  0.00     0.001 C 
HETATM   39  C21 UNL     1      17.322  17.297   4.023  1.00  0.00     0.000 C 
HETATM   40  C22 UNL     1      17.775  18.238   5.121  1.00  0.00     0.001 C 
HETATM   41  C23 UNL     1      17.225  19.617   4.875  1.00  0.00     0.009 C 
ENDBRANCH  35  36
BRANCH  34  42
HETATM   42  N6  UNL     1      15.635  22.320   6.757  1.00  0.00    -0.366 NA
HETATM   43  C24 UNL     1      16.030  22.820   7.992  1.00  0.00     0.296 C 
HETATM   44  O5  UNL     1      16.159  23.792   8.553  1.00  0.00    -0.257 OA
BRANCH  43  45
HETATM   45  C25 UNL     1      16.529  21.558   8.820  1.00  0.00     0.093 C 
HETATM   46  C26 UNL     1      15.347  20.869   9.409  1.00  0.00     0.015 C 
HETATM   47  C27 UNL     1      15.833  19.510   9.979  1.00  0.00     0.001 C 
HETATM   48  C28 UNL     1      17.206  19.775  10.551  1.00  0.00     0.000 C 
HETATM   49  C29 UNL     1      18.234  20.083   9.515  1.00  0.00     0.001 C 
HETATM   50  C30 UNL     1      17.528  20.702   8.267  1.00  0.00     0.015 C 
ENDBRANCH  43  45
ENDBRANCH  34  42
ENDBRANCH  31  34
ENDBRANCH   5  31
TORSDOF 17
ENDMDL
MODEL 2
REMARK VINA RESULT: -9.566441890      3.399     10.953
REMARK  17 active torsions:
REMARK  status: ('A' for Active; 'I' for Inactive)
REMARK    1  A    between atoms: N1_1  and  C1_5 
REMARK    2  A    between atoms: C1_5  and  C2_6 
REMARK    3  A    between atoms: C2_6  and  C3_7 
REMARK    4  A    between atoms: C3_7  and  C4_8 
REMARK    5  A    between atoms: C4_8  and  C5_9 
REMARK    6  A    between atoms: C4_8  and  N4_22 
REMARK    7  A    between atoms: C5_9  and  N2_10 
REMARK    8  A    between atoms: C8_14  and  C9_15 
REMARK    9  A    between atoms: C9_15  and  O1_16 
REMARK   10  A    between atoms: N3_18  and  O2_20 
REMARK       I    between atoms: N4_22  and  C10_24 
REMARK   11  A    between atoms: C10_24  and  C11_26 
REMARK   12  A    between atoms: N5_30  and  C15_31 
REMARK   13  A    between atoms: C15_31  and  O4_32 
REMARK   14  A    between atoms: C15_31  and  C16_34 
REMARK   15  A    between atoms: C16_34  and  N6_42 
REMARK   16  A    between atoms: C17_35  and  C18_36 
REMARK       I    between atoms: N6_42  and  C24_43 
REMARK   17  A    between atoms: C24_43  and  C25_45 
ROOT
HETATM    1  C11 UNL     1      13.923  21.853   5.969  1.00  0.00     0.178 C 
HETATM    2  C12 UNL     1      13.901  21.688   7.552  1.00  0.00     0.037 C 
HETATM    3  C13 UNL     1      15.051  22.678   7.904  1.00  0.00     0.022 C 
HETATM    4  C14 UNL     1      15.218  23.519   6.707  1.00  0.00     0.126 C 
HETATM    5  N5  UNL     1      13.929  23.196   6.010  1.00  0.00    -0.346 N 
ENDROOT
BRANCH   1   6
HETATM    6  C10 UNL     1      15.156  21.127   5.480  1.00  0.00     0.241 C 
HETATM    7  N4  UNL     1      15.687  20.138   6.356  1.00  0.00    -0.353 N 
ATOM      8  H4  UNL     1      15.130  19.948   7.189  1.00  0.00     0.163 HD
HETATM    9  O3  UNL     1      15.664  21.424   4.420  1.00  0.00    -0.271 OA
BRANCH   7  10
HETATM   10  C4  UNL     1      16.917  19.354   6.236  1.00  0.00     0.102 C 
BRANCH  10  11
HETATM   11  C3  UNL     1      17.819  20.167   7.240  1.00  0.00     0.028 C 
BRANCH  11  12
HETATM   12  C2  UNL     1      17.875  19.386   8.480  1.00  0.00     0.029 C 
BRANCH  12  13
HETATM   13  C1  UNL     1      17.036  20.029   9.588  1.00  0.00     0.230 C 
BRANCH  13  14
HETATM   14  N1  UNL     1      16.007  19.040   9.850  1.00  0.00    -0.079 N 
ATOM     15  H13 UNL     1      16.334  18.209  10.342  1.00  0.00     0.274 HD
ATOM     16  H12 UNL     1      15.323  19.318  10.553  1.00  0.00     0.274 HD
ATOM     17  H11 UNL     1      15.613  18.857   8.927  1.00  0.00     0.274 HD
ENDBRANCH  13  14
ENDBRANCH  12  13
ENDBRANCH  11  12
ENDBRANCH  10  11
BRANCH  10  18
HETATM   18  C5  UNL     1      17.524  19.486   4.894  1.00  0.00     0.149 C 
BRANCH  18  19
HETATM   19  N2  UNL     1      17.309  18.351   4.076  1.00  0.00    -0.361 N 
HETATM   20  C6  UNL     1      16.650  18.062   2.829  1.00  0.00     0.078 C 
HETATM   21  S1  UNL     1      15.264  18.596   2.172  1.00  0.00    -0.065 SA
HETATM   22  C7  UNL     1      17.676  17.093   2.446  1.00  0.00     0.103 C 
HETATM   23  C8  UNL     1      17.765  16.951   3.980  1.00  0.00     0.167 C 
BRANCH  23  24
HETATM   24  C9  UNL     1      18.985  16.432   4.547  1.00  0.00     0.159 C 
HETATM   25  N3  UNL     1      19.051  15.926   5.756  1.00  0.00    -0.249 N 
ATOM     26  H3  UNL     1      19.895  15.574   6.207  1.00  0.00     0.196 HD
BRANCH  24  27
HETATM   27  O1  UNL     1      20.172  16.416   3.851  1.00  0.00    -0.347 OA
ATOM     28  H1  UNL     1      20.873  15.807   4.056  1.00  0.00     0.219 HD
ENDBRANCH  24  27
BRANCH  25  29
HETATM   29  O2  UNL     1      17.759  15.948   6.328  1.00  0.00    -0.288 OA
ATOM     30  H2  UNL     1      17.791  16.454   7.132  1.00  0.00     0.244 HD
ENDBRANCH  25  29
ENDBRANCH  23  24
ENDBRANCH  18  19
ENDBRANCH  10  18
ENDBRANCH   7  10
ENDBRANCH   1   6
BRANCH   5  31
HETATM   31  C15 UNL     1      13.198  24.288   5.622  1.00  0.00     0.180 C 
BRANCH  31  32
HETATM   32  O4  UNL     1      13.726  24.999   4.642  1.00  0.00    -0.344 OA
ATOM     33  H4  UNL     1      13.648  24.614   3.777  1.00  0.00     0.219 HD
ENDBRANCH  31  32
BRANCH  31  34
HETATM   34  C16 UNL     1      11.811  24.702   6.164  1.00  0.00     0.158 C 
HETATM   35  C17 UNL     1      11.749  25.423   7.375  1.00  0.00     0.027 C 
BRANCH  35  36
HETATM   36  C18 UNL     1      10.389  25.800   7.826  1.00  0.00     0.011 C 
HETATM   37  C19 UNL     1      10.610  26.358   9.245  1.00  0.00     0.009 C 
HETATM   38  C20 UNL     1       9.387  26.938   9.900  1.00  0.00     0.001 C 
HETATM   39  C21 UNL     1       8.667  27.904   8.944  1.00  0.00     0.000 C 
HETATM   40  C22 UNL     1       8.359  27.085   7.708  1.00  0.00     0.001 C 
HETATM   41  C23 UNL     1       9.637  26.712   7.006  1.00  0.00     0.009 C 
ENDBRANCH  35  36
BRANCH  34  42
HETATM   42  N6  UNL     1      11.155  23.955   5.289  1.00  0.00    -0.366 NA
HETATM   43  C24 UNL     1      10.516  23.102   4.398  1.00  0.00     0.296 C 
HETATM   44  O5  UNL     1      10.534  22.035   4.028  1.00  0.00    -0.257 OA
BRANCH  43  45
HETATM   45  C25 UNL     1       9.475  24.011   3.613  1.00  0.00     0.093 C 
HETATM   46  C26 UNL     1       8.811  23.188   2.564  1.00  0.00     0.015 C 
HETATM   47  C27 UNL     1       7.626  24.015   1.999  1.00  0.00     0.001 C 
HETATM   48  C28 UNL     1       8.105  25.447   1.971  1.00  0.00     0.000 C 
HETATM   49  C29 UNL     1       8.301  26.037   3.327  1.00  0.00     0.001 C 
HETATM   50  C30 UNL     1       8.618  24.890   4.339  1.00  0.00     0.015 C 
ENDBRANCH  43  45
ENDBRANCH  34  42
ENDBRANCH  31  34
ENDBRANCH   5  31
TORSDOF 17
ENDMDL
MODEL 3
REMARK VINA RESULT: -9.527902860      1.147      1.499
REMARK  17 active torsions:
REMARK  status: ('A' for Active; 'I' for Inactive)
REMARK    1  A    between atoms: N1_1  and  C1_5 
REMARK    2  A    between atoms: C1_5  and  C2_6 
REMARK    3  A    between atoms: C2_6  and  C3_7 
REMARK    4  A    between atoms: C3_7  and  C4_8 
REMARK    5  A    between atoms: C4_8  and  C5_9 
REMARK    6  A    between atoms: C4_8  and  N4_22 
REMARK    7  A    between atoms: C5_9  and  N2_10 
REMARK    8  A    between atoms: C8_14  and  C9_15 
REMARK    9  A    between atoms: C9_15  and  O1_16 
REMARK   10  A    between atoms: N3_18  and  O2_20 
REMARK       I    between atoms: N4_22  and  C10_24 
REMARK   11  A    between atoms: C10_24  and  C11_26 
REMARK   12  A    between atoms: N5_30  and  C15_31 
REMARK   13  A    between atoms: C15_31  and  O4_32 
REMARK   14  A    between atoms: C15_31  and  C16_34 
REMARK   15  A    between atoms: C16_34  and  N6_42 
REMARK   16  A    between atoms: C17_35  and  C18_36 
REMARK       I    between atoms: N6_42  and  C24_43 
REMARK   17  A    between atoms: C24_43  and  C25_45 
ROOT
HETATM    1  C11 UNL     1      12.550  23.558   6.393  1.00  0.00     0.178 C 
HETATM    2  C12 UNL     1      11.665  22.244   6.239  1.00  0.00     0.037 C 
HETATM    3  C13 UNL     1      11.480  22.268   4.693  1.00  0.00     0.022 C 
HETATM    4  C14 UNL     1      12.530  23.169   4.191  1.00  0.00     0.126 C 
HETATM    5  N5  UNL     1      13.402  23.218   5.411  1.00  0.00    -0.346 N 
ENDROOT
BRANCH   1   6
HETATM    6  C10 UNL     1      11.617  24.729   6.183  1.00  0.00     0.241 C 
HETATM    7  N4  UNL     1      10.238  24.484   6.442  1.00  0.00    -0.353 N 
ATOM      8  H4  UNL     1      10.025  23.567   6.836  1.00  0.00     0.163 HD
HETATM    9  O3  UNL     1      12.043  25.788   5.773  1.00  0.00    -0.271 OA
BRANCH   7  10
HETATM   10  C4  UNL     1       9.082  25.355   6.226  1.00  0.00     0.102 C 
BRANCH  10  11
HETATM   11  C3  UNL     1       9.196  25.519   4.663  1.00  0.00     0.028 C 
BRANCH  11  12
HETATM   12  C2  UNL     1       8.510  24.367   4.070  1.00  0.00     0.029 C 
BRANCH  12  13
HETATM   13  C1  UNL     1       8.977  24.116   2.632  1.00  0.00     0.230 C 
BRANCH  13  14
HETATM   14  N1  UNL     1      10.029  25.097   2.442  1.00  0.00    -0.079 N 
ATOM     15  H13 UNL     1       9.773  26.049   2.706  1.00  0.00     0.274 HD
ATOM     16  H12 UNL     1      10.809  25.013   3.093  1.00  0.00     0.274 HD
ATOM     17  H11 UNL     1      10.284  24.986   1.461  1.00  0.00     0.274 HD
ENDBRANCH  13  14
ENDBRANCH  12  13
ENDBRANCH  11  12
ENDBRANCH  10  11
BRANCH  10  18
HETATM   18  C5  UNL     1       9.283  26.692   6.824  1.00  0.00     0.149 C 
BRANCH  18  19
HETATM   19  N2  UNL     1       8.099  27.231   7.383  1.00  0.00    -0.361 N 
HETATM   20  C6  UNL     1       7.758  28.164   8.424  1.00  0.00     0.078 C 
HETATM   21  S1  UNL     1       8.386  28.445   9.895  1.00  0.00    -0.065 SA
HETATM   22  C7  UNL     1       6.628  28.692   7.658  1.00  0.00     0.103 C 
HETATM   23  C8  UNL     1       6.651  27.252   7.103  1.00  0.00     0.167 C 
BRANCH  23  24
HETATM   24  C9  UNL     1       6.048  27.009   5.816  1.00  0.00     0.159 C 
HETATM   25  N3  UNL     1       4.924  26.349   5.667  1.00  0.00    -0.249 N 
ATOM     26  H3  UNL     1       4.477  26.129   4.777  1.00  0.00     0.196 HD
BRANCH  24  27
HETATM   27  O1  UNL     1       6.603  27.469   4.644  1.00  0.00    -0.347 OA
ATOM     28  H1  UNL     1       6.109  27.523   3.834  1.00  0.00     0.219 HD
ENDBRANCH  24  27
BRANCH  25  29
HETATM   29  O2  UNL     1       4.436  25.992   6.945  1.00  0.00    -0.288 OA
ATOM     30  H2  UNL     1       4.459  25.045   7.026  1.00  0.00     0.244 HD
ENDBRANCH  25  29
ENDBRANCH  23  24
ENDBRANCH  18  19
ENDBRANCH  10  18
ENDBRANCH   7  10
ENDBRANCH   1   6
BRANCH   5  31
HETATM   31  C15 UNL     1      14.725  22.945   5.181  1.00  0.00     0.180 C 
BRANCH  31  32
HETATM   32  O4  UNL     1      15.432  23.955   4.706  1.00  0.00    -0.344 OA
ATOM     33  H4  UNL     1      14.986  24.493   4.062  1.00  0.00     0.219 HD
ENDBRANCH  31  32
BRANCH  31  34
HETATM   34  C16 UNL     1      15.457  21.622   5.495  1.00  0.00     0.158 C 
HETATM   35  C17 UNL     1      15.545  20.644   4.480  1.00  0.00     0.027 C 
BRANCH  35  36
HETATM   36  C18 UNL     1      16.274  19.406   4.846  1.00  0.00     0.011 C 
HETATM   37  C19 UNL     1      16.257  18.570   3.553  1.00  0.00     0.009 C 
HETATM   38  C20 UNL     1      17.048  17.292   3.608  1.00  0.00     0.001 C 
HETATM   39  C21 UNL     1      18.454  17.551   4.177  1.00  0.00     0.000 C 
HETATM   40  C22 UNL     1      18.223  18.179   5.537  1.00  0.00     0.001 C 
HETATM   41  C23 UNL     1      17.605  19.541   5.376  1.00  0.00     0.009 C 
ENDBRANCH  35  36
BRANCH  34  42
HETATM   42  N6  UNL     1      15.536  21.876   6.791  1.00  0.00    -0.366 NA
HETATM   43  C24 UNL     1      15.583  22.223   8.136  1.00  0.00     0.296 C 
HETATM   44  O5  UNL     1      15.366  23.083   8.836  1.00  0.00    -0.257 OA
BRANCH  43  45
HETATM   45  C25 UNL     1      16.247  20.981   8.872  1.00  0.00     0.093 C 
HETATM   46  C26 UNL     1      17.728  21.135   8.839  1.00  0.00     0.015 C 
HETATM   47  C27 UNL     1      18.332  20.063   9.784  1.00  0.00     0.001 C 
HETATM   48  C28 UNL     1      17.465  18.838   9.618  1.00  0.00     0.000 C 
HETATM   49  C29 UNL     1      16.084  19.007  10.154  1.00  0.00     0.001 C 
HETATM   50  C30 UNL     1      15.703  20.522  10.109  1.00  0.00     0.015 C 
ENDBRANCH  43  45
ENDBRANCH  34  42
ENDBRANCH  31  34
ENDBRANCH   5  31
TORSDOF 17
ENDMDL
MODEL 4
REMARK VINA RESULT: -9.452575767      0.930      3.357
REMARK  17 active torsions:
REMARK  status: ('A' for Active; 'I' for Inactive)
REMARK    1  A    between atoms: N1_1  and  C1_5 
REMARK    2  A    between atoms: C1_5  and  C2_6 
REMARK    3  A    between atoms: C2_6  and  C3_7 
REMARK    4  A    between atoms: C3_7  and  C4_8 
REMARK    5  A    between atoms: C4_8  and  C5_9 
REMARK    6  A    between atoms: C4_8  and  N4_22 
REMARK    7  A    between atoms: C5_9  and  N2_10 
REMARK    8  A    between atoms: C8_14  and  C9_15 
REMARK    9  A    between atoms: C9_15  and  O1_16 
REMARK   10  A    between atoms: N3_18  and  O2_20 
REMARK       I    between atoms: N4_22  and  C10_24 
REMARK   11  A    between atoms: C10_24  and  C11_26 
REMARK   12  A    between atoms: N5_30  and  C15_31 
REMARK   13  A    between atoms: C15_31  and  O4_32 
REMARK   14  A    between atoms: C15_31  and  C16_34 
REMARK   15  A    between atoms: C16_34  and  N6_42 
REMARK   16  A    between atoms: C17_35  and  C18_36 
REMARK       I    between atoms: N6_42  and  C24_43 
REMARK   17  A    between atoms: C24_43  and  C25_45 
ROOT
HETATM    1  C11 UNL     1      12.177  23.570   6.579  1.00  0.00     0.178 C 
HETATM    2  C12 UNL     1      11.330  22.291   6.156  1.00  0.00     0.037 C 
HETATM    3  C13 UNL     1      11.512  22.392   4.612  1.00  0.00     0.022 C 
HETATM    4  C14 UNL     1      12.665  23.286   4.416  1.00  0.00     0.126 C 
HETATM    5  N5  UNL     1      13.229  23.253   5.806  1.00  0.00    -0.346 N 
ENDROOT
BRANCH   1   6
HETATM    6  C10 UNL     1      11.338  24.776   6.219  1.00  0.00     0.241 C 
HETATM    7  N4  UNL     1       9.928  24.610   6.324  1.00  0.00    -0.353 N 
ATOM      8  H4  UNL     1       9.622  23.723   6.723  1.00  0.00     0.163 HD
HETATM    9  O3  UNL     1      11.864  25.795   5.823  1.00  0.00    -0.271 OA
BRANCH   7  10
HETATM   10  C4  UNL     1       8.853  25.527   5.942  1.00  0.00     0.102 C 
BRANCH  10  11
HETATM   11  C3  UNL     1       9.086  25.535   4.384  1.00  0.00     0.028 C 
BRANCH  11  12
HETATM   12  C2  UNL     1       8.483  24.304   3.864  1.00  0.00     0.029 C 
BRANCH  12  13
HETATM   13  C1  UNL     1       9.009  23.969   2.465  1.00  0.00     0.230 C 
BRANCH  13  14
HETATM   14  N1  UNL     1      10.114  24.893   2.289  1.00  0.00    -0.079 N 
ATOM     15  H13 UNL     1      10.985  24.601   2.733  1.00  0.00     0.274 HD
ATOM     16  H12 UNL     1      10.486  24.932   1.340  1.00  0.00     0.274 HD
ATOM     17  H11 UNL     1       9.741  25.778   2.633  1.00  0.00     0.274 HD
ENDBRANCH  13  14
ENDBRANCH  12  13
ENDBRANCH  11  12
ENDBRANCH  10  11
BRANCH  10  18
HETATM   18  C5  UNL     1       9.103  26.900   6.431  1.00  0.00     0.149 C 
BRANCH  18  19
HETATM   19  N2  UNL     1       8.734  27.079   7.787  1.00  0.00    -0.361 N 
HETATM   20  C6  UNL     1       9.398  27.091   9.064  1.00  0.00     0.078 C 
HETATM   21  S1  UNL     1      10.607  26.199   9.680  1.00  0.00    -0.065 SA
HETATM   22  C7  UNL     1       8.530  28.155   9.568  1.00  0.00     0.103 C 
HETATM   23  C8  UNL     1       7.556  27.496   8.570  1.00  0.00     0.167 C 
BRANCH  23  24
HETATM   24  C9  UNL     1       6.459  28.286   8.066  1.00  0.00     0.159 C 
HETATM   25  N3  UNL     1       5.411  27.760   7.479  1.00  0.00    -0.249 N 
ATOM     26  H3  UNL     1       4.627  28.279   7.083  1.00  0.00     0.196 HD
BRANCH  24  27
HETATM   27  O1  UNL     1       6.425  29.657   8.181  1.00  0.00    -0.347 OA
ATOM     28  H1  UNL     1       5.632  30.129   8.408  1.00  0.00     0.219 HD
ENDBRANCH  24  27
BRANCH  25  29
HETATM   29  O2  UNL     1       5.547  26.353   7.484  1.00  0.00    -0.288 OA
ATOM     30  H2  UNL     1       5.161  26.012   8.283  1.00  0.00     0.244 HD
ENDBRANCH  25  29
ENDBRANCH  23  24
ENDBRANCH  18  19
ENDBRANCH  10  18
ENDBRANCH   7  10
ENDBRANCH   1   6
BRANCH   5  31
HETATM   31  C15 UNL     1      14.565  22.954   5.876  1.00  0.00     0.180 C 
BRANCH  31  32
HETATM   32  O4  UNL     1      15.369  23.848   5.329  1.00  0.00    -0.344 OA
ATOM     33  H4  UNL     1      16.258  23.550   5.173  1.00  0.00     0.219 HD
ENDBRANCH  31  32
BRANCH  31  34
HETATM   34  C16 UNL     1      15.196  21.737   6.587  1.00  0.00     0.158 C 
HETATM   35  C17 UNL     1      15.565  21.866   7.944  1.00  0.00     0.027 C 
BRANCH  35  36
HETATM   36  C18 UNL     1      16.150  20.655   8.566  1.00  0.00     0.011 C 
HETATM   37  C19 UNL     1      17.615  21.046   8.832  1.00  0.00     0.009 C 
HETATM   38  C20 UNL     1      18.422  20.023   9.584  1.00  0.00     0.001 C 
HETATM   39  C21 UNL     1      17.659  19.541  10.829  1.00  0.00     0.000 C 
HETATM   40  C22 UNL     1      16.341  19.005  10.305  1.00  0.00     0.001 C 
HETATM   41  C23 UNL     1      15.514  20.131   9.746  1.00  0.00     0.009 C 
ENDBRANCH  35  36
BRANCH  34  42
HETATM   42  N6  UNL     1      15.346  21.054   5.463  1.00  0.00    -0.366 NA
HETATM   43  C24 UNL     1      15.438  20.386   4.248  1.00  0.00     0.296 C 
HETATM   44  O5  UNL     1      14.955  20.333   3.229  1.00  0.00    -0.257 OA
BRANCH  43  45
HETATM   45  C25 UNL     1      16.570  19.288   4.452  1.00  0.00     0.093 C 
HETATM   46  C26 UNL     1      16.821  18.607   3.151  1.00  0.00     0.015 C 
HETATM   47  C27 UNL     1      18.098  17.741   3.315  1.00  0.00     0.001 C 
HETATM   48  C28 UNL     1      18.040  17.191   4.720  1.00  0.00     0.000 C 
HETATM   49  C29 UNL     1      18.212  18.231   5.775  1.00  0.00     0.001 C 
HETATM   50  C30 UNL     1      17.733  19.608   5.214  1.00  0.00     0.015 C 
ENDBRANCH  43  45
ENDBRANCH  34  42
ENDBRANCH  31  34
ENDBRANCH   5  31
TORSDOF 17
ENDMDL
MODEL 5
REMARK VINA RESULT: -9.436041320      1.292      1.590
REMARK  17 active torsions:
REMARK  status: ('A' for Active; 'I' for Inactive)
REMARK    1  A    between atoms: N1_1  and  C1_5 
REMARK    2  A    between atoms: C1_5  and  C2_6 
REMARK    3  A    between atoms: C2_6  and  C3_7 
REMARK    4  A    between atoms: C3_7  and  C4_8 
REMARK    5  A    between atoms: C4_8  and  C5_9 
REMARK    6  A    between atoms: C4_8  and  N4_22 
REMARK    7  A    between atoms: C5_9  and  N2_10 
REMARK    8  A    between atoms: C8_14  and  C9_15 
REMARK    9  A    between atoms: C9_15  and  O1_16 
REMARK   10  A    between atoms: N3_18  and  O2_20 
REMARK       I    between atoms: N4_22  and  C10_24 
REMARK   11  A    between atoms: C10_24  and  C11_26 
REMARK   12  A    between atoms: N5_30  and  C15_31 
REMARK   13  A    between atoms: C15_31  and  O4_32 
REMARK   14  A    between atoms: C15_31  and  C16_34 
REMARK   15  A    between atoms: C16_34  and  N6_42 
REMARK   16  A    between atoms: C17_35  and  C18_36 
REMARK       I    between atoms: N6_42  and  C24_43 
REMARK   17  A    between atoms: C24_43  and  C25_45 
ROOT
HETATM    1  C11 UNL     1      11.533  23.564   5.409  1.00  0.00     0.178 C 
HETATM    2  C12 UNL     1      10.687  22.790   4.305  1.00  0.00     0.037 C 
HETATM    3  C13 UNL     1      11.018  23.695   3.082  1.00  0.00     0.022 C 
HETATM    4  C14 UNL     1      12.214  24.457   3.476  1.00  0.00     0.126 C 
HETATM    5  N5  UNL     1      12.642  23.632   4.654  1.00  0.00    -0.346 N 
ENDROOT
BRANCH   1   6
HETATM    6  C10 UNL     1      10.773  24.835   5.715  1.00  0.00     0.241 C 
HETATM    7  N4  UNL     1       9.363  24.782   5.526  1.00  0.00    -0.353 N 
ATOM      8  H4  UNL     1       8.989  23.862   5.292  1.00  0.00     0.163 HD
HETATM    9  O3  UNL     1      11.365  25.837   6.056  1.00  0.00    -0.271 OA
BRANCH   7  10
HETATM   10  C4  UNL     1       8.371  25.854   5.618  1.00  0.00     0.102 C 
BRANCH  10  11
HETATM   11  C3  UNL     1       8.216  26.169   4.082  1.00  0.00     0.028 C 
BRANCH  11  12
HETATM   12  C2  UNL     1       7.534  25.016   3.485  1.00  0.00     0.029 C 
BRANCH  12  13
HETATM   13  C1  UNL     1       7.519  25.103   1.955  1.00  0.00     0.230 C 
BRANCH  13  14
HETATM   14  N1  UNL     1       8.566  26.065   1.661  1.00  0.00    -0.079 N 
ATOM     15  H13 UNL     1       9.456  25.876   2.123  1.00  0.00     0.274 HD
ATOM     16  H12 UNL     1       8.927  26.018   0.709  1.00  0.00     0.274 HD
ATOM     17  H11 UNL     1       8.143  26.959   1.909  1.00  0.00     0.274 HD
ENDBRANCH  13  14
ENDBRANCH  12  13
ENDBRANCH  11  12
ENDBRANCH  10  11
BRANCH  10  18
HETATM   18  C5  UNL     1       8.928  27.064   6.260  1.00  0.00     0.149 C 
BRANCH  18  19
HETATM   19  N2  UNL     1       8.587  27.168   7.631  1.00  0.00    -0.361 N 
HETATM   20  C6  UNL     1       9.280  27.138   8.892  1.00  0.00     0.078 C 
HETATM   21  S1  UNL     1      10.528  26.254   9.437  1.00  0.00    -0.065 SA
HETATM   22  C7  UNL     1       8.396  28.153   9.466  1.00  0.00     0.103 C 
HETATM   23  C8  UNL     1       7.417  27.514   8.459  1.00  0.00     0.167 C 
BRANCH  23  24
HETATM   24  C9  UNL     1       6.287  28.295   8.019  1.00  0.00     0.159 C 
HETATM   25  N3  UNL     1       5.218  27.761   7.476  1.00  0.00    -0.249 N 
ATOM     26  H3  UNL     1       4.410  28.275   7.125  1.00  0.00     0.196 HD
BRANCH  24  27
HETATM   27  O1  UNL     1       6.241  29.664   8.151  1.00  0.00    -0.347 OA
ATOM     28  H1  UNL     1       6.514  30.251   7.455  1.00  0.00     0.219 HD
ENDBRANCH  24  27
BRANCH  25  29
HETATM   29  O2  UNL     1       5.373  26.356   7.458  1.00  0.00    -0.288 OA
ATOM     30  H2  UNL     1       6.257  26.150   7.179  1.00  0.00     0.244 HD
ENDBRANCH  25  29
ENDBRANCH  23  24
ENDBRANCH  18  19
ENDBRANCH  10  18
ENDBRANCH   7  10
ENDBRANCH   1   6
BRANCH   5  31
HETATM   31  C15 UNL     1      13.954  23.237   4.631  1.00  0.00     0.180 C 
BRANCH  31  32
HETATM   32  O4  UNL     1      14.836  24.212   4.760  1.00  0.00    -0.344 OA
ATOM     33  H4  UNL     1      15.597  24.145   4.195  1.00  0.00     0.219 HD
ENDBRANCH  31  32
BRANCH  31  34
HETATM   34  C16 UNL     1      14.473  21.785   4.548  1.00  0.00     0.158 C 
HETATM   35  C17 UNL     1      14.516  21.156   3.286  1.00  0.00     0.027 C 
BRANCH  35  36
HETATM   36  C18 UNL     1      15.040  19.769   3.279  1.00  0.00     0.011 C 
HETATM   37  C19 UNL     1      15.087  19.397   1.785  1.00  0.00     0.009 C 
HETATM   38  C20 UNL     1      15.706  18.061   1.479  1.00  0.00     0.001 C 
HETATM   39  C21 UNL     1      17.049  17.907   2.213  1.00  0.00     0.000 C 
HETATM   40  C22 UNL     1      16.725  18.100   3.681  1.00  0.00     0.001 C 
HETATM   41  C23 UNL     1      16.299  19.522   3.930  1.00  0.00     0.009 C 
ENDBRANCH  35  36
BRANCH  34  42
HETATM   42  N6  UNL     1      14.473  21.623   5.862  1.00  0.00    -0.366 NA
HETATM   43  C24 UNL     1      14.386  21.468   7.240  1.00  0.00     0.296 C 
HETATM   44  O5  UNL     1      13.648  21.535   8.093  1.00  0.00    -0.257 OA
BRANCH  43  45
HETATM   45  C25 UNL     1      15.870  21.179   7.730  1.00  0.00     0.093 C 
HETATM   46  C26 UNL     1      16.564  22.478   7.960  1.00  0.00     0.015 C 
HETATM   47  C27 UNL     1      17.902  22.172   8.683  1.00  0.00     0.001 C 
HETATM   48  C28 UNL     1      18.404  20.880   8.084  1.00  0.00     0.000 C 
HETATM   49  C29 UNL     1      17.565  19.696   8.432  1.00  0.00     0.001 C 
HETATM   50  C30 UNL     1      16.105  20.174   8.714  1.00  0.00     0.015 C 
ENDBRANCH  43  45
ENDBRANCH  34  42
ENDBRANCH  31  34
ENDBRANCH   5  31
TORSDOF 17
ENDMDL
