MODEL 1
REMARK VINA RESULT: -9.550253213      0.000      0.000
REMARK  12 active torsions:
REMARK  status: ('A' for Active; 'I' for Inactive)
REMARK    1  A    between atoms: C2_2  and  C3_3 
REMARK    2  A    between atoms: C3_3  and  O2_5 
REMARK    3  A    between atoms: O2_5  and  C4_6 
REMARK    4  A    between atoms: C12_14  and  C13_15 
REMARK    5  A    between atoms: C13_15  and  C14_16 
REMARK    6  A    between atoms: C14_16  and  C15_17 
REMARK       I    between atoms: C15_17  and  N1_19 
REMARK    7  A    between atoms: C19_23  and  C20_24 
REMARK       I    between atoms: C20_24  and  N2_26 
REMARK    8  A    between atoms: N2_26  and  C21_28 
REMARK    9  A    between atoms: C21_28  and  C22_29 
REMARK   10  A    between atoms: C21_28  and  C24_33 
REMARK   11  A    between atoms: C22_29  and  C23_30 
REMARK   12  A    between atoms: C26_37  and  O9_38 
ROOT
HETATM    1  C4  UNL     1       6.896   3.306  10.488  1.00  0.00     0.144 C 
HETATM    2  C5  UNL     1       6.215   1.990  10.873  1.00  0.00     0.026 C 
HETATM    3  C6  UNL     1       4.775   2.210  11.058  1.00  0.00     0.009 C 
HETATM    4  C7  UNL     1       4.149   2.151  12.395  1.00  0.00     0.010 C 
HETATM    5  C8  UNL     1       3.885   0.713  12.751  1.00  0.00    -0.038 C 
HETATM    6  C9  UNL     1       2.721   0.246  11.868  1.00  0.00     0.015 C 
HETATM    7  C10 UNL     1       3.533   0.520  14.187  1.00  0.00     0.010 C 
HETATM    8  C11 UNL     1       4.115  -0.809  14.625  1.00  0.00     0.006 C 
HETATM    9  C12 UNL     1       4.808  -1.326  13.412  1.00  0.00    -0.007 C 
HETATM   10  C25 UNL     1       5.056  -0.198  12.476  1.00  0.00     0.027 C 
HETATM   11  C26 UNL     1       6.331   0.486  12.912  1.00  0.00     0.132 C 
HETATM   12  C27 UNL     1       7.026   1.268  11.839  1.00  0.00    -0.012 C 
HETATM   13  C28 UNL     1       7.908   0.245  11.085  1.00  0.00     0.018 C 
HETATM   14  C29 UNL     1       8.063   2.120  12.583  1.00  0.00     0.013 C 
HETATM   15  C30 UNL     1       7.611   3.498  12.866  1.00  0.00     0.012 C 
HETATM   16  C31 UNL     1       7.222   4.207  11.606  1.00  0.00    -0.021 C 
HETATM   17  C32 UNL     1       6.151   5.235  11.908  1.00  0.00     0.017 C 
HETATM   18  C33 UNL     1       8.455   5.019  11.171  1.00  0.00     0.017 C 
ENDROOT
BRANCH   9  19
HETATM   19  C13 UNL     1       4.090  -2.513  12.853  1.00  0.00     0.014 C 
BRANCH  19  20
HETATM   20  C14 UNL     1       3.622  -3.483  13.880  1.00  0.00     0.103 C 
BRANCH  20  21
HETATM   21  C15 UNL     1       4.794  -4.201  14.446  1.00  0.00     0.220 C 
HETATM   22  O3  UNL     1       5.924  -4.094  13.848  1.00  0.00    -0.273 OA
HETATM   23  N1  UNL     1       4.685  -4.992  15.620  1.00  0.00    -0.339 N 
HETATM   24  C16 UNL     1       3.451  -5.157  16.362  1.00  0.00     0.127 C 
HETATM   25  C19 UNL     1       5.725  -5.740  16.250  1.00  0.00     0.179 C 
HETATM   26  C17 UNL     1       3.994  -5.319  17.774  1.00  0.00     0.022 C 
HETATM   27  C18 UNL     1       5.105  -6.331  17.522  1.00  0.00     0.037 C 
BRANCH  25  28
HETATM   28  C20 UNL     1       6.897  -4.942  16.665  1.00  0.00     0.241 C 
HETATM   29  O4  UNL     1       6.788  -3.726  17.022  1.00  0.00    -0.271 OA
HETATM   30  N2  UNL     1       8.205  -5.501  16.683  1.00  0.00    -0.344 N 
ATOM     31  H2  UNL     1       8.322  -6.475  16.405  1.00  0.00     0.163 HD
BRANCH  30  32
HETATM   32  C21 UNL     1       9.381  -4.745  17.080  1.00  0.00     0.195 C 
BRANCH  32  33
HETATM   33  C22 UNL     1      10.119  -4.307  15.858  1.00  0.00     0.149 C 
BRANCH  33  34
HETATM   34  C23 UNL     1       9.324  -4.367  14.624  1.00  0.00     0.175 C 
HETATM   35  O5  UNL     1       8.829  -3.299  14.160  1.00  0.00    -0.648 OA
HETATM   36  O6  UNL     1       9.079  -5.539  13.928  1.00  0.00    -0.648 OA
ENDBRANCH  33  34
ENDBRANCH  32  33
BRANCH  32  37
HETATM   37  C24 UNL     1      10.319  -5.620  17.851  1.00  0.00     0.197 C 
HETATM   38  O7  UNL     1       9.920  -6.183  18.883  1.00  0.00    -0.646 OA
HETATM   39  O8  UNL     1      11.605  -5.788  17.406  1.00  0.00    -0.646 OA
ENDBRANCH  32  37
ENDBRANCH  30  32
ENDBRANCH  25  28
ENDBRANCH  20  21
ENDBRANCH  19  20
ENDBRANCH   9  19
BRANCH  11  40
HETATM   40  O9  UNL     1       6.185   1.188  14.116  1.00  0.00    -0.394 OA
ATOM     41  H9  UNL     1       6.033   2.116  13.985  1.00  0.00     0.210 HD
ENDBRANCH  11  40
BRANCH   1  42
HETATM   42  O2  UNL     1       8.079   2.966   9.796  1.00  0.00    -0.315 OA
BRANCH  42  43
HETATM   43  C3  UNL     1       8.186   2.938   8.430  1.00  0.00     0.258 C 
HETATM   44  O1  UNL     1       8.757   3.889   7.856  1.00  0.00    -0.265 OA
BRANCH  43  45
HETATM   45  C2  UNL     1       7.623   1.783   7.692  1.00  0.00     0.106 C 
HETATM   46  C1  UNL     1       6.501   2.157   6.779  1.00  0.00     0.015 C 
ENDBRANCH  43  45
ENDBRANCH  42  43
ENDBRANCH   1  42
TORSDOF 12
ENDMDL
MODEL 2
REMARK VINA RESULT: -9.250673243      2.035      3.426
REMARK  12 active torsions:
REMARK  status: ('A' for Active; 'I' for Inactive)
REMARK    1  A    between atoms: C2_2  and  C3_3 
REMARK    2  A    between atoms: C3_3  and  O2_5 
REMARK    3  A    between atoms: O2_5  and  C4_6 
REMARK    4  A    between atoms: C12_14  and  C13_15 
REMARK    5  A    between atoms: C13_15  and  C14_16 
REMARK    6  A    between atoms: C14_16  and  C15_17 
REMARK       I    between atoms: C15_17  and  N1_19 
REMARK    7  A    between atoms: C19_23  and  C20_24 
REMARK       I    between atoms: C20_24  and  N2_26 
REMARK    8  A    between atoms: N2_26  and  C21_28 
REMARK    9  A    between atoms: C21_28  and  C22_29 
REMARK   10  A    between atoms: C21_28  and  C24_33 
REMARK   11  A    between atoms: C22_29  and  C23_30 
REMARK   12  A    between atoms: C26_37  and  O9_38 
ROOT
HETATM    1  C4  UNL     1       6.942   2.901  10.488  1.00  0.00     0.144 C 
HETATM    2  C5  UNL     1       6.560   1.542  11.081  1.00  0.00     0.026 C 
HETATM    3  C6  UNL     1       5.111   1.491  11.316  1.00  0.00     0.009 C 
HETATM    4  C7  UNL     1       4.549   1.496  12.682  1.00  0.00     0.010 C 
HETATM    5  C8  UNL     1       4.598   0.099  13.240  1.00  0.00    -0.038 C 
HETATM    6  C9  UNL     1       3.533  -0.713  12.492  1.00  0.00     0.015 C 
HETATM    7  C10 UNL     1       4.334   0.043  14.706  1.00  0.00     0.010 C 
HETATM    8  C11 UNL     1       5.191  -1.065  15.282  1.00  0.00     0.006 C 
HETATM    9  C12 UNL     1       5.942  -1.598  14.112  1.00  0.00    -0.007 C 
HETATM   10  C25 UNL     1       5.925  -0.586  13.022  1.00  0.00     0.027 C 
HETATM   11  C26 UNL     1       7.042   0.396  13.292  1.00  0.00     0.132 C 
HETATM   12  C27 UNL     1       7.529   1.143  12.088  1.00  0.00    -0.012 C 
HETATM   13  C28 UNL     1       8.583   0.223  11.427  1.00  0.00     0.018 C 
HETATM   14  C29 UNL     1       8.387   2.282  12.653  1.00  0.00     0.013 C 
HETATM   15  C30 UNL     1       7.666   3.566  12.777  1.00  0.00     0.012 C 
HETATM   16  C31 UNL     1       7.104   3.998  11.458  1.00  0.00    -0.021 C 
HETATM   17  C32 UNL     1       5.852   4.820  11.680  1.00  0.00     0.017 C 
HETATM   18  C33 UNL     1       8.129   4.972  10.851  1.00  0.00     0.017 C 
ENDROOT
BRANCH   9  19
HETATM   19  C13 UNL     1       5.472  -2.972  13.755  1.00  0.00     0.014 C 
BRANCH  19  20
HETATM   20  C14 UNL     1       6.472  -4.045  14.008  1.00  0.00     0.103 C 
BRANCH  20  21
HETATM   21  C15 UNL     1       6.501  -4.354  15.461  1.00  0.00     0.220 C 
HETATM   22  O3  UNL     1       5.431  -4.175  16.146  1.00  0.00    -0.273 OA
HETATM   23  N1  UNL     1       7.675  -4.838  16.096  1.00  0.00    -0.339 N 
HETATM   24  C16 UNL     1       8.922  -5.079  15.396  1.00  0.00     0.127 C 
HETATM   25  C19 UNL     1       7.836  -5.154  17.478  1.00  0.00     0.179 C 
HETATM   26  C17 UNL     1       9.477  -6.242  16.205  1.00  0.00     0.022 C 
HETATM   27  C18 UNL     1       9.255  -5.718  17.618  1.00  0.00     0.037 C 
BRANCH  25  28
HETATM   28  C20 UNL     1       6.906  -6.182  17.990  1.00  0.00     0.241 C 
HETATM   29  O4  UNL     1       6.546  -6.214  19.209  1.00  0.00    -0.271 OA
HETATM   30  N2  UNL     1       6.369  -7.185  17.136  1.00  0.00    -0.344 N 
ATOM     31  H2  UNL     1       6.638  -7.183  16.152  1.00  0.00     0.163 HD
BRANCH  30  32
HETATM   32  C21 UNL     1       5.456  -8.215  17.605  1.00  0.00     0.195 C 
BRANCH  32  33
HETATM   33  C22 UNL     1       5.992  -9.556  17.227  1.00  0.00     0.149 C 
BRANCH  33  34
HETATM   34  C23 UNL     1       7.460  -9.628  17.197  1.00  0.00     0.175 C 
HETATM   35  O5  UNL     1       8.040  -9.894  16.104  1.00  0.00    -0.648 OA
HETATM   36  O6  UNL     1       8.258  -9.421  18.309  1.00  0.00    -0.648 OA
ENDBRANCH  33  34
ENDBRANCH  32  33
BRANCH  32  37
HETATM   37  C24 UNL     1       4.133  -8.080  16.919  1.00  0.00     0.197 C 
HETATM   38  O7  UNL     1       3.830  -8.875  16.015  1.00  0.00    -0.646 OA
HETATM   39  O8  UNL     1       3.275  -7.081  17.299  1.00  0.00    -0.646 OA
ENDBRANCH  32  37
ENDBRANCH  30  32
ENDBRANCH  25  28
ENDBRANCH  20  21
ENDBRANCH  19  20
ENDBRANCH   9  19
BRANCH  11  40
HETATM   40  O9  UNL     1       6.787   1.216  14.399  1.00  0.00    -0.394 OA
ATOM     41  H9  UNL     1       7.580   1.564  14.789  1.00  0.00     0.210 HD
ENDBRANCH  11  40
BRANCH   1  42
HETATM   42  O2  UNL     1       8.150   2.712   9.782  1.00  0.00    -0.315 OA
BRANCH  42  43
HETATM   43  C3  UNL     1       8.253   2.753   8.416  1.00  0.00     0.258 C 
HETATM   44  O1  UNL     1       8.939   3.659   7.895  1.00  0.00    -0.265 OA
BRANCH  43  45
HETATM   45  C2  UNL     1       7.550   1.724   7.615  1.00  0.00     0.106 C 
HETATM   46  C1  UNL     1       6.343   2.250   6.908  1.00  0.00     0.015 C 
ENDBRANCH  43  45
ENDBRANCH  42  43
ENDBRANCH   1  42
TORSDOF 12
ENDMDL
MODEL 3
REMARK VINA RESULT: -9.084509452      3.006      9.870
REMARK  12 active torsions:
REMARK  status: ('A' for Active; 'I' for Inactive)
REMARK    1  A    between atoms: C2_2  and  C3_3 
REMARK    2  A    between atoms: C3_3  and  O2_5 
REMARK    3  A    between atoms: O2_5  and  C4_6 
REMARK    4  A    between atoms: C12_14  and  C13_15 
REMARK    5  A    between atoms: C13_15  and  C14_16 
REMARK    6  A    between atoms: C14_16  and  C15_17 
REMARK       I    between atoms: C15_17  and  N1_19 
REMARK    7  A    between atoms: C19_23  and  C20_24 
REMARK       I    between atoms: C20_24  and  N2_26 
REMARK    8  A    between atoms: N2_26  and  C21_28 
REMARK    9  A    between atoms: C21_28  and  C22_29 
REMARK   10  A    between atoms: C21_28  and  C24_33 
REMARK   11  A    between atoms: C22_29  and  C23_30 
REMARK   12  A    between atoms: C26_37  and  O9_38 
ROOT
HETATM    1  C4  UNL     1       6.061  -4.182  16.620  1.00  0.00     0.144 C 
HETATM    2  C5  UNL     1       5.989  -3.036  15.608  1.00  0.00     0.026 C 
HETATM    3  C6  UNL     1       5.204  -1.928  16.165  1.00  0.00     0.009 C 
HETATM    4  C7  UNL     1       3.866  -1.587  15.640  1.00  0.00     0.010 C 
HETATM    5  C8  UNL     1       4.023  -0.739  14.407  1.00  0.00    -0.038 C 
HETATM    6  C9  UNL     1       4.507   0.639  14.877  1.00  0.00     0.015 C 
HETATM    7  C10 UNL     1       2.757  -0.587  13.634  1.00  0.00     0.010 C 
HETATM    8  C11 UNL     1       3.122  -0.537  12.165  1.00  0.00     0.006 C 
HETATM    9  C12 UNL     1       4.604  -0.684  12.148  1.00  0.00    -0.007 C 
HETATM   10  C25 UNL     1       5.049  -1.273  13.439  1.00  0.00     0.027 C 
HETATM   11  C26 UNL     1       4.899  -2.773  13.333  1.00  0.00     0.132 C 
HETATM   12  C27 UNL     1       5.761  -3.561  14.271  1.00  0.00    -0.012 C 
HETATM   13  C28 UNL     1       7.125  -3.711  13.556  1.00  0.00     0.018 C 
HETATM   14  C29 UNL     1       5.198  -4.987  14.220  1.00  0.00     0.013 C 
HETATM   15  C30 UNL     1       4.255  -5.296  15.315  1.00  0.00     0.012 C 
HETATM   16  C31 UNL     1       4.894  -5.081  16.653  1.00  0.00    -0.021 C 
HETATM   17  C32 UNL     1       3.839  -4.692  17.667  1.00  0.00     0.017 C 
HETATM   18  C33 UNL     1       5.412  -6.456  17.108  1.00  0.00     0.017 C 
ENDROOT
BRANCH   9  19
HETATM   19  C13 UNL     1       5.263   0.592  11.733  1.00  0.00     0.014 C 
BRANCH  19  20
HETATM   20  C14 UNL     1       6.732   0.481  11.523  1.00  0.00     0.103 C 
BRANCH  20  21
HETATM   21  C15 UNL     1       7.175   1.544  10.585  1.00  0.00     0.220 C 
HETATM   22  O3  UNL     1       7.093   1.322   9.325  1.00  0.00    -0.273 OA
HETATM   23  N1  UNL     1       7.682   2.785  11.054  1.00  0.00    -0.339 N 
HETATM   24  C16 UNL     1       7.799   3.123  12.458  1.00  0.00     0.127 C 
HETATM   25  C19 UNL     1       8.154   3.874  10.261  1.00  0.00     0.179 C 
HETATM   26  C17 UNL     1       7.575   4.627  12.404  1.00  0.00     0.022 C 
HETATM   27  C18 UNL     1       8.497   4.996  11.249  1.00  0.00     0.037 C 
BRANCH  25  28
HETATM   28  C20 UNL     1       7.165   4.419   9.308  1.00  0.00     0.241 C 
HETATM   29  O4  UNL     1       7.498   5.222   8.380  1.00  0.00    -0.271 OA
HETATM   30  N2  UNL     1       5.789   4.067   9.387  1.00  0.00    -0.344 N 
ATOM     31  H2  UNL     1       5.492   3.422  10.119  1.00  0.00     0.163 HD
BRANCH  30  32
HETATM   32  C21 UNL     1       4.786   4.587   8.471  1.00  0.00     0.195 C 
BRANCH  32  33
HETATM   33  C22 UNL     1       3.471   4.663   9.174  1.00  0.00     0.149 C 
BRANCH  33  34
HETATM   34  C23 UNL     1       3.454   4.002  10.486  1.00  0.00     0.175 C 
HETATM   35  O5  UNL     1       2.981   2.832  10.578  1.00  0.00    -0.648 OA
HETATM   36  O6  UNL     1       3.930   4.591  11.645  1.00  0.00    -0.648 OA
ENDBRANCH  33  34
ENDBRANCH  32  33
BRANCH  32  37
HETATM   37  C24 UNL     1       4.600   3.645   7.323  1.00  0.00     0.197 C 
HETATM   38  O7  UNL     1       5.523   2.877   7.009  1.00  0.00    -0.646 OA
HETATM   39  O8  UNL     1       3.414   3.644   6.637  1.00  0.00    -0.646 OA
ENDBRANCH  32  37
ENDBRANCH  30  32
ENDBRANCH  25  28
ENDBRANCH  20  21
ENDBRANCH  19  20
ENDBRANCH   9  19
BRANCH  11  40
HETATM   40  O9  UNL     1       3.559  -3.184  13.319  1.00  0.00    -0.394 OA
ATOM     41  H9  UNL     1       3.463  -4.119  13.180  1.00  0.00     0.210 HD
ENDBRANCH  11  40
BRANCH   1  42
HETATM   42  O2  UNL     1       7.221  -4.926  16.314  1.00  0.00    -0.315 OA
BRANCH  42  43
HETATM   43  C3  UNL     1       8.438  -4.730  16.913  1.00  0.00     0.258 C 
HETATM   44  O1  UNL     1       8.658  -5.280  18.013  1.00  0.00    -0.265 OA
BRANCH  43  45
HETATM   45  C2  UNL     1       9.440  -3.875  16.234  1.00  0.00     0.106 C 
HETATM   46  C1  UNL     1      10.850  -4.241  16.568  1.00  0.00     0.015 C 
ENDBRANCH  43  45
ENDBRANCH  42  43
ENDBRANCH   1  42
TORSDOF 12
ENDMDL
MODEL 4
REMARK VINA RESULT: -8.980267877      2.454      3.945
REMARK  12 active torsions:
REMARK  status: ('A' for Active; 'I' for Inactive)
REMARK    1  A    between atoms: C2_2  and  C3_3 
REMARK    2  A    between atoms: C3_3  and  O2_5 
REMARK    3  A    between atoms: O2_5  and  C4_6 
REMARK    4  A    between atoms: C12_14  and  C13_15 
REMARK    5  A    between atoms: C13_15  and  C14_16 
REMARK    6  A    between atoms: C14_16  and  C15_17 
REMARK       I    between atoms: C15_17  and  N1_19 
REMARK    7  A    between atoms: C19_23  and  C20_24 
REMARK       I    between atoms: C20_24  and  N2_26 
REMARK    8  A    between atoms: N2_26  and  C21_28 
REMARK    9  A    between atoms: C21_28  and  C22_29 
REMARK   10  A    between atoms: C21_28  and  C24_33 
REMARK   11  A    between atoms: C22_29  and  C23_30 
REMARK   12  A    between atoms: C26_37  and  O9_38 
ROOT
HETATM    1  C4  UNL     1       6.458   2.347  10.298  1.00  0.00     0.144 C 
HETATM    2  C5  UNL     1       6.532   0.974  10.972  1.00  0.00     0.026 C 
HETATM    3  C6  UNL     1       5.212   0.606  11.499  1.00  0.00     0.009 C 
HETATM    4  C7  UNL     1       4.944   0.562  12.952  1.00  0.00     0.010 C 
HETATM    5  C8  UNL     1       5.432  -0.750  13.502  1.00  0.00    -0.038 C 
HETATM    6  C9  UNL     1       4.464  -1.828  12.998  1.00  0.00     0.015 C 
HETATM    7  C10 UNL     1       5.482  -0.780  14.992  1.00  0.00     0.010 C 
HETATM    8  C11 UNL     1       6.673  -1.625  15.393  1.00  0.00     0.006 C 
HETATM    9  C12 UNL     1       7.284  -2.039  14.099  1.00  0.00    -0.007 C 
HETATM   10  C25 UNL     1       6.813  -1.125  13.025  1.00  0.00     0.027 C 
HETATM   11  C26 UNL     1       7.697   0.101  13.049  1.00  0.00     0.132 C 
HETATM   12  C27 UNL     1       7.747   0.868  11.763  1.00  0.00    -0.012 C 
HETATM   13  C28 UNL     1       8.838   0.178  10.910  1.00  0.00     0.018 C 
HETATM   14  C29 UNL     1       8.404   2.205  12.128  1.00  0.00     0.013 C 
HETATM   15  C30 UNL     1       7.439   3.295  12.382  1.00  0.00     0.012 C 
HETATM   16  C31 UNL     1       6.542   3.507  11.202  1.00  0.00    -0.021 C 
HETATM   17  C32 UNL     1       5.200   4.032  11.667  1.00  0.00     0.017 C 
HETATM   18  C33 UNL     1       7.168   4.653  10.387  1.00  0.00     0.017 C 
ENDROOT
BRANCH   9  19
HETATM   19  C13 UNL     1       7.091  -3.503  13.861  1.00  0.00     0.014 C 
BRANCH  19  20
HETATM   20  C14 UNL     1       8.173  -4.360  14.420  1.00  0.00     0.103 C 
BRANCH  20  21
HETATM   21  C15 UNL     1       7.620  -5.194  15.517  1.00  0.00     0.220 C 
HETATM   22  O3  UNL     1       6.359  -5.426  15.533  1.00  0.00    -0.273 OA
HETATM   23  N1  UNL     1       8.451  -5.730  16.536  1.00  0.00    -0.339 N 
HETATM   24  C16 UNL     1       9.886  -5.526  16.588  1.00  0.00     0.127 C 
HETATM   25  C19 UNL     1       8.042  -6.526  17.648  1.00  0.00     0.179 C 
HETATM   26  C17 UNL     1      10.331  -6.829  17.235  1.00  0.00     0.022 C 
HETATM   27  C18 UNL     1       9.331  -6.916  18.382  1.00  0.00     0.037 C 
BRANCH  25  28
HETATM   28  C20 UNL     1       7.348  -7.780  17.288  1.00  0.00     0.241 C 
HETATM   29  O4  UNL     1       7.986  -8.826  16.949  1.00  0.00    -0.271 OA
HETATM   30  N2  UNL     1       5.929  -7.872  17.305  1.00  0.00    -0.344 N 
ATOM     31  H2  UNL     1       5.391  -7.049  17.576  1.00  0.00     0.163 HD
BRANCH  30  32
HETATM   32  C21 UNL     1       5.212  -9.086  16.952  1.00  0.00     0.195 C 
BRANCH  32  33
HETATM   33  C22 UNL     1       3.808  -8.738  16.581  1.00  0.00     0.149 C 
BRANCH  33  34
HETATM   34  C23 UNL     1       3.550  -7.293  16.505  1.00  0.00     0.175 C 
HETATM   35  O5  UNL     1       3.547  -6.728  15.373  1.00  0.00    -0.648 OA
HETATM   36  O6  UNL     1       3.306  -6.500  17.614  1.00  0.00    -0.648 OA
ENDBRANCH  33  34
ENDBRANCH  32  33
BRANCH  32  37
HETATM   37  C24 UNL     1       5.123  -9.994  18.139  1.00  0.00     0.197 C 
HETATM   38  O7  UNL     1       4.775  -9.530  19.237  1.00  0.00    -0.646 OA
HETATM   39  O8  UNL     1       5.426 -11.323  17.996  1.00  0.00    -0.646 OA
ENDBRANCH  32  37
ENDBRANCH  30  32
ENDBRANCH  25  28
ENDBRANCH  20  21
ENDBRANCH  19  20
ENDBRANCH   9  19
BRANCH  11  40
HETATM   40  O9  UNL     1       7.478   0.905  14.176  1.00  0.00    -0.394 OA
ATOM     41  H9  UNL     1       6.565   1.142  14.287  1.00  0.00     0.210 HD
ENDBRANCH  11  40
BRANCH   1  42
HETATM   42  O2  UNL     1       7.513   2.400   9.362  1.00  0.00    -0.315 OA
BRANCH  42  43
HETATM   43  C3  UNL     1       7.334   2.367   8.003  1.00  0.00     0.258 C 
HETATM   44  O1  UNL     1       6.450   1.618   7.535  1.00  0.00    -0.265 OA
BRANCH  43  45
HETATM   45  C2  UNL     1       8.193   3.219   7.148  1.00  0.00     0.106 C 
HETATM   46  C1  UNL     1       8.012   2.963   5.688  1.00  0.00     0.015 C 
ENDBRANCH  43  45
ENDBRANCH  42  43
ENDBRANCH   1  42
TORSDOF 12
ENDMDL
MODEL 5
REMARK VINA RESULT: -8.910963354      1.791      3.040
REMARK  12 active torsions:
REMARK  status: ('A' for Active; 'I' for Inactive)
REMARK    1  A    between atoms: C2_2  and  C3_3 
REMARK    2  A    between atoms: C3_3  and  O2_5 
REMARK    3  A    between atoms: O2_5  and  C4_6 
REMARK    4  A    between atoms: C12_14  and  C13_15 
REMARK    5  A    between atoms: C13_15  and  C14_16 
REMARK    6  A    between atoms: C14_16  and  C15_17 
REMARK       I    between atoms: C15_17  and  N1_19 
REMARK    7  A    between atoms: C19_23  and  C20_24 
REMARK       I    between atoms: C20_24  and  N2_26 
REMARK    8  A    between atoms: N2_26  and  C21_28 
REMARK    9  A    between atoms: C21_28  and  C22_29 
REMARK   10  A    between atoms: C21_28  and  C24_33 
REMARK   11  A    between atoms: C22_29  and  C23_30 
REMARK   12  A    between atoms: C26_37  and  O9_38 
ROOT
HETATM    1  C4  UNL     1       6.993   3.144  10.643  1.00  0.00     0.144 C 
HETATM    2  C5  UNL     1       6.528   1.793  11.193  1.00  0.00     0.026 C 
HETATM    3  C6  UNL     1       5.074   1.809  11.392  1.00  0.00     0.009 C 
HETATM    4  C7  UNL     1       4.477   1.810  12.744  1.00  0.00     0.010 C 
HETATM    5  C8  UNL     1       4.443   0.401  13.268  1.00  0.00    -0.038 C 
HETATM    6  C9  UNL     1       3.358  -0.339  12.475  1.00  0.00     0.015 C 
HETATM    7  C10 UNL     1       4.139   0.323  14.725  1.00  0.00     0.010 C 
HETATM    8  C11 UNL     1       4.925  -0.840  15.295  1.00  0.00     0.006 C 
HETATM    9  C12 UNL     1       5.678  -1.382  14.129  1.00  0.00    -0.007 C 
HETATM   10  C25 UNL     1       5.739  -0.346  13.065  1.00  0.00     0.027 C 
HETATM   11  C26 UNL     1       6.896   0.572  13.386  1.00  0.00     0.132 C 
HETATM   12  C27 UNL     1       7.450   1.321  12.213  1.00  0.00    -0.012 C 
HETATM   13  C28 UNL     1       8.474   0.365  11.555  1.00  0.00     0.018 C 
HETATM   14  C29 UNL     1       8.350   2.402  12.826  1.00  0.00     0.013 C 
HETATM   15  C30 UNL     1       7.691   3.718  12.964  1.00  0.00     0.012 C 
HETATM   16  C31 UNL     1       7.185   4.208  11.643  1.00  0.00    -0.021 C 
HETATM   17  C32 UNL     1       5.970   5.088  11.856  1.00  0.00     0.017 C 
HETATM   18  C33 UNL     1       8.272   5.143  11.086  1.00  0.00     0.017 C 
ENDROOT
BRANCH   9  19
HETATM   19  C13 UNL     1       5.149  -2.722  13.728  1.00  0.00     0.014 C 
BRANCH  19  20
HETATM   20  C14 UNL     1       6.202  -3.713  13.374  1.00  0.00     0.103 C 
BRANCH  20  21
HETATM   21  C15 UNL     1       6.649  -4.413  14.605  1.00  0.00     0.220 C 
HETATM   22  O3  UNL     1       5.867  -5.281  15.134  1.00  0.00    -0.273 OA
HETATM   23  N1  UNL     1       7.910  -4.141  15.199  1.00  0.00    -0.339 N 
HETATM   24  C16 UNL     1       8.858  -3.185  14.662  1.00  0.00     0.127 C 
HETATM   25  C19 UNL     1       8.445  -4.728  16.385  1.00  0.00     0.179 C 
HETATM   26  C17 UNL     1      10.172  -3.830  15.077  1.00  0.00     0.022 C 
HETATM   27  C18 UNL     1       9.862  -4.160  16.532  1.00  0.00     0.037 C 
BRANCH  25  28
HETATM   28  C20 UNL     1       8.567  -6.200  16.344  1.00  0.00     0.241 C 
HETATM   29  O4  UNL     1       9.458  -6.781  15.648  1.00  0.00    -0.271 OA
HETATM   30  N2  UNL     1       7.688  -7.037  17.087  1.00  0.00    -0.344 N 
ATOM     31  H2  UNL     1       6.966  -6.599  17.659  1.00  0.00     0.163 HD
BRANCH  30  32
HETATM   32  C21 UNL     1       7.774  -8.488  17.068  1.00  0.00     0.195 C 
BRANCH  32  33
HETATM   33  C22 UNL     1       6.489  -9.063  17.566  1.00  0.00     0.149 C 
BRANCH  33  34
HETATM   34  C23 UNL     1       5.419  -8.072  17.746  1.00  0.00     0.175 C 
HETATM   35  O5  UNL     1       4.498  -7.998  16.882  1.00  0.00    -0.648 OA
HETATM   36  O6  UNL     1       5.358  -7.200  18.820  1.00  0.00    -0.648 OA
ENDBRANCH  33  34
ENDBRANCH  32  33
BRANCH  32  37
HETATM   37  C24 UNL     1       8.840  -8.953  18.011  1.00  0.00     0.197 C 
HETATM   38  O7  UNL     1       9.112  -8.267  19.009  1.00  0.00    -0.646 OA
HETATM   39  O8  UNL     1       9.498 -10.127  17.758  1.00  0.00    -0.646 OA
ENDBRANCH  32  37
ENDBRANCH  30  32
ENDBRANCH  25  28
ENDBRANCH  20  21
ENDBRANCH  19  20
ENDBRANCH   9  19
BRANCH  11  40
HETATM   40  O9  UNL     1       6.655   1.378  14.506  1.00  0.00    -0.394 OA
ATOM     41  H9  UNL     1       7.447   1.763  14.859  1.00  0.00     0.210 HD
ENDBRANCH  11  40
BRANCH   1  42
HETATM   42  O2  UNL     1       8.207   2.911   9.962  1.00  0.00    -0.315 OA
BRANCH  42  43
HETATM   43  C3  UNL     1       8.323   2.861   8.597  1.00  0.00     0.258 C 
HETATM   44  O1  UNL     1       8.957   3.767   8.017  1.00  0.00    -0.265 OA
BRANCH  43  45
HETATM   45  C2  UNL     1       7.692   1.735   7.868  1.00  0.00     0.106 C 
HETATM   46  C1  UNL     1       6.514   2.151   7.048  1.00  0.00     0.015 C 
ENDBRANCH  43  45
ENDBRANCH  42  43
ENDBRANCH   1  42
TORSDOF 12
ENDMDL
