MODEL 1
REMARK VINA RESULT: -8.740161968      0.000      0.000
REMARK  15 active torsions:
REMARK  status: ('A' for Active; 'I' for Inactive)
REMARK    1  A    between atoms: C2_2  and  C4_4 
REMARK    2  A    between atoms: C4_4  and  C5_5 
REMARK    3  A    between atoms: C5_5  and  N1_6 
REMARK    4  A    between atoms: C5_5  and  C32_47 
REMARK    5  A    between atoms: N1_6  and  C6_8 
REMARK    6  A    between atoms: C6_8  and  O1_9 
REMARK    7  A    between atoms: C6_8  and  C7_11 
REMARK    8  A    between atoms: C12_17  and  N2_18 
REMARK       I    between atoms: N2_18  and  C13_20 
REMARK    9  A    between atoms: C13_20  and  C14_22 
REMARK   10  A    between atoms: N3_26  and  C18_27 
REMARK   11  A    between atoms: C18_27  and  O4_28 
REMARK   12  A    between atoms: C19_30  and  N4_31 
REMARK   13  A    between atoms: C19_30  and  C25_40 
REMARK       I    between atoms: N4_31  and  C20_33 
REMARK   14  A    between atoms: C20_33  and  O6_35 
REMARK   15  A    between atoms: O6_35  and  C21_36 
ROOT
HETATM    1  N2  UNL     1       7.816  -1.361  14.233  1.00  0.00    -0.351 N 
ATOM      2  H2  UNL     1       7.949  -0.714  15.011  1.00  0.00     0.163 HD
HETATM    3  C13 UNL     1       7.892  -2.762  14.530  1.00  0.00     0.241 C 
HETATM    4  O3  UNL     1       7.704  -3.517  13.549  1.00  0.00    -0.271 OA
ENDROOT
BRANCH   1   5
HETATM    5  C12 UNL     1       7.578  -0.806  12.985  1.00  0.00     0.136 C 
HETATM    6  C7  UNL     1       6.306  -0.569  12.307  1.00  0.00     0.154 C 
HETATM    7  O2  UNL     1       6.824  -0.110  11.006  1.00  0.00    -0.358 OA
HETATM    8  C29 UNL     1       6.181   0.746  12.960  1.00  0.00     0.002 C 
HETATM    9  C8  UNL     1       7.893   0.708  11.334  1.00  0.00     0.062 C 
HETATM   10  C9  UNL     1       9.225   0.042  10.927  1.00  0.00     0.046 C 
HETATM   11  C10 UNL     1       7.933   2.059  10.715  1.00  0.00     0.046 C 
HETATM   12  C11 UNL     1       7.696   0.710  12.822  1.00  0.00     0.057 C 
HETATM   13  C30 UNL     1       5.683   0.943  14.333  1.00  0.00     0.019 C 
HETATM   14  C31 UNL     1       5.440   1.685  12.023  1.00  0.00     0.019 C 
BRANCH   6  15
HETATM   15  C6  UNL     1       5.255  -1.511  12.157  1.00  0.00     0.150 C 
BRANCH  15  16
HETATM   16  N1  UNL     1       3.854  -1.389  12.147  1.00  0.00    -0.357 N 
ATOM     17  H1  UNL     1       3.395  -1.178  11.262  1.00  0.00     0.162 HD
BRANCH  16  18
HETATM   18  C5  UNL     1       3.024  -1.546  13.329  1.00  0.00     0.184 C 
BRANCH  18  19
HETATM   19  C4  UNL     1       2.386  -0.261  13.758  1.00  0.00     0.040 C 
BRANCH  19  20
HETATM   20  C2  UNL     1       1.514   0.407  12.752  1.00  0.00    -0.020 C 
HETATM   21  C1  UNL     1       1.987   1.708  12.213  1.00  0.00     0.009 C 
HETATM   22  C3  UNL     1       0.127   0.637  13.352  1.00  0.00     0.009 C 
ENDBRANCH  19  20
ENDBRANCH  18  19
BRANCH  18  23
HETATM   23  C32 UNL     1       3.759  -2.266  14.361  1.00  0.00     0.196 C 
HETATM   24  O7  UNL     1       4.233  -1.698  15.392  1.00  0.00    -0.646 OA
HETATM   25  O8  UNL     1       4.000  -3.635  14.291  1.00  0.00    -0.646 OA
ENDBRANCH  18  23
ENDBRANCH  16  18
ENDBRANCH  15  16
BRANCH  15  26
HETATM   26  O1  UNL     1       5.641  -2.744  11.989  1.00  0.00    -0.347 OA
ATOM     27  H1  UNL     1       5.743  -2.965  11.070  1.00  0.00     0.219 HD
ENDBRANCH  15  26
ENDBRANCH   6  15
ENDBRANCH   1   5
BRANCH   3  28
HETATM   28  C14 UNL     1       8.165  -3.361  15.840  1.00  0.00     0.178 C 
HETATM   29  C15 UNL     1       9.623  -3.056  16.274  1.00  0.00     0.037 C 
HETATM   30  C16 UNL     1      10.369  -4.182  15.652  1.00  0.00     0.022 C 
HETATM   31  C17 UNL     1       9.391  -5.246  15.318  1.00  0.00     0.126 C 
HETATM   32  N3  UNL     1       8.060  -4.785  15.866  1.00  0.00    -0.347 N 
BRANCH  32  33
HETATM   33  C18 UNL     1       7.118  -5.752  16.208  1.00  0.00     0.163 C 
HETATM   34  C19 UNL     1       6.955  -6.797  17.161  1.00  0.00     0.072 C 
BRANCH  33  35
HETATM   35  O4  UNL     1       6.038  -5.663  15.379  1.00  0.00    -0.345 OA
ATOM     36  H4  UNL     1       5.563  -4.858  15.551  1.00  0.00     0.219 HD
ENDBRANCH  33  35
BRANCH  34  37
HETATM   37  N4  UNL     1       5.741  -7.587  16.895  1.00  0.00    -0.301 N 
HETATM   38  C20 UNL     1       4.467  -7.250  17.398  1.00  0.00     0.365 C 
HETATM   39  O5  UNL     1       4.289  -6.216  18.130  1.00  0.00    -0.238 OA
ATOM     40  H4  UNL     1       5.826  -8.423  16.316  1.00  0.00     0.171 HD
BRANCH  38  41
HETATM   41  O6  UNL     1       3.336  -8.001  17.142  1.00  0.00    -0.294 OA
BRANCH  41  42
HETATM   42  C21 UNL     1       3.361  -9.406  17.178  1.00  0.00     0.061 C 
HETATM   43  C22 UNL     1       3.779 -10.034  15.859  1.00  0.00     0.046 C 
HETATM   44  C23 UNL     1       4.293  -9.935  18.241  1.00  0.00     0.046 C 
HETATM   45  C24 UNL     1       1.947  -9.873  17.552  1.00  0.00     0.046 C 
ENDBRANCH  41  42
ENDBRANCH  38  41
ENDBRANCH  34  37
BRANCH  34  46
HETATM   46  C25 UNL     1       8.034  -7.660  17.669  1.00  0.00    -0.004 C 
HETATM   47  C26 UNL     1       8.611  -8.511  16.481  1.00  0.00     0.021 C 
HETATM   48  C27 UNL     1       7.488  -8.783  18.578  1.00  0.00     0.021 C 
HETATM   49  C28 UNL     1       9.182  -7.028  18.348  1.00  0.00     0.021 C 
ENDBRANCH  34  46
ENDBRANCH  32  33
ENDBRANCH   3  28
TORSDOF 15
ENDMDL
MODEL 2
REMARK VINA RESULT: -8.687548198      2.223      4.398
REMARK  15 active torsions:
REMARK  status: ('A' for Active; 'I' for Inactive)
REMARK    1  A    between atoms: C2_2  and  C4_4 
REMARK    2  A    between atoms: C4_4  and  C5_5 
REMARK    3  A    between atoms: C5_5  and  N1_6 
REMARK    4  A    between atoms: C5_5  and  C32_47 
REMARK    5  A    between atoms: N1_6  and  C6_8 
REMARK    6  A    between atoms: C6_8  and  O1_9 
REMARK    7  A    between atoms: C6_8  and  C7_11 
REMARK    8  A    between atoms: C12_17  and  N2_18 
REMARK       I    between atoms: N2_18  and  C13_20 
REMARK    9  A    between atoms: C13_20  and  C14_22 
REMARK   10  A    between atoms: N3_26  and  C18_27 
REMARK   11  A    between atoms: C18_27  and  O4_28 
REMARK   12  A    between atoms: C19_30  and  N4_31 
REMARK   13  A    between atoms: C19_30  and  C25_40 
REMARK       I    between atoms: N4_31  and  C20_33 
REMARK   14  A    between atoms: C20_33  and  O6_35 
REMARK   15  A    between atoms: O6_35  and  C21_36 
ROOT
HETATM    1  N2  UNL     1       7.041  -0.970  14.847  1.00  0.00    -0.351 N 
ATOM      2  H2  UNL     1       7.999  -0.626  14.921  1.00  0.00     0.163 HD
HETATM    3  C13 UNL     1       6.755  -2.239  15.451  1.00  0.00     0.241 C 
HETATM    4  O3  UNL     1       5.564  -2.610  15.350  1.00  0.00    -0.271 OA
ENDROOT
BRANCH   1   5
HETATM    5  C12 UNL     1       6.134  -0.168  14.170  1.00  0.00     0.136 C 
HETATM    6  C7  UNL     1       6.387   0.917  13.224  1.00  0.00     0.154 C 
HETATM    7  O2  UNL     1       5.003   1.386  13.042  1.00  0.00    -0.358 OA
HETATM    8  C29 UNL     1       6.433  -0.043  12.107  1.00  0.00     0.002 C 
HETATM    9  C8  UNL     1       4.253   0.222  12.976  1.00  0.00     0.062 C 
HETATM   10  C9  UNL     1       3.377   0.074  14.239  1.00  0.00     0.046 C 
HETATM   11  C10 UNL     1       3.311   0.082  11.835  1.00  0.00     0.046 C 
HETATM   12  C11 UNL     1       5.396  -0.752  12.966  1.00  0.00     0.057 C 
HETATM   13  C30 UNL     1       7.615  -0.852  11.760  1.00  0.00     0.019 C 
HETATM   14  C31 UNL     1       5.917   0.645  10.855  1.00  0.00     0.019 C 
BRANCH   6  15
HETATM   15  C6  UNL     1       7.292   1.994  13.415  1.00  0.00     0.150 C 
BRANCH  15  16
HETATM   16  N1  UNL     1       7.871   2.925  12.535  1.00  0.00    -0.357 N 
ATOM     17  H1  UNL     1       8.880   2.889  12.390  1.00  0.00     0.162 HD
BRANCH  16  18
HETATM   18  C5  UNL     1       7.112   3.936  11.819  1.00  0.00     0.184 C 
BRANCH  18  19
HETATM   19  C4  UNL     1       7.134   3.729  10.336  1.00  0.00     0.040 C 
BRANCH  19  20
HETATM   20  C2  UNL     1       8.441   3.318   9.751  1.00  0.00    -0.020 C 
HETATM   21  C1  UNL     1       9.100   4.287   8.837  1.00  0.00     0.009 C 
HETATM   22  C3  UNL     1       8.265   2.010   8.980  1.00  0.00     0.009 C 
ENDBRANCH  19  20
ENDBRANCH  18  19
BRANCH  18  23
HETATM   23  C32 UNL     1       7.492   5.264  12.281  1.00  0.00     0.196 C 
HETATM   24  O7  UNL     1       6.728   5.993  12.985  1.00  0.00    -0.646 OA
HETATM   25  O8  UNL     1       8.724   5.837  11.982  1.00  0.00    -0.646 OA
ENDBRANCH  18  23
ENDBRANCH  16  18
ENDBRANCH  15  16
BRANCH  15  26
HETATM   26  O1  UNL     1       7.674   2.179  14.646  1.00  0.00    -0.347 OA
ATOM     27  H1  UNL     1       7.111   1.731  15.267  1.00  0.00     0.219 HD
ENDBRANCH  15  26
ENDBRANCH   6  15
ENDBRANCH   1   5
BRANCH   3  28
HETATM   28  C14 UNL     1       7.709  -3.106  16.148  1.00  0.00     0.178 C 
HETATM   29  C15 UNL     1       9.162  -2.665  15.833  1.00  0.00     0.037 C 
HETATM   30  C16 UNL     1       9.449  -3.424  14.587  1.00  0.00     0.022 C 
HETATM   31  C17 UNL     1       8.456  -4.520  14.484  1.00  0.00     0.126 C 
HETATM   32  N3  UNL     1       7.645  -4.478  15.759  1.00  0.00    -0.347 N 
BRANCH  32  33
HETATM   33  C18 UNL     1       7.054  -5.659  16.203  1.00  0.00     0.163 C 
HETATM   34  C19 UNL     1       7.360  -6.749  17.066  1.00  0.00     0.072 C 
BRANCH  33  35
HETATM   35  O4  UNL     1       5.819  -5.801  15.640  1.00  0.00    -0.345 OA
ATOM     36  H4  UNL     1       5.892  -6.260  14.812  1.00  0.00     0.219 HD
ENDBRANCH  33  35
BRANCH  34  37
HETATM   37  N4  UNL     1       6.329  -7.800  16.995  1.00  0.00    -0.301 N 
HETATM   38  C20 UNL     1       5.422  -8.072  18.039  1.00  0.00     0.365 C 
HETATM   39  O5  UNL     1       5.441  -7.406  19.132  1.00  0.00    -0.238 OA
ATOM     40  H4  UNL     1       6.269  -8.360  16.144  1.00  0.00     0.171 HD
BRANCH  38  41
HETATM   41  O6  UNL     1       4.460  -9.061  17.961  1.00  0.00    -0.294 OA
BRANCH  41  42
HETATM   42  C21 UNL     1       3.412  -8.996  17.027  1.00  0.00     0.061 C 
HETATM   43  C22 UNL     1       2.964  -7.577  16.722  1.00  0.00     0.046 C 
HETATM   44  C23 UNL     1       3.776  -9.644  15.713  1.00  0.00     0.046 C 
HETATM   45  C24 UNL     1       2.239  -9.799  17.609  1.00  0.00     0.046 C 
ENDBRANCH  41  42
ENDBRANCH  38  41
ENDBRANCH  34  37
BRANCH  34  46
HETATM   46  C25 UNL     1       8.694  -7.344  17.243  1.00  0.00    -0.004 C 
HETATM   47  C26 UNL     1       8.734  -8.739  16.522  1.00  0.00     0.021 C 
HETATM   48  C27 UNL     1       8.936  -7.779  18.705  1.00  0.00     0.021 C 
HETATM   49  C28 UNL     1       9.872  -6.583  16.783  1.00  0.00     0.021 C 
ENDBRANCH  34  46
ENDBRANCH  32  33
ENDBRANCH   3  28
TORSDOF 15
ENDMDL
MODEL 3
REMARK VINA RESULT: -8.434516281      2.121      4.260
REMARK  15 active torsions:
REMARK  status: ('A' for Active; 'I' for Inactive)
REMARK    1  A    between atoms: C2_2  and  C4_4 
REMARK    2  A    between atoms: C4_4  and  C5_5 
REMARK    3  A    between atoms: C5_5  and  N1_6 
REMARK    4  A    between atoms: C5_5  and  C32_47 
REMARK    5  A    between atoms: N1_6  and  C6_8 
REMARK    6  A    between atoms: C6_8  and  O1_9 
REMARK    7  A    between atoms: C6_8  and  C7_11 
REMARK    8  A    between atoms: C12_17  and  N2_18 
REMARK       I    between atoms: N2_18  and  C13_20 
REMARK    9  A    between atoms: C13_20  and  C14_22 
REMARK   10  A    between atoms: N3_26  and  C18_27 
REMARK   11  A    between atoms: C18_27  and  O4_28 
REMARK   12  A    between atoms: C19_30  and  N4_31 
REMARK   13  A    between atoms: C19_30  and  C25_40 
REMARK       I    between atoms: N4_31  and  C20_33 
REMARK   14  A    between atoms: C20_33  and  O6_35 
REMARK   15  A    between atoms: O6_35  and  C21_36 
ROOT
HETATM    1  N2  UNL     1       6.043  -1.814  13.366  1.00  0.00    -0.351 N 
ATOM      2  H2  UNL     1       6.340  -1.778  14.341  1.00  0.00     0.163 HD
HETATM    3  C13 UNL     1       5.180  -2.895  12.986  1.00  0.00     0.241 C 
HETATM    4  O3  UNL     1       4.827  -2.888  11.785  1.00  0.00    -0.271 OA
ENDROOT
BRANCH   1   5
HETATM    5  C12 UNL     1       6.511  -0.814  12.527  1.00  0.00     0.136 C 
HETATM    6  C7  UNL     1       5.893   0.465  12.180  1.00  0.00     0.154 C 
HETATM    7  O2  UNL     1       6.857   0.914  11.162  1.00  0.00    -0.358 OA
HETATM    8  C29 UNL     1       6.512   1.104  13.355  1.00  0.00     0.002 C 
HETATM    9  C8  UNL     1       8.093   0.566  11.685  1.00  0.00     0.062 C 
HETATM   10  C9  UNL     1       8.717  -0.587  10.870  1.00  0.00     0.046 C 
HETATM   11  C10 UNL     1       9.138   1.622  11.723  1.00  0.00     0.046 C 
HETATM   12  C11 UNL     1       7.618   0.110  13.034  1.00  0.00     0.057 C 
HETATM   13  C30 UNL     1       5.972   1.018  14.724  1.00  0.00     0.019 C 
HETATM   14  C31 UNL     1       6.794   2.559  13.022  1.00  0.00     0.019 C 
BRANCH   6  15
HETATM   15  C6  UNL     1       4.550   0.652  11.759  1.00  0.00     0.150 C 
BRANCH  15  16
HETATM   16  N1  UNL     1       3.943   1.561  10.874  1.00  0.00    -0.357 N 
ATOM     17  H1  UNL     1       3.764   1.256   9.918  1.00  0.00     0.162 HD
BRANCH  16  18
HETATM   18  C5  UNL     1       3.556   2.911  11.247  1.00  0.00     0.184 C 
BRANCH  18  19
HETATM   19  C4  UNL     1       2.101   3.020  11.582  1.00  0.00     0.040 C 
BRANCH  19  20
HETATM   20  C2  UNL     1       1.204   2.015  10.946  1.00  0.00    -0.020 C 
HETATM   21  C1  UNL     1       0.214   2.527   9.962  1.00  0.00     0.009 C 
HETATM   22  C3  UNL     1       0.426   1.268  12.029  1.00  0.00     0.009 C 
ENDBRANCH  19  20
ENDBRANCH  18  19
BRANCH  18  23
HETATM   23  C32 UNL     1       4.055   3.861  10.262  1.00  0.00     0.196 C 
HETATM   24  O7  UNL     1       3.551   3.981   9.103  1.00  0.00    -0.646 OA
HETATM   25  O8  UNL     1       5.128   4.710  10.517  1.00  0.00    -0.646 OA
ENDBRANCH  18  23
ENDBRANCH  16  18
ENDBRANCH  15  16
BRANCH  15  26
HETATM   26  O1  UNL     1       3.689  -0.176  12.280  1.00  0.00    -0.347 OA
ATOM     27  H1  UNL     1       3.998  -0.544  13.099  1.00  0.00     0.219 HD
ENDBRANCH  15  26
ENDBRANCH   6  15
ENDBRANCH   1   5
BRANCH   3  28
HETATM   28  C14 UNL     1       4.697  -3.971  13.857  1.00  0.00     0.178 C 
HETATM   29  C15 UNL     1       3.186  -3.783  14.152  1.00  0.00     0.037 C 
HETATM   30  C16 UNL     1       3.215  -2.892  15.342  1.00  0.00     0.022 C 
HETATM   31  C17 UNL     1       4.575  -2.963  15.929  1.00  0.00     0.126 C 
HETATM   32  N3  UNL     1       5.323  -4.012  15.139  1.00  0.00    -0.347 N 
BRANCH  32  33
HETATM   33  C18 UNL     1       6.367  -4.689  15.766  1.00  0.00     0.163 C 
HETATM   34  C19 UNL     1       7.664  -4.410  16.283  1.00  0.00     0.072 C 
BRANCH  33  35
HETATM   35  O4  UNL     1       6.039  -6.003  15.927  1.00  0.00    -0.345 OA
ATOM     36  H4  UNL     1       5.707  -6.149  16.805  1.00  0.00     0.219 HD
ENDBRANCH  33  35
BRANCH  34  37
HETATM   37  N4  UNL     1       8.351  -5.641  16.710  1.00  0.00    -0.301 N 
HETATM   38  C20 UNL     1       8.165  -6.239  17.973  1.00  0.00     0.365 C 
HETATM   39  O5  UNL     1       7.370  -5.736  18.840  1.00  0.00    -0.238 OA
ATOM     40  H4  UNL     1       8.996  -6.085  16.056  1.00  0.00     0.171 HD
BRANCH  38  41
HETATM   41  O6  UNL     1       8.817  -7.394  18.361  1.00  0.00    -0.294 OA
BRANCH  41  42
HETATM   42  C21 UNL     1       8.276  -8.666  18.109  1.00  0.00     0.061 C 
HETATM   43  C22 UNL     1       6.787  -8.755  18.396  1.00  0.00     0.046 C 
HETATM   44  C23 UNL     1       8.482  -9.101  16.677  1.00  0.00     0.046 C 
HETATM   45  C24 UNL     1       9.038  -9.664  18.992  1.00  0.00     0.046 C 
ENDBRANCH  41  42
ENDBRANCH  38  41
ENDBRANCH  34  37
BRANCH  34  46
HETATM   46  C25 UNL     1       8.623  -3.455  15.704  1.00  0.00    -0.004 C 
HETATM   47  C26 UNL     1       8.808  -3.776  14.178  1.00  0.00     0.021 C 
HETATM   48  C27 UNL     1      10.058  -3.704  16.219  1.00  0.00     0.021 C 
HETATM   49  C28 UNL     1       8.333  -2.013  15.813  1.00  0.00     0.021 C 
ENDBRANCH  34  46
ENDBRANCH  32  33
ENDBRANCH   3  28
TORSDOF 15
ENDMDL
MODEL 4
REMARK VINA RESULT: -8.423767621      1.964      3.420
REMARK  15 active torsions:
REMARK  status: ('A' for Active; 'I' for Inactive)
REMARK    1  A    between atoms: C2_2  and  C4_4 
REMARK    2  A    between atoms: C4_4  and  C5_5 
REMARK    3  A    between atoms: C5_5  and  N1_6 
REMARK    4  A    between atoms: C5_5  and  C32_47 
REMARK    5  A    between atoms: N1_6  and  C6_8 
REMARK    6  A    between atoms: C6_8  and  O1_9 
REMARK    7  A    between atoms: C6_8  and  C7_11 
REMARK    8  A    between atoms: C12_17  and  N2_18 
REMARK       I    between atoms: N2_18  and  C13_20 
REMARK    9  A    between atoms: C13_20  and  C14_22 
REMARK   10  A    between atoms: N3_26  and  C18_27 
REMARK   11  A    between atoms: C18_27  and  O4_28 
REMARK   12  A    between atoms: C19_30  and  N4_31 
REMARK   13  A    between atoms: C19_30  and  C25_40 
REMARK       I    between atoms: N4_31  and  C20_33 
REMARK   14  A    between atoms: C20_33  and  O6_35 
REMARK   15  A    between atoms: O6_35  and  C21_36 
ROOT
HETATM    1  N2  UNL     1       7.711  -0.661  13.587  1.00  0.00    -0.351 N 
ATOM      2  H2  UNL     1       8.249  -0.187  14.314  1.00  0.00     0.163 HD
HETATM    3  C13 UNL     1       7.132  -1.928  13.926  1.00  0.00     0.241 C 
HETATM    4  O3  UNL     1       6.466  -2.462  13.010  1.00  0.00    -0.271 OA
ENDROOT
BRANCH   1   5
HETATM    5  C12 UNL     1       7.607  -0.020  12.362  1.00  0.00     0.136 C 
HETATM    6  C7  UNL     1       6.611   0.949  11.909  1.00  0.00     0.154 C 
HETATM    7  O2  UNL     1       7.035   1.070  10.504  1.00  0.00    -0.358 OA
HETATM    8  C29 UNL     1       7.408   2.057  12.466  1.00  0.00     0.002 C 
HETATM    9  C8  UNL     1       8.420   1.087  10.565  1.00  0.00     0.062 C 
HETATM   10  C9  UNL     1       9.001  -0.217   9.978  1.00  0.00     0.046 C 
HETATM   11  C10 UNL     1       9.120   2.181   9.842  1.00  0.00     0.046 C 
HETATM   12  C11 UNL     1       8.554   1.142  12.059  1.00  0.00     0.057 C 
HETATM   13  C30 UNL     1       7.397   2.451  13.886  1.00  0.00     0.019 C 
HETATM   14  C31 UNL     1       7.191   3.290  11.606  1.00  0.00     0.019 C 
BRANCH   6  15
HETATM   15  C6  UNL     1       5.203   0.813  12.029  1.00  0.00     0.150 C 
BRANCH  15  16
HETATM   16  N1  UNL     1       4.131   1.192  11.201  1.00  0.00    -0.357 N 
ATOM     17  H1  UNL     1       4.151   0.902  10.224  1.00  0.00     0.162 HD
BRANCH  16  18
HETATM   18  C5  UNL     1       2.997   1.975  11.661  1.00  0.00     0.184 C 
BRANCH  18  19
HETATM   19  C4  UNL     1       1.689   1.285  11.424  1.00  0.00     0.040 C 
BRANCH  19  20
HETATM   20  C2  UNL     1       0.533   1.779  12.222  1.00  0.00    -0.020 C 
HETATM   21  C1  UNL     1      -0.150   0.791  13.097  1.00  0.00     0.009 C 
HETATM   22  C3  UNL     1      -0.522   2.364  11.283  1.00  0.00     0.009 C 
ENDBRANCH  19  20
ENDBRANCH  18  19
BRANCH  18  23
HETATM   23  C32 UNL     1       3.097   3.338  11.158  1.00  0.00     0.196 C 
HETATM   24  O7  UNL     1       3.730   4.253  11.769  1.00  0.00    -0.646 OA
HETATM   25  O8  UNL     1       2.499   3.743   9.968  1.00  0.00    -0.646 OA
ENDBRANCH  18  23
ENDBRANCH  16  18
ENDBRANCH  15  16
BRANCH  15  26
HETATM   26  O1  UNL     1       4.798   0.216  13.113  1.00  0.00    -0.347 OA
ATOM     27  H1  UNL     1       5.353   0.414  13.859  1.00  0.00     0.219 HD
ENDBRANCH  15  26
ENDBRANCH   6  15
ENDBRANCH   1   5
BRANCH   3  28
HETATM   28  C14 UNL     1       7.254  -2.627  15.209  1.00  0.00     0.178 C 
HETATM   29  C15 UNL     1       8.660  -2.384  15.818  1.00  0.00     0.037 C 
HETATM   30  C16 UNL     1       9.455  -3.477  15.197  1.00  0.00     0.022 C 
HETATM   31  C17 UNL     1       8.505  -4.493  14.682  1.00  0.00     0.126 C 
HETATM   32  N3  UNL     1       7.128  -4.046  15.118  1.00  0.00    -0.347 N 
BRANCH  32  33
HETATM   33  C18 UNL     1       6.143  -5.016  15.283  1.00  0.00     0.163 C 
HETATM   34  C19 UNL     1       4.742  -5.164  15.073  1.00  0.00     0.072 C 
BRANCH  33  35
HETATM   35  O4  UNL     1       6.691  -6.154  15.798  1.00  0.00    -0.345 OA
ATOM     36  H4  UNL     1       7.215  -5.944  16.563  1.00  0.00     0.219 HD
ENDBRANCH  33  35
BRANCH  34  37
HETATM   37  N4  UNL     1       4.249  -6.445  15.608  1.00  0.00    -0.301 N 
HETATM   38  C20 UNL     1       4.256  -6.770  16.981  1.00  0.00     0.365 C 
HETATM   39  O5  UNL     1       4.701  -5.952  17.859  1.00  0.00    -0.238 OA
ATOM     40  H4  UNL     1       3.882  -7.134  14.951  1.00  0.00     0.171 HD
BRANCH  38  41
HETATM   41  O6  UNL     1       3.791  -7.975  17.470  1.00  0.00    -0.294 OA
BRANCH  41  42
HETATM   42  C21 UNL     1       4.517  -9.167  17.301  1.00  0.00     0.061 C 
HETATM   43  C22 UNL     1       6.022  -8.968  17.352  1.00  0.00     0.046 C 
HETATM   44  C23 UNL     1       4.167 -10.202  18.344  1.00  0.00     0.046 C 
HETATM   45  C24 UNL     1       4.114  -9.752  15.940  1.00  0.00     0.046 C 
ENDBRANCH  41  42
ENDBRANCH  38  41
ENDBRANCH  34  37
BRANCH  34  46
HETATM   46  C25 UNL     1       3.738  -4.104  15.257  1.00  0.00    -0.004 C 
HETATM   47  C26 UNL     1       2.317  -4.761  15.382  1.00  0.00     0.021 C 
HETATM   48  C27 UNL     1       3.548  -3.269  13.972  1.00  0.00     0.021 C 
HETATM   49  C28 UNL     1       3.891  -3.179  16.396  1.00  0.00     0.021 C 
ENDBRANCH  34  46
ENDBRANCH  32  33
ENDBRANCH   3  28
TORSDOF 15
ENDMDL
MODEL 5
REMARK VINA RESULT: -8.384388904      3.159      5.590
REMARK  15 active torsions:
REMARK  status: ('A' for Active; 'I' for Inactive)
REMARK    1  A    between atoms: C2_2  and  C4_4 
REMARK    2  A    between atoms: C4_4  and  C5_5 
REMARK    3  A    between atoms: C5_5  and  N1_6 
REMARK    4  A    between atoms: C5_5  and  C32_47 
REMARK    5  A    between atoms: N1_6  and  C6_8 
REMARK    6  A    between atoms: C6_8  and  O1_9 
REMARK    7  A    between atoms: C6_8  and  C7_11 
REMARK    8  A    between atoms: C12_17  and  N2_18 
REMARK       I    between atoms: N2_18  and  C13_20 
REMARK    9  A    between atoms: C13_20  and  C14_22 
REMARK   10  A    between atoms: N3_26  and  C18_27 
REMARK   11  A    between atoms: C18_27  and  O4_28 
REMARK   12  A    between atoms: C19_30  and  N4_31 
REMARK   13  A    between atoms: C19_30  and  C25_40 
REMARK       I    between atoms: N4_31  and  C20_33 
REMARK   14  A    between atoms: C20_33  and  O6_35 
REMARK   15  A    between atoms: O6_35  and  C21_36 
ROOT
HETATM    1  N2  UNL     1       6.719  -3.755  16.097  1.00  0.00    -0.351 N 
ATOM      2  H2  UNL     1       7.283  -3.241  15.419  1.00  0.00     0.163 HD
HETATM    3  C13 UNL     1       7.408  -4.682  16.948  1.00  0.00     0.241 C 
HETATM    4  O3  UNL     1       6.679  -5.275  17.775  1.00  0.00    -0.271 OA
ENDROOT
BRANCH   1   5
HETATM    5  C12 UNL     1       5.357  -3.494  16.112  1.00  0.00     0.136 C 
HETATM    6  C7  UNL     1       4.627  -2.364  15.541  1.00  0.00     0.154 C 
HETATM    7  O2  UNL     1       3.285  -2.676  16.060  1.00  0.00    -0.358 OA
HETATM    8  C29 UNL     1       4.521  -3.062  14.247  1.00  0.00     0.002 C 
HETATM    9  C8  UNL     1       3.173  -4.051  15.916  1.00  0.00     0.062 C 
HETATM   10  C9  UNL     1       3.188  -4.739  17.298  1.00  0.00     0.046 C 
HETATM   11  C10 UNL     1       1.956  -4.568  15.239  1.00  0.00     0.046 C 
HETATM   12  C11 UNL     1       4.451  -4.277  15.161  1.00  0.00     0.057 C 
HETATM   13  C30 UNL     1       5.594  -3.100  13.237  1.00  0.00     0.019 C 
HETATM   14  C31 UNL     1       3.223  -2.645  13.577  1.00  0.00     0.019 C 
BRANCH   6  15
HETATM   15  C6  UNL     1       4.956  -0.993  15.707  1.00  0.00     0.150 C 
BRANCH  15  16
HETATM   16  N1  UNL     1       4.615   0.166  14.987  1.00  0.00    -0.357 N 
ATOM     17  H1  UNL     1       4.057   0.878  15.457  1.00  0.00     0.162 HD
BRANCH  16  18
HETATM   18  C5  UNL     1       5.015   0.405  13.611  1.00  0.00     0.184 C 
BRANCH  18  19
HETATM   19  C4  UNL     1       6.412   0.932  13.501  1.00  0.00     0.040 C 
BRANCH  19  20
HETATM   20  C2  UNL     1       7.134   0.620  12.236  1.00  0.00    -0.020 C 
HETATM   21  C1  UNL     1       7.960  -0.615  12.222  1.00  0.00     0.009 C 
HETATM   22  C3  UNL     1       8.050   1.788  11.872  1.00  0.00     0.009 C 
ENDBRANCH  19  20
ENDBRANCH  18  19
BRANCH  18  23
HETATM   23  C32 UNL     1       3.989   1.176  12.921  1.00  0.00     0.196 C 
HETATM   24  O7  UNL     1       2.752   0.898  12.996  1.00  0.00    -0.646 OA
HETATM   25  O8  UNL     1       4.288   2.276  12.123  1.00  0.00    -0.646 OA
ENDBRANCH  18  23
ENDBRANCH  16  18
ENDBRANCH  15  16
BRANCH  15  26
HETATM   26  O1  UNL     1       5.721  -0.730  16.727  1.00  0.00    -0.347 OA
ATOM     27  H1  UNL     1       5.334  -0.084  17.307  1.00  0.00     0.219 HD
ENDBRANCH  15  26
ENDBRANCH   6  15
ENDBRANCH   1   5
BRANCH   3  28
HETATM   28  C14 UNL     1       8.842  -4.984  16.927  1.00  0.00     0.178 C 
HETATM   29  C15 UNL     1       9.527  -4.245  15.746  1.00  0.00     0.037 C 
HETATM   30  C16 UNL     1       9.350  -5.217  14.634  1.00  0.00     0.022 C 
HETATM   31  C17 UNL     1       9.034  -6.537  15.231  1.00  0.00     0.126 C 
HETATM   32  N3  UNL     1       9.148  -6.364  16.728  1.00  0.00    -0.347 N 
BRANCH  32  33
HETATM   33  C18 UNL     1       9.461  -7.481  17.499  1.00  0.00     0.163 C 
HETATM   34  C19 UNL     1       9.024  -8.827  17.658  1.00  0.00     0.072 C 
BRANCH  33  35
HETATM   35  O4  UNL     1      10.490  -7.189  18.346  1.00  0.00    -0.345 OA
ATOM     36  H4  UNL     1      10.829  -7.988  18.732  1.00  0.00     0.219 HD
ENDBRANCH  33  35
BRANCH  34  37
HETATM   37  N4  UNL     1       9.698  -9.483  18.792  1.00  0.00    -0.301 N 
HETATM   38  C20 UNL     1      10.452 -10.668  18.669  1.00  0.00     0.365 C 
HETATM   39  O5  UNL     1      10.599 -11.254  17.541  1.00  0.00    -0.238 OA
ATOM     40  H4  UNL     1       9.614  -9.057  19.715  1.00  0.00     0.171 HD
BRANCH  38  41
HETATM   41  O6  UNL     1      11.078 -11.274  19.742  1.00  0.00    -0.294 OA
BRANCH  41  42
HETATM   42  C21 UNL     1      10.350 -11.974  20.720  1.00  0.00     0.061 C 
HETATM   43  C22 UNL     1       9.683 -11.065  21.738  1.00  0.00     0.046 C 
HETATM   44  C23 UNL     1       9.270 -12.841  20.118  1.00  0.00     0.046 C 
HETATM   45  C24 UNL     1      11.335 -12.916  21.428  1.00  0.00     0.046 C 
ENDBRANCH  41  42
ENDBRANCH  38  41
ENDBRANCH  34  37
BRANCH  34  46
HETATM   46  C25 UNL     1       7.631  -9.287  17.546  1.00  0.00    -0.004 C 
HETATM   47  C26 UNL     1       7.242 -10.067  18.853  1.00  0.00     0.021 C 
HETATM   48  C27 UNL     1       7.482 -10.410  16.496  1.00  0.00     0.021 C 
HETATM   49  C28 UNL     1       6.574  -8.284  17.309  1.00  0.00     0.021 C 
ENDBRANCH  34  46
ENDBRANCH  32  33
ENDBRANCH   3  28
TORSDOF 15
ENDMDL
