MODEL 1
REMARK VINA RESULT: -8.435147048      0.000      0.000
REMARK  11 active torsions:
REMARK  status: ('A' for Active; 'I' for Inactive)
REMARK       I    between atoms: C2_2  and  N1_4 
REMARK    1  A    between atoms: N1_4  and  C3_6 
REMARK    2  A    between atoms: C3_6  and  C4_7 
REMARK    3  A    between atoms: C3_6  and  C24_39 
REMARK    4  A    between atoms: C4_7  and  O3_9 
REMARK    5  A    between atoms: O3_9  and  C5_10 
REMARK    6  A    between atoms: C5_10  and  C6_11 
REMARK    7  A    between atoms: C7_13  and  C8_14 
REMARK    8  A    between atoms: C8_14  and  N2_15 
REMARK       I    between atoms: N2_15  and  C9_17 
REMARK    9  A    between atoms: C9_17  and  O6_19 
REMARK   10  A    between atoms: O6_19  and  C10_20 
REMARK   11  A    between atoms: C23_36  and  O10_37 
ROOT
HETATM    1  C6  UNL     1      15.768 -16.880  20.688  1.00  0.00     0.177 C 
HETATM    2  O4  UNL     1      15.623 -16.292  19.493  1.00  0.00    -0.369 OA
HETATM    3  C7  UNL     1      14.795 -15.202  19.337  1.00  0.00     0.203 C 
HETATM    4  C14 UNL     1      13.433 -15.560  19.731  1.00  0.00     0.201 C 
HETATM    5  O7  UNL     1      13.307 -15.447  21.054  1.00  0.00    -0.322 OA
HETATM    6  C15 UNL     1      12.484 -16.354  21.677  1.00  0.00     0.270 C 
HETATM    7  O8  UNL     1      13.253 -17.361  22.125  1.00  0.00    -0.352 OA
HETATM    8  C16 UNL     1      13.745 -18.289  21.271  1.00  0.00     0.160 C 
HETATM    9  C17 UNL     1      12.819 -18.595  20.150  1.00  0.00     0.018 C 
HETATM   10  C18 UNL     1      11.389 -18.143  20.530  1.00  0.00     0.019 C 
HETATM   11  C19 UNL     1      11.425 -16.629  20.658  1.00  0.00     0.071 C 
HETATM   12  C20 UNL     1      11.618 -15.950  19.347  1.00  0.00     0.143 C 
HETATM   13  O9  UNL     1      12.343 -14.756  19.325  1.00  0.00    -0.346 OA
HETATM   14  C21 UNL     1      12.905 -16.503  18.798  1.00  0.00     0.081 C 
HETATM   15  C22 UNL     1      13.054 -17.936  18.832  1.00  0.00     0.020 C 
HETATM   16  C23 UNL     1      15.215 -18.206  20.928  1.00  0.00     0.178 C 
ENDROOT
BRANCH   1  17
HETATM   17  C5  UNL     1      17.180 -16.711  21.150  1.00  0.00     0.213 C 
BRANCH  17  18
HETATM   18  O3  UNL     1      17.592 -16.119  22.256  1.00  0.00    -0.317 OA
BRANCH  18  19
HETATM   19  C4  UNL     1      17.751 -14.865  22.706  1.00  0.00     0.282 C 
HETATM   20  O2  UNL     1      16.712 -14.222  23.032  1.00  0.00    -0.263 OA
BRANCH  19  21
HETATM   21  C3  UNL     1      19.039 -14.132  22.864  1.00  0.00     0.187 C 
BRANCH  21  22
HETATM   22  N1  UNL     1      19.587 -13.801  21.610  1.00  0.00    -0.347 N 
HETATM   23  C2  UNL     1      19.309 -13.012  20.504  1.00  0.00     0.214 C 
HETATM   24  C1  UNL     1      20.344 -13.089  19.345  1.00  0.00     0.117 C 
HETATM   25  O1  UNL     1      18.355 -12.253  20.298  1.00  0.00    -0.274 OA
ATOM     26  H1  UNL     1      20.467 -14.298  21.472  1.00  0.00     0.163 HD
ENDBRANCH  21  22
BRANCH  21  27
HETATM   27  C24 UNL     1      19.945 -14.881  23.816  1.00  0.00     0.010 C 
HETATM   28  C25 UNL     1      21.407 -14.645  23.613  1.00  0.00     0.012 C 
HETATM   29  C26 UNL     1      19.651 -14.616  25.275  1.00  0.00     0.012 C 
ENDBRANCH  21  27
ENDBRANCH  19  21
ENDBRANCH  18  19
ENDBRANCH  17  18
ENDBRANCH   1  17
BRANCH  16  30
HETATM   30  O10 UNL     1      15.357 -19.138  19.881  1.00  0.00    -0.390 OA
ATOM     31  H10 UNL     1      15.042 -20.017  20.056  1.00  0.00     0.210 HD
ENDBRANCH  16  30
BRANCH   3  32
HETATM   32  C8  UNL     1      15.323 -13.939  19.938  1.00  0.00     0.162 C 
BRANCH  32  33
HETATM   33  N2  UNL     1      14.565 -13.418  21.032  1.00  0.00    -0.334 N 
HETATM   34  C9  UNL     1      14.346 -12.046  21.312  1.00  0.00     0.361 C 
HETATM   35  O5  UNL     1      14.861 -11.203  20.517  1.00  0.00    -0.238 OA
ATOM     36  H2  UNL     1      14.143 -14.095  21.668  1.00  0.00     0.164 HD
BRANCH  34  37
HETATM   37  O6  UNL     1      13.632 -11.542  22.363  1.00  0.00    -0.294 OA
BRANCH  37  38
HETATM   38  C10 UNL     1      12.226 -11.355  22.328  1.00  0.00     0.061 C 
HETATM   39  C11 UNL     1      11.902 -10.664  23.666  1.00  0.00     0.046 C 
HETATM   40  C12 UNL     1      11.435 -12.619  22.293  1.00  0.00     0.046 C 
HETATM   41  C13 UNL     1      11.751 -10.470  21.225  1.00  0.00     0.046 C 
ENDBRANCH  37  38
ENDBRANCH  34  37
ENDBRANCH  32  33
ENDBRANCH   3  32
TORSDOF 11
ENDMDL
MODEL 2
REMARK VINA RESULT: -8.347133136      2.104      7.057
REMARK  11 active torsions:
REMARK  status: ('A' for Active; 'I' for Inactive)
REMARK       I    between atoms: C2_2  and  N1_4 
REMARK    1  A    between atoms: N1_4  and  C3_6 
REMARK    2  A    between atoms: C3_6  and  C4_7 
REMARK    3  A    between atoms: C3_6  and  C24_39 
REMARK    4  A    between atoms: C4_7  and  O3_9 
REMARK    5  A    between atoms: O3_9  and  C5_10 
REMARK    6  A    between atoms: C5_10  and  C6_11 
REMARK    7  A    between atoms: C7_13  and  C8_14 
REMARK    8  A    between atoms: C8_14  and  N2_15 
REMARK       I    between atoms: N2_15  and  C9_17 
REMARK    9  A    between atoms: C9_17  and  O6_19 
REMARK   10  A    between atoms: O6_19  and  C10_20 
REMARK   11  A    between atoms: C23_36  and  O10_37 
ROOT
HETATM    1  C6  UNL     1      17.408 -15.601  22.680  1.00  0.00     0.177 C 
HETATM    2  O4  UNL     1      17.785 -14.316  22.732  1.00  0.00    -0.369 OA
HETATM    3  C7  UNL     1      18.927 -13.888  22.091  1.00  0.00     0.203 C 
HETATM    4  C14 UNL     1      20.082 -14.624  22.603  1.00  0.00     0.201 C 
HETATM    5  O7  UNL     1      20.183 -15.793  21.969  1.00  0.00    -0.322 OA
HETATM    6  C15 UNL     1      20.641 -16.859  22.706  1.00  0.00     0.270 C 
HETATM    7  O8  UNL     1      19.570 -17.527  23.165  1.00  0.00    -0.352 OA
HETATM    8  C16 UNL     1      18.840 -17.040  24.196  1.00  0.00     0.160 C 
HETATM    9  C17 UNL     1      19.663 -16.314  25.198  1.00  0.00     0.018 C 
HETATM   10  C18 UNL     1      21.145 -16.727  25.039  1.00  0.00     0.019 C 
HETATM   11  C19 UNL     1      21.596 -16.236  23.674  1.00  0.00     0.071 C 
HETATM   12  C20 UNL     1      21.687 -14.751  23.604  1.00  0.00     0.143 C 
HETATM   13  O9  UNL     1      21.390 -14.130  22.388  1.00  0.00    -0.346 OA
HETATM   14  C21 UNL     1      20.315 -14.250  23.962  1.00  0.00     0.081 C 
HETATM   15  C22 UNL     1      19.708 -14.824  25.137  1.00  0.00     0.020 C 
HETATM   16  C23 UNL     1      17.492 -16.440  23.868  1.00  0.00     0.178 C 
ENDROOT
BRANCH   1  17
HETATM   17  C5  UNL     1      16.109 -15.703  21.947  1.00  0.00     0.213 C 
BRANCH  17  18
HETATM   18  O3  UNL     1      15.519 -14.760  21.235  1.00  0.00    -0.317 OA
BRANCH  18  19
HETATM   19  C4  UNL     1      14.597 -13.804  21.430  1.00  0.00     0.282 C 
HETATM   20  O2  UNL     1      14.971 -12.734  21.989  1.00  0.00    -0.263 OA
BRANCH  19  21
HETATM   21  C3  UNL     1      13.155 -13.868  21.058  1.00  0.00     0.187 C 
BRANCH  21  22
HETATM   22  N1  UNL     1      12.346 -13.344  22.083  1.00  0.00    -0.347 N 
HETATM   23  C2  UNL     1      11.572 -12.227  22.360  1.00  0.00     0.214 C 
HETATM   24  C1  UNL     1      10.898 -12.205  23.763  1.00  0.00     0.117 C 
HETATM   25  O1  UNL     1      11.336 -11.238  21.656  1.00  0.00    -0.274 OA
ATOM     26  H1  UNL     1      12.322 -13.990  22.872  1.00  0.00     0.163 HD
ENDBRANCH  21  22
BRANCH  21  27
HETATM   27  C24 UNL     1      12.809 -15.259  20.573  1.00  0.00     0.010 C 
HETATM   28  C25 UNL     1      12.374 -16.208  21.642  1.00  0.00     0.012 C 
HETATM   29  C26 UNL     1      11.749 -15.284  19.496  1.00  0.00     0.012 C 
ENDBRANCH  21  27
ENDBRANCH  19  21
ENDBRANCH  18  19
ENDBRANCH  17  18
ENDBRANCH   1  17
BRANCH  16  30
HETATM   30  O10 UNL     1      17.099 -15.842  25.082  1.00  0.00    -0.390 OA
ATOM     31  H10 UNL     1      17.541 -15.034  25.314  1.00  0.00     0.210 HD
ENDBRANCH  16  30
BRANCH   3  32
HETATM   32  C8  UNL     1      18.812 -13.835  20.602  1.00  0.00     0.162 C 
BRANCH  32  33
HETATM   33  N2  UNL     1      17.615 -13.234  20.101  1.00  0.00    -0.334 N 
HETATM   34  C9  UNL     1      17.409 -12.770  18.778  1.00  0.00     0.361 C 
HETATM   35  O5  UNL     1      18.368 -12.908  17.960  1.00  0.00    -0.238 OA
ATOM     36  H2  UNL     1      16.840 -13.129  20.757  1.00  0.00     0.164 HD
BRANCH  34  37
HETATM   37  O6  UNL     1      16.272 -12.184  18.297  1.00  0.00    -0.294 OA
BRANCH  37  38
HETATM   38  C10 UNL     1      15.312 -12.877  17.516  1.00  0.00     0.061 C 
HETATM   39  C11 UNL     1      13.958 -12.324  18.000  1.00  0.00     0.046 C 
HETATM   40  C12 UNL     1      15.281 -14.351  17.738  1.00  0.00     0.046 C 
HETATM   41  C13 UNL     1      15.415 -12.623  16.049  1.00  0.00     0.046 C 
ENDBRANCH  37  38
ENDBRANCH  34  37
ENDBRANCH  32  33
ENDBRANCH   3  32
TORSDOF 11
ENDMDL
MODEL 3
REMARK VINA RESULT: -8.127980028      2.098      4.768
REMARK  11 active torsions:
REMARK  status: ('A' for Active; 'I' for Inactive)
REMARK       I    between atoms: C2_2  and  N1_4 
REMARK    1  A    between atoms: N1_4  and  C3_6 
REMARK    2  A    between atoms: C3_6  and  C4_7 
REMARK    3  A    between atoms: C3_6  and  C24_39 
REMARK    4  A    between atoms: C4_7  and  O3_9 
REMARK    5  A    between atoms: O3_9  and  C5_10 
REMARK    6  A    between atoms: C5_10  and  C6_11 
REMARK    7  A    between atoms: C7_13  and  C8_14 
REMARK    8  A    between atoms: C8_14  and  N2_15 
REMARK       I    between atoms: N2_15  and  C9_17 
REMARK    9  A    between atoms: C9_17  and  O6_19 
REMARK   10  A    between atoms: O6_19  and  C10_20 
REMARK   11  A    between atoms: C23_36  and  O10_37 
ROOT
HETATM    1  C6  UNL     1      16.105 -14.339  21.921  1.00  0.00     0.177 C 
HETATM    2  O4  UNL     1      15.034 -13.595  22.229  1.00  0.00    -0.369 OA
HETATM    3  C7  UNL     1      13.802 -13.869  21.677  1.00  0.00     0.203 C 
HETATM    4  C14 UNL     1      13.887 -13.793  20.220  1.00  0.00     0.201 C 
HETATM    5  O7  UNL     1      14.343 -14.951  19.739  1.00  0.00    -0.322 OA
HETATM    6  C15 UNL     1      15.152 -14.884  18.630  1.00  0.00     0.270 C 
HETATM    7  O8  UNL     1      16.427 -14.889  19.055  1.00  0.00    -0.352 OA
HETATM    8  C16 UNL     1      16.977 -13.782  19.608  1.00  0.00     0.160 C 
HETATM    9  C17 UNL     1      16.472 -12.521  19.006  1.00  0.00     0.018 C 
HETATM   10  C18 UNL     1      15.844 -12.828  17.626  1.00  0.00     0.019 C 
HETATM   11  C19 UNL     1      14.628 -13.702  17.879  1.00  0.00     0.071 C 
HETATM   12  C20 UNL     1      13.525 -12.964  18.555  1.00  0.00     0.143 C 
HETATM   13  O9  UNL     1      12.711 -13.667  19.446  1.00  0.00    -0.346 OA
HETATM   14  C21 UNL     1      14.121 -12.439  19.832  1.00  0.00     0.081 C 
HETATM   15  C22 UNL     1      15.395 -11.774  19.720  1.00  0.00     0.020 C 
HETATM   16  C23 UNL     1      17.177 -13.783  21.107  1.00  0.00     0.178 C 
ENDROOT
BRANCH   1  17
HETATM   17  C5  UNL     1      16.575 -15.055  23.147  1.00  0.00     0.213 C 
BRANCH  17  18
HETATM   18  O3  UNL     1      17.739 -15.652  23.324  1.00  0.00    -0.317 OA
BRANCH  18  19
HETATM   19  C4  UNL     1      18.850 -15.457  24.051  1.00  0.00     0.282 C 
HETATM   20  O2  UNL     1      19.188 -16.367  24.861  1.00  0.00    -0.263 OA
BRANCH  19  21
HETATM   21  C3  UNL     1      19.743 -14.264  24.011  1.00  0.00     0.187 C 
BRANCH  21  22
HETATM   22  N1  UNL     1      20.071 -13.925  22.685  1.00  0.00    -0.347 N 
HETATM   23  C2  UNL     1      20.475 -14.527  21.503  1.00  0.00     0.214 C 
HETATM   24  C1  UNL     1      20.722 -13.564  20.306  1.00  0.00     0.117 C 
HETATM   25  O1  UNL     1      20.673 -15.723  21.255  1.00  0.00    -0.274 OA
ATOM     26  H1  UNL     1      19.985 -12.917  22.551  1.00  0.00     0.163 HD
ENDBRANCH  21  22
BRANCH  21  27
HETATM   27  C24 UNL     1      20.904 -14.458  24.961  1.00  0.00     0.010 C 
HETATM   28  C25 UNL     1      22.252 -14.480  24.315  1.00  0.00     0.012 C 
HETATM   29  C26 UNL     1      20.961 -13.437  26.073  1.00  0.00     0.012 C 
ENDBRANCH  21  27
ENDBRANCH  19  21
ENDBRANCH  18  19
ENDBRANCH  17  18
ENDBRANCH   1  17
BRANCH  16  30
HETATM   30  O10 UNL     1      17.544 -12.451  21.385  1.00  0.00    -0.390 OA
ATOM     31  H10 UNL     1      17.293 -12.116  22.238  1.00  0.00     0.210 HD
ENDBRANCH  16  30
BRANCH   3  32
HETATM   32  C8  UNL     1      13.149 -15.102  22.215  1.00  0.00     0.162 C 
BRANCH  32  33
HETATM   33  N2  UNL     1      12.070 -15.615  21.430  1.00  0.00    -0.334 N 
HETATM   34  C9  UNL     1      11.829 -16.982  21.143  1.00  0.00     0.361 C 
HETATM   35  O5  UNL     1      12.636 -17.828  21.634  1.00  0.00    -0.238 OA
ATOM     36  H2  UNL     1      11.415 -14.936  21.042  1.00  0.00     0.164 HD
BRANCH  34  37
HETATM   37  O6  UNL     1      10.806 -17.478  20.385  1.00  0.00    -0.294 OA
BRANCH  37  38
HETATM   38  C10 UNL     1      10.936 -17.778  19.004  1.00  0.00     0.061 C 
HETATM   39  C11 UNL     1      10.797 -19.310  18.934  1.00  0.00     0.046 C 
HETATM   40  C12 UNL     1      12.267 -17.438  18.421  1.00  0.00     0.046 C 
HETATM   41  C13 UNL     1       9.877 -17.179  18.142  1.00  0.00     0.046 C 
ENDBRANCH  37  38
ENDBRANCH  34  37
ENDBRANCH  32  33
ENDBRANCH   3  32
TORSDOF 11
ENDMDL
MODEL 4
REMARK VINA RESULT: -8.097048182      1.646      2.222
REMARK  11 active torsions:
REMARK  status: ('A' for Active; 'I' for Inactive)
REMARK       I    between atoms: C2_2  and  N1_4 
REMARK    1  A    between atoms: N1_4  and  C3_6 
REMARK    2  A    between atoms: C3_6  and  C4_7 
REMARK    3  A    between atoms: C3_6  and  C24_39 
REMARK    4  A    between atoms: C4_7  and  O3_9 
REMARK    5  A    between atoms: O3_9  and  C5_10 
REMARK    6  A    between atoms: C5_10  and  C6_11 
REMARK    7  A    between atoms: C7_13  and  C8_14 
REMARK    8  A    between atoms: C8_14  and  N2_15 
REMARK       I    between atoms: N2_15  and  C9_17 
REMARK    9  A    between atoms: C9_17  and  O6_19 
REMARK   10  A    between atoms: O6_19  and  C10_20 
REMARK   11  A    between atoms: C23_36  and  O10_37 
ROOT
HETATM    1  C6  UNL     1      16.383 -16.950  22.587  1.00  0.00     0.177 C 
HETATM    2  O4  UNL     1      16.960 -16.366  21.528  1.00  0.00    -0.369 OA
HETATM    3  C7  UNL     1      16.393 -15.259  20.936  1.00  0.00     0.203 C 
HETATM    4  C14 UNL     1      15.043 -15.585  20.478  1.00  0.00     0.201 C 
HETATM    5  O7  UNL     1      14.186 -15.463  21.492  1.00  0.00    -0.322 OA
HETATM    6  C15 UNL     1      13.136 -16.349  21.524  1.00  0.00     0.270 C 
HETATM    7  O8  UNL     1      13.490 -17.370  22.323  1.00  0.00    -0.352 OA
HETATM    8  C16 UNL     1      14.362 -18.313  21.896  1.00  0.00     0.160 C 
HETATM    9  C17 UNL     1      14.237 -18.605  20.445  1.00  0.00     0.018 C 
HETATM   10  C18 UNL     1      12.857 -18.120  19.942  1.00  0.00     0.019 C 
HETATM   11  C19 UNL     1      12.845 -16.607  20.080  1.00  0.00     0.071 C 
HETATM   12  C20 UNL     1      13.767 -15.938  19.121  1.00  0.00     0.143 C 
HETATM   13  O9  UNL     1      14.398 -14.760  19.527  1.00  0.00    -0.346 OA
HETATM   14  C21 UNL     1      15.125 -16.522  19.402  1.00  0.00     0.081 C 
HETATM   15  C22 UNL     1      15.198 -17.957  19.504  1.00  0.00     0.020 C 
HETATM   16  C23 UNL     1      15.766 -18.263  22.457  1.00  0.00     0.178 C 
ENDROOT
BRANCH   1  17
HETATM   17  C5  UNL     1      17.281 -16.810  23.776  1.00  0.00     0.213 C 
BRANCH  17  18
HETATM   18  O3  UNL     1      18.599 -16.881  23.791  1.00  0.00    -0.317 OA
BRANCH  18  19
HETATM   19  C4  UNL     1      19.615 -16.267  24.417  1.00  0.00     0.282 C 
HETATM   20  O2  UNL     1      20.360 -16.972  25.157  1.00  0.00    -0.263 OA
BRANCH  19  21
HETATM   21  C3  UNL     1      19.967 -14.821  24.339  1.00  0.00     0.187 C 
BRANCH  21  22
HETATM   22  N1  UNL     1      20.060 -14.397  23.000  1.00  0.00    -0.347 N 
HETATM   23  C2  UNL     1      20.402 -14.892  21.750  1.00  0.00     0.214 C 
HETATM   24  C1  UNL     1      20.328 -13.870  20.579  1.00  0.00     0.117 C 
HETATM   25  O1  UNL     1      20.761 -16.030  21.425  1.00  0.00    -0.274 OA
ATOM     26  H1  UNL     1      19.791 -13.416  22.926  1.00  0.00     0.163 HD
ENDBRANCH  21  22
BRANCH  21  27
HETATM   27  C24 UNL     1      21.163 -14.534  25.219  1.00  0.00     0.010 C 
HETATM   28  C25 UNL     1      22.445 -14.304  24.486  1.00  0.00     0.012 C 
HETATM   29  C26 UNL     1      20.968 -13.361  26.152  1.00  0.00     0.012 C 
ENDBRANCH  21  27
ENDBRANCH  19  21
ENDBRANCH  18  19
ENDBRANCH  17  18
ENDBRANCH   1  17
BRANCH  16  30
HETATM   30  O10 UNL     1      16.462 -19.203  21.671  1.00  0.00    -0.390 OA
ATOM     31  H10 UNL     1      16.862 -18.872  20.875  1.00  0.00     0.210 HD
ENDBRANCH  16  30
BRANCH   3  32
HETATM   32  C8  UNL     1      16.508 -14.005  21.741  1.00  0.00     0.162 C 
BRANCH  32  33
HETATM   33  N2  UNL     1      15.483 -13.035  21.513  1.00  0.00    -0.334 N 
HETATM   34  C9  UNL     1      15.549 -11.956  20.597  1.00  0.00     0.361 C 
HETATM   35  O5  UNL     1      16.609 -11.844  19.909  1.00  0.00    -0.238 OA
ATOM     36  H2  UNL     1      14.627 -13.128  22.060  1.00  0.00     0.164 HD
BRANCH  34  37
HETATM   37  O6  UNL     1      14.577 -11.019  20.382  1.00  0.00    -0.294 OA
BRANCH  37  38
HETATM   38  C10 UNL     1      13.257 -11.139  20.888  1.00  0.00     0.061 C 
HETATM   39  C11 UNL     1      12.472 -10.029  20.165  1.00  0.00     0.046 C 
HETATM   40  C12 UNL     1      13.130 -10.876  22.351  1.00  0.00     0.046 C 
HETATM   41  C13 UNL     1      12.599 -12.442  20.584  1.00  0.00     0.046 C 
ENDBRANCH  37  38
ENDBRANCH  34  37
ENDBRANCH  32  33
ENDBRANCH   3  32
TORSDOF 11
ENDMDL
MODEL 5
REMARK VINA RESULT: -8.084020734      1.287      2.257
REMARK  11 active torsions:
REMARK  status: ('A' for Active; 'I' for Inactive)
REMARK       I    between atoms: C2_2  and  N1_4 
REMARK    1  A    between atoms: N1_4  and  C3_6 
REMARK    2  A    between atoms: C3_6  and  C4_7 
REMARK    3  A    between atoms: C3_6  and  C24_39 
REMARK    4  A    between atoms: C4_7  and  O3_9 
REMARK    5  A    between atoms: O3_9  and  C5_10 
REMARK    6  A    between atoms: C5_10  and  C6_11 
REMARK    7  A    between atoms: C7_13  and  C8_14 
REMARK    8  A    between atoms: C8_14  and  N2_15 
REMARK       I    between atoms: N2_15  and  C9_17 
REMARK    9  A    between atoms: C9_17  and  O6_19 
REMARK   10  A    between atoms: O6_19  and  C10_20 
REMARK   11  A    between atoms: C23_36  and  O10_37 
ROOT
HETATM    1  C6  UNL     1      15.881 -16.989  21.185  1.00  0.00     0.177 C 
HETATM    2  O4  UNL     1      15.915 -16.413  19.976  1.00  0.00    -0.369 OA
HETATM    3  C7  UNL     1      15.169 -15.285  19.710  1.00  0.00     0.203 C 
HETATM    4  C14 UNL     1      13.753 -15.569  19.935  1.00  0.00     0.201 C 
HETATM    5  O7  UNL     1      13.471 -15.430  21.231  1.00  0.00    -0.322 OA
HETATM    6  C15 UNL     1      12.532 -16.286  21.754  1.00  0.00     0.270 C 
HETATM    7  O8  UNL     1      13.187 -17.323  22.302  1.00  0.00    -0.352 OA
HETATM    8  C16 UNL     1      13.732 -18.288  21.524  1.00  0.00     0.160 C 
HETATM    9  C17 UNL     1      12.937 -18.564  20.300  1.00  0.00     0.018 C 
HETATM   10  C18 UNL     1      11.496 -18.035  20.495  1.00  0.00     0.019 C 
HETATM   11  C19 UNL     1      11.594 -16.523  20.614  1.00  0.00     0.071 C 
HETATM   12  C20 UNL     1      11.982 -15.874  19.331  1.00  0.00     0.143 C 
HETATM   13  O9  UNL     1      12.764 -14.718  19.390  1.00  0.00    -0.346 OA
HETATM   14  C21 UNL     1      13.296 -16.498  18.951  1.00  0.00     0.081 C 
HETATM   15  C22 UNL     1      13.367 -17.937  19.016  1.00  0.00     0.020 C 
HETATM   16  C23 UNL     1      15.236 -18.282  21.366  1.00  0.00     0.178 C 
ENDROOT
BRANCH   1  17
HETATM   17  C5  UNL     1      17.232 -16.885  21.818  1.00  0.00     0.213 C 
BRANCH  17  18
HETATM   18  O3  UNL     1      18.304 -16.301  21.315  1.00  0.00    -0.317 OA
BRANCH  18  19
HETATM   19  C4  UNL     1      19.596 -16.149  21.648  1.00  0.00     0.282 C 
HETATM   20  O2  UNL     1      20.237 -17.182  21.994  1.00  0.00    -0.263 OA
BRANCH  19  21
HETATM   21  C3  UNL     1      20.369 -14.875  21.659  1.00  0.00     0.187 C 
BRANCH  21  22
HETATM   22  N1  UNL     1      20.620 -14.449  22.976  1.00  0.00    -0.347 N 
HETATM   23  C2  UNL     1      21.628 -14.475  23.928  1.00  0.00     0.214 C 
HETATM   24  C1  UNL     1      21.281 -13.821  25.296  1.00  0.00     0.117 C 
HETATM   25  O1  UNL     1      22.770 -14.947  23.854  1.00  0.00    -0.274 OA
ATOM     26  H1  UNL     1      19.801 -13.969  23.349  1.00  0.00     0.163 HD
ENDBRANCH  21  22
BRANCH  21  27
HETATM   27  C24 UNL     1      19.715 -13.867  20.739  1.00  0.00     0.010 C 
HETATM   28  C25 UNL     1      18.832 -12.872  21.421  1.00  0.00     0.012 C 
HETATM   29  C26 UNL     1      20.693 -13.087  19.892  1.00  0.00     0.012 C 
ENDBRANCH  21  27
ENDBRANCH  19  21
ENDBRANCH  18  19
ENDBRANCH  17  18
ENDBRANCH   1  17
BRANCH  16  30
HETATM   30  O10 UNL     1      15.458 -19.236  20.352  1.00  0.00    -0.390 OA
ATOM     31  H10 UNL     1      14.757 -19.860  20.202  1.00  0.00     0.210 HD
ENDBRANCH  16  30
BRANCH   3  32
HETATM   32  C8  UNL     1      15.683 -14.042  20.360  1.00  0.00     0.162 C 
BRANCH  32  33
HETATM   33  N2  UNL     1      14.835 -13.482  21.366  1.00  0.00    -0.334 N 
HETATM   34  C9  UNL     1      14.414 -12.131  21.440  1.00  0.00     0.361 C 
HETATM   35  O5  UNL     1      14.817 -11.348  20.528  1.00  0.00    -0.238 OA
ATOM     36  H2  UNL     1      14.504 -14.112  22.097  1.00  0.00     0.164 HD
BRANCH  34  37
HETATM   37  O6  UNL     1      13.613 -11.588  22.405  1.00  0.00    -0.294 OA
BRANCH  37  38
HETATM   38  C10 UNL     1      12.212 -11.425  22.252  1.00  0.00     0.061 C 
HETATM   39  C11 UNL     1      11.738 -10.904  23.621  1.00  0.00     0.046 C 
HETATM   40  C12 UNL     1      11.468 -12.691  21.991  1.00  0.00     0.046 C 
HETATM   41  C13 UNL     1      11.819 -10.426  21.217  1.00  0.00     0.046 C 
ENDBRANCH  37  38
ENDBRANCH  34  37
ENDBRANCH  32  33
ENDBRANCH   3  32
TORSDOF 11
ENDMDL
