MODEL 1
REMARK VINA RESULT: -3.838569039      0.000      0.000
REMARK  3 active torsions:
REMARK  status: ('A' for Active; 'I' for Inactive)
REMARK    1  A    between atoms: C2_2  and  O1_3 
REMARK    2  A    between atoms: O1_3  and  C3_4 
REMARK    3  A    between atoms: C5_6  and  N1_7 
ROOT
HETATM    1  C3  UNL     1      59.410  -4.115  -2.430  1.00  0.00     0.160 A 
HETATM    2  C4  UNL     1      58.265  -3.608  -3.212  1.00  0.00     0.070 A 
HETATM    3  C5  UNL     1      58.420  -3.248  -1.747  1.00  0.00     0.215 A 
ENDROOT
BRANCH   3   4
HETATM    4  N1  UNL     1      58.674  -1.883  -1.443  1.00  0.00    -0.072 N 
ATOM      5  H13 UNL     1      59.546  -1.844  -0.914  1.00  0.00     0.274 HD
ATOM      6  H12 UNL     1      58.927  -1.417  -2.314  1.00  0.00     0.274 HD
ATOM      7  H11 UNL     1      57.998  -1.290  -0.963  1.00  0.00     0.274 HD
ENDBRANCH   3   4
BRANCH   1   8
HETATM    8  O1  UNL     1      59.437  -5.478  -2.047  1.00  0.00    -0.356 OA
BRANCH   8   9
HETATM    9  C2  UNL     1      60.599  -6.121  -1.653  1.00  0.00     0.125 C 
HETATM   10  C1  UNL     1      61.055  -5.908  -0.418  1.00  0.00     0.037 C 
ENDBRANCH   8   9
ENDBRANCH   1   8
TORSDOF 3
ENDMDL
MODEL 2
REMARK VINA RESULT: -3.785151222      1.044      1.210
REMARK  3 active torsions:
REMARK  status: ('A' for Active; 'I' for Inactive)
REMARK    1  A    between atoms: C2_2  and  O1_3 
REMARK    2  A    between atoms: O1_3  and  C3_4 
REMARK    3  A    between atoms: C5_6  and  N1_7 
ROOT
HETATM    1  C3  UNL     1      58.961  -4.269  -1.977  1.00  0.00     0.160 A 
HETATM    2  C4  UNL     1      59.554  -3.311  -2.930  1.00  0.00     0.070 A 
HETATM    3  C5  UNL     1      58.130  -3.799  -3.111  1.00  0.00     0.215 A 
ENDROOT
BRANCH   3   4
HETATM    4  N1  UNL     1      57.095  -2.837  -2.958  1.00  0.00    -0.072 N 
ATOM      5  H13 UNL     1      57.400  -2.168  -2.253  1.00  0.00     0.274 HD
ATOM      6  H12 UNL     1      57.078  -2.268  -3.805  1.00  0.00     0.274 HD
ATOM      7  H11 UNL     1      56.132  -3.093  -2.742  1.00  0.00     0.274 HD
ENDBRANCH   3   4
BRANCH   1   8
HETATM    8  O1  UNL     1      59.376  -5.623  -2.008  1.00  0.00    -0.356 OA
BRANCH   8   9
HETATM    9  C2  UNL     1      60.663  -6.018  -1.686  1.00  0.00     0.125 C 
HETATM   10  C1  UNL     1      61.051  -5.940  -0.413  1.00  0.00     0.037 C 
ENDBRANCH   8   9
ENDBRANCH   1   8
TORSDOF 3
ENDMDL
MODEL 3
REMARK VINA RESULT: -3.782085904      1.665      1.925
REMARK  3 active torsions:
REMARK  status: ('A' for Active; 'I' for Inactive)
REMARK    1  A    between atoms: C2_2  and  O1_3 
REMARK    2  A    between atoms: O1_3  and  C3_4 
REMARK    3  A    between atoms: C5_6  and  N1_7 
ROOT
HETATM    1  C3  UNL     1      60.859  -2.949  -0.987  1.00  0.00     0.160 A 
HETATM    2  C4  UNL     1      60.302  -3.321  -2.302  1.00  0.00     0.070 A 
HETATM    3  C5  UNL     1      59.388  -2.911  -1.164  1.00  0.00     0.215 A 
ENDROOT
BRANCH   3   4
HETATM    4  N1  UNL     1      58.664  -1.699  -1.323  1.00  0.00    -0.072 N 
ATOM      5  H13 UNL     1      58.348  -1.407  -0.399  1.00  0.00     0.274 HD
ATOM      6  H12 UNL     1      59.336  -0.970  -1.563  1.00  0.00     0.274 HD
ATOM      7  H11 UNL     1      57.873  -1.609  -1.961  1.00  0.00     0.274 HD
ENDBRANCH   3   4
BRANCH   1   8
HETATM    8  O1  UNL     1      61.375  -3.962  -0.142  1.00  0.00    -0.356 OA
BRANCH   8   9
HETATM    9  C2  UNL     1      60.696  -5.141   0.112  1.00  0.00     0.125 C 
HETATM   10  C1  UNL     1      61.117  -6.257  -0.485  1.00  0.00     0.037 C 
ENDBRANCH   8   9
ENDBRANCH   1   8
TORSDOF 3
ENDMDL
MODEL 4
REMARK VINA RESULT: -3.724221873      1.919      2.329
REMARK  3 active torsions:
REMARK  status: ('A' for Active; 'I' for Inactive)
REMARK    1  A    between atoms: C2_2  and  O1_3 
REMARK    2  A    between atoms: O1_3  and  C3_4 
REMARK    3  A    between atoms: C5_6  and  N1_7 
ROOT
HETATM    1  C3  UNL     1      60.061  -3.242   0.317  1.00  0.00     0.160 A 
HETATM    2  C4  UNL     1      60.986  -2.475  -0.539  1.00  0.00     0.070 A 
HETATM    3  C5  UNL     1      59.544  -2.690  -0.958  1.00  0.00     0.215 A 
ENDROOT
BRANCH   3   4
HETATM    4  N1  UNL     1      58.711  -1.540  -1.016  1.00  0.00    -0.072 N 
ATOM      5  H13 UNL     1      58.908  -0.977  -0.190  1.00  0.00     0.274 HD
ATOM      6  H12 UNL     1      59.058  -0.948  -1.770  1.00  0.00     0.274 HD
ATOM      7  H11 UNL     1      57.697  -1.598  -1.114  1.00  0.00     0.274 HD
ENDBRANCH   3   4
BRANCH   1   8
HETATM    8  O1  UNL     1      60.196  -4.650   0.395  1.00  0.00    -0.356 OA
BRANCH   8   9
HETATM    9  C2  UNL     1      61.158  -5.349  -0.314  1.00  0.00     0.125 C 
HETATM   10  C1  UNL     1      60.766  -6.105  -1.340  1.00  0.00     0.037 C 
ENDBRANCH   8   9
ENDBRANCH   1   8
TORSDOF 3
ENDMDL
MODEL 5
REMARK VINA RESULT: -3.687947399      2.019      2.378
REMARK  3 active torsions:
REMARK  status: ('A' for Active; 'I' for Inactive)
REMARK    1  A    between atoms: C2_2  and  O1_3 
REMARK    2  A    between atoms: O1_3  and  C3_4 
REMARK    3  A    between atoms: C5_6  and  N1_7 
ROOT
HETATM    1  C3  UNL     1      60.618  -3.644  -0.273  1.00  0.00     0.160 A 
HETATM    2  C4  UNL     1      61.172  -2.305  -0.554  1.00  0.00     0.070 A 
HETATM    3  C5  UNL     1      60.332  -3.026  -1.590  1.00  0.00     0.215 A 
ENDROOT
BRANCH   3   4
HETATM    4  N1  UNL     1      59.073  -2.451  -1.913  1.00  0.00    -0.072 N 
ATOM      5  H13 UNL     1      59.163  -1.441  -1.812  1.00  0.00     0.274 HD
ATOM      6  H12 UNL     1      58.936  -2.558  -2.918  1.00  0.00     0.274 HD
ATOM      7  H11 UNL     1      58.206  -2.730  -1.454  1.00  0.00     0.274 HD
ENDBRANCH   3   4
BRANCH   1   8
HETATM    8  O1  UNL     1      61.483  -4.765  -0.267  1.00  0.00    -0.356 OA
BRANCH   8   9
HETATM    9  C2  UNL     1      61.024  -6.064  -0.397  1.00  0.00     0.125 C 
HETATM   10  C1  UNL     1      59.768  -6.332  -0.039  1.00  0.00     0.037 C 
ENDBRANCH   8   9
ENDBRANCH   1   8
TORSDOF 3
ENDMDL
