MODEL 1
REMARK VINA RESULT: -8.113222206      0.000      0.000
REMARK  9 active torsions:
REMARK  status: ('A' for Active; 'I' for Inactive)
REMARK    1  A    between atoms: C3_3  and  C4_4 
REMARK    2  A    between atoms: C7_7  and  O1_8 
REMARK    3  A    between atoms: O1_8  and  C8_9 
REMARK    4  A    between atoms: C10_11  and  O2_12 
REMARK    5  A    between atoms: O2_12  and  C11_13 
REMARK    6  A    between atoms: C11_13  and  C12_14 
REMARK       I    between atoms: C12_14  and  N1_16 
REMARK    7  A    between atoms: N1_16  and  C13_18 
REMARK    8  A    between atoms: C18_28  and  N4_29 
REMARK    9  A    between atoms: N4_29  and  N5_31 
ROOT
HETATM    1  C1  UNL     1      16.170 -14.563  16.562  1.00  0.00     0.012 C 
HETATM    2  C2  UNL     1      16.373 -13.795  17.478  1.00  0.00    -0.112 C 
HETATM    3  C3  UNL     1      16.591 -12.855  18.568  1.00  0.00     0.146 C 
ENDROOT
BRANCH   3   4
HETATM    4  C4  UNL     1      15.748 -13.106  19.769  1.00  0.00     0.081 A 
HETATM    5  C5  UNL     1      16.298 -13.549  20.886  1.00  0.00     0.014 A 
HETATM    6  C6  UNL     1      17.669 -13.691  20.688  1.00  0.00     0.054 A 
HETATM    7  C17 UNL     1      15.829 -13.902  22.134  1.00  0.00     0.063 A 
HETATM    8  C7  UNL     1      18.554 -14.148  21.630  1.00  0.00     0.103 A 
HETATM    9  C10 UNL     1      18.031 -14.498  22.893  1.00  0.00     0.104 A 
HETATM   10  C16 UNL     1      16.689 -14.374  23.133  1.00  0.00     0.070 A 
HETATM   11  N3  UNL     1      14.650 -13.883  22.584  1.00  0.00    -0.189 N 
HETATM   12  C18 UNL     1      13.379 -13.531  22.081  1.00  0.00     0.711 A 
ATOM     13  H3  UNL     1      14.604 -14.201  23.553  1.00  0.00     0.184 HD
HETATM   14  N6  UNL     1      13.146 -13.075  20.917  1.00  0.00    -0.111 N 
HETATM   15  S2  UNL     1      14.043 -12.697  19.560  1.00  0.00     0.274 S 
ATOM     16  H6  UNL     1      12.152 -12.891  20.776  1.00  0.00     0.197 HD
HETATM   17  O6  UNL     1      14.031 -11.184  19.374  1.00  0.00    -0.200 OA
HETATM   18  O7  UNL     1      13.509 -13.352  18.305  1.00  0.00    -0.200 OA
BRANCH   8  19
HETATM   19  O1  UNL     1      19.888 -14.267  21.385  1.00  0.00    -0.349 OA
BRANCH  19  20
HETATM   20  C8  UNL     1      20.748 -13.194  21.186  1.00  0.00     0.171 C 
HETATM   21  C9  UNL     1      20.993 -12.796  19.769  1.00  0.00     0.034 C 
ENDBRANCH  19  20
ENDBRANCH   8  19
BRANCH   9  22
HETATM   22  O2  UNL     1      18.902 -14.951  23.838  1.00  0.00    -0.339 OA
BRANCH  22  23
HETATM   23  C11 UNL     1      19.476 -14.310  24.914  1.00  0.00     0.278 C 
BRANCH  23  24
HETATM   24  C12 UNL     1      20.958 -14.309  24.926  1.00  0.00     0.247 C 
HETATM   25  O3  UNL     1      21.558 -13.573  25.771  1.00  0.00    -0.271 OA
HETATM   26  N1  UNL     1      21.752 -15.073  24.064  1.00  0.00    -0.305 N 
ATOM     27  H1  UNL     1      21.447 -15.212  23.100  1.00  0.00     0.171 HD
BRANCH  26  28
HETATM   28  C13 UNL     1      22.884 -15.619  24.465  1.00  0.00     0.150 A 
HETATM   29  N2  UNL     1      24.095 -15.064  24.471  1.00  0.00    -0.346 N 
HETATM   30  C14 UNL     1      25.099 -15.761  24.906  1.00  0.00     0.097 A 
ATOM     31  H2  UNL     1      24.230 -14.109  24.139  1.00  0.00     0.167 HD
HETATM   32  C15 UNL     1      24.860 -17.039  25.339  1.00  0.00     0.070 A 
HETATM   33  S1  UNL     1      23.175 -17.180  25.095  1.00  0.00    -0.064 SA
ENDBRANCH  26  28
ENDBRANCH  23  24
ENDBRANCH  22  23
ENDBRANCH   9  22
BRANCH  12  34
HETATM   34  N4  UNL     1      12.235 -13.682  22.907  1.00  0.00    -0.071 N 
ATOM     35  H4  UNL     1      12.005 -14.609  23.264  1.00  0.00     0.212 HD
BRANCH  34  36
HETATM   36  N5  UNL     1      11.418 -12.614  23.246  1.00  0.00    -0.024 N 
HETATM   37  O4  UNL     1      10.841 -12.616  24.345  1.00  0.00    -0.516 OA
HETATM   38  O5  UNL     1      11.207 -11.533  22.417  1.00  0.00    -0.516 OA
ENDBRANCH  34  36
ENDBRANCH  12  34
ENDBRANCH   3   4
TORSDOF 9
ENDMDL
MODEL 2
REMARK VINA RESULT: -8.075729880      3.265      7.884
REMARK  9 active torsions:
REMARK  status: ('A' for Active; 'I' for Inactive)
REMARK    1  A    between atoms: C3_3  and  C4_4 
REMARK    2  A    between atoms: C7_7  and  O1_8 
REMARK    3  A    between atoms: O1_8  and  C8_9 
REMARK    4  A    between atoms: C10_11  and  O2_12 
REMARK    5  A    between atoms: O2_12  and  C11_13 
REMARK    6  A    between atoms: C11_13  and  C12_14 
REMARK       I    between atoms: C12_14  and  N1_16 
REMARK    7  A    between atoms: N1_16  and  C13_18 
REMARK    8  A    between atoms: C18_28  and  N4_29 
REMARK    9  A    between atoms: N4_29  and  N5_31 
ROOT
HETATM    1  C1  UNL     1      22.097 -14.649  24.645  1.00  0.00     0.012 C 
HETATM    2  C2  UNL     1      20.969 -14.549  25.079  1.00  0.00    -0.112 C 
HETATM    3  C3  UNL     1      19.606 -14.413  25.572  1.00  0.00     0.146 C 
ENDROOT
BRANCH   3   4
HETATM    4  C4  UNL     1      18.674 -15.468  25.090  1.00  0.00     0.081 A 
HETATM    5  C5  UNL     1      18.125 -15.373  23.891  1.00  0.00     0.014 A 
HETATM    6  C6  UNL     1      18.582 -14.210  23.278  1.00  0.00     0.054 A 
HETATM    7  C17 UNL     1      17.229 -16.128  23.163  1.00  0.00     0.063 A 
HETATM    8  C7  UNL     1      18.206 -13.780  22.031  1.00  0.00     0.103 A 
HETATM    9  C10 UNL     1      17.287 -14.583  21.322  1.00  0.00     0.104 A 
HETATM   10  C16 UNL     1      16.812 -15.736  21.885  1.00  0.00     0.070 A 
HETATM   11  N3  UNL     1      16.654 -17.208  23.469  1.00  0.00    -0.189 N 
HETATM   12  C18 UNL     1      16.649 -18.073  24.584  1.00  0.00     0.711 A 
ATOM     13  H3  UNL     1      16.039 -17.539  22.724  1.00  0.00     0.184 HD
HETATM   14  N6  UNL     1      17.344 -17.922  25.639  1.00  0.00    -0.111 N 
HETATM   15  S2  UNL     1      18.457 -16.817  26.210  1.00  0.00     0.274 S 
ATOM     16  H6  UNL     1      17.176 -18.671  26.311  1.00  0.00     0.197 HD
HETATM   17  O6  UNL     1      19.825 -17.490  26.269  1.00  0.00    -0.200 OA
HETATM   18  O7  UNL     1      18.108 -16.290  27.584  1.00  0.00    -0.200 OA
BRANCH   8  19
HETATM   19  O1  UNL     1      18.684 -12.633  21.476  1.00  0.00    -0.349 OA
BRANCH  19  20
HETATM   20  C8  UNL     1      19.771 -12.574  20.612  1.00  0.00     0.171 C 
HETATM   21  C9  UNL     1      21.011 -13.273  21.059  1.00  0.00     0.034 C 
ENDBRANCH  19  20
ENDBRANCH   8  19
BRANCH   9  22
HETATM   22  O2  UNL     1      16.908 -14.167  20.081  1.00  0.00    -0.339 OA
BRANCH  22  23
HETATM   23  C11 UNL     1      15.787 -13.485  19.663  1.00  0.00     0.278 C 
BRANCH  23  24
HETATM   24  C12 UNL     1      15.220 -12.541  20.654  1.00  0.00     0.247 C 
HETATM   25  O3  UNL     1      15.399 -11.294  20.478  1.00  0.00    -0.271 OA
HETATM   26  N1  UNL     1      14.491 -12.930  21.783  1.00  0.00    -0.305 N 
ATOM     27  H1  UNL     1      14.759 -13.781  22.279  1.00  0.00     0.171 HD
BRANCH  26  28
HETATM   28  C13 UNL     1      13.466 -12.226  22.223  1.00  0.00     0.150 A 
HETATM   29  N2  UNL     1      13.486 -10.998  22.739  1.00  0.00    -0.346 N 
HETATM   30  C14 UNL     1      12.368 -10.463  23.120  1.00  0.00     0.097 A 
ATOM     31  H2  UNL     1      14.365 -10.489  22.832  1.00  0.00     0.167 HD
HETATM   32  C15 UNL     1      11.218 -11.192  22.973  1.00  0.00     0.070 A 
HETATM   33  S1  UNL     1      11.809 -12.638  22.281  1.00  0.00    -0.064 SA
ENDBRANCH  26  28
ENDBRANCH  23  24
ENDBRANCH  22  23
ENDBRANCH   9  22
BRANCH  12  34
HETATM   34  N4  UNL     1      15.815 -19.221  24.573  1.00  0.00    -0.071 N 
ATOM     35  H4  UNL     1      16.242 -20.140  24.690  1.00  0.00     0.212 HD
BRANCH  34  36
HETATM   36  N5  UNL     1      14.441 -19.139  24.408  1.00  0.00    -0.024 N 
HETATM   37  O4  UNL     1      13.968 -18.239  23.696  1.00  0.00    -0.516 OA
HETATM   38  O5  UNL     1      13.556 -20.014  25.002  1.00  0.00    -0.516 OA
ENDBRANCH  34  36
ENDBRANCH  12  34
ENDBRANCH   3   4
TORSDOF 9
ENDMDL
MODEL 3
REMARK VINA RESULT: -8.043768215      2.754      8.212
REMARK  9 active torsions:
REMARK  status: ('A' for Active; 'I' for Inactive)
REMARK    1  A    between atoms: C3_3  and  C4_4 
REMARK    2  A    between atoms: C7_7  and  O1_8 
REMARK    3  A    between atoms: O1_8  and  C8_9 
REMARK    4  A    between atoms: C10_11  and  O2_12 
REMARK    5  A    between atoms: O2_12  and  C11_13 
REMARK    6  A    between atoms: C11_13  and  C12_14 
REMARK       I    between atoms: C12_14  and  N1_16 
REMARK    7  A    between atoms: N1_16  and  C13_18 
REMARK    8  A    between atoms: C18_28  and  N4_29 
REMARK    9  A    between atoms: N4_29  and  N5_31 
ROOT
HETATM    1  C1  UNL     1      20.970 -12.938  19.942  1.00  0.00     0.012 C 
HETATM    2  C2  UNL     1      20.211 -12.843  20.883  1.00  0.00    -0.112 C 
HETATM    3  C3  UNL     1      19.276 -12.736  21.994  1.00  0.00     0.146 C 
ENDROOT
BRANCH   3   4
HETATM    4  C4  UNL     1      18.984 -14.029  22.672  1.00  0.00     0.081 A 
HETATM    5  C5  UNL     1      17.916 -14.730  22.333  1.00  0.00     0.014 A 
HETATM    6  C6  UNL     1      17.237 -14.056  21.321  1.00  0.00     0.054 A 
HETATM    7  C17 UNL     1      17.347 -15.913  22.758  1.00  0.00     0.063 A 
HETATM    8  C7  UNL     1      16.071 -14.484  20.739  1.00  0.00     0.103 A 
HETATM    9  C10 UNL     1      15.525 -15.699  21.204  1.00  0.00     0.104 A 
HETATM   10  C16 UNL     1      16.158 -16.396  22.198  1.00  0.00     0.070 A 
HETATM   11  N3  UNL     1      17.734 -16.715  23.652  1.00  0.00    -0.189 N 
HETATM   12  C18 UNL     1      18.820 -16.781  24.553  1.00  0.00     0.711 A 
ATOM     13  H3  UNL     1      17.108 -17.514  23.747  1.00  0.00     0.184 HD
HETATM   14  N6  UNL     1      19.767 -15.936  24.631  1.00  0.00    -0.111 N 
HETATM   15  S2  UNL     1      20.197 -14.521  23.857  1.00  0.00     0.274 S 
ATOM     16  H6  UNL     1      20.439 -16.190  25.355  1.00  0.00     0.197 HD
HETATM   17  O6  UNL     1      21.455 -14.778  23.034  1.00  0.00    -0.200 OA
HETATM   18  O7  UNL     1      20.462 -13.384  24.820  1.00  0.00    -0.200 OA
BRANCH   8  19
HETATM   19  O1  UNL     1      15.447 -13.788  19.750  1.00  0.00    -0.349 OA
BRANCH  19  20
HETATM   20  C8  UNL     1      15.966 -12.650  19.144  1.00  0.00     0.171 C 
HETATM   21  C9  UNL     1      16.758 -12.865  17.898  1.00  0.00     0.034 C 
ENDBRANCH  19  20
ENDBRANCH   8  19
BRANCH   9  22
HETATM   22  O2  UNL     1      14.368 -16.136  20.632  1.00  0.00    -0.339 OA
BRANCH  22  23
HETATM   23  C11 UNL     1      13.061 -16.043  21.057  1.00  0.00     0.278 C 
BRANCH  23  24
HETATM   24  C12 UNL     1      12.554 -14.662  21.227  1.00  0.00     0.247 C 
HETATM   25  O3  UNL     1      11.554 -14.291  20.534  1.00  0.00    -0.271 OA
HETATM   26  N1  UNL     1      13.102 -13.725  22.110  1.00  0.00    -0.305 N 
ATOM     27  H1  UNL     1      14.112 -13.706  22.249  1.00  0.00     0.171 HD
BRANCH  26  28
HETATM   28  C13 UNL     1      12.346 -12.866  22.768  1.00  0.00     0.150 A 
HETATM   29  N2  UNL     1      11.250 -13.127  23.478  1.00  0.00    -0.346 N 
HETATM   30  C14 UNL     1      10.634 -12.145  24.060  1.00  0.00     0.097 A 
ATOM     31  H2  UNL     1      10.902 -14.082  23.562  1.00  0.00     0.167 HD
HETATM   32  C15 UNL     1      11.146 -10.882  23.912  1.00  0.00     0.070 A 
HETATM   33  S1  UNL     1      12.511 -11.173  22.927  1.00  0.00    -0.064 SA
ENDBRANCH  26  28
ENDBRANCH  23  24
ENDBRANCH  22  23
ENDBRANCH   9  22
BRANCH  12  34
HETATM   34  N4  UNL     1      18.903 -17.864  25.466  1.00  0.00    -0.071 N 
ATOM     35  H4  UNL     1      19.236 -18.767  25.129  1.00  0.00     0.212 HD
BRANCH  34  36
HETATM   36  N5  UNL     1      18.547 -17.738  26.800  1.00  0.00    -0.024 N 
HETATM   37  O4  UNL     1      18.413 -16.604  27.288  1.00  0.00    -0.516 OA
HETATM   38  O5  UNL     1      18.332 -18.819  27.629  1.00  0.00    -0.516 OA
ENDBRANCH  34  36
ENDBRANCH  12  34
ENDBRANCH   3   4
TORSDOF 9
ENDMDL
MODEL 4
REMARK VINA RESULT: -7.944848114      3.054      7.941
REMARK  9 active torsions:
REMARK  status: ('A' for Active; 'I' for Inactive)
REMARK    1  A    between atoms: C3_3  and  C4_4 
REMARK    2  A    between atoms: C7_7  and  O1_8 
REMARK    3  A    between atoms: O1_8  and  C8_9 
REMARK    4  A    between atoms: C10_11  and  O2_12 
REMARK    5  A    between atoms: O2_12  and  C11_13 
REMARK    6  A    between atoms: C11_13  and  C12_14 
REMARK       I    between atoms: C12_14  and  N1_16 
REMARK    7  A    between atoms: N1_16  and  C13_18 
REMARK    8  A    between atoms: C18_28  and  N4_29 
REMARK    9  A    between atoms: N4_29  and  N5_31 
ROOT
HETATM    1  C1  UNL     1      20.972 -12.879  19.459  1.00  0.00     0.012 C 
HETATM    2  C2  UNL     1      20.408 -12.690  20.516  1.00  0.00    -0.112 C 
HETATM    3  C3  UNL     1      19.704 -12.458  21.768  1.00  0.00     0.146 C 
ENDROOT
BRANCH   3   4
HETATM    4  C4  UNL     1      18.963 -13.642  22.281  1.00  0.00     0.081 A 
HETATM    5  C5  UNL     1      17.767 -13.937  21.803  1.00  0.00     0.014 A 
HETATM    6  C6  UNL     1      17.428 -13.000  20.830  1.00  0.00     0.054 A 
HETATM    7  C17 UNL     1      16.823 -14.909  22.060  1.00  0.00     0.063 A 
HETATM    8  C7  UNL     1      16.248 -12.985  20.133  1.00  0.00     0.103 A 
HETATM    9  C10 UNL     1      15.310 -13.998  20.428  1.00  0.00     0.104 A 
HETATM   10  C16 UNL     1      15.601 -14.940  21.377  1.00  0.00     0.070 A 
HETATM   11  N3  UNL     1      16.857 -15.865  22.883  1.00  0.00    -0.189 N 
HETATM   12  C18 UNL     1      17.779 -16.348  23.837  1.00  0.00     0.711 A 
ATOM     13  H3  UNL     1      16.007 -16.429  22.851  1.00  0.00     0.184 HD
HETATM   14  N6  UNL     1      18.930 -15.857  24.065  1.00  0.00    -0.111 N 
HETATM   15  S2  UNL     1      19.848 -14.592  23.479  1.00  0.00     0.274 S 
ATOM     16  H6  UNL     1      19.419 -16.371  24.798  1.00  0.00     0.197 HD
HETATM   17  O6  UNL     1      21.035 -15.166  22.714  1.00  0.00    -0.200 OA
HETATM   18  O7  UNL     1      20.361 -13.683  24.576  1.00  0.00    -0.200 OA
BRANCH   8  19
HETATM   19  O1  UNL     1      15.966 -12.046  19.189  1.00  0.00    -0.349 OA
BRANCH  19  20
HETATM   20  C8  UNL     1      15.982 -12.280  17.819  1.00  0.00     0.171 C 
HETATM   21  C9  UNL     1      17.275 -12.754  17.244  1.00  0.00     0.034 C 
ENDBRANCH  19  20
ENDBRANCH   8  19
BRANCH   9  22
HETATM   22  O2  UNL     1      14.134 -13.995  19.740  1.00  0.00    -0.339 OA
BRANCH  22  23
HETATM   23  C11 UNL     1      12.915 -13.431  20.043  1.00  0.00     0.278 C 
BRANCH  23  24
HETATM   24  C12 UNL     1      12.964 -12.317  21.019  1.00  0.00     0.247 C 
HETATM   25  O3  UNL     1      12.941 -11.123  20.581  1.00  0.00    -0.271 OA
HETATM   26  N1  UNL     1      13.030 -12.489  22.406  1.00  0.00    -0.305 N 
ATOM     27  H1  UNL     1      13.579 -13.261  22.785  1.00  0.00     0.171 HD
BRANCH  26  28
HETATM   28  C13 UNL     1      12.402 -11.679  23.236  1.00  0.00     0.150 A 
HETATM   29  N2  UNL     1      12.797 -10.477  23.652  1.00  0.00    -0.346 N 
HETATM   30  C14 UNL     1      12.039  -9.822  24.477  1.00  0.00     0.097 A 
ATOM     31  H2  UNL     1      13.679 -10.080  23.328  1.00  0.00     0.167 HD
HETATM   32  C15 UNL     1      10.866 -10.404  24.880  1.00  0.00     0.070 A 
HETATM   33  S1  UNL     1      10.909 -11.890  24.040  1.00  0.00    -0.064 SA
ENDBRANCH  26  28
ENDBRANCH  23  24
ENDBRANCH  22  23
ENDBRANCH   9  22
BRANCH  12  34
HETATM   34  N4  UNL     1      17.437 -17.473  24.630  1.00  0.00    -0.071 N 
ATOM     35  H4  UNL     1      17.131 -18.328  24.165  1.00  0.00     0.212 HD
BRANCH  34  36
HETATM   36  N5  UNL     1      17.501 -17.452  26.015  1.00  0.00    -0.024 N 
HETATM   37  O4  UNL     1      17.453 -18.523  26.641  1.00  0.00    -0.516 OA
HETATM   38  O5  UNL     1      17.616 -16.290  26.747  1.00  0.00    -0.516 OA
ENDBRANCH  34  36
ENDBRANCH  12  34
ENDBRANCH   3   4
TORSDOF 9
ENDMDL
MODEL 5
REMARK VINA RESULT: -7.844874277      3.569      6.195
REMARK  9 active torsions:
REMARK  status: ('A' for Active; 'I' for Inactive)
REMARK    1  A    between atoms: C3_3  and  C4_4 
REMARK    2  A    between atoms: C7_7  and  O1_8 
REMARK    3  A    between atoms: O1_8  and  C8_9 
REMARK    4  A    between atoms: C10_11  and  O2_12 
REMARK    5  A    between atoms: O2_12  and  C11_13 
REMARK    6  A    between atoms: C11_13  and  C12_14 
REMARK       I    between atoms: C12_14  and  N1_16 
REMARK    7  A    between atoms: N1_16  and  C13_18 
REMARK    8  A    between atoms: C18_28  and  N4_29 
REMARK    9  A    between atoms: N4_29  and  N5_31 
ROOT
HETATM    1  C1  UNL     1      11.023 -12.007  23.957  1.00  0.00     0.012 C 
HETATM    2  C2  UNL     1      11.451 -12.472  22.922  1.00  0.00    -0.112 C 
HETATM    3  C3  UNL     1      11.969 -13.001  21.669  1.00  0.00     0.146 C 
ENDROOT
BRANCH   3   4
HETATM    4  C4  UNL     1      13.454 -13.079  21.607  1.00  0.00     0.081 A 
HETATM    5  C5  UNL     1      14.064 -14.247  21.720  1.00  0.00     0.014 A 
HETATM    6  C6  UNL     1      13.103 -15.242  21.879  1.00  0.00     0.054 A 
HETATM    7  C17 UNL     1      15.377 -14.667  21.735  1.00  0.00     0.063 A 
HETATM    8  C7  UNL     1      13.376 -16.576  22.045  1.00  0.00     0.103 A 
HETATM    9  C10 UNL     1      14.733 -16.962  22.054  1.00  0.00     0.104 A 
HETATM   10  C16 UNL     1      15.711 -16.017  21.901  1.00  0.00     0.070 A 
HETATM   11  N3  UNL     1      16.438 -13.993  21.622  1.00  0.00    -0.189 N 
HETATM   12  C18 UNL     1      16.758 -12.629  21.448  1.00  0.00     0.711 A 
ATOM     13  H3  UNL     1      17.272 -14.580  21.669  1.00  0.00     0.184 HD
HETATM   14  N6  UNL     1      15.917 -11.683  21.327  1.00  0.00    -0.111 N 
HETATM   15  S2  UNL     1      14.254 -11.533  21.308  1.00  0.00     0.274 S 
ATOM     16  H6  UNL     1      16.379 -10.781  21.211  1.00  0.00     0.197 HD
HETATM   17  O6  UNL     1      13.817 -11.140  19.901  1.00  0.00    -0.200 OA
HETATM   18  O7  UNL     1      13.748 -10.497  22.288  1.00  0.00    -0.200 OA
BRANCH   8  19
HETATM   19  O1  UNL     1      12.398 -17.510  22.196  1.00  0.00    -0.349 OA
BRANCH  19  20
HETATM   20  C8  UNL     1      11.451 -17.818  21.226  1.00  0.00     0.171 C 
HETATM   21  C9  UNL     1      11.977 -18.193  19.881  1.00  0.00     0.034 C 
ENDBRANCH  19  20
ENDBRANCH   8  19
BRANCH   9  22
HETATM   22  O2  UNL     1      15.016 -18.285  22.216  1.00  0.00    -0.339 OA
BRANCH  22  23
HETATM   23  C11 UNL     1      15.264 -19.019  23.354  1.00  0.00     0.278 C 
BRANCH  23  24
HETATM   24  C12 UNL     1      16.471 -18.615  24.112  1.00  0.00     0.247 C 
HETATM   25  O3  UNL     1      17.613 -18.933  23.651  1.00  0.00    -0.271 OA
HETATM   26  N1  UNL     1      16.443 -17.897  25.312  1.00  0.00    -0.305 N 
ATOM     27  H1  UNL     1      15.699 -18.084  25.985  1.00  0.00     0.171 HD
BRANCH  26  28
HETATM   28  C13 UNL     1      17.352 -16.984  25.595  1.00  0.00     0.150 A 
HETATM   29  N2  UNL     1      17.683 -15.916  24.872  1.00  0.00    -0.346 N 
HETATM   30  C14 UNL     1      18.610 -15.123  25.316  1.00  0.00     0.097 A 
ATOM     31  H2  UNL     1      17.217 -15.725  23.985  1.00  0.00     0.167 HD
HETATM   32  C15 UNL     1      19.202 -15.428  26.513  1.00  0.00     0.070 A 
HETATM   33  S1  UNL     1      18.386 -16.864  26.950  1.00  0.00    -0.064 SA
ENDBRANCH  26  28
ENDBRANCH  23  24
ENDBRANCH  22  23
ENDBRANCH   9  22
BRANCH  12  34
HETATM   34  N4  UNL     1      18.119 -12.233  21.397  1.00  0.00    -0.071 N 
ATOM     35  H4  UNL     1      18.353 -11.254  21.559  1.00  0.00     0.212 HD
BRANCH  34  36
HETATM   36  N5  UNL     1      19.144 -13.130  21.132  1.00  0.00    -0.024 N 
HETATM   37  O4  UNL     1      19.988 -12.848  20.268  1.00  0.00    -0.516 OA
HETATM   38  O5  UNL     1      19.277 -14.337  21.786  1.00  0.00    -0.516 OA
ENDBRANCH  34  36
ENDBRANCH  12  34
ENDBRANCH   3   4
TORSDOF 9
ENDMDL
