MODEL 1
REMARK VINA RESULT: -9.546959956      0.000      0.000
REMARK  7 active torsions:
REMARK  status: ('A' for Active; 'I' for Inactive)
REMARK    1  A    between atoms: C1_4  and  N2_5 
REMARK    2  A    between atoms: C1_4  and  C22_32 
REMARK    3  A    between atoms: N2_5  and  C2_7 
REMARK    4  A    between atoms: C5_10  and  N3_11 
REMARK       I    between atoms: N3_11  and  C6_13 
REMARK    5  A    between atoms: C6_13  and  C7_15 
REMARK    6  A    between atoms: C10_18  and  N4_19 
REMARK    7  A    between atoms: C11_21  and  C12_22 
ROOT
HETATM    1  N3  UNL     1      12.702  22.298  33.979  1.00  0.00    -0.323 N 
ATOM      2  H3  UNL     1      11.947  21.614  34.015  1.00  0.00     0.169 HD
HETATM    3  C6  UNL     1      14.000  21.780  33.920  1.00  0.00     0.256 C 
HETATM    4  O1  UNL     1      14.991  22.540  33.880  1.00  0.00    -0.267 OA
ENDROOT
BRANCH   1   5
HETATM    5  C5  UNL     1      12.312  23.655  33.996  1.00  0.00     0.035 A 
HETATM    6  C4  UNL     1      12.252  24.494  32.910  1.00  0.00     0.032 A 
HETATM    7  C3  UNL     1      11.874  25.842  33.012  1.00  0.00     0.032 A 
HETATM    8  C2  UNL     1      11.540  26.392  34.224  1.00  0.00     0.033 A 
HETATM    9  C21 UNL     1      11.593  25.568  35.322  1.00  0.00     0.032 A 
HETATM   10  C20 UNL     1      11.963  24.250  35.224  1.00  0.00     0.032 A 
BRANCH   8  11
HETATM   11  N2  UNL     1      11.155  27.765  34.329  1.00  0.00    -0.342 N 
ATOM     12  H2  UNL     1      11.865  28.488  34.217  1.00  0.00     0.167 HD
BRANCH  11  13
HETATM   13  C1  UNL     1       9.815  28.151  34.585  1.00  0.00     0.109 C 
HETATM   14  N1  UNL     1       9.530  29.280  35.121  1.00  0.00    -0.385 N 
ATOM     15  H12 UNL     1      10.274  29.929  35.376  1.00  0.00     0.157 HD
ATOM     16  H11 UNL     1       8.566  29.558  35.305  1.00  0.00     0.157 HD
BRANCH  13  17
HETATM   17  C22 UNL     1       8.751  27.224  34.221  1.00  0.00     0.007 A 
HETATM   18  C23 UNL     1       8.432  26.961  32.908  1.00  0.00     0.015 A 
HETATM   19  C24 UNL     1       7.432  26.090  32.530  1.00  0.00     0.001 A 
HETATM   20  C25 UNL     1       6.732  25.464  33.537  1.00  0.00     0.000 A 
HETATM   21  C26 UNL     1       7.015  25.695  34.866  1.00  0.00     0.001 A 
HETATM   22  C27 UNL     1       8.028  26.578  35.206  1.00  0.00     0.015 A 
ENDBRANCH  13  17
ENDBRANCH  11  13
ENDBRANCH   8  11
ENDBRANCH   1   5
BRANCH   3  23
HETATM   23  C7  UNL     1      14.245  20.350  33.902  1.00  0.00     0.032 A 
HETATM   24  C8  UNL     1      15.171  19.719  33.101  1.00  0.00     0.019 A 
HETATM   25  C9  UNL     1      15.336  18.327  33.146  1.00  0.00     0.030 A 
HETATM   26  C10 UNL     1      14.592  17.549  33.979  1.00  0.00     0.031 A 
HETATM   27  C18 UNL     1      13.660  18.155  34.790  1.00  0.00     0.030 A 
HETATM   28  C19 UNL     1      13.505  19.521  34.738  1.00  0.00     0.019 A 
BRANCH  26  29
HETATM   29  N4  UNL     1      14.737  16.141  34.046  1.00  0.00    -0.365 N 
HETATM   30  C11 UNL     1      13.805  15.379  34.483  1.00  0.00     0.099 C 
ATOM     31  H4  UNL     1      15.612  15.721  33.735  1.00  0.00     0.165 HD
BRANCH  30  32
HETATM   32  C12 UNL     1      13.995  13.942  34.534  1.00  0.00    -0.021 A 
HETATM   33  C13 UNL     1      14.696  13.324  33.524  1.00  0.00     0.013 A 
HETATM   34  C14 UNL     1      14.861  11.942  33.604  1.00  0.00     0.001 A 
HETATM   35  C15 UNL     1      14.345  11.216  34.652  1.00  0.00     0.000 A 
HETATM   36  C16 UNL     1      13.650  11.883  35.637  1.00  0.00     0.001 A 
HETATM   37  C17 UNL     1      13.470  13.243  35.588  1.00  0.00     0.013 A 
ENDBRANCH  30  32
ENDBRANCH  26  29
ENDBRANCH   3  23
TORSDOF 7
ENDMDL
MODEL 2
REMARK VINA RESULT: -9.533975498      0.035      1.193
REMARK  7 active torsions:
REMARK  status: ('A' for Active; 'I' for Inactive)
REMARK    1  A    between atoms: C1_4  and  N2_5 
REMARK    2  A    between atoms: C1_4  and  C22_32 
REMARK    3  A    between atoms: N2_5  and  C2_7 
REMARK    4  A    between atoms: C5_10  and  N3_11 
REMARK       I    between atoms: N3_11  and  C6_13 
REMARK    5  A    between atoms: C6_13  and  C7_15 
REMARK    6  A    between atoms: C10_18  and  N4_19 
REMARK    7  A    between atoms: C11_21  and  C12_22 
ROOT
HETATM    1  N3  UNL     1      12.706  22.291  33.974  1.00  0.00    -0.323 N 
ATOM      2  H3  UNL     1      11.951  21.607  33.998  1.00  0.00     0.169 HD
HETATM    3  C6  UNL     1      14.005  21.772  33.932  1.00  0.00     0.256 C 
HETATM    4  O1  UNL     1      14.997  22.532  33.908  1.00  0.00    -0.267 OA
ENDROOT
BRANCH   1   5
HETATM    5  C5  UNL     1      12.317  23.647  33.988  1.00  0.00     0.035 A 
HETATM    6  C4  UNL     1      12.238  24.479  32.897  1.00  0.00     0.032 A 
HETATM    7  C3  UNL     1      11.861  25.827  32.997  1.00  0.00     0.032 A 
HETATM    8  C2  UNL     1      11.548  26.387  34.210  1.00  0.00     0.033 A 
HETATM    9  C21 UNL     1      11.620  25.570  35.313  1.00  0.00     0.032 A 
HETATM   10  C20 UNL     1      11.988  24.251  35.218  1.00  0.00     0.032 A 
BRANCH   8  11
HETATM   11  N2  UNL     1      11.164  27.760  34.312  1.00  0.00    -0.342 N 
ATOM     12  H2  UNL     1      11.876  28.482  34.204  1.00  0.00     0.167 HD
BRANCH  11  13
HETATM   13  C1  UNL     1       9.823  28.148  34.559  1.00  0.00     0.109 C 
HETATM   14  N1  UNL     1       9.534  29.292  35.061  1.00  0.00    -0.385 N 
ATOM     15  H12 UNL     1      10.277  29.951  35.294  1.00  0.00     0.157 HD
ATOM     16  H11 UNL     1       8.570  29.571  35.238  1.00  0.00     0.157 HD
BRANCH  13  17
HETATM   17  C22 UNL     1       8.763  27.206  34.226  1.00  0.00     0.007 A 
HETATM   18  C23 UNL     1       8.060  26.526  35.195  1.00  0.00     0.015 A 
HETATM   19  C24 UNL     1       7.052  25.629  34.914  1.00  0.00     0.001 A 
HETATM   20  C25 UNL     1       6.752  25.420  33.586  1.00  0.00     0.000 A 
HETATM   21  C26 UNL     1       7.427  26.076  32.580  1.00  0.00     0.001 A 
HETATM   22  C27 UNL     1       8.435  26.971  32.903  1.00  0.00     0.015 A 
ENDBRANCH  13  17
ENDBRANCH  11  13
ENDBRANCH   8  11
ENDBRANCH   1   5
BRANCH   3  23
HETATM   23  C7  UNL     1      14.250  20.343  33.915  1.00  0.00     0.032 A 
HETATM   24  C8  UNL     1      15.189  19.714  33.127  1.00  0.00     0.019 A 
HETATM   25  C9  UNL     1      15.354  18.321  33.172  1.00  0.00     0.030 A 
HETATM   26  C10 UNL     1      14.596  17.541  33.990  1.00  0.00     0.031 A 
HETATM   27  C18 UNL     1      13.650  18.146  34.787  1.00  0.00     0.030 A 
HETATM   28  C19 UNL     1      13.496  19.512  34.736  1.00  0.00     0.019 A 
BRANCH  26  29
HETATM   29  N4  UNL     1      14.739  16.134  34.056  1.00  0.00    -0.365 N 
HETATM   30  C11 UNL     1      13.808  15.372  34.496  1.00  0.00     0.099 C 
ATOM     31  H4  UNL     1      15.613  15.712  33.743  1.00  0.00     0.165 HD
BRANCH  30  32
HETATM   32  C12 UNL     1      13.996  13.935  34.546  1.00  0.00    -0.021 A 
HETATM   33  C13 UNL     1      13.481  13.230  35.609  1.00  0.00     0.013 A 
HETATM   34  C14 UNL     1      13.681  11.850  35.628  1.00  0.00     0.001 A 
HETATM   35  C15 UNL     1      14.366  11.210  34.621  1.00  0.00     0.000 A 
HETATM   36  C16 UNL     1      14.862  11.962  33.579  1.00  0.00     0.001 A 
HETATM   37  C17 UNL     1      14.683  13.323  33.532  1.00  0.00     0.013 A 
ENDBRANCH  30  32
ENDBRANCH  26  29
ENDBRANCH   3  23
TORSDOF 7
ENDMDL
MODEL 3
REMARK VINA RESULT: -8.797935763      0.960      1.499
REMARK  7 active torsions:
REMARK  status: ('A' for Active; 'I' for Inactive)
REMARK    1  A    between atoms: C1_4  and  N2_5 
REMARK    2  A    between atoms: C1_4  and  C22_32 
REMARK    3  A    between atoms: N2_5  and  C2_7 
REMARK    4  A    between atoms: C5_10  and  N3_11 
REMARK       I    between atoms: N3_11  and  C6_13 
REMARK    5  A    between atoms: C6_13  and  C7_15 
REMARK    6  A    between atoms: C10_18  and  N4_19 
REMARK    7  A    between atoms: C11_21  and  C12_22 
ROOT
HETATM    1  N3  UNL     1      13.296  22.405  33.981  1.00  0.00    -0.323 N 
ATOM      2  H3  UNL     1      12.706  21.838  34.588  1.00  0.00     0.169 HD
HETATM    3  C6  UNL     1      14.322  21.727  33.312  1.00  0.00     0.256 C 
HETATM    4  O1  UNL     1      15.102  22.338  32.551  1.00  0.00    -0.267 OA
ENDROOT
BRANCH   1   5
HETATM    5  C5  UNL     1      12.982  23.779  33.915  1.00  0.00     0.035 A 
HETATM    6  C4  UNL     1      12.231  24.393  32.941  1.00  0.00     0.032 A 
HETATM    7  C3  UNL     1      11.980  25.774  32.935  1.00  0.00     0.032 A 
HETATM    8  C2  UNL     1      12.481  26.589  33.919  1.00  0.00     0.033 A 
HETATM    9  C21 UNL     1      13.233  25.993  34.902  1.00  0.00     0.032 A 
HETATM   10  C20 UNL     1      13.480  24.643  34.910  1.00  0.00     0.032 A 
BRANCH   8  11
HETATM   11  N2  UNL     1      12.225  27.995  33.912  1.00  0.00    -0.342 N 
ATOM     12  H2  UNL     1      12.816  28.603  33.344  1.00  0.00     0.167 HD
BRANCH  11  13
HETATM   13  C1  UNL     1      11.176  28.571  34.673  1.00  0.00     0.109 C 
HETATM   14  N1  UNL     1      11.175  29.814  34.986  1.00  0.00    -0.385 N 
ATOM     15  H12 UNL     1      11.941  30.418  34.688  1.00  0.00     0.157 HD
ATOM     16  H11 UNL     1      10.420  30.228  35.533  1.00  0.00     0.157 HD
BRANCH  13  17
HETATM   17  C22 UNL     1      10.082  27.707  35.098  1.00  0.00     0.007 A 
HETATM   18  C23 UNL     1       9.048  27.373  34.254  1.00  0.00     0.015 A 
HETATM   19  C24 UNL     1       7.998  26.559  34.625  1.00  0.00     0.001 A 
HETATM   20  C25 UNL     1       8.010  26.069  35.911  1.00  0.00     0.000 A 
HETATM   21  C26 UNL     1       9.023  26.376  36.794  1.00  0.00     0.001 A 
HETATM   22  C27 UNL     1      10.062  27.198  36.383  1.00  0.00     0.015 A 
ENDBRANCH  13  17
ENDBRANCH  11  13
ENDBRANCH   8  11
ENDBRANCH   1   5
BRANCH   3  23
HETATM   23  C7  UNL     1      14.518  20.300  33.476  1.00  0.00     0.032 A 
HETATM   24  C8  UNL     1      15.500  19.563  32.851  1.00  0.00     0.019 A 
HETATM   25  C9  UNL     1      15.613  18.180  33.064  1.00  0.00     0.030 A 
HETATM   26  C10 UNL     1      14.761  17.517  33.893  1.00  0.00     0.031 A 
HETATM   27  C18 UNL     1      13.771  18.231  34.529  1.00  0.00     0.030 A 
HETATM   28  C19 UNL     1      13.668  19.586  34.314  1.00  0.00     0.019 A 
BRANCH  26  29
HETATM   29  N4  UNL     1      14.849  16.123  34.127  1.00  0.00    -0.365 N 
HETATM   30  C11 UNL     1      13.812  15.392  34.302  1.00  0.00     0.099 C 
ATOM     31  H4  UNL     1      15.770  15.687  34.157  1.00  0.00     0.165 HD
BRANCH  30  32
HETATM   32  C12 UNL     1      13.949  13.968  34.539  1.00  0.00    -0.021 A 
HETATM   33  C13 UNL     1      13.328  13.410  35.632  1.00  0.00     0.013 A 
HETATM   34  C14 UNL     1      13.479  12.038  35.832  1.00  0.00     0.001 A 
HETATM   35  C15 UNL     1      14.221  11.265  34.970  1.00  0.00     0.000 A 
HETATM   36  C16 UNL     1      14.823  11.873  33.890  1.00  0.00     0.001 A 
HETATM   37  C17 UNL     1      14.694  13.221  33.666  1.00  0.00     0.013 A 
ENDBRANCH  30  32
ENDBRANCH  26  29
ENDBRANCH   3  23
TORSDOF 7
ENDMDL
MODEL 4
REMARK VINA RESULT: -8.431511579      1.052      1.770
REMARK  7 active torsions:
REMARK  status: ('A' for Active; 'I' for Inactive)
REMARK    1  A    between atoms: C1_4  and  N2_5 
REMARK    2  A    between atoms: C1_4  and  C22_32 
REMARK    3  A    between atoms: N2_5  and  C2_7 
REMARK    4  A    between atoms: C5_10  and  N3_11 
REMARK       I    between atoms: N3_11  and  C6_13 
REMARK    5  A    between atoms: C6_13  and  C7_15 
REMARK    6  A    between atoms: C10_18  and  N4_19 
REMARK    7  A    between atoms: C11_21  and  C12_22 
ROOT
HETATM    1  N3  UNL     1      13.184  22.454  34.132  1.00  0.00    -0.323 N 
ATOM      2  H3  UNL     1      12.540  21.958  34.748  1.00  0.00     0.169 HD
HETATM    3  C6  UNL     1      14.174  21.676  33.521  1.00  0.00     0.256 C 
HETATM    4  O1  UNL     1      15.013  22.196  32.755  1.00  0.00    -0.267 OA
ENDROOT
BRANCH   1   5
HETATM    5  C5  UNL     1      12.969  23.842  33.997  1.00  0.00     0.035 A 
HETATM    6  C4  UNL     1      12.441  24.478  32.898  1.00  0.00     0.032 A 
HETATM    7  C3  UNL     1      12.279  25.870  32.832  1.00  0.00     0.032 A 
HETATM    8  C2  UNL     1      12.644  26.675  33.882  1.00  0.00     0.033 A 
HETATM    9  C21 UNL     1      13.172  26.057  34.990  1.00  0.00     0.032 A 
HETATM   10  C20 UNL     1      13.333  24.696  35.056  1.00  0.00     0.032 A 
BRANCH   8  11
HETATM   11  N2  UNL     1      12.478  28.094  33.816  1.00  0.00    -0.342 N 
ATOM     12  H2  UNL     1      13.092  28.635  33.208  1.00  0.00     0.167 HD
BRANCH  11  13
HETATM   13  C1  UNL     1      11.487  28.769  34.570  1.00  0.00     0.109 C 
HETATM   14  N1  UNL     1      11.563  30.026  34.810  1.00  0.00    -0.385 N 
ATOM     15  H12 UNL     1      12.351  30.569  34.456  1.00  0.00     0.157 HD
ATOM     16  H11 UNL     1      10.849  30.513  35.353  1.00  0.00     0.157 HD
BRANCH  13  17
HETATM   17  C22 UNL     1      10.362  27.994  35.077  1.00  0.00     0.007 A 
HETATM   18  C23 UNL     1      10.219  27.704  36.415  1.00  0.00     0.015 A 
HETATM   19  C24 UNL     1       9.168  26.974  36.926  1.00  0.00     0.001 A 
HETATM   20  C25 UNL     1       8.224  26.523  36.030  1.00  0.00     0.000 A 
HETATM   21  C26 UNL     1       8.323  26.787  34.681  1.00  0.00     0.001 A 
HETATM   22  C27 UNL     1       9.396  27.525  34.206  1.00  0.00     0.015 A 
ENDBRANCH  13  17
ENDBRANCH  11  13
ENDBRANCH   8  11
ENDBRANCH   1   5
BRANCH   3  23
HETATM   23  C7  UNL     1      14.265  20.248  33.753  1.00  0.00     0.032 A 
HETATM   24  C8  UNL     1      13.725  19.590  34.837  1.00  0.00     0.019 A 
HETATM   25  C9  UNL     1      13.866  18.201  34.984  1.00  0.00     0.030 A 
HETATM   26  C10 UNL     1      14.539  17.455  34.066  1.00  0.00     0.031 A 
HETATM   27  C18 UNL     1      15.089  18.088  32.975  1.00  0.00     0.030 A 
HETATM   28  C19 UNL     1      14.945  19.450  32.840  1.00  0.00     0.019 A 
BRANCH  26  29
HETATM   29  N4  UNL     1      14.699  16.052  34.188  1.00  0.00    -0.365 N 
HETATM   30  C11 UNL     1      13.707  15.265  34.378  1.00  0.00     0.099 C 
ATOM     31  H4  UNL     1      15.637  15.656  34.121  1.00  0.00     0.165 HD
BRANCH  30  32
HETATM   32  C12 UNL     1      13.916  13.835  34.497  1.00  0.00    -0.021 A 
HETATM   33  C13 UNL     1      14.601  13.175  33.504  1.00  0.00     0.013 A 
HETATM   34  C14 UNL     1      14.785  11.800  33.648  1.00  0.00     0.001 A 
HETATM   35  C15 UNL     1      14.302  11.123  34.743  1.00  0.00     0.000 A 
HETATM   36  C16 UNL     1      13.623  11.831  35.710  1.00  0.00     0.001 A 
HETATM   37  C17 UNL     1      13.425  13.185  35.597  1.00  0.00     0.013 A 
ENDBRANCH  30  32
ENDBRANCH  26  29
ENDBRANCH   3  23
TORSDOF 7
ENDMDL
MODEL 5
REMARK VINA RESULT: -7.900259476      1.183      1.790
REMARK  7 active torsions:
REMARK  status: ('A' for Active; 'I' for Inactive)
REMARK    1  A    between atoms: C1_4  and  N2_5 
REMARK    2  A    between atoms: C1_4  and  C22_32 
REMARK    3  A    between atoms: N2_5  and  C2_7 
REMARK    4  A    between atoms: C5_10  and  N3_11 
REMARK       I    between atoms: N3_11  and  C6_13 
REMARK    5  A    between atoms: C6_13  and  C7_15 
REMARK    6  A    between atoms: C10_18  and  N4_19 
REMARK    7  A    between atoms: C11_21  and  C12_22 
ROOT
HETATM    1  N3  UNL     1      11.858  21.933  34.037  1.00  0.00    -0.323 N 
ATOM      2  H3  UNL     1      11.172  21.180  34.005  1.00  0.00     0.169 HD
HETATM    3  C6  UNL     1      13.194  21.542  34.178  1.00  0.00     0.256 C 
HETATM    4  O1  UNL     1      14.107  22.393  34.234  1.00  0.00    -0.267 OA
ENDROOT
BRANCH   1   5
HETATM    5  C5  UNL     1      11.347  23.244  33.934  1.00  0.00     0.035 A 
HETATM    6  C4  UNL     1      11.160  24.126  34.972  1.00  0.00     0.032 A 
HETATM    7  C3  UNL     1      10.624  25.409  34.790  1.00  0.00     0.032 A 
HETATM    8  C2  UNL     1      10.256  25.853  33.544  1.00  0.00     0.033 A 
HETATM    9  C21 UNL     1      10.437  24.985  32.493  1.00  0.00     0.032 A 
HETATM   10  C20 UNL     1      10.960  23.729  32.669  1.00  0.00     0.032 A 
BRANCH   8  11
HETATM   11  N2  UNL     1       9.710  27.160  33.358  1.00  0.00    -0.342 N 
ATOM     12  H2  UNL     1      10.201  27.962  33.753  1.00  0.00     0.167 HD
BRANCH  11  13
HETATM   13  C1  UNL     1       8.506  27.376  32.641  1.00  0.00     0.109 C 
HETATM   14  N1  UNL     1       8.405  28.297  31.755  1.00  0.00    -0.385 N 
ATOM     15  H12 UNL     1       9.201  28.900  31.550  1.00  0.00     0.157 HD
ATOM     16  H11 UNL     1       7.539  28.452  31.239  1.00  0.00     0.157 HD
BRANCH  13  17
HETATM   17  C22 UNL     1       7.368  26.514  32.934  1.00  0.00     0.007 A 
HETATM   18  C23 UNL     1       7.012  26.191  34.224  1.00  0.00     0.015 A 
HETATM   19  C24 UNL     1       5.942  25.380  34.536  1.00  0.00     0.001 A 
HETATM   20  C25 UNL     1       5.208  24.879  33.484  1.00  0.00     0.000 A 
HETATM   21  C26 UNL     1       5.525  25.174  32.175  1.00  0.00     0.001 A 
HETATM   22  C27 UNL     1       6.608  25.995  31.903  1.00  0.00     0.015 A 
ENDBRANCH  13  17
ENDBRANCH  11  13
ENDBRANCH   8  11
ENDBRANCH   1   5
BRANCH   3  23
HETATM   23  C7  UNL     1      13.569  20.144  34.265  1.00  0.00     0.032 A 
HETATM   24  C8  UNL     1      14.712  19.600  33.721  1.00  0.00     0.019 A 
HETATM   25  C9  UNL     1      14.993  18.231  33.849  1.00  0.00     0.030 A 
HETATM   26  C10 UNL     1      14.151  17.392  34.512  1.00  0.00     0.031 A 
HETATM   27  C18 UNL     1      13.002  17.911  35.064  1.00  0.00     0.030 A 
HETATM   28  C19 UNL     1      12.736  19.254  34.933  1.00  0.00     0.019 A 
BRANCH  26  29
HETATM   29  N4  UNL     1      14.407  16.006  34.657  1.00  0.00    -0.365 N 
HETATM   30  C11 UNL     1      13.552  15.114  34.319  1.00  0.00     0.099 C 
ATOM     31  H4  UNL     1      15.303  15.709  35.043  1.00  0.00     0.165 HD
BRANCH  30  32
HETATM   32  C12 UNL     1      13.856  13.706  34.485  1.00  0.00    -0.021 A 
HETATM   33  C13 UNL     1      14.605  13.066  33.525  1.00  0.00     0.013 A 
HETATM   34  C14 UNL     1      14.879  11.712  33.714  1.00  0.00     0.001 A 
HETATM   35  C15 UNL     1      14.421  11.034  34.819  1.00  0.00     0.000 A 
HETATM   36  C16 UNL     1      13.674  11.721  35.752  1.00  0.00     0.001 A 
HETATM   37  C17 UNL     1      13.387  13.055  35.594  1.00  0.00     0.013 A 
ENDBRANCH  30  32
ENDBRANCH  26  29
ENDBRANCH   3  23
TORSDOF 7
ENDMDL
