MODEL 1
REMARK VINA RESULT: -6.617402557      0.000      0.000
REMARK  10 active torsions:
REMARK  status: ('A' for Active; 'I' for Inactive)
REMARK    1  A    between atoms: C2_2  and  C3_3 
REMARK    2  A    between atoms: C2_2  and  N2_18 
REMARK       I    between atoms: C3_3  and  N1_5 
REMARK    3  A    between atoms: N1_5  and  C4_7 
REMARK    4  A    between atoms: C5_9  and  O3_10 
REMARK    5  A    between atoms: C6_12  and  O4_13 
REMARK    6  A    between atoms: C7_15  and  O5_16 
REMARK    7  A    between atoms: C8_21  and  C9_22 
REMARK    8  A    between atoms: C9_22  and  N4_24 
REMARK    9  A    between atoms: C9_22  and  C11_28 
REMARK   10  A    between atoms: N6_31  and  N7_32 
ROOT
HETATM    1  N2  UNL     1      22.795 -45.135   5.714  1.00  0.00    -0.226 N 
HETATM    2  N3  UNL     1      23.138 -43.874   5.911  1.00  0.00    -0.278 N 
ATOM      3  H3  UNL     1      24.027 -43.560   6.303  1.00  0.00     0.189 HD
HETATM    4  C8  UNL     1      22.124 -43.055   5.511  1.00  0.00     0.168 A 
HETATM    5  N6  UNL     1      21.135 -43.835   5.058  1.00  0.00    -0.194 N 
HETATM    6  C12 UNL     1      21.577 -45.113   5.196  1.00  0.00     0.364 A 
HETATM    7  O7  UNL     1      20.864 -46.110   4.851  1.00  0.00    -0.243 OA
ENDROOT
BRANCH   1   8
HETATM    8  C2  UNL     1      23.584 -46.337   6.004  1.00  0.00     0.201 C 
HETATM    9  C1  UNL     1      24.266 -46.092   7.333  1.00  0.00     0.044 C 
BRANCH   8  10
HETATM   10  C3  UNL     1      24.550 -46.590   4.933  1.00  0.00     0.248 C 
HETATM   11  O1  UNL     1      24.645 -47.767   4.483  1.00  0.00    -0.271 OA
HETATM   12  N1  UNL     1      25.372 -45.571   4.389  1.00  0.00    -0.303 N 
ATOM     13  H1  UNL     1      25.290 -44.623   4.757  1.00  0.00     0.171 HD
BRANCH  12  14
HETATM   14  C4  UNL     1      26.308 -45.823   3.350  1.00  0.00     0.189 A 
HETATM   15  O2  UNL     1      26.325 -45.360   2.124  1.00  0.00    -0.265 OA
HETATM   16  C5  UNL     1      27.349 -45.813   1.445  1.00  0.00     0.222 A 
HETATM   17  C6  UNL     1      28.090 -46.645   2.257  1.00  0.00     0.162 A 
HETATM   18  C7  UNL     1      27.415 -46.639   3.460  1.00  0.00     0.156 A 
BRANCH  16  19
HETATM   19  O3  UNL     1      27.684 -45.533   0.113  1.00  0.00    -0.338 OA
ATOM     20  H3  UNL     1      27.673 -46.131  -0.626  1.00  0.00     0.220 HD
ENDBRANCH  16  19
BRANCH  17  21
HETATM   21  O4  UNL     1      29.248 -47.308   1.880  1.00  0.00    -0.354 OA
ATOM     22  H4  UNL     1      29.570 -48.114   2.267  1.00  0.00     0.218 HD
ENDBRANCH  17  21
BRANCH  18  23
HETATM   23  O5  UNL     1      27.837 -47.369   4.585  1.00  0.00    -0.354 OA
ATOM     24  H5  UNL     1      28.154 -48.264   4.612  1.00  0.00     0.218 HD
ENDBRANCH  18  23
ENDBRANCH  12  14
ENDBRANCH   8  10
ENDBRANCH   1   8
BRANCH   4  25
HETATM   25  C9  UNL     1      22.131 -41.574   5.575  1.00  0.00     0.257 C 
HETATM   26  C10 UNL     1      21.807 -40.909   4.271  1.00  0.00     0.065 C 
BRANCH  25  27
HETATM   27  N4  UNL     1      21.285 -41.071   6.637  1.00  0.00    -0.055 N 
ATOM     28  H43 UNL     1      20.636 -40.365   6.289  1.00  0.00     0.276 HD
ATOM     29  H42 UNL     1      20.611 -41.776   6.937  1.00  0.00     0.276 HD
ATOM     30  H41 UNL     1      21.828 -40.718   7.425  1.00  0.00     0.276 HD
ENDBRANCH  25  27
BRANCH  25  31
HETATM   31  C11 UNL     1      23.547 -41.178   5.903  1.00  0.00     0.275 C 
HETATM   32  N5  UNL     1      24.524 -41.018   4.896  1.00  0.00    -0.059 NA
HETATM   33  O6  UNL     1      23.900 -40.978   7.101  1.00  0.00    -0.274 OA
ENDBRANCH  25  31
ENDBRANCH   4  25
BRANCH   5  34
HETATM   34  N7  UNL     1      19.902 -43.429   4.549  1.00  0.00    -0.333 N 
ATOM     35  H72 UNL     1      19.244 -42.784   4.986  1.00  0.00     0.177 HD
ATOM     36  H71 UNL     1      19.473 -43.712   3.668  1.00  0.00     0.177 HD
ENDBRANCH   5  34
TORSDOF 10
ENDMDL
MODEL 2
REMARK VINA RESULT: -6.425080939      3.117      5.472
REMARK  10 active torsions:
REMARK  status: ('A' for Active; 'I' for Inactive)
REMARK    1  A    between atoms: C2_2  and  C3_3 
REMARK    2  A    between atoms: C2_2  and  N2_18 
REMARK       I    between atoms: C3_3  and  N1_5 
REMARK    3  A    between atoms: N1_5  and  C4_7 
REMARK    4  A    between atoms: C5_9  and  O3_10 
REMARK    5  A    between atoms: C6_12  and  O4_13 
REMARK    6  A    between atoms: C7_15  and  O5_16 
REMARK    7  A    between atoms: C8_21  and  C9_22 
REMARK    8  A    between atoms: C9_22  and  N4_24 
REMARK    9  A    between atoms: C9_22  and  C11_28 
REMARK   10  A    between atoms: N6_31  and  N7_32 
ROOT
HETATM    1  N2  UNL     1      23.401 -43.397   3.843  1.00  0.00    -0.226 N 
HETATM    2  N3  UNL     1      23.055 -42.514   4.764  1.00  0.00    -0.278 N 
ATOM      3  H3  UNL     1      22.589 -42.734   5.644  1.00  0.00     0.189 HD
HETATM    4  C8  UNL     1      23.419 -41.264   4.359  1.00  0.00     0.168 A 
HETATM    5  N6  UNL     1      24.001 -41.385   3.160  1.00  0.00    -0.194 N 
HETATM    6  C12 UNL     1      23.975 -42.712   2.867  1.00  0.00     0.364 A 
HETATM    7  O7  UNL     1      24.458 -43.169   1.780  1.00  0.00    -0.243 OA
ENDROOT
BRANCH   1   8
HETATM    8  C2  UNL     1      23.199 -44.850   3.871  1.00  0.00     0.201 C 
HETATM    9  C1  UNL     1      22.056 -45.142   2.924  1.00  0.00     0.044 C 
BRANCH   8  10
HETATM   10  C3  UNL     1      22.910 -45.304   5.232  1.00  0.00     0.248 C 
HETATM   11  O1  UNL     1      21.702 -45.360   5.598  1.00  0.00    -0.271 OA
HETATM   12  N1  UNL     1      23.929 -45.681   6.145  1.00  0.00    -0.303 N 
ATOM     13  H1  UNL     1      24.902 -45.633   5.843  1.00  0.00     0.171 HD
BRANCH  12  14
HETATM   14  C4  UNL     1      23.643 -46.121   7.464  1.00  0.00     0.189 A 
HETATM   15  O2  UNL     1      23.379 -47.330   7.893  1.00  0.00    -0.265 OA
HETATM   16  C5  UNL     1      23.164 -47.356   9.184  1.00  0.00     0.222 A 
HETATM   17  C6  UNL     1      23.288 -46.076   9.683  1.00  0.00     0.162 A 
HETATM   18  C7  UNL     1      23.592 -45.307   8.578  1.00  0.00     0.156 A 
BRANCH  16  19
HETATM   19  O3  UNL     1      22.855 -48.469   9.979  1.00  0.00    -0.338 OA
ATOM     20  H3  UNL     1      22.119 -48.572  10.571  1.00  0.00     0.220 HD
ENDBRANCH  16  19
BRANCH  17  21
HETATM   21  O4  UNL     1      23.130 -45.716  11.012  1.00  0.00    -0.354 OA
ATOM     22  H4  UNL     1      22.603 -44.990  11.325  1.00  0.00     0.218 HD
ENDBRANCH  17  21
BRANCH  18  23
HETATM   23  O5  UNL     1      23.805 -43.919   8.640  1.00  0.00    -0.354 OA
ATOM     24  H5  UNL     1      23.346 -43.284   9.177  1.00  0.00     0.218 HD
ENDBRANCH  18  23
ENDBRANCH  12  14
ENDBRANCH   8  10
ENDBRANCH   1   8
BRANCH   4  25
HETATM   25  C9  UNL     1      23.199 -40.010   5.119  1.00  0.00     0.257 C 
HETATM   26  C10 UNL     1      24.322 -39.023   4.998  1.00  0.00     0.065 C 
BRANCH  25  27
HETATM   27  N4  UNL     1      21.930 -39.392   4.795  1.00  0.00    -0.055 N 
ATOM     28  H43 UNL     1      21.626 -38.762   5.536  1.00  0.00     0.276 HD
ATOM     29  H42 UNL     1      22.031 -38.715   4.039  1.00  0.00     0.276 HD
ATOM     30  H41 UNL     1      21.211 -40.084   4.579  1.00  0.00     0.276 HD
ENDBRANCH  25  27
BRANCH  25  31
HETATM   31  C11 UNL     1      23.149 -40.406   6.571  1.00  0.00     0.275 C 
HETATM   32  N5  UNL     1      22.154 -39.908   7.441  1.00  0.00    -0.059 NA
HETATM   33  O6  UNL     1      24.006 -41.202   7.052  1.00  0.00    -0.274 OA
ENDBRANCH  25  31
ENDBRANCH   4  25
BRANCH   5  34
HETATM   34  N7  UNL     1      24.526 -40.366   2.367  1.00  0.00    -0.333 N 
ATOM     35  H72 UNL     1      24.455 -39.362   2.536  1.00  0.00     0.177 HD
ATOM     36  H71 UNL     1      25.059 -40.466   1.502  1.00  0.00     0.177 HD
ENDBRANCH   5  34
TORSDOF 10
ENDMDL
MODEL 3
REMARK VINA RESULT: -6.403864402      0.480      1.433
REMARK  10 active torsions:
REMARK  status: ('A' for Active; 'I' for Inactive)
REMARK    1  A    between atoms: C2_2  and  C3_3 
REMARK    2  A    between atoms: C2_2  and  N2_18 
REMARK       I    between atoms: C3_3  and  N1_5 
REMARK    3  A    between atoms: N1_5  and  C4_7 
REMARK    4  A    between atoms: C5_9  and  O3_10 
REMARK    5  A    between atoms: C6_12  and  O4_13 
REMARK    6  A    between atoms: C7_15  and  O5_16 
REMARK    7  A    between atoms: C8_21  and  C9_22 
REMARK    8  A    between atoms: C9_22  and  N4_24 
REMARK    9  A    between atoms: C9_22  and  C11_28 
REMARK   10  A    between atoms: N6_31  and  N7_32 
ROOT
HETATM    1  N2  UNL     1      22.768 -45.138   5.586  1.00  0.00    -0.226 N 
HETATM    2  N3  UNL     1      23.130 -43.883   5.787  1.00  0.00    -0.278 N 
ATOM      3  H3  UNL     1      24.036 -43.583   6.149  1.00  0.00     0.189 HD
HETATM    4  C8  UNL     1      22.109 -43.051   5.437  1.00  0.00     0.168 A 
HETATM    5  N6  UNL     1      21.097 -43.815   5.011  1.00  0.00    -0.194 N 
HETATM    6  C12 UNL     1      21.532 -45.099   5.115  1.00  0.00     0.364 A 
HETATM    7  O7  UNL     1      20.797 -46.086   4.784  1.00  0.00    -0.243 OA
ENDROOT
BRANCH   1   8
HETATM    8  C2  UNL     1      23.557 -46.351   5.830  1.00  0.00     0.201 C 
HETATM    9  C1  UNL     1      24.267 -46.143   7.149  1.00  0.00     0.044 C 
BRANCH   8  10
HETATM   10  C3  UNL     1      24.500 -46.582   4.733  1.00  0.00     0.248 C 
HETATM   11  O1  UNL     1      24.296 -47.570   3.971  1.00  0.00    -0.271 OA
HETATM   12  N1  UNL     1      25.619 -45.744   4.498  1.00  0.00    -0.303 N 
ATOM     13  H1  UNL     1      25.777 -44.948   5.116  1.00  0.00     0.171 HD
BRANCH  12  14
HETATM   14  C4  UNL     1      26.530 -45.972   3.432  1.00  0.00     0.189 A 
HETATM   15  O2  UNL     1      27.561 -46.780   3.385  1.00  0.00    -0.265 OA
HETATM   16  C5  UNL     1      28.173 -46.725   2.229  1.00  0.00     0.222 A 
HETATM   17  C6  UNL     1      27.521 -45.818   1.422  1.00  0.00     0.162 A 
HETATM   18  C7  UNL     1      26.482 -45.351   2.201  1.00  0.00     0.156 A 
BRANCH  16  19
HETATM   19  O3  UNL     1      29.306 -47.446   1.826  1.00  0.00    -0.338 OA
ATOM     20  H3  UNL     1      29.974 -47.176   1.206  1.00  0.00     0.220 HD
ENDBRANCH  16  19
BRANCH  17  21
HETATM   21  O4  UNL     1      27.884 -45.496   0.122  1.00  0.00    -0.354 OA
ATOM     22  H4  UNL     1      28.052 -46.122  -0.571  1.00  0.00     0.218 HD
ENDBRANCH  17  21
BRANCH  18  23
HETATM   23  O5  UNL     1      25.554 -44.393   1.756  1.00  0.00    -0.354 OA
ATOM     24  H5  UNL     1      24.861 -44.509   1.118  1.00  0.00     0.218 HD
ENDBRANCH  18  23
ENDBRANCH  12  14
ENDBRANCH   8  10
ENDBRANCH   1   8
BRANCH   4  25
HETATM   25  C9  UNL     1      22.132 -41.571   5.521  1.00  0.00     0.257 C 
HETATM   26  C10 UNL     1      21.800 -40.885   4.229  1.00  0.00     0.065 C 
BRANCH  25  27
HETATM   27  N4  UNL     1      21.302 -41.074   6.598  1.00  0.00    -0.055 N 
ATOM     28  H43 UNL     1      20.540 -40.498   6.242  1.00  0.00     0.276 HD
ATOM     29  H42 UNL     1      20.755 -41.824   7.019  1.00  0.00     0.276 HD
ATOM     30  H41 UNL     1      21.846 -40.573   7.301  1.00  0.00     0.276 HD
ENDBRANCH  25  27
BRANCH  25  31
HETATM   31  C11 UNL     1      23.555 -41.193   5.838  1.00  0.00     0.275 C 
HETATM   32  N5  UNL     1      24.521 -41.025   4.822  1.00  0.00    -0.059 NA
HETATM   33  O6  UNL     1      23.924 -41.018   7.035  1.00  0.00    -0.274 OA
ENDBRANCH  25  31
ENDBRANCH   4  25
BRANCH   5  34
HETATM   34  N7  UNL     1      19.849 -43.392   4.555  1.00  0.00    -0.333 N 
ATOM     35  H72 UNL     1      19.636 -42.995   3.640  1.00  0.00     0.177 HD
ATOM     36  H71 UNL     1      18.964 -43.414   5.062  1.00  0.00     0.177 HD
ENDBRANCH   5  34
TORSDOF 10
ENDMDL
MODEL 4
REMARK VINA RESULT: -6.259541387      4.153      6.351
REMARK  10 active torsions:
REMARK  status: ('A' for Active; 'I' for Inactive)
REMARK    1  A    between atoms: C2_2  and  C3_3 
REMARK    2  A    between atoms: C2_2  and  N2_18 
REMARK       I    between atoms: C3_3  and  N1_5 
REMARK    3  A    between atoms: N1_5  and  C4_7 
REMARK    4  A    between atoms: C5_9  and  O3_10 
REMARK    5  A    between atoms: C6_12  and  O4_13 
REMARK    6  A    between atoms: C7_15  and  O5_16 
REMARK    7  A    between atoms: C8_21  and  C9_22 
REMARK    8  A    between atoms: C9_22  and  N4_24 
REMARK    9  A    between atoms: C9_22  and  C11_28 
REMARK   10  A    between atoms: N6_31  and  N7_32 
ROOT
HETATM    1  N2  UNL     1      19.835 -46.926   4.467  1.00  0.00    -0.226 N 
HETATM    2  N3  UNL     1      19.975 -48.172   4.051  1.00  0.00    -0.278 N 
ATOM      3  H3  UNL     1      20.841 -48.582   3.700  1.00  0.00     0.189 HD
HETATM    4  C8  UNL     1      18.786 -48.829   4.164  1.00  0.00     0.168 A 
HETATM    5  N6  UNL     1      17.896 -47.962   4.661  1.00  0.00    -0.194 N 
HETATM    6  C12 UNL     1      18.572 -46.796   4.838  1.00  0.00     0.364 A 
HETATM    7  O7  UNL     1      18.004 -45.755   5.304  1.00  0.00    -0.243 OA
ENDROOT
BRANCH   1   8
HETATM    8  C2  UNL     1      20.859 -45.875   4.517  1.00  0.00     0.201 C 
HETATM    9  C1  UNL     1      20.820 -45.175   3.176  1.00  0.00     0.044 C 
BRANCH   8  10
HETATM   10  C3  UNL     1      22.176 -46.451   4.795  1.00  0.00     0.248 C 
HETATM   11  O1  UNL     1      22.564 -46.496   5.997  1.00  0.00    -0.271 OA
HETATM   12  N1  UNL     1      23.021 -46.955   3.774  1.00  0.00    -0.303 N 
ATOM     13  H1  UNL     1      22.700 -46.916   2.807  1.00  0.00     0.171 HD
BRANCH  12  14
HETATM   14  C4  UNL     1      24.298 -47.512   4.050  1.00  0.00     0.189 A 
HETATM   15  O2  UNL     1      25.471 -46.928   4.056  1.00  0.00    -0.265 OA
HETATM   16  C5  UNL     1      26.432 -47.764   4.357  1.00  0.00     0.222 A 
HETATM   17  C6  UNL     1      25.887 -49.012   4.574  1.00  0.00     0.162 A 
HETATM   18  C7  UNL     1      24.533 -48.833   4.375  1.00  0.00     0.156 A 
BRANCH  16  19
HETATM   19  O3  UNL     1      27.804 -47.491   4.457  1.00  0.00    -0.338 OA
ATOM     20  H3  UNL     1      28.482 -47.695   3.824  1.00  0.00     0.220 HD
ENDBRANCH  16  19
BRANCH  17  21
HETATM   21  O4  UNL     1      26.602 -50.150   4.915  1.00  0.00    -0.354 OA
ATOM     22  H4  UNL     1      26.817 -50.861   4.322  1.00  0.00     0.218 HD
ENDBRANCH  17  21
BRANCH  18  23
HETATM   23  O5  UNL     1      23.592 -49.870   4.497  1.00  0.00    -0.354 OA
ATOM     24  H5  UNL     1      23.417 -50.571   3.881  1.00  0.00     0.218 HD
ENDBRANCH  18  23
ENDBRANCH  12  14
ENDBRANCH   8  10
ENDBRANCH   1   8
BRANCH   4  25
HETATM   25  C9  UNL     1      18.540 -50.244   3.796  1.00  0.00     0.257 C 
HETATM   26  C10 UNL     1      18.056 -51.091   4.935  1.00  0.00     0.065 C 
BRANCH  25  27
HETATM   27  N4  UNL     1      17.661 -50.364   2.652  1.00  0.00    -0.055 N 
ATOM     28  H43 UNL     1      18.096 -49.988   1.810  1.00  0.00     0.276 HD
ATOM     29  H42 UNL     1      17.563 -51.337   2.362  1.00  0.00     0.276 HD
ATOM     30  H41 UNL     1      16.751 -49.934   2.821  1.00  0.00     0.276 HD
ENDBRANCH  25  27
BRANCH  25  31
HETATM   31  C11 UNL     1      19.878 -50.809   3.397  1.00  0.00     0.275 C 
HETATM   32  N5  UNL     1      20.264 -50.912   2.042  1.00  0.00    -0.059 NA
HETATM   33  O6  UNL     1      20.696 -51.210   4.273  1.00  0.00    -0.274 OA
ENDBRANCH  25  31
ENDBRANCH   4  25
BRANCH   5  34
HETATM   34  N7  UNL     1      16.550 -48.197   4.942  1.00  0.00    -0.333 N 
ATOM     35  H72 UNL     1      15.951 -48.902   4.513  1.00  0.00     0.177 HD
ATOM     36  H71 UNL     1      15.963 -47.704   5.615  1.00  0.00     0.177 HD
ENDBRANCH   5  34
TORSDOF 10
ENDMDL
MODEL 5
REMARK VINA RESULT: -6.106644235      2.322      3.170
REMARK  10 active torsions:
REMARK  status: ('A' for Active; 'I' for Inactive)
REMARK    1  A    between atoms: C2_2  and  C3_3 
REMARK    2  A    between atoms: C2_2  and  N2_18 
REMARK       I    between atoms: C3_3  and  N1_5 
REMARK    3  A    between atoms: N1_5  and  C4_7 
REMARK    4  A    between atoms: C5_9  and  O3_10 
REMARK    5  A    between atoms: C6_12  and  O4_13 
REMARK    6  A    between atoms: C7_15  and  O5_16 
REMARK    7  A    between atoms: C8_21  and  C9_22 
REMARK    8  A    between atoms: C9_22  and  N4_24 
REMARK    9  A    between atoms: C9_22  and  C11_28 
REMARK   10  A    between atoms: N6_31  and  N7_32 
ROOT
HETATM    1  N2  UNL     1      21.346 -44.195   3.768  1.00  0.00    -0.226 N 
HETATM    2  N3  UNL     1      22.132 -43.678   4.697  1.00  0.00    -0.278 N 
ATOM      3  H3  UNL     1      22.778 -44.208   5.282  1.00  0.00     0.189 HD
HETATM    4  C8  UNL     1      21.947 -42.329   4.754  1.00  0.00     0.168 A 
HETATM    5  N6  UNL     1      21.025 -42.011   3.838  1.00  0.00    -0.194 N 
HETATM    6  C12 UNL     1      20.673 -43.183   3.245  1.00  0.00     0.364 A 
HETATM    7  O7  UNL     1      19.803 -43.229   2.315  1.00  0.00    -0.243 OA
ENDROOT
BRANCH   1   8
HETATM    8  C2  UNL     1      21.225 -45.603   3.375  1.00  0.00     0.201 C 
HETATM    9  C1  UNL     1      20.271 -46.242   4.361  1.00  0.00     0.044 C 
BRANCH   8  10
HETATM   10  C3  UNL     1      22.536 -46.256   3.383  1.00  0.00     0.248 C 
HETATM   11  O1  UNL     1      23.191 -46.288   2.302  1.00  0.00    -0.271 OA
HETATM   12  N1  UNL     1      23.089 -46.845   4.548  1.00  0.00    -0.303 N 
ATOM     13  H1  UNL     1      22.555 -46.814   5.416  1.00  0.00     0.171 HD
BRANCH  12  14
HETATM   14  C4  UNL     1      24.362 -47.477   4.549  1.00  0.00     0.189 A 
HETATM   15  O2  UNL     1      25.550 -46.943   4.403  1.00  0.00    -0.265 OA
HETATM   16  C5  UNL     1      26.500 -47.842   4.459  1.00  0.00     0.222 A 
HETATM   17  C6  UNL     1      25.930 -49.082   4.659  1.00  0.00     0.162 A 
HETATM   18  C7  UNL     1      24.575 -48.830   4.714  1.00  0.00     0.156 A 
BRANCH  16  19
HETATM   19  O3  UNL     1      27.882 -47.635   4.342  1.00  0.00    -0.338 OA
ATOM     20  H3  UNL     1      28.562 -48.294   4.265  1.00  0.00     0.220 HD
ENDBRANCH  16  19
BRANCH  17  21
HETATM   21  O4  UNL     1      26.628 -50.275   4.771  1.00  0.00    -0.354 OA
ATOM     22  H4  UNL     1      26.564 -51.006   4.169  1.00  0.00     0.218 HD
ENDBRANCH  17  21
BRANCH  18  23
HETATM   23  O5  UNL     1      23.611 -49.835   4.908  1.00  0.00    -0.354 OA
ATOM     24  H5  UNL     1      23.705 -50.643   5.398  1.00  0.00     0.218 HD
ENDBRANCH  18  23
ENDBRANCH  12  14
ENDBRANCH   8  10
ENDBRANCH   1   8
BRANCH   4  25
HETATM   25  C9  UNL     1      22.646 -41.398   5.673  1.00  0.00     0.257 C 
HETATM   26  C10 UNL     1      23.352 -40.274   4.975  1.00  0.00     0.065 C 
BRANCH  25  27
HETATM   27  N4  UNL     1      21.769 -40.895   6.709  1.00  0.00    -0.055 N 
ATOM     28  H43 UNL     1      22.219 -40.928   7.623  1.00  0.00     0.276 HD
ATOM     29  H42 UNL     1      21.643 -39.886   6.628  1.00  0.00     0.276 HD
ATOM     30  H41 UNL     1      20.872 -41.380   6.721  1.00  0.00     0.276 HD
ENDBRANCH  25  27
BRANCH  25  31
HETATM   31  C11 UNL     1      23.721 -42.209   6.349  1.00  0.00     0.275 C 
HETATM   32  N5  UNL     1      23.594 -42.638   7.688  1.00  0.00    -0.059 NA
HETATM   33  O6  UNL     1      24.776 -42.526   5.727  1.00  0.00    -0.274 OA
ENDBRANCH  25  31
ENDBRANCH   4  25
BRANCH   5  34
HETATM   34  N7  UNL     1      20.523 -40.744   3.545  1.00  0.00    -0.333 N 
ATOM     35  H72 UNL     1      20.457 -39.951   4.184  1.00  0.00     0.177 HD
ATOM     36  H71 UNL     1      20.148 -40.417   2.655  1.00  0.00     0.177 HD
ENDBRANCH   5  34
TORSDOF 10
ENDMDL
