MODEL 1
REMARK VINA RESULT: -8.382132658      0.000      0.000
REMARK  6 active torsions:
REMARK  status: ('A' for Active; 'I' for Inactive)
REMARK    1  A    between atoms: N1_1  and  N2_4 
REMARK    2  A    between atoms: N2_4  and  O1_5 
REMARK    3  A    between atoms: O1_5  and  C1_6 
REMARK    4  A    between atoms: N4_13  and  C6_15 
REMARK    5  A    between atoms: C6_15  and  C7_16 
REMARK    6  A    between atoms: C7_16  and  C8_17 
ROOT
HETATM    1  C1  UNL     1      27.533  13.340  11.891  1.00  0.00     0.139 A 
HETATM    2  C2  UNL     1      26.578  13.699  10.971  1.00  0.00     0.044 A 
HETATM    3  C3  UNL     1      26.802  14.821  10.213  1.00  0.00     0.020 A 
HETATM    4  C4  UNL     1      27.927  15.589  10.336  1.00  0.00     0.090 A 
HETATM    5  N3  UNL     1      28.853  15.218  11.245  1.00  0.00    -0.350 N 
ATOM      6  H3  UNL     1      29.700  15.774  11.356  1.00  0.00     0.166 HD
HETATM    7  C5  UNL     1      28.672  14.125  12.007  1.00  0.00     0.137 A 
HETATM    8  N4  UNL     1      29.535  13.759  12.875  1.00  0.00    -0.374 N 
ATOM      9  H4  UNL     1      29.307  12.918  13.407  1.00  0.00     0.161 HD
ENDROOT
BRANCH   1  10
HETATM   10  O1  UNL     1      27.324  12.213  12.662  1.00  0.00    -0.221 OA
BRANCH  10  11
HETATM   11  N2  UNL     1      27.213  11.014  12.028  1.00  0.00     0.020 NA
BRANCH  11  12
HETATM   12  N1  UNL     1      28.405  10.319  12.123  1.00  0.00    -0.322 N 
ATOM     13  H12 UNL     1      28.742   9.657  11.424  1.00  0.00     0.174 HD
ATOM     14  H11 UNL     1      28.883  10.571  12.988  1.00  0.00     0.174 HD
ENDBRANCH  11  12
ENDBRANCH  10  11
ENDBRANCH   1  10
BRANCH   8  15
HETATM   15  C6  UNL     1      30.773  14.381  13.191  1.00  0.00     0.126 C 
BRANCH  15  16
HETATM   16  C7  UNL     1      30.691  15.341  14.364  1.00  0.00     0.058 C 
BRANCH  16  17
HETATM   17  C8  UNL     1      31.562  16.511  14.120  1.00  0.00    -0.057 A 
HETATM   18  C9  UNL     1      31.757  17.483  15.069  1.00  0.00     0.007 A 
HETATM   19  C10 UNL     1      32.567  18.549  14.805  1.00  0.00     0.001 A 
HETATM   20  C11 UNL     1      33.204  18.679  13.597  1.00  0.00     0.000 A 
HETATM   21  C12 UNL     1      33.027  17.723  12.629  1.00  0.00     0.001 A 
HETATM   22  C13 UNL     1      32.206  16.650  12.903  1.00  0.00     0.007 A 
ENDBRANCH  16  17
ENDBRANCH  15  16
ENDBRANCH   8  15
TORSDOF 6
ENDMDL
MODEL 2
REMARK VINA RESULT: -7.896106266      1.544      2.742
REMARK  6 active torsions:
REMARK  status: ('A' for Active; 'I' for Inactive)
REMARK    1  A    between atoms: N1_1  and  N2_4 
REMARK    2  A    between atoms: N2_4  and  O1_5 
REMARK    3  A    between atoms: O1_5  and  C1_6 
REMARK    4  A    between atoms: N4_13  and  C6_15 
REMARK    5  A    between atoms: C6_15  and  C7_16 
REMARK    6  A    between atoms: C7_16  and  C8_17 
ROOT
HETATM    1  C1  UNL     1      27.946  12.945  11.000  1.00  0.00     0.139 A 
HETATM    2  C2  UNL     1      27.194  11.796  11.036  1.00  0.00     0.044 A 
HETATM    3  C3  UNL     1      27.571  10.806  11.909  1.00  0.00     0.020 A 
HETATM    4  C4  UNL     1      28.655  10.916  12.736  1.00  0.00     0.090 A 
HETATM    5  N3  UNL     1      29.380  12.054  12.684  1.00  0.00    -0.350 N 
ATOM      6  H3  UNL     1      30.193  12.160  13.291  1.00  0.00     0.166 HD
HETATM    7  C5  UNL     1      29.044  13.048  11.843  1.00  0.00     0.137 A 
HETATM    8  N4  UNL     1      29.719  14.131  11.778  1.00  0.00    -0.374 N 
ATOM      9  H4  UNL     1      29.388  14.826  11.108  1.00  0.00     0.161 HD
ENDROOT
BRANCH   1  10
HETATM   10  O1  UNL     1      27.581  13.952  10.128  1.00  0.00    -0.221 OA
BRANCH  10  11
HETATM   11  N2  UNL     1      26.906  15.021  10.630  1.00  0.00     0.020 NA
BRANCH  11  12
HETATM   12  N1  UNL     1      27.583  16.189  10.329  1.00  0.00    -0.322 N 
ATOM     13  H12 UNL     1      27.734  16.953  10.988  1.00  0.00     0.174 HD
ATOM     14  H11 UNL     1      27.901  16.165   9.360  1.00  0.00     0.174 HD
ENDBRANCH  11  12
ENDBRANCH  10  11
ENDBRANCH   1  10
BRANCH   8  15
HETATM   15  C6  UNL     1      30.875  14.485  12.525  1.00  0.00     0.126 C 
BRANCH  15  16
HETATM   16  C7  UNL     1      30.567  15.261  13.792  1.00  0.00     0.058 C 
BRANCH  16  17
HETATM   17  C8  UNL     1      31.454  16.441  13.888  1.00  0.00    -0.057 A 
HETATM   18  C9  UNL     1      31.528  17.205  15.027  1.00  0.00     0.007 A 
HETATM   19  C10 UNL     1      32.358  18.287  15.076  1.00  0.00     0.001 A 
HETATM   20  C11 UNL     1      33.134  18.640  14.001  1.00  0.00     0.000 A 
HETATM   21  C12 UNL     1      33.081  17.895  12.850  1.00  0.00     0.001 A 
HETATM   22  C13 UNL     1      32.240  16.804  12.808  1.00  0.00     0.007 A 
ENDBRANCH  16  17
ENDBRANCH  15  16
ENDBRANCH   8  15
TORSDOF 6
ENDMDL
MODEL 3
REMARK VINA RESULT: -7.843767976      1.551      2.956
REMARK  6 active torsions:
REMARK  status: ('A' for Active; 'I' for Inactive)
REMARK    1  A    between atoms: N1_1  and  N2_4 
REMARK    2  A    between atoms: N2_4  and  O1_5 
REMARK    3  A    between atoms: O1_5  and  C1_6 
REMARK    4  A    between atoms: N4_13  and  C6_15 
REMARK    5  A    between atoms: C6_15  and  C7_16 
REMARK    6  A    between atoms: C7_16  and  C8_17 
ROOT
HETATM    1  C1  UNL     1      27.953  12.940  10.982  1.00  0.00     0.139 A 
HETATM    2  C2  UNL     1      27.191  11.798  11.019  1.00  0.00     0.044 A 
HETATM    3  C3  UNL     1      27.551  10.811  11.904  1.00  0.00     0.020 A 
HETATM    4  C4  UNL     1      28.627  10.919  12.740  1.00  0.00     0.090 A 
HETATM    5  N3  UNL     1      29.362  12.050  12.687  1.00  0.00    -0.350 N 
ATOM      6  H3  UNL     1      30.170  12.155  13.300  1.00  0.00     0.166 HD
HETATM    7  C5  UNL     1      29.043  13.040  11.835  1.00  0.00     0.137 A 
HETATM    8  N4  UNL     1      29.727  14.117  11.768  1.00  0.00    -0.374 N 
ATOM      9  H4  UNL     1      29.409  14.809  11.089  1.00  0.00     0.161 HD
ENDROOT
BRANCH   1  10
HETATM   10  O1  UNL     1      27.605  13.943  10.098  1.00  0.00    -0.221 OA
BRANCH  10  11
HETATM   11  N2  UNL     1      26.892  14.999  10.576  1.00  0.00     0.020 NA
BRANCH  11  12
HETATM   12  N1  UNL     1      27.574  16.177  10.329  1.00  0.00    -0.322 N 
ATOM     13  H12 UNL     1      27.481  16.727   9.475  1.00  0.00     0.174 HD
ATOM     14  H11 UNL     1      28.174  16.402  11.122  1.00  0.00     0.174 HD
ENDBRANCH  11  12
ENDBRANCH  10  11
ENDBRANCH   1  10
BRANCH   8  15
HETATM   15  C6  UNL     1      30.879  14.468  12.523  1.00  0.00     0.126 C 
BRANCH  15  16
HETATM   16  C7  UNL     1      30.568  15.281  13.766  1.00  0.00     0.058 C 
BRANCH  16  17
HETATM   17  C8  UNL     1      31.464  16.456  13.837  1.00  0.00    -0.057 A 
HETATM   18  C9  UNL     1      32.256  16.832  12.781  1.00  0.00     0.007 A 
HETATM   19  C10 UNL     1      33.071  17.921  12.887  1.00  0.00     0.001 A 
HETATM   20  C11 UNL     1      33.123  18.664  14.039  1.00  0.00     0.000 A 
HETATM   21  C12 UNL     1      32.343  18.312  15.111  1.00  0.00     0.001 A 
HETATM   22  C13 UNL     1      31.522  17.210  14.996  1.00  0.00     0.007 A 
ENDBRANCH  16  17
ENDBRANCH  15  16
ENDBRANCH   8  15
TORSDOF 6
ENDMDL
MODEL 4
REMARK VINA RESULT: -7.169807690      3.982      7.122
REMARK  6 active torsions:
REMARK  status: ('A' for Active; 'I' for Inactive)
REMARK    1  A    between atoms: N1_1  and  N2_4 
REMARK    2  A    between atoms: N2_4  and  O1_5 
REMARK    3  A    between atoms: O1_5  and  C1_6 
REMARK    4  A    between atoms: N4_13  and  C6_15 
REMARK    5  A    between atoms: C6_15  and  C7_16 
REMARK    6  A    between atoms: C7_16  and  C8_17 
ROOT
HETATM    1  C1  UNL     1      34.444  18.071  12.524  1.00  0.00     0.139 A 
HETATM    2  C2  UNL     1      35.150  19.216  12.250  1.00  0.00     0.044 A 
HETATM    3  C3  UNL     1      34.506  20.421  12.393  1.00  0.00     0.020 A 
HETATM    4  C4  UNL     1      33.203  20.523  12.793  1.00  0.00     0.090 A 
HETATM    5  N3  UNL     1      32.528  19.385  13.058  1.00  0.00    -0.350 N 
ATOM      6  H3  UNL     1      31.554  19.435  13.358  1.00  0.00     0.166 HD
HETATM    7  C5  UNL     1      33.122  18.185  12.930  1.00  0.00     0.137 A 
HETATM    8  N4  UNL     1      32.499  17.096  13.173  1.00  0.00    -0.374 N 
ATOM      9  H4  UNL     1      33.033  16.236  13.045  1.00  0.00     0.161 HD
ENDROOT
BRANCH   1  10
HETATM   10  O1  UNL     1      35.076  16.850  12.385  1.00  0.00    -0.221 OA
BRANCH  10  11
HETATM   11  N2  UNL     1      36.436  16.836  12.331  1.00  0.00     0.020 NA
BRANCH  11  12
HETATM   12  N1  UNL     1      36.855  16.071  11.257  1.00  0.00    -0.322 N 
ATOM     13  H12 UNL     1      37.825  15.805  11.085  1.00  0.00     0.174 HD
ATOM     14  H11 UNL     1      36.055  15.820  10.677  1.00  0.00     0.174 HD
ENDBRANCH  11  12
ENDBRANCH  10  11
ENDBRANCH   1  10
BRANCH   8  15
HETATM   15  C6  UNL     1      31.152  16.938  13.599  1.00  0.00     0.126 C 
BRANCH  15  16
HETATM   16  C7  UNL     1      30.745  15.490  13.801  1.00  0.00     0.058 C 
BRANCH  16  17
HETATM   17  C8  UNL     1      29.934  15.029  12.652  1.00  0.00    -0.057 A 
HETATM   18  C9  UNL     1      30.108  13.789  12.090  1.00  0.00     0.007 A 
HETATM   19  C10 UNL     1      29.341  13.402  11.030  1.00  0.00     0.001 A 
HETATM   20  C11 UNL     1      28.384  14.230  10.501  1.00  0.00     0.000 A 
HETATM   21  C12 UNL     1      28.188  15.476  11.042  1.00  0.00     0.001 A 
HETATM   22  C13 UNL     1      28.967  15.860  12.113  1.00  0.00     0.007 A 
ENDBRANCH  16  17
ENDBRANCH  15  16
ENDBRANCH   8  15
TORSDOF 6
ENDMDL
MODEL 5
REMARK VINA RESULT: -7.079270619      5.154      7.550
REMARK  6 active torsions:
REMARK  status: ('A' for Active; 'I' for Inactive)
REMARK    1  A    between atoms: N1_1  and  N2_4 
REMARK    2  A    between atoms: N2_4  and  O1_5 
REMARK    3  A    between atoms: O1_5  and  C1_6 
REMARK    4  A    between atoms: N4_13  and  C6_15 
REMARK    5  A    between atoms: C6_15  and  C7_16 
REMARK    6  A    between atoms: C7_16  and  C8_17 
ROOT
HETATM    1  C1  UNL     1      33.998  19.729  10.535  1.00  0.00     0.139 A 
HETATM    2  C2  UNL     1      34.801  19.436   9.460  1.00  0.00     0.044 A 
HETATM    3  C3  UNL     1      35.686  18.393   9.581  1.00  0.00     0.020 A 
HETATM    4  C4  UNL     1      35.799  17.643  10.719  1.00  0.00     0.090 A 
HETATM    5  N3  UNL     1      35.001  17.949  11.763  1.00  0.00    -0.350 N 
ATOM      6  H3  UNL     1      35.066  17.404  12.623  1.00  0.00     0.166 HD
HETATM    7  C5  UNL     1      34.120  18.962  11.685  1.00  0.00     0.137 A 
HETATM    8  N4  UNL     1      33.357  19.268  12.663  1.00  0.00    -0.374 N 
ATOM      9  H4  UNL     1      32.724  20.054  12.509  1.00  0.00     0.161 HD
ENDROOT
BRANCH   1  10
HETATM   10  O1  UNL     1      33.101  20.775  10.430  1.00  0.00    -0.221 OA
BRANCH  10  11
HETATM   11  N2  UNL     1      33.185  21.584   9.339  1.00  0.00     0.020 NA
BRANCH  11  12
HETATM   12  N1  UNL     1      31.954  22.160   9.085  1.00  0.00    -0.322 N 
ATOM     13  H12 UNL     1      31.643  22.469   8.164  1.00  0.00     0.174 HD
ATOM     14  H11 UNL     1      31.418  22.226   9.950  1.00  0.00     0.174 HD
ENDBRANCH  11  12
ENDBRANCH  10  11
ENDBRANCH   1  10
BRANCH   8  15
HETATM   15  C6  UNL     1      33.284  18.648  13.940  1.00  0.00     0.126 C 
BRANCH  15  16
HETATM   16  C7  UNL     1      31.878  18.585  14.506  1.00  0.00     0.058 C 
BRANCH  16  17
HETATM   17  C8  UNL     1      31.269  17.272  14.201  1.00  0.00    -0.057 A 
HETATM   18  C9  UNL     1      30.510  17.066  13.076  1.00  0.00     0.007 A 
HETATM   19  C10 UNL     1      29.965  15.839  12.830  1.00  0.00     0.001 A 
HETATM   20  C11 UNL     1      30.157  14.788  13.691  1.00  0.00     0.000 A 
HETATM   21  C12 UNL     1      30.911  14.965  14.823  1.00  0.00     0.001 A 
HETATM   22  C13 UNL     1      31.458  16.207  15.064  1.00  0.00     0.007 A 
ENDBRANCH  16  17
ENDBRANCH  15  16
ENDBRANCH   8  15
TORSDOF 6
ENDMDL
