MODEL 1
REMARK VINA RESULT: -6.422108632      0.000      0.000
REMARK  7 active torsions:
REMARK  status: ('A' for Active; 'I' for Inactive)
REMARK    1  A    between atoms: C2_3  and  N2_4 
REMARK    2  A    between atoms: C4_10  and  C5_11 
REMARK    3  A    between atoms: C4_10  and  C10_17 
REMARK    4  A    between atoms: C5_11  and  O2_12 
REMARK    5  A    between atoms: O2_12  and  C6_13 
REMARK    6  A    between atoms: C6_13  and  C7_14 
REMARK    7  A    between atoms: C10_17  and  C11_18 
ROOT
HETATM    1  N1  UNL     1     108.804  26.410  18.580  1.00  0.00    -0.196 NA
HETATM    2  C1  UNL     1     108.744  25.302  18.920  1.00  0.00     0.075 C 
HETATM    3  C2  UNL     1     108.690  23.932  19.359  1.00  0.00     0.247 C 
ENDROOT
BRANCH   3   4
HETATM    4  N2  UNL     1     107.476  23.274  19.123  1.00  0.00    -0.143 NA
HETATM    5  O1  UNL     1     106.955  23.704  17.922  1.00  0.00    -0.225 OA
HETATM    6  C3  UNL     1     106.000  24.678  18.262  1.00  0.00     0.247 C 
HETATM    7  N3  UNL     1     105.552  25.657  17.312  1.00  0.00    -0.055 NA
HETATM    8  N4  UNL     1     105.647  24.526  19.489  1.00  0.00    -0.332 N 
HETATM    9  C4  UNL     1     106.385  23.407  19.997  1.00  0.00     0.135 C 
ATOM     10  H4  UNL     1     104.971  25.092  20.002  1.00  0.00     0.165 HD
BRANCH   9  11
HETATM   11  C5  UNL     1     106.659  23.440  21.447  1.00  0.00     0.217 C 
BRANCH  11  12
HETATM   12  O2  UNL     1     107.227  22.336  22.020  1.00  0.00    -0.387 OA
BRANCH  12  13
HETATM   13  C6  UNL     1     108.319  22.817  22.781  1.00  0.00     0.172 C 
BRANCH  13  14
HETATM   14  C7  UNL     1     109.049  21.720  23.469  1.00  0.00     0.009 A 
HETATM   15  C8  UNL     1     108.379  20.924  24.559  1.00  0.00     0.007 A 
HETATM   16  C9  UNL     1     109.358  21.965  24.930  1.00  0.00     0.007 A 
ENDBRANCH  13  14
ENDBRANCH  12  13
ENDBRANCH  11  12
ENDBRANCH   9  11
BRANCH   9  17
HETATM   17  C10 UNL     1     105.524  22.174  19.728  1.00  0.00     0.057 C 
BRANCH  17  18
HETATM   18  C11 UNL     1     104.155  22.218  20.293  1.00  0.00    -0.007 C 
HETATM   19  C12 UNL     1     103.071  22.626  19.343  1.00  0.00     0.031 C 
HETATM   20  C13 UNL     1     101.712  22.269  19.939  1.00  0.00     0.168 C 
HETATM   21  O3  UNL     1     101.612  20.905  20.096  1.00  0.00    -0.391 OA
HETATM   22  C14 UNL     1     102.467  20.548  21.141  1.00  0.00     0.168 C 
HETATM   23  C15 UNL     1     103.899  20.798  20.827  1.00  0.00     0.031 C 
ENDBRANCH  17  18
ENDBRANCH   9  17
ENDBRANCH   3   4
TORSDOF 7
ENDMDL
MODEL 2
REMARK VINA RESULT: -6.207785850      5.606      8.043
REMARK  7 active torsions:
REMARK  status: ('A' for Active; 'I' for Inactive)
REMARK    1  A    between atoms: C2_3  and  N2_4 
REMARK    2  A    between atoms: C4_10  and  C5_11 
REMARK    3  A    between atoms: C4_10  and  C10_17 
REMARK    4  A    between atoms: C5_11  and  O2_12 
REMARK    5  A    between atoms: O2_12  and  C6_13 
REMARK    6  A    between atoms: C6_13  and  C7_14 
REMARK    7  A    between atoms: C10_17  and  C11_18 
ROOT
HETATM    1  N1  UNL     1      97.731  22.721  14.476  1.00  0.00    -0.196 NA
HETATM    2  C1  UNL     1      97.820  22.761  15.632  1.00  0.00     0.075 C 
HETATM    3  C2  UNL     1      97.903  22.809  17.070  1.00  0.00     0.247 C 
ENDROOT
BRANCH   3   4
HETATM    4  N2  UNL     1      99.141  22.438  17.610  1.00  0.00    -0.143 NA
HETATM    5  O1  UNL     1      99.508  21.211  17.103  1.00  0.00    -0.225 OA
HETATM    6  C3  UNL     1      99.150  20.281  18.095  1.00  0.00     0.247 C 
HETATM    7  N3  UNL     1      98.968  18.889  17.792  1.00  0.00    -0.055 NA
HETATM    8  N4  UNL     1      99.029  20.881  19.226  1.00  0.00    -0.332 N 
HETATM    9  C4  UNL     1      99.318  22.266  18.992  1.00  0.00     0.135 C 
ATOM     10  H4  UNL     1      98.777  20.454  20.117  1.00  0.00     0.165 HD
BRANCH   9  11
HETATM   11  C5  UNL     1      98.641  23.212  19.902  1.00  0.00     0.217 C 
BRANCH  11  12
HETATM   12  O2  UNL     1      99.342  24.304  20.332  1.00  0.00    -0.387 OA
BRANCH  12  13
HETATM   13  C6  UNL     1      98.729  24.699  21.544  1.00  0.00     0.172 C 
BRANCH  13  14
HETATM   14  C7  UNL     1      99.728  25.049  22.589  1.00  0.00     0.009 A 
HETATM   15  C8  UNL     1      99.279  25.424  23.979  1.00  0.00     0.007 A 
HETATM   16  C9  UNL     1      99.705  26.490  23.050  1.00  0.00     0.007 A 
ENDBRANCH  13  14
ENDBRANCH  12  13
ENDBRANCH  11  12
ENDBRANCH   9  11
BRANCH   9  17
HETATM   17  C10 UNL     1     100.822  22.427  19.211  1.00  0.00     0.057 C 
BRANCH  17  18
HETATM   18  C11 UNL     1     101.454  21.399  20.071  1.00  0.00    -0.007 C 
HETATM   19  C12 UNL     1     102.807  20.926  19.634  1.00  0.00     0.031 C 
HETATM   20  C13 UNL     1     103.478  20.177  20.782  1.00  0.00     0.168 C 
HETATM   21  O3  UNL     1     103.678  21.029  21.844  1.00  0.00    -0.391 OA
HETATM   22  C14 UNL     1     102.424  21.298  22.397  1.00  0.00     0.168 C 
HETATM   23  C15 UNL     1     101.531  22.042  21.467  1.00  0.00     0.031 C 
ENDBRANCH  17  18
ENDBRANCH   9  17
ENDBRANCH   3   4
TORSDOF 7
ENDMDL
MODEL 3
REMARK VINA RESULT: -6.203666979      3.682      6.617
REMARK  7 active torsions:
REMARK  status: ('A' for Active; 'I' for Inactive)
REMARK    1  A    between atoms: C2_3  and  N2_4 
REMARK    2  A    between atoms: C4_10  and  C5_11 
REMARK    3  A    between atoms: C4_10  and  C10_17 
REMARK    4  A    between atoms: C5_11  and  O2_12 
REMARK    5  A    between atoms: O2_12  and  C6_13 
REMARK    6  A    between atoms: C6_13  and  C7_14 
REMARK    7  A    between atoms: C10_17  and  C11_18 
ROOT
HETATM    1  N1  UNL     1     105.994  22.980  12.906  1.00  0.00    -0.196 NA
HETATM    2  C1  UNL     1     105.960  24.034  13.388  1.00  0.00     0.075 C 
HETATM    3  C2  UNL     1     105.919  25.355  13.962  1.00  0.00     0.247 C 
ENDROOT
BRANCH   3   4
HETATM    4  N2  UNL     1     105.394  25.428  15.259  1.00  0.00    -0.143 NA
HETATM    5  O1  UNL     1     104.034  25.636  15.187  1.00  0.00    -0.225 OA
HETATM    6  C3  UNL     1     103.862  27.018  15.377  1.00  0.00     0.247 C 
HETATM    7  N3  UNL     1     102.669  27.695  14.954  1.00  0.00    -0.055 NA
HETATM    8  N4  UNL     1     104.903  27.507  15.955  1.00  0.00    -0.332 N 
HETATM    9  C4  UNL     1     105.809  26.416  16.166  1.00  0.00     0.135 C 
ATOM     10  H4  UNL     1     105.053  28.481  16.214  1.00  0.00     0.165 HD
BRANCH   9  11
HETATM   11  C5  UNL     1     107.239  26.782  16.186  1.00  0.00     0.217 C 
BRANCH  11  12
HETATM   12  O2  UNL     1     107.578  28.069  15.873  1.00  0.00    -0.387 OA
BRANCH  12  13
HETATM   13  C6  UNL     1     108.341  28.542  16.966  1.00  0.00     0.172 C 
BRANCH  13  14
HETATM   14  C7  UNL     1     107.484  29.074  18.059  1.00  0.00     0.009 A 
HETATM   15  C8  UNL     1     106.524  30.206  17.794  1.00  0.00     0.007 A 
HETATM   16  C9  UNL     1     107.793  30.490  18.494  1.00  0.00     0.007 A 
ENDBRANCH  13  14
ENDBRANCH  12  13
ENDBRANCH  11  12
ENDBRANCH   9  11
BRANCH   9  17
HETATM   17  C10 UNL     1     105.469  25.844  17.542  1.00  0.00     0.057 C 
BRANCH  17  18
HETATM   18  C11 UNL     1     106.440  24.862  18.080  1.00  0.00    -0.007 C 
HETATM   19  C12 UNL     1     107.575  25.436  18.871  1.00  0.00     0.031 C 
HETATM   20  C13 UNL     1     108.259  24.322  19.660  1.00  0.00     0.168 C 
HETATM   21  O3  UNL     1     107.376  23.779  20.565  1.00  0.00    -0.391 OA
HETATM   22  C14 UNL     1     106.434  23.052  19.836  1.00  0.00     0.168 C 
HETATM   23  C15 UNL     1     105.601  23.911  18.952  1.00  0.00     0.031 C 
ENDBRANCH  17  18
ENDBRANCH   9  17
ENDBRANCH   3   4
TORSDOF 7
ENDMDL
MODEL 4
REMARK VINA RESULT: -6.188511318      3.672      5.868
REMARK  7 active torsions:
REMARK  status: ('A' for Active; 'I' for Inactive)
REMARK    1  A    between atoms: C2_3  and  N2_4 
REMARK    2  A    between atoms: C4_10  and  C5_11 
REMARK    3  A    between atoms: C4_10  and  C10_17 
REMARK    4  A    between atoms: C5_11  and  O2_12 
REMARK    5  A    between atoms: O2_12  and  C6_13 
REMARK    6  A    between atoms: C6_13  and  C7_14 
REMARK    7  A    between atoms: C10_17  and  C11_18 
ROOT
HETATM    1  N1  UNL     1     110.501  28.347  17.980  1.00  0.00    -0.196 NA
HETATM    2  C1  UNL     1     109.566  27.672  17.856  1.00  0.00     0.075 C 
HETATM    3  C2  UNL     1     108.403  26.831  17.728  1.00  0.00     0.247 C 
ENDROOT
BRANCH   3   4
HETATM    4  N2  UNL     1     107.748  26.900  16.492  1.00  0.00    -0.143 NA
HETATM    5  O1  UNL     1     107.620  28.220  16.119  1.00  0.00    -0.225 OA
HETATM    6  C3  UNL     1     106.309  28.579  16.480  1.00  0.00     0.247 C 
HETATM    7  N3  UNL     1     105.926  29.951  16.657  1.00  0.00    -0.055 NA
HETATM    8  N4  UNL     1     105.592  27.520  16.608  1.00  0.00    -0.332 N 
HETATM    9  C4  UNL     1     106.446  26.404  16.321  1.00  0.00     0.135 C 
ATOM     10  H4  UNL     1     104.605  27.480  16.864  1.00  0.00     0.165 HD
BRANCH   9  11
HETATM   11  C5  UNL     1     106.087  25.146  17.006  1.00  0.00     0.217 C 
BRANCH  11  12
HETATM   12  O2  UNL     1     105.665  25.218  18.305  1.00  0.00    -0.387 OA
BRANCH  12  13
HETATM   13  C6  UNL     1     105.995  23.971  18.885  1.00  0.00     0.172 C 
BRANCH  13  14
HETATM   14  C7  UNL     1     105.100  23.628  20.022  1.00  0.00     0.009 A 
HETATM   15  C8  UNL     1     104.886  22.189  20.417  1.00  0.00     0.007 A 
HETATM   16  C9  UNL     1     103.835  22.885  19.649  1.00  0.00     0.007 A 
ENDBRANCH  13  14
ENDBRANCH  12  13
ENDBRANCH  11  12
ENDBRANCH   9  11
BRANCH   9  17
HETATM   17  C10 UNL     1     106.323  26.152  14.819  1.00  0.00     0.057 C 
BRANCH  17  18
HETATM   18  C11 UNL     1     105.279  25.178  14.420  1.00  0.00    -0.007 C 
HETATM   19  C12 UNL     1     103.985  25.768  13.949  1.00  0.00     0.031 C 
HETATM   20  C13 UNL     1     103.170  24.694  13.233  1.00  0.00     0.168 C 
HETATM   21  O3  UNL     1     103.843  24.263  12.112  1.00  0.00    -0.391 OA
HETATM   22  C14 UNL     1     104.939  23.518  12.553  1.00  0.00     0.168 C 
HETATM   23  C15 UNL     1     105.927  24.337  13.307  1.00  0.00     0.031 C 
ENDBRANCH  17  18
ENDBRANCH   9  17
ENDBRANCH   3   4
TORSDOF 7
ENDMDL
MODEL 5
REMARK VINA RESULT: -6.073414277      3.809      5.747
REMARK  7 active torsions:
REMARK  status: ('A' for Active; 'I' for Inactive)
REMARK    1  A    between atoms: C2_3  and  N2_4 
REMARK    2  A    between atoms: C4_10  and  C5_11 
REMARK    3  A    between atoms: C4_10  and  C10_17 
REMARK    4  A    between atoms: C5_11  and  O2_12 
REMARK    5  A    between atoms: O2_12  and  C6_13 
REMARK    6  A    between atoms: C6_13  and  C7_14 
REMARK    7  A    between atoms: C10_17  and  C11_18 
ROOT
HETATM    1  N1  UNL     1     111.700  29.090  18.123  1.00  0.00    -0.196 NA
HETATM    2  C1  UNL     1     110.773  28.392  18.138  1.00  0.00     0.075 C 
HETATM    3  C2  UNL     1     109.626  27.522  18.184  1.00  0.00     0.247 C 
ENDROOT
BRANCH   3   4
HETATM    4  N2  UNL     1     108.704  27.691  17.142  1.00  0.00    -0.143 NA
HETATM    5  O1  UNL     1     108.684  29.016  16.766  1.00  0.00    -0.225 OA
HETATM    6  C3  UNL     1     107.570  29.568  17.421  1.00  0.00     0.247 C 
HETATM    7  N3  UNL     1     107.447  30.982  17.637  1.00  0.00    -0.055 NA
HETATM    8  N4  UNL     1     106.758  28.629  17.757  1.00  0.00    -0.332 N 
HETATM    9  C4  UNL     1     107.342  27.397  17.312  1.00  0.00     0.135 C 
ATOM     10  H4  UNL     1     105.870  28.739  18.246  1.00  0.00     0.165 HD
BRANCH   9  11
HETATM   11  C5  UNL     1     106.982  26.207  18.107  1.00  0.00     0.217 C 
BRANCH  11  12
HETATM   12  O2  UNL     1     107.905  25.203  18.216  1.00  0.00    -0.387 OA
BRANCH  12  13
HETATM   13  C6  UNL     1     107.513  24.443  19.343  1.00  0.00     0.172 C 
BRANCH  13  14
HETATM   14  C7  UNL     1     106.161  23.848  19.174  1.00  0.00     0.009 A 
HETATM   15  C8  UNL     1     105.325  23.500  20.380  1.00  0.00     0.007 A 
HETATM   16  C9  UNL     1     106.018  22.419  19.651  1.00  0.00     0.007 A 
ENDBRANCH  13  14
ENDBRANCH  12  13
ENDBRANCH  11  12
ENDBRANCH   9  11
BRANCH   9  17
HETATM   17  C10 UNL     1     106.818  27.169  15.894  1.00  0.00     0.057 C 
BRANCH  17  18
HETATM   18  C11 UNL     1     105.577  26.365  15.796  1.00  0.00    -0.007 C 
HETATM   19  C12 UNL     1     104.298  27.145  15.760  1.00  0.00     0.031 C 
HETATM   20  C13 UNL     1     103.165  26.238  15.287  1.00  0.00     0.168 C 
HETATM   21  O3  UNL     1     103.410  25.813  14.001  1.00  0.00    -0.391 OA
HETATM   22  C14 UNL     1     104.470  24.907  14.062  1.00  0.00     0.168 C 
HETATM   23  C15 UNL     1     105.742  25.537  14.510  1.00  0.00     0.031 C 
ENDBRANCH  17  18
ENDBRANCH   9  17
ENDBRANCH   3   4
TORSDOF 7
ENDMDL
