MODEL 1
REMARK VINA RESULT: -6.532459496      0.000      0.000
REMARK  6 active torsions:
REMARK  status: ('A' for Active; 'I' for Inactive)
REMARK    1  A    between atoms: C2_2  and  C3_3 
REMARK    2  A    between atoms: C3_3  and  N1_4 
REMARK       I    between atoms: C4_6  and  N3_8 
REMARK    3  A    between atoms: N3_8  and  C5_10 
REMARK    4  A    between atoms: C6_13  and  C7_14 
REMARK    5  A    between atoms: C8_17  and  O2_18 
REMARK    6  A    between atoms: O2_18  and  C9_19 
ROOT
HETATM    1  C5  UNL     1      76.787  66.189  93.933  1.00  0.00     0.690 C 
HETATM    2  N4  UNL     1      77.830  65.468  93.824  1.00  0.00    -0.184 N 
ATOM      3  H4  UNL     1      78.124  64.885  94.607  1.00  0.00     0.184 HD
HETATM    4  C6  UNL     1      78.606  65.467  92.597  1.00  0.00     0.146 C 
HETATM    5  C8  UNL     1      78.257  66.214  91.569  1.00  0.00     0.116 C 
HETATM    6  C10 UNL     1      77.099  67.088  91.629  1.00  0.00     0.188 C 
HETATM    7  C11 UNL     1      76.007  66.901  90.612  1.00  0.00     0.155 C 
HETATM    8  N7  UNL     1      74.894  67.681  91.251  1.00  0.00    -0.361 N 
ATOM      9  H7  UNL     1      74.115  68.126  90.766  1.00  0.00     0.162 HD
HETATM   10  C12 UNL     1      75.106  67.687  92.551  1.00  0.00     0.206 C 
HETATM   11  N8  UNL     1      74.324  68.297  93.566  1.00  0.00    -0.063 NA
HETATM   12  N9  UNL     1      76.308  66.948  92.849  1.00  0.00    -0.142 N 
ENDROOT
BRANCH   1  13
HETATM   13  N3  UNL     1      76.032  66.190  95.147  1.00  0.00    -0.163 N 
HETATM   14  C4  UNL     1      76.095  67.249  96.080  1.00  0.00     0.202 C 
HETATM   15  N1  UNL     1      75.062  67.766  96.631  1.00  0.00    -0.364 N 
HETATM   16  N2  UNL     1      77.375  67.765  96.422  1.00  0.00    -0.063 NA
ATOM     17  H1  UNL     1      74.152  67.382  96.373  1.00  0.00     0.162 HD
ATOM     18  H3  UNL     1      75.425  65.395  95.348  1.00  0.00     0.187 HD
BRANCH  15  19
HETATM   19  C3  UNL     1      75.076  68.832  97.576  1.00  0.00     0.122 C 
BRANCH  19  20
HETATM   20  C2  UNL     1      74.449  70.108  97.054  1.00  0.00     0.015 C 
HETATM   21  C1  UNL     1      75.491  71.209  97.132  1.00  0.00     0.006 C 
ENDBRANCH  19  20
ENDBRANCH  15  19
ENDBRANCH   1  13
BRANCH   4  22
HETATM   22  C7  UNL     1      79.796  64.647  92.524  1.00  0.00     0.284 C 
HETATM   23  N5  UNL     1      79.659  63.255  92.309  1.00  0.00    -0.056 NA
HETATM   24  O1  UNL     1      80.932  65.104  92.641  1.00  0.00    -0.269 OA
ENDBRANCH   4  22
BRANCH   5  25
HETATM   25  O2  UNL     1      78.987  66.207  90.396  1.00  0.00    -0.263 OA
BRANCH  25  26
HETATM   26  C9  UNL     1      79.551  67.314  89.841  1.00  0.00     0.377 C 
HETATM   27  N6  UNL     1      80.206  67.189  88.561  1.00  0.00    -0.032 NA
HETATM   28  O3  UNL     1      79.516  68.409  90.396  1.00  0.00    -0.242 OA
ENDBRANCH  25  26
ENDBRANCH   5  25
TORSDOF 6
ENDMDL
MODEL 2
REMARK VINA RESULT: -6.170255070      1.240      1.322
REMARK  6 active torsions:
REMARK  status: ('A' for Active; 'I' for Inactive)
REMARK    1  A    between atoms: C2_2  and  C3_3 
REMARK    2  A    between atoms: C3_3  and  N1_4 
REMARK       I    between atoms: C4_6  and  N3_8 
REMARK    3  A    between atoms: N3_8  and  C5_10 
REMARK    4  A    between atoms: C6_13  and  C7_14 
REMARK    5  A    between atoms: C8_17  and  O2_18 
REMARK    6  A    between atoms: O2_18  and  C9_19 
ROOT
HETATM    1  C5  UNL     1      76.663  66.337  94.884  1.00  0.00     0.690 C 
HETATM    2  N4  UNL     1      77.623  65.509  94.770  1.00  0.00    -0.184 N 
ATOM      3  H4  UNL     1      78.056  65.121  95.607  1.00  0.00     0.184 HD
HETATM    4  C6  UNL     1      78.108  65.113  93.460  1.00  0.00     0.146 C 
HETATM    5  C8  UNL     1      77.575  65.602  92.359  1.00  0.00     0.116 C 
HETATM    6  C10 UNL     1      76.499  66.576  92.408  1.00  0.00     0.188 C 
HETATM    7  C11 UNL     1      75.201  66.246  91.721  1.00  0.00     0.155 C 
HETATM    8  N7  UNL     1      74.293  67.274  92.333  1.00  0.00    -0.361 N 
ATOM      9  H7  UNL     1      73.447  67.656  91.911  1.00  0.00     0.162 HD
HETATM   10  C12 UNL     1      74.787  67.593  93.511  1.00  0.00     0.206 C 
HETATM   11  N8  UNL     1      74.276  68.520  94.456  1.00  0.00    -0.063 NA
HETATM   12  N9  UNL     1      75.991  66.837  93.753  1.00  0.00    -0.142 N 
ENDROOT
BRANCH   1  13
HETATM   13  N3  UNL     1      76.195  66.728  96.177  1.00  0.00    -0.163 N 
HETATM   14  C4  UNL     1      76.552  67.957  96.775  1.00  0.00     0.202 C 
HETATM   15  N1  UNL     1      75.714  68.727  97.360  1.00  0.00    -0.364 N 
HETATM   16  N2  UNL     1      77.916  68.356  96.722  1.00  0.00    -0.063 NA
ATOM     17  H1  UNL     1      74.740  68.424  97.388  1.00  0.00     0.162 HD
ATOM     18  H3  UNL     1      75.580  66.095  96.688  1.00  0.00     0.187 HD
BRANCH  15  19
HETATM   19  C3  UNL     1      76.028  69.973  97.976  1.00  0.00     0.122 C 
BRANCH  19  20
HETATM   20  C2  UNL     1      75.653  71.173  97.134  1.00  0.00     0.015 C 
HETATM   21  C1  UNL     1      74.198  71.024  96.724  1.00  0.00     0.006 C 
ENDBRANCH  19  20
ENDBRANCH  15  19
ENDBRANCH   1  13
BRANCH   4  22
HETATM   22  C7  UNL     1      79.215  64.185  93.377  1.00  0.00     0.284 C 
HETATM   23  N5  UNL     1      78.990  62.820  93.674  1.00  0.00    -0.056 NA
HETATM   24  O1  UNL     1      80.353  64.527  93.057  1.00  0.00    -0.269 OA
ENDBRANCH   4  22
BRANCH   5  25
HETATM   25  O2  UNL     1      78.027  65.219  91.111  1.00  0.00    -0.263 OA
BRANCH  25  26
HETATM   26  C9  UNL     1      79.017  65.857  90.428  1.00  0.00     0.377 C 
HETATM   27  N6  UNL     1      79.937  65.068  89.645  1.00  0.00    -0.032 NA
HETATM   28  O3  UNL     1      79.145  67.078  90.460  1.00  0.00    -0.242 OA
ENDBRANCH  25  26
ENDBRANCH   5  25
TORSDOF 6
ENDMDL
MODEL 3
REMARK VINA RESULT: -6.167448107      1.801      3.602
REMARK  6 active torsions:
REMARK  status: ('A' for Active; 'I' for Inactive)
REMARK    1  A    between atoms: C2_2  and  C3_3 
REMARK    2  A    between atoms: C3_3  and  N1_4 
REMARK       I    between atoms: C4_6  and  N3_8 
REMARK    3  A    between atoms: N3_8  and  C5_10 
REMARK    4  A    between atoms: C6_13  and  C7_14 
REMARK    5  A    between atoms: C8_17  and  O2_18 
REMARK    6  A    between atoms: O2_18  and  C9_19 
ROOT
HETATM    1  C5  UNL     1      76.686  66.569  91.648  1.00  0.00     0.690 C 
HETATM    2  N4  UNL     1      77.260  67.585  91.141  1.00  0.00    -0.184 N 
ATOM      3  H4  UNL     1      76.843  68.508  91.254  1.00  0.00     0.184 HD
HETATM    4  C6  UNL     1      78.502  67.444  90.402  1.00  0.00     0.146 C 
HETATM    5  C8  UNL     1      79.064  66.264  90.232  1.00  0.00     0.116 C 
HETATM    6  C10 UNL     1      78.452  65.054  90.752  1.00  0.00     0.188 C 
HETATM    7  C11 UNL     1      79.246  64.203  91.707  1.00  0.00     0.155 C 
HETATM    8  N7  UNL     1      78.159  63.338  92.277  1.00  0.00    -0.361 N 
ATOM      9  H7  UNL     1      78.277  62.403  92.668  1.00  0.00     0.162 HD
HETATM   10  C12 UNL     1      77.027  64.004  92.182  1.00  0.00     0.206 C 
HETATM   11  N8  UNL     1      75.730  63.595  92.589  1.00  0.00    -0.063 NA
HETATM   12  N9  UNL     1      77.270  65.290  91.578  1.00  0.00    -0.142 N 
ENDROOT
BRANCH   1  13
HETATM   13  N3  UNL     1      75.460  66.714  92.367  1.00  0.00    -0.163 N 
HETATM   14  C4  UNL     1      75.412  67.159  93.707  1.00  0.00     0.202 C 
HETATM   15  N1  UNL     1      74.582  68.038  94.130  1.00  0.00    -0.364 N 
HETATM   16  N2  UNL     1      76.336  66.600  94.632  1.00  0.00    -0.063 NA
ATOM     17  H1  UNL     1      73.927  68.427  93.451  1.00  0.00     0.162 HD
ATOM     18  H3  UNL     1      74.584  66.488  91.895  1.00  0.00     0.187 HD
BRANCH  15  19
HETATM   19  C3  UNL     1      74.496  68.516  95.469  1.00  0.00     0.122 C 
BRANCH  19  20
HETATM   20  C2  UNL     1      73.246  68.062  96.192  1.00  0.00     0.015 C 
HETATM   21  C1  UNL     1      73.544  68.047  97.681  1.00  0.00     0.006 C 
ENDBRANCH  19  20
ENDBRANCH  15  19
ENDBRANCH   1  13
BRANCH   4  22
HETATM   22  C7  UNL     1      79.109  68.623  89.825  1.00  0.00     0.284 C 
HETATM   23  N5  UNL     1      78.857  68.932  88.467  1.00  0.00    -0.056 NA
HETATM   24  O1  UNL     1      79.842  69.379  90.463  1.00  0.00    -0.269 OA
ENDBRANCH   4  22
BRANCH   5  25
HETATM   25  O2  UNL     1      80.251  66.127  89.539  1.00  0.00    -0.263 OA
BRANCH  25  26
HETATM   26  C9  UNL     1      80.337  65.720  88.243  1.00  0.00     0.377 C 
HETATM   27  N6  UNL     1      80.923  66.615  87.274  1.00  0.00    -0.032 NA
HETATM   28  O3  UNL     1      79.932  64.619  87.880  1.00  0.00    -0.242 OA
ENDBRANCH  25  26
ENDBRANCH   5  25
TORSDOF 6
ENDMDL
MODEL 4
REMARK VINA RESULT: -5.529195158      0.845      1.157
REMARK  6 active torsions:
REMARK  status: ('A' for Active; 'I' for Inactive)
REMARK    1  A    between atoms: C2_2  and  C3_3 
REMARK    2  A    between atoms: C3_3  and  N1_4 
REMARK       I    between atoms: C4_6  and  N3_8 
REMARK    3  A    between atoms: N3_8  and  C5_10 
REMARK    4  A    between atoms: C6_13  and  C7_14 
REMARK    5  A    between atoms: C8_17  and  O2_18 
REMARK    6  A    between atoms: O2_18  and  C9_19 
ROOT
HETATM    1  C5  UNL     1      76.792  66.173  94.103  1.00  0.00     0.690 C 
HETATM    2  N4  UNL     1      77.835  65.448  94.022  1.00  0.00    -0.184 N 
ATOM      3  H4  UNL     1      78.124  64.889  94.824  1.00  0.00     0.184 HD
HETATM    4  C6  UNL     1      78.617  65.408  92.800  1.00  0.00     0.146 C 
HETATM    5  C8  UNL     1      78.274  66.124  91.747  1.00  0.00     0.116 C 
HETATM    6  C10 UNL     1      77.117  67.000  91.775  1.00  0.00     0.188 C 
HETATM    7  C11 UNL     1      76.029  66.783  90.758  1.00  0.00     0.155 C 
HETATM    8  N7  UNL     1      74.914  67.584  91.367  1.00  0.00    -0.361 N 
ATOM      9  H7  UNL     1      74.138  68.014  90.865  1.00  0.00     0.162 HD
HETATM   10  C12 UNL     1      75.120  67.630  92.668  1.00  0.00     0.206 C 
HETATM   11  N8  UNL     1      74.334  68.271  93.659  1.00  0.00    -0.063 NA
HETATM   12  N9  UNL     1      76.319  66.899  92.994  1.00  0.00    -0.142 N 
ENDROOT
BRANCH   1  13
HETATM   13  N3  UNL     1      76.031  66.213  95.313  1.00  0.00    -0.163 N 
HETATM   14  C4  UNL     1      76.048  67.323  96.185  1.00  0.00     0.202 C 
HETATM   15  N1  UNL     1      74.992  67.830  96.704  1.00  0.00    -0.364 N 
HETATM   16  N2  UNL     1      77.305  67.907  96.503  1.00  0.00    -0.063 NA
ATOM     17  H1  UNL     1      74.100  67.397  96.464  1.00  0.00     0.162 HD
ATOM     18  H3  UNL     1      75.454  65.407  95.556  1.00  0.00     0.187 HD
BRANCH  15  19
HETATM   19  C3  UNL     1      74.960  68.947  97.587  1.00  0.00     0.122 C 
BRANCH  19  20
HETATM   20  C2  UNL     1      74.486  70.223  96.927  1.00  0.00     0.015 C 
HETATM   21  C1  UNL     1      75.541  71.291  97.155  1.00  0.00     0.006 C 
ENDBRANCH  19  20
ENDBRANCH  15  19
ENDBRANCH   1  13
BRANCH   4  22
HETATM   22  C7  UNL     1      79.806  64.585  92.758  1.00  0.00     0.284 C 
HETATM   23  N5  UNL     1      79.669  63.177  92.800  1.00  0.00    -0.056 NA
HETATM   24  O1  UNL     1      80.942  65.053  92.687  1.00  0.00    -0.269 OA
ENDBRANCH   4  22
BRANCH   5  25
HETATM   25  O2  UNL     1      79.010  66.080  90.579  1.00  0.00    -0.263 OA
BRANCH  25  26
HETATM   26  C9  UNL     1      79.071  65.000  89.755  1.00  0.00     0.377 C 
HETATM   27  N6  UNL     1      80.101  64.957  88.744  1.00  0.00    -0.032 NA
HETATM   28  O3  UNL     1      78.279  64.066  89.848  1.00  0.00    -0.242 OA
ENDBRANCH  25  26
ENDBRANCH   5  25
TORSDOF 6
ENDMDL
MODEL 5
REMARK VINA RESULT: -4.655065477      3.344      6.725
REMARK  6 active torsions:
REMARK  status: ('A' for Active; 'I' for Inactive)
REMARK    1  A    between atoms: C2_2  and  C3_3 
REMARK    2  A    between atoms: C3_3  and  N1_4 
REMARK       I    between atoms: C4_6  and  N3_8 
REMARK    3  A    between atoms: N3_8  and  C5_10 
REMARK    4  A    between atoms: C6_13  and  C7_14 
REMARK    5  A    between atoms: C8_17  and  O2_18 
REMARK    6  A    between atoms: O2_18  and  C9_19 
ROOT
HETATM    1  C5  UNL     1      77.604  66.048  93.847  1.00  0.00     0.690 C 
HETATM    2  N4  UNL     1      77.249  66.587  94.944  1.00  0.00    -0.184 N 
ATOM      3  H4  UNL     1      77.901  66.614  95.726  1.00  0.00     0.184 HD
HETATM    4  C6  UNL     1      75.924  67.163  95.092  1.00  0.00     0.146 C 
HETATM    5  C8  UNL     1      75.055  67.138  94.102  1.00  0.00     0.116 C 
HETATM    6  C10 UNL     1      75.374  66.511  92.832  1.00  0.00     0.188 C 
HETATM    7  C11 UNL     1      75.294  67.345  91.581  1.00  0.00     0.155 C 
HETATM    8  N7  UNL     1      76.054  66.477  90.619  1.00  0.00    -0.361 N 
ATOM      9  H7  UNL     1      75.940  66.459  89.606  1.00  0.00     0.162 HD
HETATM   10  C12 UNL     1      76.893  65.743  91.321  1.00  0.00     0.206 C 
HETATM   11  N8  UNL     1      77.818  64.776  90.850  1.00  0.00    -0.063 NA
HETATM   12  N9  UNL     1      76.759  66.058  92.721  1.00  0.00    -0.142 N 
ENDROOT
BRANCH   1  13
HETATM   13  N3  UNL     1      78.906  65.476  93.710  1.00  0.00    -0.163 N 
HETATM   14  C4  UNL     1      79.110  64.117  93.384  1.00  0.00     0.202 C 
HETATM   15  N1  UNL     1      79.957  63.720  92.510  1.00  0.00    -0.364 N 
HETATM   16  N2  UNL     1      78.331  63.141  94.064  1.00  0.00    -0.063 NA
ATOM     17  H1  UNL     1      80.507  64.435  92.033  1.00  0.00     0.162 HD
ATOM     18  H3  UNL     1      79.721  66.073  93.855  1.00  0.00     0.187 HD
BRANCH  15  19
HETATM   19  C3  UNL     1      80.196  62.363  92.149  1.00  0.00     0.122 C 
BRANCH  19  20
HETATM   20  C2  UNL     1      81.666  62.002  92.103  1.00  0.00     0.015 C 
HETATM   21  C1  UNL     1      81.851  60.690  92.844  1.00  0.00     0.006 C 
ENDBRANCH  19  20
ENDBRANCH  15  19
ENDBRANCH   1  13
BRANCH   4  22
HETATM   22  C7  UNL     1      75.556  67.748  96.363  1.00  0.00     0.284 C 
HETATM   23  N5  UNL     1      75.258  69.130  96.423  1.00  0.00    -0.056 NA
HETATM   24  O1  UNL     1      75.488  67.097  97.405  1.00  0.00    -0.269 OA
ENDBRANCH   4  22
BRANCH   5  25
HETATM   25  O2  UNL     1      73.797  67.695  94.237  1.00  0.00    -0.263 OA
BRANCH  25  26
HETATM   26  C9  UNL     1      72.741  67.064  94.817  1.00  0.00     0.377 C 
HETATM   27  N6  UNL     1      72.198  65.890  94.176  1.00  0.00    -0.032 NA
HETATM   28  O3  UNL     1      72.241  67.464  95.865  1.00  0.00    -0.242 OA
ENDBRANCH  25  26
ENDBRANCH   5  25
TORSDOF 6
ENDMDL
