MODEL 1
REMARK VINA RESULT: -5.369577505      0.000      0.000
REMARK  1 active torsions:
REMARK  status: ('A' for Active; 'I' for Inactive)
REMARK    1  A    between atoms: N2_6  and  N3_7 
ROOT
HETATM    1  N1  UNL     1      50.422  36.770  45.903  1.00  0.00    -0.082 NA
HETATM    2  C1  UNL     1      50.042  35.652  45.113  1.00  0.00     0.125 A 
HETATM    3  C2  UNL     1      50.685  35.379  43.921  1.00  0.00     0.121 A 
HETATM    4  C3  UNL     1      50.296  34.277  43.161  1.00  0.00     0.273 A 
HETATM    5  O1  UNL     1      50.910  34.066  42.083  1.00  0.00    -0.266 OA
HETATM    6  N2  UNL     1      49.297  33.491  43.598  1.00  0.00    -0.175 N 
HETATM    7  C4  UNL     1      48.695  33.777  44.749  1.00  0.00     0.349 A 
HETATM    8  O2  UNL     1      47.761  33.013  45.126  1.00  0.00    -0.244 OA
HETATM    9  N4  UNL     1      49.046  34.843  45.519  1.00  0.00    -0.295 N 
ATOM     10  H4  UNL     1      48.559  35.027  46.397  1.00  0.00     0.172 HD
ENDROOT
BRANCH   6  11
HETATM   11  N3  UNL     1      48.912  32.387  42.833  1.00  0.00    -0.332 N 
ATOM     12  H32 UNL     1      49.225  32.277  41.868  1.00  0.00     0.177 HD
ATOM     13  H31 UNL     1      48.307  31.680  43.249  1.00  0.00     0.177 HD
ENDBRANCH   6  11
TORSDOF 1
ENDMDL
MODEL 2
REMARK VINA RESULT: -4.905011025      0.874      2.505
REMARK  1 active torsions:
REMARK  status: ('A' for Active; 'I' for Inactive)
REMARK    1  A    between atoms: N2_6  and  N3_7 
ROOT
HETATM    1  N1  UNL     1      50.793  36.842  45.508  1.00  0.00    -0.082 NA
HETATM    2  C1  UNL     1      50.300  35.693  44.835  1.00  0.00     0.125 A 
HETATM    3  C2  UNL     1      49.275  34.942  45.378  1.00  0.00     0.121 A 
HETATM    4  C3  UNL     1      48.806  33.817  44.702  1.00  0.00     0.273 A 
HETATM    5  O1  UNL     1      47.871  33.164  45.234  1.00  0.00    -0.266 OA
HETATM    6  N2  UNL     1      49.358  33.475  43.526  1.00  0.00    -0.175 N 
HETATM    7  C4  UNL     1      50.343  34.215  43.025  1.00  0.00     0.349 A 
HETATM    8  O2  UNL     1      50.835  33.860  41.916  1.00  0.00    -0.244 OA
HETATM    9  N4  UNL     1      50.828  35.320  43.655  1.00  0.00    -0.295 N 
ATOM     10  H4  UNL     1      51.585  35.861  43.236  1.00  0.00     0.172 HD
ENDROOT
BRANCH   6  11
HETATM   11  N3  UNL     1      48.884  32.347  42.851  1.00  0.00    -0.332 N 
ATOM     12  H32 UNL     1      49.483  31.819  42.217  1.00  0.00     0.177 HD
ATOM     13  H31 UNL     1      47.920  32.048  42.997  1.00  0.00     0.177 HD
ENDBRANCH   6  11
TORSDOF 1
ENDMDL
MODEL 3
REMARK VINA RESULT: -4.147530104      1.746      3.847
REMARK  1 active torsions:
REMARK  status: ('A' for Active; 'I' for Inactive)
REMARK    1  A    between atoms: N2_6  and  N3_7 
ROOT
HETATM    1  N1  UNL     1      50.448  33.246  41.702  1.00  0.00    -0.082 NA
HETATM    2  C1  UNL     1      50.306  33.890  42.960  1.00  0.00     0.125 A 
HETATM    3  C2  UNL     1      49.261  33.567  43.805  1.00  0.00     0.121 A 
HETATM    4  C3  UNL     1      49.140  34.212  45.034  1.00  0.00     0.273 A 
HETATM    5  O1  UNL     1      48.173  33.885  45.771  1.00  0.00    -0.266 OA
HETATM    6  N2  UNL     1      50.043  35.143  45.385  1.00  0.00    -0.175 N 
HETATM    7  C4  UNL     1      51.039  35.435  44.553  1.00  0.00     0.349 A 
HETATM    8  O2  UNL     1      51.868  36.316  44.921  1.00  0.00    -0.244 OA
HETATM    9  N4  UNL     1      51.192  34.827  43.345  1.00  0.00    -0.295 N 
ATOM     10  H4  UNL     1      51.971  35.080  42.736  1.00  0.00     0.172 HD
ENDROOT
BRANCH   6  11
HETATM   11  N3  UNL     1      49.917  35.785  46.619  1.00  0.00    -0.332 N 
ATOM     12  H32 UNL     1      50.667  35.755  47.311  1.00  0.00     0.177 HD
ATOM     13  H31 UNL     1      49.059  36.294  46.831  1.00  0.00     0.177 HD
ENDBRANCH   6  11
TORSDOF 1
ENDMDL
MODEL 4
REMARK VINA RESULT: -4.075990715      1.515      3.103
REMARK  1 active torsions:
REMARK  status: ('A' for Active; 'I' for Inactive)
REMARK    1  A    between atoms: N2_6  and  N3_7 
ROOT
HETATM    1  N1  UNL     1      50.363  32.980  41.758  1.00  0.00    -0.082 NA
HETATM    2  C1  UNL     1      50.242  33.689  42.983  1.00  0.00     0.125 A 
HETATM    3  C2  UNL     1      51.152  34.671  43.323  1.00  0.00     0.121 A 
HETATM    4  C3  UNL     1      51.016  35.354  44.530  1.00  0.00     0.273 A 
HETATM    5  O1  UNL     1      51.868  36.241  44.798  1.00  0.00    -0.266 OA
HETATM    6  N2  UNL     1      49.997  35.049  45.351  1.00  0.00    -0.175 N 
HETATM    7  C4  UNL     1      49.134  34.100  45.000  1.00  0.00     0.349 A 
HETATM    8  O2  UNL     1      48.190  33.843  45.800  1.00  0.00    -0.244 OA
HETATM    9  N4  UNL     1      49.234  33.411  43.830  1.00  0.00    -0.295 N 
ATOM     10  H4  UNL     1      48.550  32.690  43.598  1.00  0.00     0.172 HD
ENDROOT
BRANCH   6  11
HETATM   11  N3  UNL     1      49.864  35.738  46.560  1.00  0.00    -0.332 N 
ATOM     12  H32 UNL     1      50.365  35.440  47.397  1.00  0.00     0.177 HD
ATOM     13  H31 UNL     1      49.253  36.553  46.604  1.00  0.00     0.177 HD
ENDBRANCH   6  11
TORSDOF 1
ENDMDL
MODEL 5
REMARK VINA RESULT: -3.166138755      7.067      8.907
REMARK  1 active torsions:
REMARK  status: ('A' for Active; 'I' for Inactive)
REMARK    1  A    between atoms: N2_6  and  N3_7 
ROOT
HETATM    1  N1  UNL     1      54.361  36.614  44.815  1.00  0.00    -0.082 NA
HETATM    2  C1  UNL     1      55.130  37.805  44.904  1.00  0.00     0.125 A 
HETATM    3  C2  UNL     1      55.115  38.570  46.054  1.00  0.00     0.121 A 
HETATM    4  C3  UNL     1      55.875  39.736  46.121  1.00  0.00     0.273 A 
HETATM    5  O1  UNL     1      55.832  40.401  47.188  1.00  0.00    -0.266 OA
HETATM    6  N2  UNL     1      56.618  40.103  45.063  1.00  0.00    -0.175 N 
HETATM    7  C4  UNL     1      56.614  39.348  43.967  1.00  0.00     0.349 A 
HETATM    8  O2  UNL     1      57.326  39.727  42.994  1.00  0.00    -0.244 OA
HETATM    9  N4  UNL     1      55.885  38.203  43.864  1.00  0.00    -0.295 N 
ATOM     10  H4  UNL     1      55.911  37.652  43.005  1.00  0.00     0.172 HD
ENDROOT
BRANCH   6  11
HETATM   11  N3  UNL     1      57.379  41.272  45.135  1.00  0.00    -0.332 N 
ATOM     12  H32 UNL     1      57.012  42.164  44.804  1.00  0.00     0.177 HD
ATOM     13  H31 UNL     1      58.320  41.230  45.525  1.00  0.00     0.177 HD
ENDBRANCH   6  11
TORSDOF 1
ENDMDL
