MODEL 1
REMARK VINA RESULT: -7.827639140      0.000      0.000
REMARK  22 active torsions:
REMARK  status: ('A' for Active; 'I' for Inactive)
REMARK    1  A    between atoms: O1_2  and  C2_3 
REMARK    2  A    between atoms: C2_3  and  O3_5 
REMARK    3  A    between atoms: O3_5  and  C3_6 
REMARK    4  A    between atoms: C3_6  and  O4_7 
REMARK    5  A    between atoms: O4_7  and  C4_8 
REMARK    6  A    between atoms: C4_8  and  C5_9 
REMARK    7  A    between atoms: C4_8  and  C7_14 
REMARK    8  A    between atoms: C5_9  and  O5_10 
REMARK    9  A    between atoms: O5_10  and  C6_11 
REMARK   10  A    between atoms: C7_14  and  O7_15 
REMARK   11  A    between atoms: C7_14  and  C8_17 
REMARK   12  A    between atoms: C8_17  and  C9_18 
REMARK   13  A    between atoms: C8_17  and  N9_48 
REMARK   14  A    between atoms: C9_18  and  O8_19 
REMARK   15  A    between atoms: C9_18  and  N3_29 
REMARK   16  A    between atoms: O8_19  and  C10_20 
REMARK   17  A    between atoms: C10_20  and  O10_22 
REMARK   18  A    between atoms: O10_22  and  C11_23 
REMARK   19  A    between atoms: C11_23  and  N2_25 
REMARK   20  A    between atoms: C16_36  and  O11_37 
REMARK   21  A    between atoms: C19_49  and  N10_50 
REMARK   22  A    between atoms: N10_50  and  O12_52 
ROOT
HETATM    1  C8  UNL     1       9.834  29.529  27.292  1.00  0.00     0.094 C 
ENDROOT
BRANCH   1   2
HETATM    2  C7  UNL     1       9.385  28.771  28.449  1.00  0.00     0.200 C 
BRANCH   2   3
HETATM    3  C4  UNL     1      10.195  29.026  29.740  1.00  0.00     0.183 C 
BRANCH   3   4
HETATM    4  O4  UNL     1       9.459  29.882  30.568  1.00  0.00    -0.356 OA
BRANCH   4   5
HETATM    5  C3  UNL     1      10.373  30.569  31.388  1.00  0.00     0.350 C 
BRANCH   5   6
HETATM    6  O3  UNL     1       9.848  31.670  32.054  1.00  0.00    -0.272 OA
BRANCH   6   7
HETATM    7  C2  UNL     1       8.704  31.721  32.792  1.00  0.00     0.408 C 
HETATM    8  O2  UNL     1       8.644  31.103  33.866  1.00  0.00    -0.229 OA
BRANCH   7   9
HETATM    9  O1  UNL     1       7.578  32.461  32.372  1.00  0.00    -0.303 OA
HETATM   10  C1  UNL     1       7.605  33.881  32.395  1.00  0.00     0.215 C 
ENDBRANCH   7   9
ENDBRANCH   6   7
ENDBRANCH   5   6
ENDBRANCH   4   5
ENDBRANCH   3   4
BRANCH   3  11
HETATM   11  C5  UNL     1      10.498  27.778  30.470  1.00  0.00     0.215 C 
BRANCH  11  12
HETATM   12  O5  UNL     1       9.511  27.019  31.012  1.00  0.00    -0.304 OA
BRANCH  12  13
HETATM   13  C6  UNL     1       9.173  26.750  32.281  1.00  0.00     0.372 C 
HETATM   14  N1  UNL     1       8.976  25.403  32.748  1.00  0.00    -0.032 NA
HETATM   15  O6  UNL     1       9.021  27.683  33.099  1.00  0.00    -0.242 OA
ENDBRANCH  12  13
ENDBRANCH  11  12
ENDBRANCH   3  11
ENDBRANCH   2   3
BRANCH   2  16
HETATM   16  O7  UNL     1       8.083  29.136  28.902  1.00  0.00    -0.387 OA
ATOM     17  H7  UNL     1       7.578  28.940  28.122  1.00  0.00     0.210 HD
ENDBRANCH   2  16
ENDBRANCH   1   2
BRANCH   1  18
HETATM   18  C9  UNL     1       8.951  29.490  26.061  1.00  0.00     0.303 C 
BRANCH  18  19
HETATM   19  O8  UNL     1       8.057  30.577  26.032  1.00  0.00    -0.265 OA
BRANCH  19  20
HETATM   20  C10 UNL     1       6.727  30.608  26.238  1.00  0.00     0.410 C 
HETATM   21  O9  UNL     1       6.109  29.602  25.892  1.00  0.00    -0.229 OA
BRANCH  20  22
HETATM   22  O10 UNL     1       6.022  31.667  26.802  1.00  0.00    -0.265 OA
BRANCH  22  23
HETATM   23  C11 UNL     1       4.949  31.355  27.666  1.00  0.00     0.326 C 
HETATM   24  C12 UNL     1       4.579  32.663  28.357  1.00  0.00     0.071 C 
BRANCH  23  25
HETATM   25  N2  UNL     1       5.419  30.443  28.714  1.00  0.00    -0.053 N 
ATOM     26  H23 UNL     1       4.725  29.733  28.948  1.00  0.00     0.277 HD
ATOM     27  H22 UNL     1       6.155  29.821  28.382  1.00  0.00     0.277 HD
ATOM     28  H21 UNL     1       5.708  30.985  29.528  1.00  0.00     0.277 HD
ENDBRANCH  23  25
ENDBRANCH  22  23
ENDBRANCH  20  22
ENDBRANCH  19  20
ENDBRANCH  18  19
BRANCH  18  29
HETATM   29  N3  UNL     1       9.552  29.226  24.808  1.00  0.00    -0.255 N 
HETATM   30  C13 UNL     1      10.077  30.332  24.027  1.00  0.00     0.184 C 
HETATM   31  C14 UNL     1      11.389  30.076  23.381  1.00  0.00     0.240 A 
HETATM   32  N4  UNL     1      11.850  28.704  23.419  1.00  0.00    -0.057 N 
HETATM   33  C15 UNL     1      11.509  29.383  22.172  1.00  0.00     0.267 A 
ATOM     34  H42 UNL     1      12.657  28.205  23.793  1.00  0.00     0.278 HD
ATOM     35  H41 UNL     1      11.574  27.843  23.891  1.00  0.00     0.278 HD
HETATM   36  C16 UNL     1      10.358  28.901  21.380  1.00  0.00     0.267 C 
HETATM   37  N5  UNL     1       9.968  27.605  21.942  1.00  0.00    -0.194 N 
HETATM   38  C17 UNL     1       9.715  27.158  23.272  1.00  0.00     0.717 A 
ATOM     39  H5  UNL     1       9.855  26.875  21.239  1.00  0.00     0.180 HD
HETATM   40  N6  UNL     1       9.603  25.843  23.521  1.00  0.00    -0.183 N 
HETATM   41  N8  UNL     1       9.552  27.878  24.430  1.00  0.00    -0.019 N 
HETATM   42  C18 UNL     1       9.369  25.728  24.840  1.00  0.00     0.217 A 
ATOM     43  H6  UNL     1       9.680  25.083  22.846  1.00  0.00     0.185 HD
HETATM   44  N7  UNL     1       9.347  26.953  25.341  1.00  0.00    -0.260 N 
ATOM     45  H7  UNL     1       9.188  27.158  26.327  1.00  0.00     0.190 HD
BRANCH  36  46
HETATM   46  O11 UNL     1      10.673  28.650  20.041  1.00  0.00    -0.374 OA
ATOM     47  H11 UNL     1       9.917  28.670  19.466  1.00  0.00     0.212 HD
ENDBRANCH  36  46
ENDBRANCH  18  29
ENDBRANCH   1  18
BRANCH   1  48
HETATM   48  N9  UNL     1      10.353  30.865  27.473  1.00  0.00    -0.144 N 
HETATM   49  C19 UNL     1       9.781  32.007  27.877  1.00  0.00     0.709 A 
HETATM   50  N11 UNL     1      10.666  33.045  27.877  1.00  0.00    -0.187 N 
HETATM   51  C20 UNL     1      11.828  32.577  27.465  1.00  0.00     0.077 A 
ATOM     52  H11 UNL     1      10.465  34.008  28.146  1.00  0.00     0.184 HD
HETATM   53  C21 UNL     1      13.049  33.195  27.276  1.00  0.00     0.032 A 
HETATM   54  C25 UNL     1      11.649  31.266  27.219  1.00  0.00     0.084 A 
HETATM   55  C22 UNL     1      14.124  32.482  26.829  1.00  0.00     0.002 A 
HETATM   56  C23 UNL     1      13.967  31.145  26.571  1.00  0.00     0.002 A 
HETATM   57  C24 UNL     1      12.740  30.546  26.766  1.00  0.00     0.033 A 
BRANCH  49  58
HETATM   58  N10 UNL     1       8.581  32.217  28.217  1.00  0.00    -0.098 N 
ATOM     59  H10 UNL     1       7.979  32.640  27.511  1.00  0.00     0.213 HD
BRANCH  58  60
HETATM   60  O12 UNL     1       8.005  31.941  29.415  1.00  0.00    -0.276 OA
ATOM     61  H12 UNL     1       7.093  32.054  29.655  1.00  0.00     0.245 HD
ENDBRANCH  58  60
ENDBRANCH  49  58
ENDBRANCH   1  48
TORSDOF 22
ENDMDL
MODEL 2
REMARK VINA RESULT: -7.613127958      1.175      1.194
REMARK  22 active torsions:
REMARK  status: ('A' for Active; 'I' for Inactive)
REMARK    1  A    between atoms: O1_2  and  C2_3 
REMARK    2  A    between atoms: C2_3  and  O3_5 
REMARK    3  A    between atoms: O3_5  and  C3_6 
REMARK    4  A    between atoms: C3_6  and  O4_7 
REMARK    5  A    between atoms: O4_7  and  C4_8 
REMARK    6  A    between atoms: C4_8  and  C5_9 
REMARK    7  A    between atoms: C4_8  and  C7_14 
REMARK    8  A    between atoms: C5_9  and  O5_10 
REMARK    9  A    between atoms: O5_10  and  C6_11 
REMARK   10  A    between atoms: C7_14  and  O7_15 
REMARK   11  A    between atoms: C7_14  and  C8_17 
REMARK   12  A    between atoms: C8_17  and  C9_18 
REMARK   13  A    between atoms: C8_17  and  N9_48 
REMARK   14  A    between atoms: C9_18  and  O8_19 
REMARK   15  A    between atoms: C9_18  and  N3_29 
REMARK   16  A    between atoms: O8_19  and  C10_20 
REMARK   17  A    between atoms: C10_20  and  O10_22 
REMARK   18  A    between atoms: O10_22  and  C11_23 
REMARK   19  A    between atoms: C11_23  and  N2_25 
REMARK   20  A    between atoms: C16_36  and  O11_37 
REMARK   21  A    between atoms: C19_49  and  N10_50 
REMARK   22  A    between atoms: N10_50  and  O12_52 
ROOT
HETATM    1  C8  UNL     1       9.220  29.403  27.125  1.00  0.00     0.094 C 
ENDROOT
BRANCH   1   2
HETATM    2  C7  UNL     1       8.683  28.800  28.333  1.00  0.00     0.200 C 
BRANCH   2   3
HETATM    3  C4  UNL     1       9.431  29.183  29.631  1.00  0.00     0.183 C 
BRANCH   3   4
HETATM    4  O4  UNL     1       8.608  30.023  30.389  1.00  0.00    -0.356 OA
BRANCH   4   5
HETATM    5  C3  UNL     1       9.361  31.161  30.730  1.00  0.00     0.350 C 
BRANCH   5   6
HETATM    6  O3  UNL     1       8.645  32.169  31.365  1.00  0.00    -0.272 OA
BRANCH   6   7
HETATM    7  C2  UNL     1       8.803  32.617  32.642  1.00  0.00     0.408 C 
HETATM    8  O2  UNL     1       8.279  31.992  33.576  1.00  0.00    -0.229 OA
BRANCH   7   9
HETATM    9  O1  UNL     1       9.552  33.776  32.938  1.00  0.00    -0.303 OA
HETATM   10  C1  UNL     1       8.921  34.904  33.528  1.00  0.00     0.215 C 
ENDBRANCH   7   9
ENDBRANCH   6   7
ENDBRANCH   5   6
ENDBRANCH   4   5
ENDBRANCH   3   4
BRANCH   3  11
HETATM   11  C5  UNL     1       9.801  28.001  30.437  1.00  0.00     0.215 C 
BRANCH  11  12
HETATM   12  O5  UNL     1       9.530  27.938  31.765  1.00  0.00    -0.304 OA
BRANCH  12  13
HETATM   13  C6  UNL     1      10.116  28.496  32.835  1.00  0.00     0.372 C 
HETATM   14  N1  UNL     1      11.543  28.666  32.920  1.00  0.00    -0.032 NA
HETATM   15  O6  UNL     1       9.419  28.887  33.796  1.00  0.00    -0.242 OA
ENDBRANCH  12  13
ENDBRANCH  11  12
ENDBRANCH   3  11
ENDBRANCH   2   3
BRANCH   2  16
HETATM   16  O7  UNL     1       7.372  29.251  28.666  1.00  0.00    -0.387 OA
ATOM     17  H7  UNL     1       6.856  28.578  28.239  1.00  0.00     0.210 HD
ENDBRANCH   2  16
ENDBRANCH   1   2
BRANCH   1  18
HETATM   18  C9  UNL     1       8.451  29.167  25.840  1.00  0.00     0.303 C 
BRANCH  18  19
HETATM   19  O8  UNL     1       7.376  30.067  25.708  1.00  0.00    -0.265 OA
BRANCH  19  20
HETATM   20  C10 UNL     1       6.093  29.836  25.375  1.00  0.00     0.410 C 
HETATM   21  O9  UNL     1       5.848  28.714  24.935  1.00  0.00    -0.229 OA
BRANCH  20  22
HETATM   22  O10 UNL     1       5.052  30.753  25.490  1.00  0.00    -0.265 OA
BRANCH  22  23
HETATM   23  C11 UNL     1       4.153  30.593  26.568  1.00  0.00     0.326 C 
HETATM   24  C12 UNL     1       3.817  32.004  27.040  1.00  0.00     0.071 C 
BRANCH  23  25
HETATM   25  N2  UNL     1       4.841  29.929  27.679  1.00  0.00    -0.053 N 
ATOM     26  H23 UNL     1       5.619  29.352  27.362  1.00  0.00     0.277 HD
ATOM     27  H22 UNL     1       5.373  30.585  28.252  1.00  0.00     0.277 HD
ATOM     28  H21 UNL     1       4.164  29.399  28.227  1.00  0.00     0.277 HD
ENDBRANCH  23  25
ENDBRANCH  22  23
ENDBRANCH  20  22
ENDBRANCH  19  20
ENDBRANCH  18  19
BRANCH  18  29
HETATM   29  N3  UNL     1       9.180  28.986  24.642  1.00  0.00    -0.255 N 
HETATM   30  C13 UNL     1       9.660  30.152  23.922  1.00  0.00     0.184 C 
HETATM   31  C14 UNL     1      11.041  30.034  23.389  1.00  0.00     0.240 A 
HETATM   32  N4  UNL     1      11.627  28.712  23.451  1.00  0.00    -0.057 N 
HETATM   33  C15 UNL     1      11.330  29.381  22.188  1.00  0.00     0.267 A 
ATOM     34  H42 UNL     1      12.444  28.285  23.889  1.00  0.00     0.278 HD
ATOM     35  H41 UNL     1      11.396  27.820  23.888  1.00  0.00     0.278 HD
HETATM   36  C16 UNL     1      10.303  28.807  21.293  1.00  0.00     0.267 C 
HETATM   37  N5  UNL     1       9.993  27.469  21.804  1.00  0.00    -0.194 N 
HETATM   38  C17 UNL     1       9.671  26.974  23.102  1.00  0.00     0.717 A 
ATOM     39  H5  UNL     1      10.012  26.745  21.086  1.00  0.00     0.180 HD
HETATM   40  N6  UNL     1       9.666  25.649  23.325  1.00  0.00    -0.183 N 
HETATM   41  N8  UNL     1       9.342  27.651  24.249  1.00  0.00    -0.019 N 
HETATM   42  C18 UNL     1       9.333  25.487  24.617  1.00  0.00     0.217 A 
ATOM     43  H6  UNL     1       9.874  24.913  22.650  1.00  0.00     0.185 HD
HETATM   44  N7  UNL     1       9.150  26.694  25.128  1.00  0.00    -0.260 N 
ATOM     45  H7  UNL     1       8.888  26.862  26.099  1.00  0.00     0.190 HD
BRANCH  36  46
HETATM   46  O11 UNL     1      10.754  28.613  19.984  1.00  0.00    -0.374 OA
ATOM     47  H11 UNL     1      10.222  29.054  19.333  1.00  0.00     0.212 HD
ENDBRANCH  36  46
ENDBRANCH  18  29
ENDBRANCH   1  18
BRANCH   1  48
HETATM   48  N9  UNL     1       9.696  30.767  27.160  1.00  0.00    -0.144 N 
HETATM   49  C19 UNL     1       9.064  31.939  27.304  1.00  0.00     0.709 A 
HETATM   50  N11 UNL     1       9.930  32.991  27.254  1.00  0.00    -0.187 N 
HETATM   51  C20 UNL     1      11.141  32.502  27.073  1.00  0.00     0.077 A 
ATOM     52  H11 UNL     1       9.685  33.977  27.342  1.00  0.00     0.184 HD
HETATM   53  C21 UNL     1      12.369  33.121  26.948  1.00  0.00     0.032 A 
HETATM   54  C25 UNL     1      11.010  31.164  27.014  1.00  0.00     0.084 A 
HETATM   55  C22 UNL     1      13.502  32.382  26.758  1.00  0.00     0.002 A 
HETATM   56  C23 UNL     1      13.394  31.017  26.694  1.00  0.00     0.002 A 
HETATM   57  C24 UNL     1      12.158  30.417  26.822  1.00  0.00     0.033 A 
BRANCH  49  58
HETATM   58  N10 UNL     1       7.828  32.161  27.450  1.00  0.00    -0.098 N 
ATOM     59  H10 UNL     1       7.330  32.505  26.629  1.00  0.00     0.213 HD
BRANCH  58  60
HETATM   60  O12 UNL     1       7.089  31.992  28.577  1.00  0.00    -0.276 OA
ATOM     61  H12 UNL     1       7.137  31.271  29.194  1.00  0.00     0.245 HD
ENDBRANCH  58  60
ENDBRANCH  49  58
ENDBRANCH   1  48
TORSDOF 22
ENDMDL
MODEL 3
REMARK VINA RESULT: -7.492909188      1.024      1.310
REMARK  22 active torsions:
REMARK  status: ('A' for Active; 'I' for Inactive)
REMARK    1  A    between atoms: O1_2  and  C2_3 
REMARK    2  A    between atoms: C2_3  and  O3_5 
REMARK    3  A    between atoms: O3_5  and  C3_6 
REMARK    4  A    between atoms: C3_6  and  O4_7 
REMARK    5  A    between atoms: O4_7  and  C4_8 
REMARK    6  A    between atoms: C4_8  and  C5_9 
REMARK    7  A    between atoms: C4_8  and  C7_14 
REMARK    8  A    between atoms: C5_9  and  O5_10 
REMARK    9  A    between atoms: O5_10  and  C6_11 
REMARK   10  A    between atoms: C7_14  and  O7_15 
REMARK   11  A    between atoms: C7_14  and  C8_17 
REMARK   12  A    between atoms: C8_17  and  C9_18 
REMARK   13  A    between atoms: C8_17  and  N9_48 
REMARK   14  A    between atoms: C9_18  and  O8_19 
REMARK   15  A    between atoms: C9_18  and  N3_29 
REMARK   16  A    between atoms: O8_19  and  C10_20 
REMARK   17  A    between atoms: C10_20  and  O10_22 
REMARK   18  A    between atoms: O10_22  and  C11_23 
REMARK   19  A    between atoms: C11_23  and  N2_25 
REMARK   20  A    between atoms: C16_36  and  O11_37 
REMARK   21  A    between atoms: C19_49  and  N10_50 
REMARK   22  A    between atoms: N10_50  and  O12_52 
ROOT
HETATM    1  C8  UNL     1       9.713  29.558  27.430  1.00  0.00     0.094 C 
ENDROOT
BRANCH   1   2
HETATM    2  C7  UNL     1       9.187  28.877  28.602  1.00  0.00     0.200 C 
BRANCH   2   3
HETATM    3  C4  UNL     1       9.950  29.171  29.914  1.00  0.00     0.183 C 
BRANCH   3   4
HETATM    4  O4  UNL     1       9.054  29.719  30.838  1.00  0.00    -0.356 OA
BRANCH   4   5
HETATM    5  C3  UNL     1       9.772  29.988  32.018  1.00  0.00     0.350 C 
BRANCH   5   6
HETATM    6  O3  UNL     1       9.034  30.594  33.028  1.00  0.00    -0.272 OA
BRANCH   6   7
HETATM    7  C2  UNL     1       8.665  31.903  33.109  1.00  0.00     0.408 C 
HETATM    8  O2  UNL     1       7.653  32.289  32.506  1.00  0.00    -0.229 OA
BRANCH   7   9
HETATM    9  O1  UNL     1       9.402  32.839  33.866  1.00  0.00    -0.303 OA
HETATM   10  C1  UNL     1       9.240  34.232  33.636  1.00  0.00     0.215 C 
ENDBRANCH   7   9
ENDBRANCH   6   7
ENDBRANCH   5   6
ENDBRANCH   4   5
ENDBRANCH   3   4
BRANCH   3  11
HETATM   11  C5  UNL     1      10.568  27.959  30.488  1.00  0.00     0.215 C 
BRANCH  11  12
HETATM   12  O5  UNL     1       9.927  26.762  30.471  1.00  0.00    -0.304 OA
BRANCH  12  13
HETATM   13  C6  UNL     1       9.042  26.199  31.306  1.00  0.00     0.372 C 
HETATM   14  N1  UNL     1       9.036  26.484  32.716  1.00  0.00    -0.032 NA
HETATM   15  O6  UNL     1       8.188  25.400  30.864  1.00  0.00    -0.242 OA
ENDBRANCH  12  13
ENDBRANCH  11  12
ENDBRANCH   3  11
ENDBRANCH   2   3
BRANCH   2  16
HETATM   16  O7  UNL     1       7.881  29.309  28.978  1.00  0.00    -0.387 OA
ATOM     17  H7  UNL     1       7.402  29.083  28.189  1.00  0.00     0.210 HD
ENDBRANCH   2  16
ENDBRANCH   1   2
BRANCH   1  18
HETATM   18  C9  UNL     1       8.874  29.500  26.169  1.00  0.00     0.303 C 
BRANCH  18  19
HETATM   19  O8  UNL     1       7.969  30.577  26.100  1.00  0.00    -0.265 OA
BRANCH  19  20
HETATM   20  C10 UNL     1       6.627  30.585  26.195  1.00  0.00     0.410 C 
HETATM   21  O9  UNL     1       6.164  31.137  27.192  1.00  0.00    -0.229 OA
BRANCH  20  22
HETATM   22  O10 UNL     1       5.749  30.030  25.269  1.00  0.00    -0.265 OA
BRANCH  22  23
HETATM   23  C11 UNL     1       5.175  28.776  25.577  1.00  0.00     0.326 C 
HETATM   24  C12 UNL     1       3.688  29.039  25.783  1.00  0.00     0.071 C 
BRANCH  23  25
HETATM   25  N2  UNL     1       5.702  28.305  26.862  1.00  0.00    -0.053 N 
ATOM     26  H23 UNL     1       4.961  28.027  27.505  1.00  0.00     0.277 HD
ATOM     27  H22 UNL     1       6.169  27.402  26.780  1.00  0.00     0.277 HD
ATOM     28  H21 UNL     1       6.311  29.020  27.260  1.00  0.00     0.277 HD
ENDBRANCH  23  25
ENDBRANCH  22  23
ENDBRANCH  20  22
ENDBRANCH  19  20
ENDBRANCH  18  19
BRANCH  18  29
HETATM   29  N3  UNL     1       9.521  29.234  24.940  1.00  0.00    -0.255 N 
HETATM   30  C13 UNL     1      10.020  30.344  24.147  1.00  0.00     0.184 C 
HETATM   31  C14 UNL     1      11.359  30.130  23.543  1.00  0.00     0.240 A 
HETATM   32  N4  UNL     1      11.878  28.781  23.627  1.00  0.00    -0.057 N 
HETATM   33  C15 UNL     1      11.544  29.416  22.356  1.00  0.00     0.267 A 
ATOM     34  H42 UNL     1      12.695  28.327  24.036  1.00  0.00     0.278 HD
ATOM     35  H41 UNL     1      11.626  27.920  24.113  1.00  0.00     0.278 HD
HETATM   36  C16 UNL     1      10.438  28.865  21.544  1.00  0.00     0.267 C 
HETATM   37  N5  UNL     1      10.088  27.567  22.127  1.00  0.00    -0.194 N 
HETATM   38  C17 UNL     1       9.817  27.140  23.460  1.00  0.00     0.717 A 
ATOM     39  H5  UNL     1      10.027  26.816  21.439  1.00  0.00     0.180 HD
HETATM   40  N6  UNL     1       9.755  25.827  23.738  1.00  0.00    -0.183 N 
HETATM   41  N8  UNL     1       9.590  27.878  24.595  1.00  0.00    -0.019 N 
HETATM   42  C18 UNL     1       9.489  25.733  25.052  1.00  0.00     0.217 A 
ATOM     43  H6  UNL     1       9.884  25.056  23.083  1.00  0.00     0.185 HD
HETATM   44  N7  UNL     1       9.400  26.967  25.522  1.00  0.00    -0.260 N 
ATOM     45  H7  UNL     1       9.203  27.187  26.499  1.00  0.00     0.190 HD
BRANCH  36  46
HETATM   46  O11 UNL     1      10.801  28.597  20.221  1.00  0.00    -0.374 OA
ATOM     47  H11 UNL     1      11.225  27.754  20.110  1.00  0.00     0.212 HD
ENDBRANCH  36  46
ENDBRANCH  18  29
ENDBRANCH   1  18
BRANCH   1  48
HETATM   48  N9  UNL     1      10.286  30.877  27.569  1.00  0.00    -0.144 N 
HETATM   49  C19 UNL     1       9.763  32.053  27.939  1.00  0.00     0.709 A 
HETATM   50  N11 UNL     1      10.690  33.053  27.905  1.00  0.00    -0.187 N 
HETATM   51  C20 UNL     1      11.830  32.526  27.507  1.00  0.00     0.077 A 
ATOM     52  H11 UNL     1      10.529  34.031  28.146  1.00  0.00     0.184 HD
HETATM   53  C21 UNL     1      13.075  33.087  27.297  1.00  0.00     0.032 A 
HETATM   54  C25 UNL     1      11.597  31.216  27.301  1.00  0.00     0.084 A 
HETATM   55  C22 UNL     1      14.119  32.318  26.870  1.00  0.00     0.002 A 
HETATM   56  C23 UNL     1      13.906  30.981  26.653  1.00  0.00     0.002 A 
HETATM   57  C24 UNL     1      12.656  30.439  26.868  1.00  0.00     0.033 A 
BRANCH  49  58
HETATM   58  N10 UNL     1       8.574  32.322  28.274  1.00  0.00    -0.098 N 
ATOM     59  H10 UNL     1       7.981  32.730  27.551  1.00  0.00     0.213 HD
BRANCH  58  60
HETATM   60  O12 UNL     1       7.997  32.128  29.488  1.00  0.00    -0.276 OA
ATOM     61  H12 UNL     1       7.918  31.309  29.964  1.00  0.00     0.245 HD
ENDBRANCH  58  60
ENDBRANCH  49  58
ENDBRANCH   1  48
TORSDOF 22
ENDMDL
MODEL 4
REMARK VINA RESULT: -7.434001094      2.769      7.864
REMARK  22 active torsions:
REMARK  status: ('A' for Active; 'I' for Inactive)
REMARK    1  A    between atoms: O1_2  and  C2_3 
REMARK    2  A    between atoms: C2_3  and  O3_5 
REMARK    3  A    between atoms: O3_5  and  C3_6 
REMARK    4  A    between atoms: C3_6  and  O4_7 
REMARK    5  A    between atoms: O4_7  and  C4_8 
REMARK    6  A    between atoms: C4_8  and  C5_9 
REMARK    7  A    between atoms: C4_8  and  C7_14 
REMARK    8  A    between atoms: C5_9  and  O5_10 
REMARK    9  A    between atoms: O5_10  and  C6_11 
REMARK   10  A    between atoms: C7_14  and  O7_15 
REMARK   11  A    between atoms: C7_14  and  C8_17 
REMARK   12  A    between atoms: C8_17  and  C9_18 
REMARK   13  A    between atoms: C8_17  and  N9_48 
REMARK   14  A    between atoms: C9_18  and  O8_19 
REMARK   15  A    between atoms: C9_18  and  N3_29 
REMARK   16  A    between atoms: O8_19  and  C10_20 
REMARK   17  A    between atoms: C10_20  and  O10_22 
REMARK   18  A    between atoms: O10_22  and  C11_23 
REMARK   19  A    between atoms: C11_23  and  N2_25 
REMARK   20  A    between atoms: C16_36  and  O11_37 
REMARK   21  A    between atoms: C19_49  and  N10_50 
REMARK   22  A    between atoms: N10_50  and  O12_52 
ROOT
HETATM    1  C8  UNL     1       8.207  29.810  25.467  1.00  0.00     0.094 C 
ENDROOT
BRANCH   1   2
HETATM    2  C7  UNL     1       7.808  29.250  24.187  1.00  0.00     0.200 C 
BRANCH   2   3
HETATM    3  C4  UNL     1       8.865  29.388  23.066  1.00  0.00     0.183 C 
BRANCH   3   4
HETATM    4  O4  UNL     1       9.159  28.113  22.571  1.00  0.00    -0.356 OA
BRANCH   4   5
HETATM    5  C3  UNL     1      10.012  28.273  21.464  1.00  0.00     0.350 C 
BRANCH   5   6
HETATM    6  O3  UNL     1      11.350  27.988  21.709  1.00  0.00    -0.272 OA
BRANCH   6   7
HETATM    7  C2  UNL     1      11.858  27.178  22.680  1.00  0.00     0.408 C 
HETATM    8  O2  UNL     1      12.204  27.671  23.764  1.00  0.00    -0.229 OA
BRANCH   7   9
HETATM    9  O1  UNL     1      12.002  25.787  22.491  1.00  0.00    -0.303 OA
HETATM   10  C1  UNL     1      10.856  24.968  22.309  1.00  0.00     0.215 C 
ENDBRANCH   7   9
ENDBRANCH   6   7
ENDBRANCH   5   6
ENDBRANCH   4   5
ENDBRANCH   3   4
BRANCH   3  11
HETATM   11  C5  UNL     1       8.401  30.249  21.959  1.00  0.00     0.215 C 
BRANCH  11  12
HETATM   12  O5  UNL     1       7.216  30.025  21.337  1.00  0.00    -0.304 OA
BRANCH  12  13
HETATM   13  C6  UNL     1       6.869  29.978  20.043  1.00  0.00     0.372 C 
HETATM   14  N1  UNL     1       7.509  30.802  19.052  1.00  0.00    -0.032 NA
HETATM   15  O6  UNL     1       5.966  29.200  19.666  1.00  0.00    -0.242 OA
ENDBRANCH  12  13
ENDBRANCH  11  12
ENDBRANCH   3  11
ENDBRANCH   2   3
BRANCH   2  16
HETATM   16  O7  UNL     1       7.655  27.832  24.204  1.00  0.00    -0.387 OA
ATOM     17  H7  UNL     1       7.343  27.713  25.093  1.00  0.00     0.210 HD
ENDBRANCH   2  16
ENDBRANCH   1   2
BRANCH   1  18
HETATM   18  C9  UNL     1       7.367  29.435  26.671  1.00  0.00     0.303 C 
BRANCH  18  19
HETATM   19  O8  UNL     1       7.610  28.110  27.079  1.00  0.00    -0.265 OA
BRANCH  19  20
HETATM   20  C10 UNL     1       6.746  27.147  27.450  1.00  0.00     0.410 C 
HETATM   21  O9  UNL     1       6.717  26.148  26.732  1.00  0.00    -0.229 OA
BRANCH  20  22
HETATM   22  O10 UNL     1       5.906  27.199  28.559  1.00  0.00    -0.265 OA
BRANCH  22  23
HETATM   23  C11 UNL     1       4.559  27.570  28.346  1.00  0.00     0.326 C 
HETATM   24  C12 UNL     1       3.729  26.348  28.722  1.00  0.00     0.071 C 
BRANCH  23  25
HETATM   25  N2  UNL     1       4.341  27.804  26.915  1.00  0.00    -0.053 N 
ATOM     26  H23 UNL     1       3.732  28.603  26.743  1.00  0.00     0.277 HD
ATOM     27  H22 UNL     1       5.177  28.157  26.449  1.00  0.00     0.277 HD
ATOM     28  H21 UNL     1       3.990  26.950  26.482  1.00  0.00     0.277 HD
ENDBRANCH  23  25
ENDBRANCH  22  23
ENDBRANCH  20  22
ENDBRANCH  19  20
ENDBRANCH  18  19
BRANCH  18  29
HETATM   29  N3  UNL     1       7.290  30.346  27.751  1.00  0.00    -0.255 N 
HETATM   30  C13 UNL     1       8.399  30.434  28.684  1.00  0.00     0.184 C 
HETATM   31  C14 UNL     1       8.768  31.814  29.089  1.00  0.00     0.240 A 
HETATM   32  N4  UNL     1       7.842  32.854  28.693  1.00  0.00    -0.057 N 
HETATM   33  C15 UNL     1       8.087  32.512  30.091  1.00  0.00     0.267 A 
ATOM     34  H42 UNL     1       7.878  33.697  28.120  1.00  0.00     0.278 HD
ATOM     35  H41 UNL     1       7.030  32.928  28.081  1.00  0.00     0.278 HD
HETATM   36  C16 UNL     1       6.988  31.936  30.895  1.00  0.00     0.267 C 
HETATM   37  N5  UNL     1       5.759  32.102  30.115  1.00  0.00    -0.194 N 
HETATM   38  C17 UNL     1       5.419  31.809  28.761  1.00  0.00     0.717 A 
ATOM     39  H5  UNL     1       4.991  32.508  30.648  1.00  0.00     0.180 HD
HETATM   40  N6  UNL     1       4.275  32.289  28.245  1.00  0.00    -0.183 N 
HETATM   41  N8  UNL     1       6.095  31.074  27.820  1.00  0.00    -0.019 N 
HETATM   42  C18 UNL     1       4.227  31.857  26.973  1.00  0.00     0.217 A 
ATOM     43  H6  UNL     1       3.582  32.866  28.722  1.00  0.00     0.185 HD
HETATM   44  N7  UNL     1       5.321  31.143  26.761  1.00  0.00    -0.260 N 
ATOM     45  H7  UNL     1       5.539  30.694  25.871  1.00  0.00     0.190 HD
BRANCH  36  46
HETATM   46  O11 UNL     1       6.765  32.617  32.096  1.00  0.00    -0.374 OA
ATOM     47  H11 UNL     1       5.958  32.364  32.528  1.00  0.00     0.212 HD
ENDBRANCH  36  46
ENDBRANCH  18  29
ENDBRANCH   1  18
BRANCH   1  48
HETATM   48  N9  UNL     1       9.603  29.822  25.836  1.00  0.00    -0.144 N 
HETATM   49  C19 UNL     1      10.455  28.846  26.176  1.00  0.00     0.709 A 
HETATM   50  N11 UNL     1      11.694  29.333  26.470  1.00  0.00    -0.187 N 
HETATM   51  C20 UNL     1      11.652  30.643  26.324  1.00  0.00     0.077 A 
ATOM     52  H11 UNL     1      12.506  28.783  26.752  1.00  0.00     0.184 HD
HETATM   53  C21 UNL     1      12.618  31.615  26.498  1.00  0.00     0.032 A 
HETATM   54  C25 UNL     1      10.397  30.946  25.944  1.00  0.00     0.084 A 
HETATM   55  C22 UNL     1      12.322  32.931  26.285  1.00  0.00     0.002 A 
HETATM   56  C23 UNL     1      11.051  33.266  25.898  1.00  0.00     0.002 A 
HETATM   57  C24 UNL     1      10.101  32.280  25.729  1.00  0.00     0.033 A 
BRANCH  49  58
HETATM   58  N10 UNL     1      10.240  27.603  26.267  1.00  0.00    -0.098 N 
ATOM     59  H10 UNL     1      10.329  27.196  27.198  1.00  0.00     0.213 HD
BRANCH  58  60
HETATM   60  O12 UNL     1       9.904  26.750  25.265  1.00  0.00    -0.276 OA
ATOM     61  H12 UNL     1       9.651  25.838  25.347  1.00  0.00     0.245 HD
ENDBRANCH  58  60
ENDBRANCH  49  58
ENDBRANCH   1  48
TORSDOF 22
ENDMDL
MODEL 5
REMARK VINA RESULT: -7.301677341      1.090      1.408
REMARK  22 active torsions:
REMARK  status: ('A' for Active; 'I' for Inactive)
REMARK    1  A    between atoms: O1_2  and  C2_3 
REMARK    2  A    between atoms: C2_3  and  O3_5 
REMARK    3  A    between atoms: O3_5  and  C3_6 
REMARK    4  A    between atoms: C3_6  and  O4_7 
REMARK    5  A    between atoms: O4_7  and  C4_8 
REMARK    6  A    between atoms: C4_8  and  C5_9 
REMARK    7  A    between atoms: C4_8  and  C7_14 
REMARK    8  A    between atoms: C5_9  and  O5_10 
REMARK    9  A    between atoms: O5_10  and  C6_11 
REMARK   10  A    between atoms: C7_14  and  O7_15 
REMARK   11  A    between atoms: C7_14  and  C8_17 
REMARK   12  A    between atoms: C8_17  and  C9_18 
REMARK   13  A    between atoms: C8_17  and  N9_48 
REMARK   14  A    between atoms: C9_18  and  O8_19 
REMARK   15  A    between atoms: C9_18  and  N3_29 
REMARK   16  A    between atoms: O8_19  and  C10_20 
REMARK   17  A    between atoms: C10_20  and  O10_22 
REMARK   18  A    between atoms: O10_22  and  C11_23 
REMARK   19  A    between atoms: C11_23  and  N2_25 
REMARK   20  A    between atoms: C16_36  and  O11_37 
REMARK   21  A    between atoms: C19_49  and  N10_50 
REMARK   22  A    between atoms: N10_50  and  O12_52 
ROOT
HETATM    1  C8  UNL     1       9.782  29.392  27.358  1.00  0.00     0.094 C 
ENDROOT
BRANCH   1   2
HETATM    2  C7  UNL     1       9.323  28.749  28.578  1.00  0.00     0.200 C 
BRANCH   2   3
HETATM    3  C4  UNL     1       9.990  29.271  29.871  1.00  0.00     0.183 C 
BRANCH   3   4
HETATM    4  O4  UNL     1       9.014  29.892  30.658  1.00  0.00    -0.356 OA
BRANCH   4   5
HETATM    5  C3  UNL     1       9.599  31.030  31.244  1.00  0.00     0.350 C 
BRANCH   5   6
HETATM    6  O3  UNL     1       8.900  32.214  31.050  1.00  0.00    -0.272 OA
BRANCH   6   7
HETATM    7  C2  UNL     1       7.565  32.424  31.226  1.00  0.00     0.408 C 
HETATM    8  O2  UNL     1       7.138  32.715  32.353  1.00  0.00    -0.229 OA
BRANCH   7   9
HETATM    9  O1  UNL     1       6.648  32.321  30.158  1.00  0.00    -0.303 OA
HETATM   10  C1  UNL     1       5.604  31.358  30.202  1.00  0.00     0.215 C 
ENDBRANCH   7   9
ENDBRANCH   6   7
ENDBRANCH   5   6
ENDBRANCH   4   5
ENDBRANCH   3   4
BRANCH   3  11
HETATM   11  C5  UNL     1      10.633  28.192  30.648  1.00  0.00     0.215 C 
BRANCH  11  12
HETATM   12  O5  UNL     1       9.932  27.105  31.061  1.00  0.00    -0.304 OA
BRANCH  12  13
HETATM   13  C6  UNL     1       9.425  26.756  32.252  1.00  0.00     0.372 C 
HETATM   14  N1  UNL     1       9.259  25.380  32.638  1.00  0.00    -0.032 NA
HETATM   15  O6  UNL     1       9.080  27.640  33.067  1.00  0.00    -0.242 OA
ENDBRANCH  12  13
ENDBRANCH  11  12
ENDBRANCH   3  11
ENDBRANCH   2   3
BRANCH   2  16
HETATM   16  O7  UNL     1       7.956  29.014  28.886  1.00  0.00    -0.387 OA
ATOM     17  H7  UNL     1       7.904  29.926  28.625  1.00  0.00     0.210 HD
ENDBRANCH   2  16
ENDBRANCH   1   2
BRANCH   1  18
HETATM   18  C9  UNL     1       8.949  29.172  26.111  1.00  0.00     0.303 C 
BRANCH  18  19
HETATM   19  O8  UNL     1       7.869  30.072  26.045  1.00  0.00    -0.265 OA
BRANCH  19  20
HETATM   20  C10 UNL     1       6.564  29.841  25.808  1.00  0.00     0.410 C 
HETATM   21  O9  UNL     1       6.232  29.819  24.624  1.00  0.00    -0.229 OA
BRANCH  20  22
HETATM   22  O10 UNL     1       5.592  29.629  26.780  1.00  0.00    -0.265 OA
BRANCH  22  23
HETATM   23  C11 UNL     1       5.078  28.320  26.921  1.00  0.00     0.326 C 
HETATM   24  C12 UNL     1       4.596  28.215  28.363  1.00  0.00     0.071 C 
BRANCH  23  25
HETATM   25  N2  UNL     1       6.169  27.352  26.769  1.00  0.00    -0.053 N 
ATOM     26  H23 UNL     1       5.893  26.412  27.052  1.00  0.00     0.277 HD
ATOM     27  H22 UNL     1       6.376  27.154  25.791  1.00  0.00     0.277 HD
ATOM     28  H21 UNL     1       6.988  27.684  27.278  1.00  0.00     0.277 HD
ENDBRANCH  23  25
ENDBRANCH  22  23
ENDBRANCH  20  22
ENDBRANCH  19  20
ENDBRANCH  18  19
BRANCH  18  29
HETATM   29  N3  UNL     1       9.616  29.007  24.875  1.00  0.00    -0.255 N 
HETATM   30  C13 UNL     1      10.057  30.183  24.145  1.00  0.00     0.184 C 
HETATM   31  C14 UNL     1      11.409  30.075  23.541  1.00  0.00     0.240 A 
HETATM   32  N4  UNL     1      12.001  28.753  23.559  1.00  0.00    -0.057 N 
HETATM   33  C15 UNL     1      11.639  29.436  22.320  1.00  0.00     0.267 A 
ATOM     34  H42 UNL     1      12.839  28.323  23.949  1.00  0.00     0.278 HD
ATOM     35  H41 UNL     1      11.794  27.856  23.996  1.00  0.00     0.278 HD
HETATM   36  C16 UNL     1      10.568  28.870  21.471  1.00  0.00     0.267 C 
HETATM   37  N5  UNL     1      10.288  27.525  21.982  1.00  0.00    -0.194 N 
HETATM   38  C17 UNL     1      10.033  27.014  23.289  1.00  0.00     0.717 A 
ATOM     39  H5  UNL     1      10.271  26.810  21.255  1.00  0.00     0.180 HD
HETATM   40  N6  UNL     1      10.042  25.687  23.496  1.00  0.00    -0.183 N 
HETATM   41  N8  UNL     1       9.761  27.677  24.459  1.00  0.00    -0.019 N 
HETATM   42  C18 UNL     1       9.775  25.509  24.801  1.00  0.00     0.217 A 
ATOM     43  H6  UNL     1      10.217  24.960  22.803  1.00  0.00     0.185 HD
HETATM   44  N7  UNL     1       9.616  26.709  25.335  1.00  0.00    -0.260 N 
ATOM     45  H7  UNL     1       9.403  26.866  26.320  1.00  0.00     0.190 HD
BRANCH  36  46
HETATM   46  O11 UNL     1      10.952  28.693  20.139  1.00  0.00    -0.374 OA
ATOM     47  H11 UNL     1      11.809  28.293  20.044  1.00  0.00     0.212 HD
ENDBRANCH  36  46
ENDBRANCH  18  29
ENDBRANCH   1  18
BRANCH   1  48
HETATM   48  N9  UNL     1      10.234  30.764  27.401  1.00  0.00    -0.144 N 
HETATM   49  C19 UNL     1       9.595  31.917  27.638  1.00  0.00     0.709 A 
HETATM   50  N11 UNL     1      10.435  32.988  27.555  1.00  0.00    -0.187 N 
HETATM   51  C20 UNL     1      11.635  32.531  27.257  1.00  0.00     0.077 A 
ATOM     52  H11 UNL     1      10.179  33.965  27.697  1.00  0.00     0.184 HD
HETATM   53  C21 UNL     1      12.837  33.181  27.052  1.00  0.00     0.032 A 
HETATM   54  C25 UNL     1      11.523  31.193  27.161  1.00  0.00     0.084 A 
HETATM   55  C22 UNL     1      13.963  32.473  26.743  1.00  0.00     0.002 A 
HETATM   56  C23 UNL     1      13.875  31.108  26.640  1.00  0.00     0.002 A 
HETATM   57  C24 UNL     1      12.666  30.478  26.848  1.00  0.00     0.033 A 
BRANCH  49  58
HETATM   58  N10 UNL     1       8.371  32.107  27.894  1.00  0.00    -0.098 N 
ATOM     59  H10 UNL     1       8.022  31.702  28.763  1.00  0.00     0.213 HD
BRANCH  58  60
HETATM   60  O12 UNL     1       7.470  32.791  27.143  1.00  0.00    -0.276 OA
ATOM     61  H12 UNL     1       6.523  32.742  27.194  1.00  0.00     0.245 HD
ENDBRANCH  58  60
ENDBRANCH  49  58
ENDBRANCH   1  48
TORSDOF 22
ENDMDL
