MODEL 1
REMARK VINA RESULT: -7.670693384      0.000      0.000
REMARK  9 active torsions:
REMARK  status: ('A' for Active; 'I' for Inactive)
REMARK    1  A    between atoms: C2_2  and  O1_3 
REMARK    2  A    between atoms: O1_3  and  C3_4 
REMARK    3  A    between atoms: C3_4  and  O2_5 
REMARK    4  A    between atoms: C3_4  and  C4_7 
REMARK    5  A    between atoms: C5_9  and  C6_10 
REMARK       I    between atoms: C6_10  and  N1_12 
REMARK    6  A    between atoms: N1_12  and  C7_14 
REMARK    7  A    between atoms: C8_23  and  C9_24 
REMARK    8  A    between atoms: C9_24  and  N7_27 
REMARK    9  A    between atoms: N7_27  and  N8_28 
ROOT
HETATM    1  C9  UNL     1     -10.211  41.238  33.299  1.00  0.00     0.242 C 
HETATM    2  C10 UNL     1     -10.780  41.252  31.926  1.00  0.00     0.087 C 
HETATM    3  N6  UNL     1     -11.210  41.266  30.853  1.00  0.00    -0.195 NA
ENDROOT
BRANCH   1   4
HETATM    4  C8  UNL     1     -10.723  40.109  34.067  1.00  0.00     0.033 A 
HETATM    5  C5  UNL     1     -10.451  38.772  33.909  1.00  0.00     0.154 A 
HETATM    6  O3  UNL     1     -11.131  38.117  34.859  1.00  0.00    -0.303 OA
HETATM    7  C4  UNL     1     -11.812  38.948  35.605  1.00  0.00     0.123 A 
HETATM    8  C11 UNL     1     -11.595  40.229  35.155  1.00  0.00     0.057 A 
HETATM    9  C12 UNL     1     -12.113  41.461  35.677  1.00  0.00     0.150 A 
HETATM   10  N9  UNL     1     -13.298  42.018  35.379  1.00  0.00    -0.268 N 
HETATM   11  N12 UNL     1     -11.531  42.320  36.564  1.00  0.00    -0.268 N 
HETATM   12  N10 UNL     1     -13.402  43.145  36.057  1.00  0.00    -0.227 N 
ATOM     13  H9  UNL     1     -13.996  41.637  34.740  1.00  0.00     0.190 HD
HETATM   14  N11 UNL     1     -12.325  43.344  36.789  1.00  0.00    -0.227 N 
ATOM     15  H10 UNL     1     -14.204  43.775  36.020  1.00  0.00     0.210 HD
ATOM     16  H11 UNL     1     -12.142  44.135  37.407  1.00  0.00     0.210 HD
ATOM     17  H12 UNL     1     -10.614  42.187  36.989  1.00  0.00     0.190 HD
BRANCH   5  18
HETATM   18  C6  UNL     1      -9.596  38.132  32.917  1.00  0.00     0.294 C 
HETATM   19  O4  UNL     1      -9.854  38.032  31.706  1.00  0.00    -0.265 OA
HETATM   20  N1  UNL     1      -8.356  37.563  33.335  1.00  0.00    -0.151 N 
ATOM     21  H1  UNL     1      -8.349  36.821  34.034  1.00  0.00     0.188 HD
BRANCH  20  22
HETATM   22  C7  UNL     1      -7.264  37.975  32.841  1.00  0.00     0.716 A 
HETATM   23  N2  UNL     1      -6.475  38.971  33.304  1.00  0.00    -0.115 N 
HETATM   24  N3  UNL     1      -5.433  39.101  32.527  1.00  0.00    -0.213 N 
ATOM     25  H2  UNL     1      -6.665  39.535  34.133  1.00  0.00     0.207 HD
HETATM   26  N4  UNL     1      -5.559  38.186  31.567  1.00  0.00    -0.213 N 
ATOM     27  H3  UNL     1      -4.673  39.773  32.634  1.00  0.00     0.210 HD
HETATM   28  N5  UNL     1      -6.664  37.504  31.754  1.00  0.00    -0.115 N 
ATOM     29  H4  UNL     1      -4.897  38.039  30.805  1.00  0.00     0.210 HD
ATOM     30  H5  UNL     1      -7.003  36.743  31.166  1.00  0.00     0.207 HD
ENDBRANCH  20  22
ENDBRANCH   5  18
BRANCH   7  31
HETATM   31  C3  UNL     1     -12.667  38.504  36.748  1.00  0.00     0.316 C 
BRANCH  31  32
HETATM   32  O1  UNL     1     -12.678  37.119  36.818  1.00  0.00    -0.355 OA
BRANCH  32  33
HETATM   33  C2  UNL     1     -12.314  36.661  38.082  1.00  0.00     0.167 C 
HETATM   34  C1  UNL     1     -10.971  35.946  37.936  1.00  0.00     0.033 C 
ENDBRANCH  32  33
ENDBRANCH  31  32
BRANCH  31  35
HETATM   35  O2  UNL     1     -14.007  38.873  36.473  1.00  0.00    -0.365 OA
ATOM     36  H2  UNL     1     -14.505  38.591  37.231  1.00  0.00     0.213 HD
ENDBRANCH  31  35
ENDBRANCH   7  31
ENDBRANCH   1   4
BRANCH   1  37
HETATM   37  N7  UNL     1      -8.756  41.283  33.188  1.00  0.00    -0.124 NA
BRANCH  37  38
HETATM   38  N8  UNL     1      -8.181  41.489  34.463  1.00  0.00    -0.347 N 
ATOM     39  H82 UNL     1      -8.325  42.325  35.030  1.00  0.00     0.172 HD
ATOM     40  H81 UNL     1      -7.610  40.684  34.722  1.00  0.00     0.172 HD
ENDBRANCH  37  38
ENDBRANCH   1  37
TORSDOF 9
ENDMDL
MODEL 2
REMARK VINA RESULT: -7.614151899      1.921      2.558
REMARK  9 active torsions:
REMARK  status: ('A' for Active; 'I' for Inactive)
REMARK    1  A    between atoms: C2_2  and  O1_3 
REMARK    2  A    between atoms: O1_3  and  C3_4 
REMARK    3  A    between atoms: C3_4  and  O2_5 
REMARK    4  A    between atoms: C3_4  and  C4_7 
REMARK    5  A    between atoms: C5_9  and  C6_10 
REMARK       I    between atoms: C6_10  and  N1_12 
REMARK    6  A    between atoms: N1_12  and  C7_14 
REMARK    7  A    between atoms: C8_23  and  C9_24 
REMARK    8  A    between atoms: C9_24  and  N7_27 
REMARK    9  A    between atoms: N7_27  and  N8_28 
ROOT
HETATM    1  C9  UNL     1     -12.672  41.798  34.201  1.00  0.00     0.242 C 
HETATM    2  C10 UNL     1     -13.607  41.525  33.078  1.00  0.00     0.087 C 
HETATM    3  N6  UNL     1     -14.324  41.318  32.196  1.00  0.00    -0.195 NA
ENDROOT
BRANCH   1   4
HETATM    4  C8  UNL     1     -12.641  40.683  35.140  1.00  0.00     0.033 A 
HETATM    5  C5  UNL     1     -11.866  39.550  35.099  1.00  0.00     0.154 A 
HETATM    6  O3  UNL     1     -12.168  38.827  36.185  1.00  0.00    -0.303 OA
HETATM    7  C4  UNL     1     -13.079  39.425  36.908  1.00  0.00     0.123 A 
HETATM    8  C11 UNL     1     -13.421  40.610  36.299  1.00  0.00     0.057 A 
HETATM    9  C12 UNL     1     -14.357  41.604  36.740  1.00  0.00     0.150 A 
HETATM   10  N9  UNL     1     -15.682  41.606  36.518  1.00  0.00    -0.268 N 
HETATM   11  N12 UNL     1     -14.116  42.740  37.456  1.00  0.00    -0.268 N 
HETATM   12  N10 UNL     1     -16.188  42.689  37.077  1.00  0.00    -0.227 N 
ATOM     13  H9  UNL     1     -16.205  40.895  36.007  1.00  0.00     0.190 HD
HETATM   14  N11 UNL     1     -15.238  43.395  37.656  1.00  0.00    -0.227 N 
ATOM     15  H10 UNL     1     -17.175  42.944  37.062  1.00  0.00     0.210 HD
ATOM     16  H11 UNL     1     -15.351  44.275  38.160  1.00  0.00     0.210 HD
ATOM     17  H12 UNL     1     -13.199  43.037  37.788  1.00  0.00     0.190 HD
BRANCH   5  18
HETATM   18  C6  UNL     1     -10.887  39.157  34.093  1.00  0.00     0.294 C 
HETATM   19  O4  UNL     1     -11.126  38.996  32.885  1.00  0.00    -0.265 OA
HETATM   20  N1  UNL     1      -9.537  38.929  34.491  1.00  0.00    -0.151 N 
ATOM     21  H1  UNL     1      -9.328  38.212  35.186  1.00  0.00     0.188 HD
BRANCH  20  22
HETATM   22  C7  UNL     1      -8.595  39.612  33.987  1.00  0.00     0.716 A 
HETATM   23  N2  UNL     1      -7.471  39.150  33.393  1.00  0.00    -0.115 N 
HETATM   24  N3  UNL     1      -6.740  40.158  32.998  1.00  0.00    -0.213 N 
ATOM     25  H2  UNL     1      -7.231  38.166  33.272  1.00  0.00     0.207 HD
HETATM   26  N4  UNL     1      -7.400  41.263  33.341  1.00  0.00    -0.213 N 
ATOM     27  H3  UNL     1      -5.840  40.109  32.521  1.00  0.00     0.210 HD
HETATM   28  N5  UNL     1      -8.521  40.937  33.939  1.00  0.00    -0.115 N 
ATOM     29  H4  UNL     1      -7.082  42.216  33.166  1.00  0.00     0.210 HD
ATOM     30  H5  UNL     1      -9.216  41.588  34.304  1.00  0.00     0.207 HD
ENDBRANCH  20  22
ENDBRANCH   5  18
BRANCH   7  31
HETATM   31  C3  UNL     1     -13.614  38.853  38.181  1.00  0.00     0.316 C 
BRANCH  31  32
HETATM   32  O1  UNL     1     -12.619  38.141  38.833  1.00  0.00    -0.355 OA
BRANCH  32  33
HETATM   33  C2  UNL     1     -12.840  36.767  38.773  1.00  0.00     0.167 C 
HETATM   34  C1  UNL     1     -11.515  36.110  38.387  1.00  0.00     0.033 C 
ENDBRANCH  32  33
ENDBRANCH  31  32
BRANCH  31  35
HETATM   35  O2  UNL     1     -14.607  37.895  37.858  1.00  0.00    -0.365 OA
ATOM     36  H2  UNL     1     -15.263  37.974  38.540  1.00  0.00     0.213 HD
ENDBRANCH  31  35
ENDBRANCH   7  31
ENDBRANCH   1   4
BRANCH   1  37
HETATM   37  N7  UNL     1     -11.372  42.147  33.635  1.00  0.00    -0.124 NA
BRANCH  37  38
HETATM   38  N8  UNL     1     -11.445  42.145  32.223  1.00  0.00    -0.347 N 
ATOM     39  H82 UNL     1     -11.750  42.941  31.663  1.00  0.00     0.172 HD
ATOM     40  H81 UNL     1     -11.149  41.238  31.860  1.00  0.00     0.172 HD
ENDBRANCH  37  38
ENDBRANCH   1  37
TORSDOF 9
ENDMDL
MODEL 3
REMARK VINA RESULT: -7.549708850      0.958      1.601
REMARK  9 active torsions:
REMARK  status: ('A' for Active; 'I' for Inactive)
REMARK    1  A    between atoms: C2_2  and  O1_3 
REMARK    2  A    between atoms: O1_3  and  C3_4 
REMARK    3  A    between atoms: C3_4  and  O2_5 
REMARK    4  A    between atoms: C3_4  and  C4_7 
REMARK    5  A    between atoms: C5_9  and  C6_10 
REMARK       I    between atoms: C6_10  and  N1_12 
REMARK    6  A    between atoms: N1_12  and  C7_14 
REMARK    7  A    between atoms: C8_23  and  C9_24 
REMARK    8  A    between atoms: C9_24  and  N7_27 
REMARK    9  A    between atoms: N7_27  and  N8_28 
ROOT
HETATM    1  C9  UNL     1     -10.269  41.215  33.282  1.00  0.00     0.242 C 
HETATM    2  C10 UNL     1     -10.808  41.254  31.896  1.00  0.00     0.087 C 
HETATM    3  N6  UNL     1     -11.214  41.286  30.815  1.00  0.00    -0.195 NA
ENDROOT
BRANCH   1   4
HETATM    4  C8  UNL     1     -10.815  40.087  34.026  1.00  0.00     0.033 A 
HETATM    5  C5  UNL     1     -10.555  38.748  33.865  1.00  0.00     0.154 A 
HETATM    6  O3  UNL     1     -11.269  38.094  34.791  1.00  0.00    -0.303 OA
HETATM    7  C4  UNL     1     -11.962  38.928  35.523  1.00  0.00     0.123 A 
HETATM    8  C11 UNL     1     -11.717  40.210  35.089  1.00  0.00     0.057 A 
HETATM    9  C12 UNL     1     -12.235  41.444  35.606  1.00  0.00     0.150 A 
HETATM   10  N9  UNL     1     -13.404  42.017  35.279  1.00  0.00    -0.268 N 
HETATM   11  N12 UNL     1     -11.668  42.289  36.516  1.00  0.00    -0.268 N 
HETATM   12  N10 UNL     1     -13.514  43.140  35.963  1.00  0.00    -0.227 N 
ATOM     13  H9  UNL     1     -14.088  41.649  34.618  1.00  0.00     0.190 HD
HETATM   14  N11 UNL     1     -12.455  43.320  36.726  1.00  0.00    -0.227 N 
ATOM     15  H10 UNL     1     -14.307  43.780  35.908  1.00  0.00     0.210 HD
ATOM     16  H11 UNL     1     -12.281  44.104  37.355  1.00  0.00     0.210 HD
ATOM     17  H12 UNL     1     -10.765  42.141  36.966  1.00  0.00     0.190 HD
BRANCH   5  18
HETATM   18  C6  UNL     1      -9.680  38.105  32.893  1.00  0.00     0.294 C 
HETATM   19  O4  UNL     1      -9.916  37.996  31.678  1.00  0.00    -0.265 OA
HETATM   20  N1  UNL     1      -8.446  37.543  33.336  1.00  0.00    -0.151 N 
ATOM     21  H1  UNL     1      -8.449  36.805  34.040  1.00  0.00     0.188 HD
BRANCH  20  22
HETATM   22  C7  UNL     1      -7.346  37.955  32.860  1.00  0.00     0.716 A 
HETATM   23  N2  UNL     1      -6.547  38.928  33.357  1.00  0.00    -0.115 N 
HETATM   24  N3  UNL     1      -5.500  39.068  32.589  1.00  0.00    -0.213 N 
ATOM     25  H2  UNL     1      -6.735  39.468  34.202  1.00  0.00     0.207 HD
HETATM   26  N4  UNL     1      -5.632  38.184  31.602  1.00  0.00    -0.213 N 
ATOM     27  H3  UNL     1      -4.732  39.726  32.719  1.00  0.00     0.210 HD
HETATM   28  N5  UNL     1      -6.746  37.510  31.763  1.00  0.00    -0.115 N 
ATOM     29  H4  UNL     1      -4.969  38.051  30.838  1.00  0.00     0.210 HD
ATOM     30  H5  UNL     1      -7.092  36.771  31.150  1.00  0.00     0.207 HD
ENDBRANCH  20  22
ENDBRANCH   5  18
BRANCH   7  31
HETATM   31  C3  UNL     1     -12.855  38.485  36.638  1.00  0.00     0.316 C 
BRANCH  31  32
HETATM   32  O1  UNL     1     -14.097  39.089  36.514  1.00  0.00    -0.355 OA
BRANCH  32  33
HETATM   33  C2  UNL     1     -14.918  38.405  35.621  1.00  0.00     0.167 C 
HETATM   34  C1  UNL     1     -15.949  39.405  35.097  1.00  0.00     0.033 C 
ENDBRANCH  32  33
ENDBRANCH  31  32
BRANCH  31  35
HETATM   35  O2  UNL     1     -12.323  38.975  37.857  1.00  0.00    -0.365 OA
ATOM     36  H2  UNL     1     -12.961  38.741  38.520  1.00  0.00     0.213 HD
ENDBRANCH  31  35
ENDBRANCH   7  31
ENDBRANCH   1   4
BRANCH   1  37
HETATM   37  N7  UNL     1      -8.811  41.237  33.202  1.00  0.00    -0.124 NA
BRANCH  37  38
HETATM   38  N8  UNL     1      -8.262  41.500  34.478  1.00  0.00    -0.347 N 
ATOM     39  H82 UNL     1      -7.811  40.797  35.064  1.00  0.00     0.172 HD
ATOM     40  H81 UNL     1      -8.386  42.484  34.715  1.00  0.00     0.172 HD
ENDBRANCH  37  38
ENDBRANCH   1  37
TORSDOF 9
ENDMDL
MODEL 4
REMARK VINA RESULT: -7.490382030      1.023      1.268
REMARK  9 active torsions:
REMARK  status: ('A' for Active; 'I' for Inactive)
REMARK    1  A    between atoms: C2_2  and  O1_3 
REMARK    2  A    between atoms: O1_3  and  C3_4 
REMARK    3  A    between atoms: C3_4  and  O2_5 
REMARK    4  A    between atoms: C3_4  and  C4_7 
REMARK    5  A    between atoms: C5_9  and  C6_10 
REMARK       I    between atoms: C6_10  and  N1_12 
REMARK    6  A    between atoms: N1_12  and  C7_14 
REMARK    7  A    between atoms: C8_23  and  C9_24 
REMARK    8  A    between atoms: C9_24  and  N7_27 
REMARK    9  A    between atoms: N7_27  and  N8_28 
ROOT
HETATM    1  C9  UNL     1     -10.345  41.315  34.387  1.00  0.00     0.242 C 
HETATM    2  C10 UNL     1     -10.572  41.730  32.977  1.00  0.00     0.087 C 
HETATM    3  N6  UNL     1     -10.735  42.055  31.881  1.00  0.00    -0.195 NA
ENDROOT
BRANCH   1   4
HETATM    4  C8  UNL     1     -11.001  40.045  34.672  1.00  0.00     0.033 A 
HETATM    5  C5  UNL     1     -10.807  38.826  34.069  1.00  0.00     0.154 A 
HETATM    6  O3  UNL     1     -11.614  37.950  34.680  1.00  0.00    -0.303 OA
HETATM    7  C4  UNL     1     -12.304  38.532  35.628  1.00  0.00     0.123 A 
HETATM    8  C11 UNL     1     -11.960  39.862  35.675  1.00  0.00     0.057 A 
HETATM    9  C12 UNL     1     -12.439  40.880  36.566  1.00  0.00     0.150 A 
HETATM   10  N9  UNL     1     -13.551  41.617  36.411  1.00  0.00    -0.268 N 
HETATM   11  N12 UNL     1     -11.885  41.317  37.733  1.00  0.00    -0.268 N 
HETATM   12  N10 UNL     1     -13.641  42.442  37.436  1.00  0.00    -0.227 N 
ATOM     13  H9  UNL     1     -14.211  41.550  35.636  1.00  0.00     0.190 HD
HETATM   14  N11 UNL     1     -12.625  42.270  38.256  1.00  0.00    -0.227 N 
ATOM     15  H10 UNL     1     -14.392  43.119  37.574  1.00  0.00     0.210 HD
ATOM     16  H11 UNL     1     -12.447  42.775  39.124  1.00  0.00     0.210 HD
ATOM     17  H12 UNL     1     -11.023  40.957  38.141  1.00  0.00     0.190 HD
BRANCH   5  18
HETATM   18  C6  UNL     1      -9.909  38.492  32.970  1.00  0.00     0.294 C 
HETATM   19  O4  UNL     1     -10.077  38.816  31.783  1.00  0.00    -0.265 OA
HETATM   20  N1  UNL     1      -8.734  37.731  33.242  1.00  0.00    -0.151 N 
ATOM     21  H1  UNL     1      -8.817  36.800  33.652  1.00  0.00     0.188 HD
BRANCH  20  22
HETATM   22  C7  UNL     1      -7.588  38.204  32.978  1.00  0.00     0.716 A 
HETATM   23  N2  UNL     1      -6.603  37.619  32.258  1.00  0.00    -0.115 N 
HETATM   24  N3  UNL     1      -5.569  38.417  32.205  1.00  0.00    -0.213 N 
ATOM     25  H2  UNL     1      -6.659  36.698  31.825  1.00  0.00     0.207 HD
HETATM   26  N4  UNL     1      -5.897  39.510  32.891  1.00  0.00    -0.213 N 
ATOM     27  H3  UNL     1      -4.685  38.237  31.730  1.00  0.00     0.210 HD
HETATM   28  N5  UNL     1      -7.116  39.385  33.360  1.00  0.00    -0.115 N 
ATOM     29  H4  UNL     1      -5.293  40.320  33.031  1.00  0.00     0.210 HD
ATOM     30  H5  UNL     1      -7.615  40.075  33.921  1.00  0.00     0.207 HD
ENDBRANCH  20  22
ENDBRANCH   5  18
BRANCH   7  31
HETATM   31  C3  UNL     1     -13.289  37.802  36.483  1.00  0.00     0.316 C 
BRANCH  31  32
HETATM   32  O1  UNL     1     -12.706  37.475  37.698  1.00  0.00    -0.355 OA
BRANCH  32  33
HETATM   33  C2  UNL     1     -12.455  36.109  37.800  1.00  0.00     0.167 C 
HETATM   34  C1  UNL     1     -10.972  35.945  38.137  1.00  0.00     0.033 C 
ENDBRANCH  32  33
ENDBRANCH  31  32
BRANCH  31  35
HETATM   35  O2  UNL     1     -13.585  36.562  35.865  1.00  0.00    -0.365 OA
ATOM     36  H2  UNL     1     -14.248  36.759  35.215  1.00  0.00     0.213 HD
ENDBRANCH  31  35
ENDBRANCH   7  31
ENDBRANCH   1   4
BRANCH   1  37
HETATM   37  N7  UNL     1      -8.907  41.322  34.636  1.00  0.00    -0.124 NA
BRANCH  37  38
HETATM   38  N8  UNL     1      -8.655  41.139  36.016  1.00  0.00    -0.347 N 
ATOM     39  H82 UNL     1      -7.724  41.133  36.433  1.00  0.00     0.172 HD
ATOM     40  H81 UNL     1      -9.534  41.018  36.518  1.00  0.00     0.172 HD
ENDBRANCH  37  38
ENDBRANCH   1  37
TORSDOF 9
ENDMDL
MODEL 5
REMARK VINA RESULT: -7.428398533      1.745      5.896
REMARK  9 active torsions:
REMARK  status: ('A' for Active; 'I' for Inactive)
REMARK    1  A    between atoms: C2_2  and  O1_3 
REMARK    2  A    between atoms: O1_3  and  C3_4 
REMARK    3  A    between atoms: C3_4  and  O2_5 
REMARK    4  A    between atoms: C3_4  and  C4_7 
REMARK    5  A    between atoms: C5_9  and  C6_10 
REMARK       I    between atoms: C6_10  and  N1_12 
REMARK    6  A    between atoms: N1_12  and  C7_14 
REMARK    7  A    between atoms: C8_23  and  C9_24 
REMARK    8  A    between atoms: C9_24  and  N7_27 
REMARK    9  A    between atoms: N7_27  and  N8_28 
ROOT
HETATM    1  C9  UNL     1      -9.610  40.810  33.733  1.00  0.00     0.242 C 
HETATM    2  C10 UNL     1     -10.247  41.211  32.451  1.00  0.00     0.087 C 
HETATM    3  N6  UNL     1     -10.729  41.521  31.448  1.00  0.00    -0.195 NA
ENDROOT
BRANCH   1   4
HETATM    4  C8  UNL     1     -10.455  39.879  34.470  1.00  0.00     0.033 A 
HETATM    5  C5  UNL     1     -11.770  40.024  34.840  1.00  0.00     0.154 A 
HETATM    6  O3  UNL     1     -12.126  38.901  35.477  1.00  0.00    -0.303 OA
HETATM    7  C4  UNL     1     -11.127  38.058  35.535  1.00  0.00     0.123 A 
HETATM    8  C11 UNL     1     -10.037  38.619  34.912  1.00  0.00     0.057 A 
HETATM    9  C12 UNL     1      -8.733  38.055  34.712  1.00  0.00     0.150 A 
HETATM   10  N9  UNL     1      -7.709  38.083  35.582  1.00  0.00    -0.268 N 
HETATM   11  N12 UNL     1      -8.253  37.387  33.623  1.00  0.00    -0.268 N 
HETATM   12  N10 UNL     1      -6.685  37.464  35.028  1.00  0.00    -0.227 N 
ATOM     13  H9  UNL     1      -7.723  38.509  36.508  1.00  0.00     0.190 HD
HETATM   14  N11 UNL     1      -7.004  37.032  33.825  1.00  0.00    -0.227 N 
ATOM     15  H10 UNL     1      -5.773  37.338  35.468  1.00  0.00     0.210 HD
ATOM     16  H11 UNL     1      -6.401  36.523  33.178  1.00  0.00     0.210 HD
ATOM     17  H12 UNL     1      -8.787  37.193  32.776  1.00  0.00     0.190 HD
BRANCH   5  18
HETATM   18  C6  UNL     1     -12.656  41.158  34.610  1.00  0.00     0.294 C 
HETATM   19  O4  UNL     1     -13.464  41.257  33.671  1.00  0.00    -0.265 OA
HETATM   20  N1  UNL     1     -12.621  42.260  35.514  1.00  0.00    -0.151 N 
ATOM     21  H1  UNL     1     -11.753  42.779  35.647  1.00  0.00     0.188 HD
BRANCH  20  22
HETATM   22  C7  UNL     1     -13.662  42.600  36.152  1.00  0.00     0.716 A 
HETATM   23  N2  UNL     1     -13.921  43.797  36.726  1.00  0.00    -0.115 N 
HETATM   24  N3  UNL     1     -15.098  43.764  37.293  1.00  0.00    -0.213 N 
ATOM     25  H2  UNL     1     -13.294  44.602  36.717  1.00  0.00     0.207 HD
HETATM   26  N4  UNL     1     -15.588  42.544  37.080  1.00  0.00    -0.213 N 
ATOM     27  H3  UNL     1     -15.552  44.524  37.799  1.00  0.00     0.210 HD
HETATM   28  N5  UNL     1     -14.723  41.838  36.391  1.00  0.00    -0.115 N 
ATOM     29  H4  UNL     1     -16.496  42.211  37.403  1.00  0.00     0.210 HD
ATOM     30  H5  UNL     1     -14.844  40.871  36.091  1.00  0.00     0.207 HD
ENDBRANCH  20  22
ENDBRANCH   5  18
BRANCH   7  31
HETATM   31  C3  UNL     1     -11.229  36.717  36.188  1.00  0.00     0.316 C 
BRANCH  31  32
HETATM   32  O1  UNL     1     -12.390  36.649  36.944  1.00  0.00    -0.355 OA
BRANCH  32  33
HETATM   33  C2  UNL     1     -12.127  36.750  38.308  1.00  0.00     0.167 C 
HETATM   34  C1  UNL     1     -12.930  37.938  38.838  1.00  0.00     0.033 C 
ENDBRANCH  32  33
ENDBRANCH  31  32
BRANCH  31  35
HETATM   35  O2  UNL     1     -10.170  36.594  37.121  1.00  0.00    -0.365 OA
ATOM     36  H2  UNL     1     -10.041  35.659  37.230  1.00  0.00     0.213 HD
ENDBRANCH  31  35
ENDBRANCH   7  31
ENDBRANCH   1   4
BRANCH   1  37
HETATM   37  N7  UNL     1      -8.272  40.307  33.437  1.00  0.00    -0.124 NA
BRANCH  37  38
HETATM   38  N8  UNL     1      -7.368  41.386  33.304  1.00  0.00    -0.347 N 
ATOM     39  H82 UNL     1      -6.582  41.557  33.930  1.00  0.00     0.172 HD
ATOM     40  H81 UNL     1      -7.623  41.956  32.497  1.00  0.00     0.172 HD
ENDBRANCH  37  38
ENDBRANCH   1  37
TORSDOF 9
ENDMDL
