MODEL 1
REMARK VINA RESULT: -8.471615122      0.000      0.000
REMARK  8 active torsions:
REMARK  status: ('A' for Active; 'I' for Inactive)
REMARK    1  A    between atoms: N1_1  and  C1_4 
REMARK    2  A    between atoms: N4_10  and  N5_11 
REMARK       I    between atoms: N5_11  and  C3_13 
REMARK    3  A    between atoms: C3_13  and  C4_15 
REMARK    4  A    between atoms: C4_15  and  S1_16 
REMARK    5  A    between atoms: S1_16  and  C5_17 
REMARK    6  A    between atoms: C6_22  and  C7_23 
REMARK    7  A    between atoms: C9_25  and  N8_26 
REMARK       I    between atoms: N8_26  and  C10_28 
REMARK       I    between atoms: C10_28  and  N9_29 
REMARK       I    between atoms: C10_28  and  N10_33 
REMARK    8  A    between atoms: N13_42  and  N14_43 
ROOT
HETATM    1  C5  UNL     1      -8.205  37.969  34.795  1.00  0.00     0.182 A 
HETATM    2  N6  UNL     1      -9.284  37.552  35.499  1.00  0.00    -0.277 N 
ATOM      3  H6  UNL     1      -9.318  36.721  36.090  1.00  0.00     0.189 HD
HETATM    4  N7  UNL     1     -10.285  38.391  35.301  1.00  0.00    -0.280 N 
ATOM      5  H7  UNL     1     -11.213  38.308  35.715  1.00  0.00     0.188 HD
HETATM    6  C6  UNL     1      -9.886  39.383  34.458  1.00  0.00     0.170 A 
HETATM    7  N13 UNL     1      -8.606  39.084  34.174  1.00  0.00    -0.219 N 
ENDROOT
BRANCH   6   8
HETATM    8  C7  UNL     1     -10.696  40.504  33.986  1.00  0.00     0.084 A 
HETATM    9  C8  UNL     1     -11.732  40.955  34.763  1.00  0.00     0.081 A 
HETATM   10  C9  UNL     1     -12.521  42.007  34.353  1.00  0.00     0.106 A 
HETATM   11  N11 UNL     1     -12.259  42.593  33.171  1.00  0.00    -0.339 N 
HETATM   12  C11 UNL     1     -11.247  42.162  32.399  1.00  0.00     0.182 A 
ATOM     13  H11 UNL     1     -12.836  43.373  32.856  1.00  0.00     0.168 HD
HETATM   14  N12 UNL     1     -10.481  41.125  32.818  1.00  0.00    -0.349 N 
ATOM     15  H12 UNL     1      -9.715  40.806  32.225  1.00  0.00     0.166 HD
BRANCH  10  16
HETATM   16  N8  UNL     1     -13.474  42.395  35.105  1.00  0.00    -0.327 N 
HETATM   17  C10 UNL     1     -13.290  43.033  36.387  1.00  0.00     0.481 C 
HETATM   18  N9  UNL     1     -12.938  44.439  36.237  1.00  0.00    -0.033 N 
HETATM   19  N10 UNL     1     -14.569  42.996  37.071  1.00  0.00    -0.033 N 
ATOM     20  H93 UNL     1     -12.119  44.557  35.640  1.00  0.00     0.278 HD
ATOM     21  H92 UNL     1     -13.622  44.937  35.668  1.00  0.00     0.278 HD
ATOM     22  H91 UNL     1     -12.807  44.889  37.143  1.00  0.00     0.278 HD
ATOM     23 3H10 UNL     1     -15.326  43.406  36.524  1.00  0.00     0.278 HD
ATOM     24 2H10 UNL     1     -14.955  42.055  37.145  1.00  0.00     0.278 HD
ATOM     25 1H10 UNL     1     -14.438  43.447  37.976  1.00  0.00     0.278 HD
ATOM     26  H8  UNL     1     -14.429  42.244  34.780  1.00  0.00     0.164 HD
ENDBRANCH  10  16
ENDBRANCH   6   8
BRANCH   7  27
HETATM   27  N14 UNL     1      -7.802  39.854  33.330  1.00  0.00    -0.335 N 
ATOM     28 2H14 UNL     1      -6.783  39.868  33.379  1.00  0.00     0.177 HD
ATOM     29 1H14 UNL     1      -8.155  40.467  32.595  1.00  0.00     0.177 HD
ENDBRANCH   7  27
BRANCH   1  30
HETATM   30  S1  UNL     1      -6.629  37.130  34.768  1.00  0.00    -0.081 SA
BRANCH  30  31
HETATM   31  C4  UNL     1      -6.447  36.110  33.293  1.00  0.00     0.186 C 
BRANCH  31  32
HETATM   32  C3  UNL     1      -5.853  37.045  32.235  1.00  0.00     0.246 C 
HETATM   33  N5  UNL     1      -5.802  36.549  30.939  1.00  0.00    -0.247 N 
ATOM     34  H5  UNL     1      -6.167  35.604  30.825  1.00  0.00     0.191 HD
HETATM   35  O1  UNL     1      -5.492  38.134  32.683  1.00  0.00    -0.271 OA
BRANCH  33  36
HETATM   36  N4  UNL     1      -5.329  37.139  29.772  1.00  0.00    -0.077 N 
HETATM   37  C1  UNL     1      -4.237  37.860  29.565  1.00  0.00     0.712 A 
HETATM   38  N2  UNL     1      -4.172  38.228  28.242  1.00  0.00    -0.130 N 
HETATM   39  N3  UNL     1      -5.226  37.728  27.652  1.00  0.00    -0.279 N 
ATOM     40  H2  UNL     1      -3.439  38.786  27.803  1.00  0.00     0.205 HD
HETATM   41  C2  UNL     1      -5.944  37.064  28.553  1.00  0.00     0.242 A 
ATOM     42  H3  UNL     1      -5.459  37.830  26.664  1.00  0.00     0.188 HD
BRANCH  37  43
HETATM   43  N1  UNL     1      -3.312  38.234  30.365  1.00  0.00    -0.232 N 
ATOM     44  H12 UNL     1      -2.401  38.657  30.186  1.00  0.00     0.174 HD
ATOM     45  H11 UNL     1      -3.442  38.115  31.369  1.00  0.00     0.174 HD
ENDBRANCH  37  43
ENDBRANCH  33  36
ENDBRANCH  31  32
ENDBRANCH  30  31
ENDBRANCH   1  30
TORSDOF 8
ENDMDL
MODEL 2
REMARK VINA RESULT: -8.332231110      1.602      2.455
REMARK  8 active torsions:
REMARK  status: ('A' for Active; 'I' for Inactive)
REMARK    1  A    between atoms: N1_1  and  C1_4 
REMARK    2  A    between atoms: N4_10  and  N5_11 
REMARK       I    between atoms: N5_11  and  C3_13 
REMARK    3  A    between atoms: C3_13  and  C4_15 
REMARK    4  A    between atoms: C4_15  and  S1_16 
REMARK    5  A    between atoms: S1_16  and  C5_17 
REMARK    6  A    between atoms: C6_22  and  C7_23 
REMARK    7  A    between atoms: C9_25  and  N8_26 
REMARK       I    between atoms: N8_26  and  C10_28 
REMARK       I    between atoms: C10_28  and  N9_29 
REMARK       I    between atoms: C10_28  and  N10_33 
REMARK    8  A    between atoms: N13_42  and  N14_43 
ROOT
HETATM    1  C5  UNL     1      -7.804  38.294  34.019  1.00  0.00     0.182 A 
HETATM    2  N6  UNL     1      -7.373  39.375  33.326  1.00  0.00    -0.277 N 
ATOM      3  H6  UNL     1      -6.578  39.388  32.687  1.00  0.00     0.189 HD
HETATM    4  N7  UNL     1      -8.143  40.410  33.609  1.00  0.00    -0.280 N 
ATOM      5  H7  UNL     1      -8.035  41.347  33.220  1.00  0.00     0.188 HD
HETATM    6  C6  UNL     1      -9.102  40.034  34.498  1.00  0.00     0.170 A 
HETATM    7  N13 UNL     1      -8.857  38.731  34.720  1.00  0.00    -0.219 N 
ENDROOT
BRANCH   6   8
HETATM    8  C7  UNL     1     -10.148  40.882  35.064  1.00  0.00     0.084 A 
HETATM    9  C8  UNL     1     -11.287  41.116  34.337  1.00  0.00     0.081 A 
HETATM   10  C9  UNL     1     -12.295  41.913  34.834  1.00  0.00     0.106 A 
HETATM   11  N11 UNL     1     -12.147  42.464  36.052  1.00  0.00    -0.339 N 
HETATM   12  C11 UNL     1     -11.036  42.243  36.776  1.00  0.00     0.182 A 
ATOM     13  H11 UNL     1     -12.886  43.055  36.430  1.00  0.00     0.168 HD
HETATM   14  N12 UNL     1     -10.055  41.456  36.271  1.00  0.00    -0.349 N 
ATOM     15  H12 UNL     1      -9.216  41.295  36.830  1.00  0.00     0.166 HD
BRANCH  10  16
HETATM   16  N8  UNL     1     -13.337  42.105  34.125  1.00  0.00    -0.327 N 
HETATM   17  C10 UNL     1     -14.393  41.135  33.953  1.00  0.00     0.481 C 
HETATM   18  N9  UNL     1     -15.278  41.101  35.109  1.00  0.00    -0.033 N 
HETATM   19  N10 UNL     1     -15.197  41.574  32.827  1.00  0.00    -0.033 N 
ATOM     20  H93 UNL     1     -14.759  40.938  35.972  1.00  0.00     0.278 HD
ATOM     21  H92 UNL     1     -15.652  42.026  35.322  1.00  0.00     0.278 HD
ATOM     22  H91 UNL     1     -16.024  40.416  34.988  1.00  0.00     0.278 HD
ATOM     23 3H10 UNL     1     -15.542  42.528  32.931  1.00  0.00     0.278 HD
ATOM     24 2H10 UNL     1     -14.650  41.723  31.980  1.00  0.00     0.278 HD
ATOM     25 1H10 UNL     1     -15.942  40.889  32.706  1.00  0.00     0.278 HD
ATOM     26  H8  UNL     1     -13.431  43.002  33.648  1.00  0.00     0.164 HD
ENDBRANCH  10  16
ENDBRANCH   6   8
BRANCH   7  27
HETATM   27  N14 UNL     1      -9.616  37.937  35.584  1.00  0.00    -0.335 N 
ATOM     28 2H14 UNL     1      -9.337  37.003  35.885  1.00  0.00     0.177 HD
ATOM     29 1H14 UNL     1     -10.511  38.215  35.988  1.00  0.00     0.177 HD
ENDBRANCH   7  27
BRANCH   1  30
HETATM   30  S1  UNL     1      -7.051  36.677  33.942  1.00  0.00    -0.081 SA
BRANCH  30  31
HETATM   31  C4  UNL     1      -7.437  35.840  32.394  1.00  0.00     0.186 C 
BRANCH  31  32
HETATM   32  C3  UNL     1      -6.144  35.905  31.575  1.00  0.00     0.246 C 
HETATM   33  N5  UNL     1      -5.790  37.156  31.086  1.00  0.00    -0.247 N 
ATOM     34  H5  UNL     1      -6.435  37.909  31.325  1.00  0.00     0.191 HD
HETATM   35  O1  UNL     1      -5.577  34.817  31.455  1.00  0.00    -0.271 OA
BRANCH  33  36
HETATM   36  N4  UNL     1      -4.694  37.543  30.323  1.00  0.00    -0.077 N 
HETATM   37  C1  UNL     1      -3.623  38.245  30.665  1.00  0.00     0.712 A 
HETATM   38  N2  UNL     1      -2.791  38.374  29.579  1.00  0.00    -0.130 N 
HETATM   39  N3  UNL     1      -3.362  37.751  28.582  1.00  0.00    -0.279 N 
ATOM     40  H2  UNL     1      -1.896  38.865  29.555  1.00  0.00     0.205 HD
HETATM   41  C2  UNL     1      -4.514  37.238  29.002  1.00  0.00     0.242 A 
ATOM     42  H3  UNL     1      -2.985  37.670  27.637  1.00  0.00     0.188 HD
BRANCH  37  43
HETATM   43  N1  UNL     1      -3.288  38.778  31.778  1.00  0.00    -0.232 N 
ATOM     44  H12 UNL     1      -2.461  39.313  32.043  1.00  0.00     0.174 HD
ATOM     45  H11 UNL     1      -3.908  38.688  32.582  1.00  0.00     0.174 HD
ENDBRANCH  37  43
ENDBRANCH  33  36
ENDBRANCH  31  32
ENDBRANCH  30  31
ENDBRANCH   1  30
TORSDOF 8
ENDMDL
MODEL 3
REMARK VINA RESULT: -8.296172449      1.291      1.616
REMARK  8 active torsions:
REMARK  status: ('A' for Active; 'I' for Inactive)
REMARK    1  A    between atoms: N1_1  and  C1_4 
REMARK    2  A    between atoms: N4_10  and  N5_11 
REMARK       I    between atoms: N5_11  and  C3_13 
REMARK    3  A    between atoms: C3_13  and  C4_15 
REMARK    4  A    between atoms: C4_15  and  S1_16 
REMARK    5  A    between atoms: S1_16  and  C5_17 
REMARK    6  A    between atoms: C6_22  and  C7_23 
REMARK    7  A    between atoms: C9_25  and  N8_26 
REMARK       I    between atoms: N8_26  and  C10_28 
REMARK       I    between atoms: C10_28  and  N9_29 
REMARK       I    between atoms: C10_28  and  N10_33 
REMARK    8  A    between atoms: N13_42  and  N14_43 
ROOT
HETATM    1  C5  UNL     1      -7.857  38.052  33.259  1.00  0.00     0.182 A 
HETATM    2  N6  UNL     1      -7.042  39.133  33.314  1.00  0.00    -0.277 N 
ATOM      3  H6  UNL     1      -6.023  39.103  33.336  1.00  0.00     0.189 HD
HETATM    4  N7  UNL     1      -7.776  40.231  33.335  1.00  0.00    -0.280 N 
ATOM      5  H7  UNL     1      -7.410  41.182  33.375  1.00  0.00     0.188 HD
HETATM    6  C6  UNL     1      -9.095  39.898  33.295  1.00  0.00     0.170 A 
HETATM    7  N13 UNL     1      -9.097  38.554  33.249  1.00  0.00    -0.219 N 
ENDROOT
BRANCH   6   8
HETATM    8  C7  UNL     1     -10.228  40.820  33.303  1.00  0.00     0.084 A 
HETATM    9  C8  UNL     1     -10.998  40.926  34.433  1.00  0.00     0.081 A 
HETATM   10  C9  UNL     1     -12.077  41.781  34.479  1.00  0.00     0.106 A 
HETATM   11  N11 UNL     1     -12.368  42.519  33.393  1.00  0.00    -0.339 N 
HETATM   12  C11 UNL     1     -11.622  42.426  32.279  1.00  0.00     0.182 A 
ATOM     13  H11 UNL     1     -13.164  43.156  33.416  1.00  0.00     0.168 HD
HETATM   14  N12 UNL     1     -10.565  41.579  32.251  1.00  0.00    -0.349 N 
ATOM     15  H12 UNL     1     -10.005  41.517  31.400  1.00  0.00     0.166 HD
BRANCH  10  16
HETATM   16  N8  UNL     1     -12.766  41.848  35.549  1.00  0.00    -0.327 N 
HETATM   17  C10 UNL     1     -12.509  42.776  36.625  1.00  0.00     0.481 C 
HETATM   18  N9  UNL     1     -13.007  44.108  36.311  1.00  0.00    -0.033 N 
HETATM   19  N10 UNL     1     -13.259  42.313  37.778  1.00  0.00    -0.033 N 
ATOM     20  H93 UNL     1     -12.629  44.448  35.426  1.00  0.00     0.278 HD
ATOM     21  H92 UNL     1     -13.996  44.089  36.064  1.00  0.00     0.278 HD
ATOM     22  H91 UNL     1     -12.824  44.763  37.071  1.00  0.00     0.278 HD
ATOM     23 3H10 UNL     1     -14.253  42.190  37.584  1.00  0.00     0.278 HD
ATOM     24 2H10 UNL     1     -13.054  41.346  38.026  1.00  0.00     0.278 HD
ATOM     25 1H10 UNL     1     -13.077  42.968  38.537  1.00  0.00     0.278 HD
ATOM     26  H8  UNL     1     -13.551  41.204  35.652  1.00  0.00     0.164 HD
ENDBRANCH  10  16
ENDBRANCH   6   8
BRANCH   7  27
HETATM   27  N14 UNL     1     -10.263  37.784  33.197  1.00  0.00    -0.335 N 
ATOM     28 2H14 UNL     1     -10.340  36.850  33.599  1.00  0.00     0.177 HD
ATOM     29 1H14 UNL     1     -11.133  38.082  32.756  1.00  0.00     0.177 HD
ENDBRANCH   7  27
BRANCH   1  30
HETATM   30  S1  UNL     1      -7.290  36.359  33.218  1.00  0.00    -0.081 SA
BRANCH  30  31
HETATM   31  C4  UNL     1      -5.491  36.262  33.265  1.00  0.00     0.186 C 
BRANCH  31  32
HETATM   32  C3  UNL     1      -5.065  36.091  31.803  1.00  0.00     0.246 C 
HETATM   33  N5  UNL     1      -5.396  37.131  30.943  1.00  0.00    -0.247 N 
ATOM     34  H5  UNL     1      -5.893  37.907  31.378  1.00  0.00     0.191 HD
HETATM   35  O1  UNL     1      -4.476  35.033  31.580  1.00  0.00    -0.271 OA
BRANCH  33  36
HETATM   36  N4  UNL     1      -5.154  37.278  29.582  1.00  0.00    -0.077 N 
HETATM   37  C1  UNL     1      -4.099  37.776  28.954  1.00  0.00     0.712 A 
HETATM   38  N2  UNL     1      -4.298  37.710  27.595  1.00  0.00    -0.130 N 
HETATM   39  N3  UNL     1      -5.474  37.171  27.405  1.00  0.00    -0.279 N 
ATOM     40  H2  UNL     1      -3.650  38.022  26.871  1.00  0.00     0.205 HD
HETATM   41  C2  UNL     1      -6.015  36.899  28.589  1.00  0.00     0.242 A 
ATOM     42  H3  UNL     1      -5.905  36.989  26.499  1.00  0.00     0.188 HD
BRANCH  37  43
HETATM   43  N1  UNL     1      -3.010  38.275  29.403  1.00  0.00    -0.232 N 
ATOM     44  H12 UNL     1      -2.117  38.457  28.945  1.00  0.00     0.174 HD
ATOM     45  H11 UNL     1      -2.958  38.557  30.381  1.00  0.00     0.174 HD
ENDBRANCH  37  43
ENDBRANCH  33  36
ENDBRANCH  31  32
ENDBRANCH  30  31
ENDBRANCH   1  30
TORSDOF 8
ENDMDL
MODEL 4
REMARK VINA RESULT: -8.282454600      1.466      2.256
REMARK  8 active torsions:
REMARK  status: ('A' for Active; 'I' for Inactive)
REMARK    1  A    between atoms: N1_1  and  C1_4 
REMARK    2  A    between atoms: N4_10  and  N5_11 
REMARK       I    between atoms: N5_11  and  C3_13 
REMARK    3  A    between atoms: C3_13  and  C4_15 
REMARK    4  A    between atoms: C4_15  and  S1_16 
REMARK    5  A    between atoms: S1_16  and  C5_17 
REMARK    6  A    between atoms: C6_22  and  C7_23 
REMARK    7  A    between atoms: C9_25  and  N8_26 
REMARK       I    between atoms: N8_26  and  C10_28 
REMARK       I    between atoms: C10_28  and  N9_29 
REMARK       I    between atoms: C10_28  and  N10_33 
REMARK    8  A    between atoms: N13_42  and  N14_43 
ROOT
HETATM    1  C5  UNL     1      -8.350  39.011  33.837  1.00  0.00     0.182 A 
HETATM    2  N6  UNL     1      -7.829  40.202  33.456  1.00  0.00    -0.277 N 
ATOM      3  H6  UNL     1      -7.043  40.325  32.817  1.00  0.00     0.189 HD
HETATM    4  N7  UNL     1      -8.499  41.178  34.041  1.00  0.00    -0.280 N 
ATOM      5  H7  UNL     1      -8.310  42.174  33.923  1.00  0.00     0.188 HD
HETATM    6  C6  UNL     1      -9.479  40.652  34.824  1.00  0.00     0.170 A 
HETATM    7  N13 UNL     1      -9.351  39.322  34.668  1.00  0.00    -0.219 N 
ENDROOT
BRANCH   6   8
HETATM    8  C7  UNL     1     -10.438  41.395  35.639  1.00  0.00     0.084 A 
HETATM    9  C8  UNL     1     -11.770  41.345  35.318  1.00  0.00     0.081 A 
HETATM   10  C9  UNL     1     -12.705  42.033  36.059  1.00  0.00     0.106 A 
HETATM   11  N11 UNL     1     -12.291  42.762  37.111  1.00  0.00    -0.339 N 
HETATM   12  C11 UNL     1     -10.989  42.820  37.438  1.00  0.00     0.182 A 
ATOM     13  H11 UNL     1     -12.974  43.276  37.668  1.00  0.00     0.168 HD
HETATM   14  N12 UNL     1     -10.083  42.136  36.697  1.00  0.00    -0.349 N 
ATOM     15  H12 UNL     1      -9.097  42.186  36.955  1.00  0.00     0.166 HD
BRANCH  10  16
HETATM   16  N8  UNL     1     -13.933  41.960  35.726  1.00  0.00    -0.327 N 
HETATM   17  C10 UNL     1     -15.018  41.763  36.658  1.00  0.00     0.481 C 
HETATM   18  N9  UNL     1     -15.357  42.998  37.352  1.00  0.00    -0.033 N 
HETATM   19  N10 UNL     1     -16.185  41.387  35.883  1.00  0.00    -0.033 N 
ATOM     20  H93 UNL     1     -14.541  43.406  37.809  1.00  0.00     0.278 HD
ATOM     21  H92 UNL     1     -15.563  43.751  36.695  1.00  0.00     0.278 HD
ATOM     22  H91 UNL     1     -16.123  42.858  38.010  1.00  0.00     0.278 HD
ATOM     23 3H10 UNL     1     -16.407  42.057  35.146  1.00  0.00     0.278 HD
ATOM     24 2H10 UNL     1     -16.023  40.580  35.282  1.00  0.00     0.278 HD
ATOM     25 1H10 UNL     1     -16.951  41.247  36.542  1.00  0.00     0.278 HD
ATOM     26  H8  UNL     1     -14.165  42.048  34.736  1.00  0.00     0.164 HD
ENDBRANCH  10  16
ENDBRANCH   6   8
BRANCH   7  27
HETATM   27  N14 UNL     1     -10.172  38.387  35.305  1.00  0.00    -0.335 N 
ATOM     28 2H14 UNL     1      -9.874  37.438  35.533  1.00  0.00     0.177 HD
ATOM     29 1H14 UNL     1     -11.133  38.564  35.596  1.00  0.00     0.177 HD
ENDBRANCH   7  27
BRANCH   1  30
HETATM   30  S1  UNL     1      -7.748  37.422  33.290  1.00  0.00    -0.081 SA
BRANCH  30  31
HETATM   31  C4  UNL     1      -5.952  37.321  33.400  1.00  0.00     0.186 C 
BRANCH  31  32
HETATM   32  C3  UNL     1      -5.440  37.926  32.090  1.00  0.00     0.246 C 
HETATM   33  N5  UNL     1      -5.512  37.110  30.968  1.00  0.00    -0.247 N 
ATOM     34  H5  UNL     1      -5.901  36.182  31.135  1.00  0.00     0.191 HD
HETATM   35  O1  UNL     1      -5.022  39.079  32.206  1.00  0.00    -0.271 OA
BRANCH  33  36
HETATM   36  N4  UNL     1      -5.136  37.359  29.653  1.00  0.00    -0.077 N 
HETATM   37  C1  UNL     1      -4.019  37.887  29.172  1.00  0.00     0.712 A 
HETATM   38  N2  UNL     1      -4.084  37.931  27.800  1.00  0.00    -0.130 N 
HETATM   39  N3  UNL     1      -5.241  37.429  27.454  1.00  0.00    -0.279 N 
ATOM     40  H2  UNL     1      -3.365  38.287  27.170  1.00  0.00     0.205 HD
HETATM   41  C2  UNL     1      -5.898  37.075  28.554  1.00  0.00     0.242 A 
ATOM     42  H3  UNL     1      -5.582  37.326  26.498  1.00  0.00     0.188 HD
BRANCH  37  43
HETATM   43  N1  UNL     1      -2.976  38.329  29.764  1.00  0.00    -0.232 N 
ATOM     44  H12 UNL     1      -2.632  39.280  29.896  1.00  0.00     0.174 HD
ATOM     45  H11 UNL     1      -2.332  37.669  30.199  1.00  0.00     0.174 HD
ENDBRANCH  37  43
ENDBRANCH  33  36
ENDBRANCH  31  32
ENDBRANCH  30  31
ENDBRANCH   1  30
TORSDOF 8
ENDMDL
MODEL 5
REMARK VINA RESULT: -8.265910485      1.445      1.864
REMARK  8 active torsions:
REMARK  status: ('A' for Active; 'I' for Inactive)
REMARK    1  A    between atoms: N1_1  and  C1_4 
REMARK    2  A    between atoms: N4_10  and  N5_11 
REMARK       I    between atoms: N5_11  and  C3_13 
REMARK    3  A    between atoms: C3_13  and  C4_15 
REMARK    4  A    between atoms: C4_15  and  S1_16 
REMARK    5  A    between atoms: S1_16  and  C5_17 
REMARK    6  A    between atoms: C6_22  and  C7_23 
REMARK    7  A    between atoms: C9_25  and  N8_26 
REMARK       I    between atoms: N8_26  and  C10_28 
REMARK       I    between atoms: C10_28  and  N9_29 
REMARK       I    between atoms: C10_28  and  N10_33 
REMARK    8  A    between atoms: N13_42  and  N14_43 
ROOT
HETATM    1  C5  UNL     1      -7.873  38.196  33.584  1.00  0.00     0.182 A 
HETATM    2  N6  UNL     1      -7.061  39.259  33.371  1.00  0.00    -0.277 N 
ATOM      3  H6  UNL     1      -6.046  39.218  33.279  1.00  0.00     0.189 HD
HETATM    4  N7  UNL     1      -7.791  40.358  33.300  1.00  0.00    -0.280 N 
ATOM      5  H7  UNL     1      -7.426  41.297  33.145  1.00  0.00     0.188 HD
HETATM    6  C6  UNL     1      -9.105  40.042  33.466  1.00  0.00     0.170 A 
HETATM    7  N13 UNL     1      -9.108  38.709  33.636  1.00  0.00    -0.219 N 
ENDROOT
BRANCH   6   8
HETATM    8  C7  UNL     1     -10.232  40.971  33.458  1.00  0.00     0.084 A 
HETATM    9  C8  UNL     1     -10.865  41.268  34.638  1.00  0.00     0.081 A 
HETATM   10  C9  UNL     1     -11.934  42.136  34.671  1.00  0.00     0.106 A 
HETATM   11  N11 UNL     1     -12.353  42.695  33.522  1.00  0.00    -0.339 N 
HETATM   12  C11 UNL     1     -11.743  42.414  32.358  1.00  0.00     0.182 A 
ATOM     13  H11 UNL     1     -13.143  43.339  33.534  1.00  0.00     0.168 HD
HETATM   14  N12 UNL     1     -10.692  41.557  32.344  1.00  0.00    -0.349 N 
ATOM     15  H12 UNL     1     -10.236  41.351  31.454  1.00  0.00     0.166 HD
BRANCH  10  16
HETATM   16  N8  UNL     1     -12.494  42.384  35.789  1.00  0.00    -0.327 N 
HETATM   17  C10 UNL     1     -11.957  41.993  37.071  1.00  0.00     0.481 C 
HETATM   18  N9  UNL     1     -10.886  42.885  37.495  1.00  0.00    -0.033 N 
HETATM   19  N10 UNL     1     -13.024  42.134  38.043  1.00  0.00    -0.033 N 
ATOM     20  H93 UNL     1     -10.153  42.951  36.788  1.00  0.00     0.278 HD
ATOM     21  H92 UNL     1     -11.190  43.858  37.500  1.00  0.00     0.278 HD
ATOM     22  H91 UNL     1     -10.507  42.608  38.401  1.00  0.00     0.278 HD
ATOM     23 3H10 UNL     1     -13.438  43.066  38.050  1.00  0.00     0.278 HD
ATOM     24 2H10 UNL     1     -13.867  41.619  37.789  1.00  0.00     0.278 HD
ATOM     25 1H10 UNL     1     -12.645  41.857  38.948  1.00  0.00     0.278 HD
ATOM     26  H8  UNL     1     -13.379  42.891  35.777  1.00  0.00     0.164 HD
ENDBRANCH  10  16
ENDBRANCH   6   8
BRANCH   7  27
HETATM   27  N14 UNL     1     -10.268  37.958  33.843  1.00  0.00    -0.335 N 
ATOM     28 2H14 UNL     1     -10.451  37.424  34.694  1.00  0.00     0.177 HD
ATOM     29 1H14 UNL     1     -11.031  37.875  33.171  1.00  0.00     0.177 HD
ENDBRANCH   7  27
BRANCH   1  30
HETATM   30  S1  UNL     1      -7.308  36.510  33.749  1.00  0.00    -0.081 SA
BRANCH  30  31
HETATM   31  C4  UNL     1      -7.437  35.613  32.191  1.00  0.00     0.186 C 
BRANCH  31  32
HETATM   32  C3  UNL     1      -6.069  35.782  31.523  1.00  0.00     0.246 C 
HETATM   33  N5  UNL     1      -5.854  36.984  30.860  1.00  0.00    -0.247 N 
ATOM     34  H5  UNL     1      -6.638  37.635  30.887  1.00  0.00     0.191 HD
HETATM   35  O1  UNL     1      -5.325  34.809  31.664  1.00  0.00    -0.271 OA
BRANCH  33  36
HETATM   36  N4  UNL     1      -4.738  37.437  30.167  1.00  0.00    -0.077 N 
HETATM   37  C1  UNL     1      -3.737  38.205  30.574  1.00  0.00     0.712 A 
HETATM   38  N2  UNL     1      -2.845  38.385  29.542  1.00  0.00    -0.130 N 
HETATM   39  N3  UNL     1      -3.311  37.725  28.514  1.00  0.00    -0.279 N 
ATOM     40  H2  UNL     1      -1.984  38.930  29.573  1.00  0.00     0.205 HD
HETATM   41  C2  UNL     1      -4.454  37.142  28.862  1.00  0.00     0.242 A 
ATOM     42  H3  UNL     1      -2.870  37.667  27.596  1.00  0.00     0.188 HD
BRANCH  37  43
HETATM   43  N1  UNL     1      -3.507  38.760  31.703  1.00  0.00    -0.232 N 
ATOM     44  H12 UNL     1      -3.140  38.379  32.575  1.00  0.00     0.174 HD
ATOM     45  H11 UNL     1      -3.706  39.753  31.820  1.00  0.00     0.174 HD
ENDBRANCH  37  43
ENDBRANCH  33  36
ENDBRANCH  31  32
ENDBRANCH  30  31
ENDBRANCH   1  30
TORSDOF 8
ENDMDL
