MODEL 1
REMARK VINA RESULT: -6.427623839      0.000      0.000
REMARK  12 active torsions:
REMARK  status: ('A' for Active; 'I' for Inactive)
REMARK       I    between atoms: C1_4  and  N3_6 
REMARK    1  A    between atoms: N3_6  and  C2_8 
REMARK    2  A    between atoms: C3_11  and  N5_12 
REMARK    3  A    between atoms: C4_17  and  N7_18 
REMARK    4  A    between atoms: N7_18  and  C5_20 
REMARK    5  A    between atoms: C5_20  and  C6_21 
REMARK    6  A    between atoms: C6_21  and  C7_22 
REMARK    7  A    between atoms: C7_22  and  C8_23 
REMARK    8  A    between atoms: C8_23  and  C9_24 
REMARK    9  A    between atoms: C9_24  and  C10_25 
REMARK   10  A    between atoms: C10_25  and  C11_26 
REMARK   11  A    between atoms: C11_26  and  C12_27 
REMARK   12  A    between atoms: C12_27  and  N8_28 
ROOT
HETATM    1  C2  UNL     1      28.825  11.806  24.332  1.00  0.00     0.713 A 
HETATM    2  N4  UNL     1      28.071  11.339  23.331  1.00  0.00    -0.021 N 
ATOM      3  H4  UNL     1      27.211  11.834  23.096  1.00  0.00     0.203 HD
HETATM    4  C3  UNL     1      28.398  10.247  22.621  1.00  0.00     0.705 A 
HETATM    5  N6  UNL     1      29.537   9.614  22.953  1.00  0.00    -0.022 N 
ATOM      6  H6  UNL     1      29.825   8.779  22.441  1.00  0.00     0.203 HD
HETATM    7  C4  UNL     1      30.295  10.079  23.955  1.00  0.00     0.707 A 
HETATM    8  N9  UNL     1      29.969  11.170  24.666  1.00  0.00    -0.021 N 
ATOM      9  H9  UNL     1      30.561  11.505  25.426  1.00  0.00     0.203 HD
ENDROOT
BRANCH   7  10
HETATM   10  N7  UNL     1      31.381   9.473  24.268  1.00  0.00    -0.225 N 
ATOM     11  H7  UNL     1      31.947   9.066  23.523  1.00  0.00     0.177 HD
BRANCH  10  12
HETATM   12  C5  UNL     1      31.837   9.343  25.639  1.00  0.00     0.138 C 
BRANCH  12  13
HETATM   13  C6  UNL     1      33.165  10.020  25.768  1.00  0.00     0.020 C 
BRANCH  13  14
HETATM   14  C7  UNL     1      34.012   9.526  26.888  1.00  0.00     0.002 C 
BRANCH  14  15
HETATM   15  C8  UNL     1      34.041   8.049  27.061  1.00  0.00     0.000 C 
BRANCH  15  16
HETATM   16  C9  UNL     1      35.442   7.485  27.091  1.00  0.00     0.000 C 
BRANCH  16  17
HETATM   17  C10 UNL     1      35.467   5.996  27.220  1.00  0.00     0.002 C 
BRANCH  17  18
HETATM   18  C11 UNL     1      36.709   5.458  27.859  1.00  0.00     0.027 C 
BRANCH  18  19
HETATM   19  C12 UNL     1      36.258   4.501  28.968  1.00  0.00     0.229 C 
BRANCH  19  20
HETATM   20  N8  UNL     1      34.845   4.291  28.944  1.00  0.00    -0.079 N 
ATOM     21  H83 UNL     1      34.345   5.080  29.355  1.00  0.00     0.274 HD
ATOM     22  H82 UNL     1      34.477   4.347  27.995  1.00  0.00     0.274 HD
ATOM     23  H81 UNL     1      34.585   3.412  29.393  1.00  0.00     0.274 HD
ENDBRANCH  19  20
ENDBRANCH  18  19
ENDBRANCH  17  18
ENDBRANCH  16  17
ENDBRANCH  15  16
ENDBRANCH  14  15
ENDBRANCH  13  14
ENDBRANCH  12  13
ENDBRANCH  10  12
ENDBRANCH   7  10
BRANCH   4  24
HETATM   24  N5  UNL     1      27.640   9.816  21.648  1.00  0.00    -0.234 N 
ATOM     25  H52 UNL     1      26.851   9.195  21.826  1.00  0.00     0.174 HD
ATOM     26  H51 UNL     1      27.813  10.087  20.680  1.00  0.00     0.174 HD
ENDBRANCH   4  24
BRANCH   1  27
HETATM   27  N3  UNL     1      28.504  12.856  25.010  1.00  0.00    -0.163 N 
HETATM   28  C1  UNL     1      27.829  13.903  24.331  1.00  0.00     0.200 C 
HETATM   29  N1  UNL     1      26.549  13.973  24.420  1.00  0.00    -0.373 N 
HETATM   30  N2  UNL     1      28.559  14.853  23.569  1.00  0.00    -0.063 NA
ATOM     31  H12 UNL     1      26.064  14.726  23.932  1.00  0.00     0.158 HD
ATOM     32  H11 UNL     1      26.025  13.291  24.967  1.00  0.00     0.158 HD
ATOM     33  H3  UNL     1      28.729  12.931  26.002  1.00  0.00     0.187 HD
ENDBRANCH   1  27
TORSDOF 12
ENDMDL
MODEL 2
REMARK VINA RESULT: -6.325884190      2.237      9.584
REMARK  12 active torsions:
REMARK  status: ('A' for Active; 'I' for Inactive)
REMARK       I    between atoms: C1_4  and  N3_6 
REMARK    1  A    between atoms: N3_6  and  C2_8 
REMARK    2  A    between atoms: C3_11  and  N5_12 
REMARK    3  A    between atoms: C4_17  and  N7_18 
REMARK    4  A    between atoms: N7_18  and  C5_20 
REMARK    5  A    between atoms: C5_20  and  C6_21 
REMARK    6  A    between atoms: C6_21  and  C7_22 
REMARK    7  A    between atoms: C7_22  and  C8_23 
REMARK    8  A    between atoms: C8_23  and  C9_24 
REMARK    9  A    between atoms: C9_24  and  C10_25 
REMARK   10  A    between atoms: C10_25  and  C11_26 
REMARK   11  A    between atoms: C11_26  and  C12_27 
REMARK   12  A    between atoms: C12_27  and  N8_28 
ROOT
HETATM    1  C2  UNL     1      35.022   5.670  27.778  1.00  0.00     0.713 A 
HETATM    2  N4  UNL     1      36.272   6.017  27.453  1.00  0.00    -0.021 N 
ATOM      3  H4  UNL     1      37.021   5.340  27.602  1.00  0.00     0.203 HD
HETATM    4  C3  UNL     1      36.584   7.218  26.940  1.00  0.00     0.705 A 
HETATM    5  N6  UNL     1      35.578   8.090  26.755  1.00  0.00    -0.022 N 
ATOM      6  H6  UNL     1      35.769   9.015  26.367  1.00  0.00     0.203 HD
HETATM    7  C4  UNL     1      34.325   7.745  27.078  1.00  0.00     0.707 A 
HETATM    8  N9  UNL     1      34.011   6.546  27.592  1.00  0.00    -0.021 N 
ATOM      9  H9  UNL     1      33.049   6.306  27.833  1.00  0.00     0.203 HD
ENDROOT
BRANCH   7  10
HETATM   10  N7  UNL     1      33.367   8.580  26.900  1.00  0.00    -0.225 N 
ATOM     11  H7  UNL     1      32.513   8.469  27.446  1.00  0.00     0.177 HD
BRANCH  10  12
HETATM   12  C5  UNL     1      33.451   9.676  25.953  1.00  0.00     0.138 C 
BRANCH  12  13
HETATM   13  C6  UNL     1      32.075  10.219  25.727  1.00  0.00     0.020 C 
BRANCH  13  14
HETATM   14  C7  UNL     1      31.413   9.744  24.481  1.00  0.00     0.002 C 
BRANCH  14  15
HETATM   15  C8  UNL     1      30.225   8.872  24.684  1.00  0.00     0.000 C 
BRANCH  15  16
HETATM   16  C9  UNL     1      29.062   9.596  25.320  1.00  0.00     0.000 C 
BRANCH  16  17
HETATM   17  C10 UNL     1      28.434  10.602  24.410  1.00  0.00     0.002 C 
BRANCH  17  18
HETATM   18  C11 UNL     1      27.837  11.779  25.116  1.00  0.00     0.027 C 
BRANCH  18  19
HETATM   19  C12 UNL     1      28.458  13.033  24.491  1.00  0.00     0.229 C 
BRANCH  19  20
HETATM   20  N8  UNL     1      27.462  13.986  24.114  1.00  0.00    -0.079 N 
ATOM     21  H83 UNL     1      27.876  14.786  23.635  1.00  0.00     0.274 HD
ATOM     22  H82 UNL     1      26.877  13.632  23.357  1.00  0.00     0.274 HD
ATOM     23  H81 UNL     1      26.899  14.281  24.912  1.00  0.00     0.274 HD
ENDBRANCH  19  20
ENDBRANCH  18  19
ENDBRANCH  17  18
ENDBRANCH  16  17
ENDBRANCH  15  16
ENDBRANCH  14  15
ENDBRANCH  13  14
ENDBRANCH  12  13
ENDBRANCH  10  12
ENDBRANCH   7  10
BRANCH   4  24
HETATM   24  N5  UNL     1      37.816   7.527  26.632  1.00  0.00    -0.234 N 
ATOM     25  H52 UNL     1      38.559   6.829  26.653  1.00  0.00     0.174 HD
ATOM     26  H51 UNL     1      38.074   8.476  26.360  1.00  0.00     0.174 HD
ENDBRANCH   4  24
BRANCH   1  27
HETATM   27  N3  UNL     1      34.729   4.514  28.271  1.00  0.00    -0.163 N 
HETATM   28  C1  UNL     1      35.588   3.981  29.267  1.00  0.00     0.200 C 
HETATM   29  N1  UNL     1      35.263   4.120  30.503  1.00  0.00    -0.373 N 
HETATM   30  N2  UNL     1      36.783   3.308  28.900  1.00  0.00    -0.063 NA
ATOM     31  H12 UNL     1      35.881   3.737  31.218  1.00  0.00     0.158 HD
ATOM     32  H11 UNL     1      34.405   4.604  30.766  1.00  0.00     0.158 HD
ATOM     33  H3  UNL     1      33.907   4.000  27.955  1.00  0.00     0.187 HD
ENDBRANCH   1  27
TORSDOF 12
ENDMDL
MODEL 3
REMARK VINA RESULT: -6.086365190      1.809      3.126
REMARK  12 active torsions:
REMARK  status: ('A' for Active; 'I' for Inactive)
REMARK       I    between atoms: C1_4  and  N3_6 
REMARK    1  A    between atoms: N3_6  and  C2_8 
REMARK    2  A    between atoms: C3_11  and  N5_12 
REMARK    3  A    between atoms: C4_17  and  N7_18 
REMARK    4  A    between atoms: N7_18  and  C5_20 
REMARK    5  A    between atoms: C5_20  and  C6_21 
REMARK    6  A    between atoms: C6_21  and  C7_22 
REMARK    7  A    between atoms: C7_22  and  C8_23 
REMARK    8  A    between atoms: C8_23  and  C9_24 
REMARK    9  A    between atoms: C9_24  and  C10_25 
REMARK   10  A    between atoms: C10_25  and  C11_26 
REMARK   11  A    between atoms: C11_26  and  C12_27 
REMARK   12  A    between atoms: C12_27  and  N8_28 
ROOT
HETATM    1  C2  UNL     1      28.210  14.217  24.047  1.00  0.00     0.713 A 
HETATM    2  N4  UNL     1      26.962  14.044  24.492  1.00  0.00    -0.021 N 
ATOM      3  H4  UNL     1      26.360  14.862  24.589  1.00  0.00     0.203 HD
HETATM    4  C3  UNL     1      26.465  12.839  24.818  1.00  0.00     0.705 A 
HETATM    5  N6  UNL     1      27.281  11.778  24.682  1.00  0.00    -0.022 N 
ATOM      6  H6  UNL     1      26.946  10.844  24.919  1.00  0.00     0.203 HD
HETATM    7  C4  UNL     1      28.532  11.949  24.235  1.00  0.00     0.707 A 
HETATM    8  N9  UNL     1      29.029  13.152  23.910  1.00  0.00    -0.021 N 
ATOM      9  H9  UNL     1      29.986  13.258  23.573  1.00  0.00     0.203 HD
ENDROOT
BRANCH   7  10
HETATM   10  N7  UNL     1      29.307  10.934  24.106  1.00  0.00    -0.225 N 
ATOM     11  H7  UNL     1      29.929  10.894  23.299  1.00  0.00     0.177 HD
BRANCH  10  12
HETATM   12  C5  UNL     1      29.333   9.844  25.062  1.00  0.00     0.138 C 
BRANCH  12  13
HETATM   13  C6  UNL     1      30.732   9.320  25.151  1.00  0.00     0.020 C 
BRANCH  13  14
HETATM   14  C7  UNL     1      31.796  10.343  24.960  1.00  0.00     0.002 C 
BRANCH  14  15
HETATM   15  C8  UNL     1      32.962  10.229  25.876  1.00  0.00     0.000 C 
BRANCH  15  16
HETATM   16  C9  UNL     1      33.552   8.840  25.912  1.00  0.00     0.000 C 
BRANCH  16  17
HETATM   17  C10 UNL     1      34.421   8.607  27.106  1.00  0.00     0.002 C 
BRANCH  17  18
HETATM   18  C11 UNL     1      34.500   7.175  27.536  1.00  0.00     0.027 C 
BRANCH  18  19
HETATM   19  C12 UNL     1      35.882   6.663  27.120  1.00  0.00     0.229 C 
BRANCH  19  20
HETATM   20  N8  UNL     1      36.762   7.734  26.773  1.00  0.00    -0.079 N 
ATOM     21  H83 UNL     1      37.671   7.630  27.224  1.00  0.00     0.274 HD
ATOM     22  H82 UNL     1      37.059   7.670  25.799  1.00  0.00     0.274 HD
ATOM     23  H81 UNL     1      36.348   8.644  26.976  1.00  0.00     0.274 HD
ENDBRANCH  19  20
ENDBRANCH  18  19
ENDBRANCH  17  18
ENDBRANCH  16  17
ENDBRANCH  15  16
ENDBRANCH  14  15
ENDBRANCH  13  14
ENDBRANCH  12  13
ENDBRANCH  10  12
ENDBRANCH   7  10
BRANCH   4  24
HETATM   24  N5  UNL     1      25.240  12.702  25.251  1.00  0.00    -0.234 N 
ATOM     25  H52 UNL     1      24.926  11.836  25.688  1.00  0.00     0.174 HD
ATOM     26  H51 UNL     1      24.559  13.457  25.167  1.00  0.00     0.174 HD
ENDBRANCH   4  24
BRANCH   1  27
HETATM   27  N3  UNL     1      28.680  15.377  23.735  1.00  0.00    -0.163 N 
HETATM   28  C1  UNL     1      27.771  16.465  23.669  1.00  0.00     0.200 C 
HETATM   29  N1  UNL     1      27.669  17.248  24.683  1.00  0.00    -0.373 N 
HETATM   30  N2  UNL     1      26.993  16.681  22.501  1.00  0.00    -0.063 NA
ATOM     31  H12 UNL     1      27.015  18.030  24.635  1.00  0.00     0.158 HD
ATOM     32  H11 UNL     1      28.227  17.093  25.521  1.00  0.00     0.158 HD
ATOM     33  H3  UNL     1      29.673  15.509  23.544  1.00  0.00     0.187 HD
ENDBRANCH   1  27
TORSDOF 12
ENDMDL
MODEL 4
REMARK VINA RESULT: -5.942930640      1.868      2.589
REMARK  12 active torsions:
REMARK  status: ('A' for Active; 'I' for Inactive)
REMARK       I    between atoms: C1_4  and  N3_6 
REMARK    1  A    between atoms: N3_6  and  C2_8 
REMARK    2  A    between atoms: C3_11  and  N5_12 
REMARK    3  A    between atoms: C4_17  and  N7_18 
REMARK    4  A    between atoms: N7_18  and  C5_20 
REMARK    5  A    between atoms: C5_20  and  C6_21 
REMARK    6  A    between atoms: C6_21  and  C7_22 
REMARK    7  A    between atoms: C7_22  and  C8_23 
REMARK    8  A    between atoms: C8_23  and  C9_24 
REMARK    9  A    between atoms: C9_24  and  C10_25 
REMARK   10  A    between atoms: C10_25  and  C11_26 
REMARK   11  A    between atoms: C11_26  and  C12_27 
REMARK   12  A    between atoms: C12_27  and  N8_28 
ROOT
HETATM    1  C2  UNL     1      27.255  12.115  24.849  1.00  0.00     0.713 A 
HETATM    2  N4  UNL     1      27.971  12.919  24.058  1.00  0.00    -0.021 N 
ATOM      3  H4  UNL     1      27.712  13.905  24.000  1.00  0.00     0.203 HD
HETATM    4  C3  UNL     1      29.017  12.487  23.335  1.00  0.00     0.705 A 
HETATM    5  N6  UNL     1      29.336  11.184  23.430  1.00  0.00    -0.022 N 
ATOM      6  H6  UNL     1      30.123  10.811  22.898  1.00  0.00     0.203 HD
HETATM    7  C4  UNL     1      28.621  10.376  24.223  1.00  0.00     0.707 A 
HETATM    8  N9  UNL     1      27.574  10.807  24.945  1.00  0.00    -0.021 N 
ATOM      9  H9  UNL     1      27.043  10.172  25.541  1.00  0.00     0.203 HD
ENDROOT
BRANCH   7  10
HETATM   10  N7  UNL     1      28.928   9.133  24.311  1.00  0.00    -0.225 N 
ATOM     11  H7  UNL     1      28.189   8.459  24.513  1.00  0.00     0.177 HD
BRANCH  10  12
HETATM   12  C5  UNL     1      30.283   8.648  24.135  1.00  0.00     0.138 C 
BRANCH  12  13
HETATM   13  C6  UNL     1      31.093   9.046  25.329  1.00  0.00     0.020 C 
BRANCH  13  14
HETATM   14  C7  UNL     1      32.086  10.126  25.080  1.00  0.00     0.002 C 
BRANCH  14  15
HETATM   15  C8  UNL     1      33.315  10.068  25.915  1.00  0.00     0.000 C 
BRANCH  15  16
HETATM   16  C9  UNL     1      33.407   8.807  26.742  1.00  0.00     0.000 C 
BRANCH  16  17
HETATM   17  C10 UNL     1      34.816   8.361  26.967  1.00  0.00     0.002 C 
BRANCH  17  18
HETATM   18  C11 UNL     1      34.943   6.941  27.425  1.00  0.00     0.027 C 
BRANCH  18  19
HETATM   19  C12 UNL     1      36.409   6.541  27.229  1.00  0.00     0.229 C 
BRANCH  19  20
HETATM   20  N8  UNL     1      37.185   7.618  26.698  1.00  0.00    -0.079 N 
ATOM     21  H83 UNL     1      36.888   8.515  27.082  1.00  0.00     0.274 HD
ATOM     22  H82 UNL     1      38.140   7.599  27.056  1.00  0.00     0.274 HD
ATOM     23  H81 UNL     1      37.171   7.627  25.678  1.00  0.00     0.274 HD
ENDBRANCH  19  20
ENDBRANCH  18  19
ENDBRANCH  17  18
ENDBRANCH  16  17
ENDBRANCH  15  16
ENDBRANCH  14  15
ENDBRANCH  13  14
ENDBRANCH  12  13
ENDBRANCH  10  12
ENDBRANCH   7  10
BRANCH   4  24
HETATM   24  N5  UNL     1      29.699  13.299  22.570  1.00  0.00    -0.234 N 
ATOM     25  H52 UNL     1      30.689  13.477  22.736  1.00  0.00     0.174 HD
ATOM     26  H51 UNL     1      29.263  13.778  21.783  1.00  0.00     0.174 HD
ENDBRANCH   4  24
BRANCH   1  27
HETATM   27  N3  UNL     1      26.251  12.538  25.541  1.00  0.00    -0.163 N 
HETATM   28  C1  UNL     1      25.815  13.871  25.330  1.00  0.00     0.200 C 
HETATM   29  N1  UNL     1      24.819  14.079  24.544  1.00  0.00    -0.373 N 
HETATM   30  N2  UNL     1      26.468  14.952  25.977  1.00  0.00    -0.063 NA
ATOM     31  H12 UNL     1      24.505  15.038  24.392  1.00  0.00     0.158 HD
ATOM     32  H11 UNL     1      24.350  13.303  24.079  1.00  0.00     0.158 HD
ATOM     33  H3  UNL     1      25.785  11.932  26.217  1.00  0.00     0.187 HD
ENDBRANCH   1  27
TORSDOF 12
ENDMDL
MODEL 5
REMARK VINA RESULT: -5.911524434      1.638      2.340
REMARK  12 active torsions:
REMARK  status: ('A' for Active; 'I' for Inactive)
REMARK       I    between atoms: C1_4  and  N3_6 
REMARK    1  A    between atoms: N3_6  and  C2_8 
REMARK    2  A    between atoms: C3_11  and  N5_12 
REMARK    3  A    between atoms: C4_17  and  N7_18 
REMARK    4  A    between atoms: N7_18  and  C5_20 
REMARK    5  A    between atoms: C5_20  and  C6_21 
REMARK    6  A    between atoms: C6_21  and  C7_22 
REMARK    7  A    between atoms: C7_22  and  C8_23 
REMARK    8  A    between atoms: C8_23  and  C9_24 
REMARK    9  A    between atoms: C9_24  and  C10_25 
REMARK   10  A    between atoms: C10_25  and  C11_26 
REMARK   11  A    between atoms: C11_26  and  C12_27 
REMARK   12  A    between atoms: C12_27  and  N8_28 
ROOT
HETATM    1  C2  UNL     1      27.259  12.106  24.856  1.00  0.00     0.713 A 
HETATM    2  N4  UNL     1      27.983  12.906  24.067  1.00  0.00    -0.021 N 
ATOM      3  H4  UNL     1      27.736  13.895  24.016  1.00  0.00     0.203 HD
HETATM    4  C3  UNL     1      29.022  12.465  23.339  1.00  0.00     0.705 A 
HETATM    5  N6  UNL     1      29.325  11.158  23.425  1.00  0.00    -0.022 N 
ATOM      6  H6  UNL     1      30.106  10.779  22.889  1.00  0.00     0.203 HD
HETATM    7  C4  UNL     1      28.602  10.354  24.216  1.00  0.00     0.707 A 
HETATM    8  N9  UNL     1      27.563  10.793  24.943  1.00  0.00    -0.021 N 
ATOM      9  H9  UNL     1      27.025  10.161  25.537  1.00  0.00     0.203 HD
ENDROOT
BRANCH   7  10
HETATM   10  N7  UNL     1      28.894   9.107  24.296  1.00  0.00    -0.225 N 
ATOM     11  H7  UNL     1      28.138   8.424  24.261  1.00  0.00     0.177 HD
BRANCH  10  12
HETATM   12  C5  UNL     1      30.257   8.631  24.434  1.00  0.00     0.138 C 
BRANCH  12  13
HETATM   13  C6  UNL     1      30.935   9.423  25.507  1.00  0.00     0.020 C 
BRANCH  13  14
HETATM   14  C7  UNL     1      32.230  10.039  25.104  1.00  0.00     0.002 C 
BRANCH  14  15
HETATM   15  C8  UNL     1      33.344   9.869  26.074  1.00  0.00     0.000 C 
BRANCH  15  16
HETATM   16  C9  UNL     1      33.626   8.422  26.402  1.00  0.00     0.000 C 
BRANCH  16  17
HETATM   17  C10 UNL     1      34.822   8.246  27.282  1.00  0.00     0.002 C 
BRANCH  17  18
HETATM   18  C11 UNL     1      35.448   6.889  27.201  1.00  0.00     0.027 C 
BRANCH  18  19
HETATM   19  C12 UNL     1      34.309   5.869  27.299  1.00  0.00     0.229 C 
BRANCH  19  20
HETATM   20  N8  UNL     1      34.565   4.885  28.304  1.00  0.00    -0.079 N 
ATOM     21  H83 UNL     1      34.145   3.987  28.060  1.00  0.00     0.274 HD
ATOM     22  H82 UNL     1      35.546   4.606  28.310  1.00  0.00     0.274 HD
ATOM     23  H81 UNL     1      34.262   5.199  29.227  1.00  0.00     0.274 HD
ENDBRANCH  19  20
ENDBRANCH  18  19
ENDBRANCH  17  18
ENDBRANCH  16  17
ENDBRANCH  15  16
ENDBRANCH  14  15
ENDBRANCH  13  14
ENDBRANCH  12  13
ENDBRANCH  10  12
ENDBRANCH   7  10
BRANCH   4  24
HETATM   24  N5  UNL     1      29.711  13.273  22.577  1.00  0.00    -0.234 N 
ATOM     25  H52 UNL     1      29.375  13.544  21.653  1.00  0.00     0.174 HD
ATOM     26  H51 UNL     1      30.604  13.658  22.882  1.00  0.00     0.174 HD
ENDBRANCH   4  24
BRANCH   1  27
HETATM   27  N3  UNL     1      26.262  12.537  25.553  1.00  0.00    -0.163 N 
HETATM   28  C1  UNL     1      25.823  13.868  25.331  1.00  0.00     0.200 C 
HETATM   29  N1  UNL     1      24.820  14.066  24.553  1.00  0.00    -0.373 N 
HETATM   30  N2  UNL     1      26.484  14.956  25.959  1.00  0.00    -0.063 NA
ATOM     31  H12 UNL     1      24.505  15.023  24.393  1.00  0.00     0.158 HD
ATOM     32  H11 UNL     1      24.346  13.284  24.102  1.00  0.00     0.158 HD
ATOM     33  H3  UNL     1      25.804  11.939  26.241  1.00  0.00     0.187 HD
ENDBRANCH   1  27
TORSDOF 12
ENDMDL
