MODEL 1
REMARK VINA RESULT: -7.368001920      0.000      0.000
REMARK  5 active torsions:
REMARK  status: ('A' for Active; 'I' for Inactive)
REMARK    1  A    between atoms: C2_2  and  C3_3 
REMARK    2  A    between atoms: C3_3  and  C4_8 
REMARK    3  A    between atoms: N1_4  and  O1_6 
REMARK    4  A    between atoms: C7_11  and  N2_12 
REMARK    5  A    between atoms: N2_12  and  N3_14 
ROOT
HETATM    1  N3  UNL     1      -0.583  25.593  12.669  1.00  0.00    -0.281 N 
ATOM      2  H3  UNL     1      -0.932  26.524  12.896  1.00  0.00     0.188 HD
HETATM    3  C8  UNL     1      -0.691  24.640  13.509  1.00  0.00     0.209 C 
HETATM    4  C9  UNL     1      -1.306  24.890  14.772  1.00  0.00     0.130 C 
HETATM    5  N4  UNL     1      -1.797  25.108  15.799  1.00  0.00    -0.189 NA
HETATM    6  C10 UNL     1      -0.200  23.345  13.179  1.00  0.00     0.130 C 
HETATM    7  N5  UNL     1       0.182  22.288  12.902  1.00  0.00    -0.189 NA
ENDROOT
BRANCH   1   8
HETATM    8  N2  UNL     1       0.017  25.347  11.441  1.00  0.00    -0.292 N 
ATOM      9  H2  UNL     1       0.325  24.402  11.215  1.00  0.00     0.187 HD
BRANCH   8  10
HETATM   10  C7  UNL     1       0.212  26.412  10.477  1.00  0.00     0.089 A 
HETATM   11  C6  UNL     1       0.453  26.273   9.136  1.00  0.00     0.040 A 
HETATM   12  C5  UNL     1       0.605  27.404   8.416  1.00  0.00     0.024 A 
HETATM   13  C4  UNL     1       0.504  28.582   9.091  1.00  0.00     0.031 A 
HETATM   14  S1  UNL     1       0.202  28.098  10.697  1.00  0.00    -0.069 SA
BRANCH  13  15
HETATM   15  C3  UNL     1       0.627  29.975   8.546  1.00  0.00     0.048 C 
HETATM   16  N1  UNL     1       1.133  30.094   7.415  1.00  0.00    -0.272 N 
ATOM     17  H1  UNL     1       1.416  29.225   6.961  1.00  0.00     0.194 HD
BRANCH  15  18
HETATM   18  C2  UNL     1       0.150  31.091   9.379  1.00  0.00     0.056 C 
HETATM   19  C1  UNL     1      -1.264  31.484   9.191  1.00  0.00     0.011 C 
ENDBRANCH  15  18
BRANCH  16  20
HETATM   20  O1  UNL     1       1.351  31.202   6.723  1.00  0.00    -0.290 OA
ATOM     21  H1  UNL     1       0.963  32.061   6.844  1.00  0.00     0.244 HD
ENDBRANCH  16  20
ENDBRANCH  13  15
ENDBRANCH   8  10
ENDBRANCH   1   8
TORSDOF 5
ENDMDL
MODEL 2
REMARK VINA RESULT: -7.341643836      1.059      1.623
REMARK  5 active torsions:
REMARK  status: ('A' for Active; 'I' for Inactive)
REMARK    1  A    between atoms: C2_2  and  C3_3 
REMARK    2  A    between atoms: C3_3  and  C4_8 
REMARK    3  A    between atoms: N1_4  and  O1_6 
REMARK    4  A    between atoms: C7_11  and  N2_12 
REMARK    5  A    between atoms: N2_12  and  N3_14 
ROOT
HETATM    1  N3  UNL     1      -0.107  24.932  12.073  1.00  0.00    -0.281 N 
ATOM      2  H3  UNL     1       0.800  24.609  12.409  1.00  0.00     0.188 HD
HETATM    3  C8  UNL     1      -1.010  25.294  12.897  1.00  0.00     0.209 C 
HETATM    4  C9  UNL     1      -0.739  25.240  14.297  1.00  0.00     0.130 C 
HETATM    5  N4  UNL     1      -0.510  25.181  15.431  1.00  0.00    -0.189 NA
HETATM    6  C10 UNL     1      -2.271  25.744  12.414  1.00  0.00     0.130 C 
HETATM    7  N5  UNL     1      -3.289  26.128  12.019  1.00  0.00    -0.189 NA
ENDROOT
BRANCH   1   8
HETATM    8  N2  UNL     1      -0.373  24.985  10.712  1.00  0.00    -0.292 N 
ATOM      9  H2  UNL     1      -0.828  24.193  10.259  1.00  0.00     0.187 HD
BRANCH   8  10
HETATM   10  C7  UNL     1      -0.015  26.148   9.923  1.00  0.00     0.089 A 
HETATM   11  C6  UNL     1       0.531  26.153   8.667  1.00  0.00     0.040 A 
HETATM   12  C5  UNL     1       0.789  27.356   8.112  1.00  0.00     0.024 A 
HETATM   13  C4  UNL     1       0.481  28.455   8.853  1.00  0.00     0.031 A 
HETATM   14  S1  UNL     1      -0.154  27.802  10.293  1.00  0.00    -0.069 SA
BRANCH  13  15
HETATM   15  C3  UNL     1       0.659  29.900   8.485  1.00  0.00     0.048 C 
HETATM   16  N1  UNL     1       1.191  30.139   7.386  1.00  0.00    -0.272 N 
ATOM     17  H1  UNL     1       1.457  29.323   6.834  1.00  0.00     0.194 HD
BRANCH  15  18
HETATM   18  C2  UNL     1       0.199  30.921   9.441  1.00  0.00     0.056 C 
HETATM   19  C1  UNL     1      -1.164  31.452   9.220  1.00  0.00     0.011 C 
ENDBRANCH  15  18
BRANCH  16  20
HETATM   20  O1  UNL     1       1.457  31.316   6.839  1.00  0.00    -0.290 OA
ATOM     21  H1  UNL     1       1.663  31.513   5.933  1.00  0.00     0.244 HD
ENDBRANCH  16  20
ENDBRANCH  13  15
ENDBRANCH   8  10
ENDBRANCH   1   8
TORSDOF 5
ENDMDL
MODEL 3
REMARK VINA RESULT: -7.168869069      2.605      3.278
REMARK  5 active torsions:
REMARK  status: ('A' for Active; 'I' for Inactive)
REMARK    1  A    between atoms: C2_2  and  C3_3 
REMARK    2  A    between atoms: C3_3  and  C4_8 
REMARK    3  A    between atoms: N1_4  and  O1_6 
REMARK    4  A    between atoms: C7_11  and  N2_12 
REMARK    5  A    between atoms: N2_12  and  N3_14 
ROOT
HETATM    1  N3  UNL     1       2.579  24.194  11.334  1.00  0.00    -0.281 N 
ATOM      2  H3  UNL     1       3.425  24.645  11.683  1.00  0.00     0.188 HD
HETATM    3  C8  UNL     1       2.563  22.939  11.108  1.00  0.00     0.209 C 
HETATM    4  C9  UNL     1       3.742  22.172  11.348  1.00  0.00     0.130 C 
HETATM    5  N4  UNL     1       4.710  21.562  11.537  1.00  0.00    -0.189 NA
HETATM    6  C10 UNL     1       1.376  22.321  10.622  1.00  0.00     0.130 C 
HETATM    7  N5  UNL     1       0.406  21.817  10.245  1.00  0.00    -0.189 NA
ENDROOT
BRANCH   1   8
HETATM    8  N2  UNL     1       1.431  24.937  11.098  1.00  0.00    -0.292 N 
ATOM      9  H2  UNL     1       0.573  24.706  11.599  1.00  0.00     0.187 HD
BRANCH   8  10
HETATM   10  C7  UNL     1       1.431  26.037  10.153  1.00  0.00     0.089 A 
HETATM   11  C6  UNL     1       2.217  26.164   9.039  1.00  0.00     0.040 A 
HETATM   12  C5  UNL     1       2.054  27.276   8.293  1.00  0.00     0.024 A 
HETATM   13  C4  UNL     1       1.120  28.171   8.717  1.00  0.00     0.031 A 
HETATM   14  S1  UNL     1       0.494  27.456  10.131  1.00  0.00    -0.069 SA
BRANCH  13  15
HETATM   15  C3  UNL     1       0.735  29.477   8.085  1.00  0.00     0.048 C 
HETATM   16  N1  UNL     1       1.480  29.909   7.187  1.00  0.00    -0.272 N 
ATOM     17  H1  UNL     1       2.289  29.329   6.963  1.00  0.00     0.194 HD
BRANCH  15  18
HETATM   18  C2  UNL     1      -0.483  30.149   8.568  1.00  0.00     0.056 C 
HETATM   19  C1  UNL     1      -0.274  31.291   9.486  1.00  0.00     0.011 C 
ENDBRANCH  15  18
BRANCH  16  20
HETATM   20  O1  UNL     1       1.361  31.025   6.484  1.00  0.00    -0.290 OA
ATOM     21  H1  UNL     1       1.918  31.345   5.783  1.00  0.00     0.244 HD
ENDBRANCH  16  20
ENDBRANCH  13  15
ENDBRANCH   8  10
ENDBRANCH   1   8
TORSDOF 5
ENDMDL
MODEL 4
REMARK VINA RESULT: -7.142567857      1.004      1.979
REMARK  5 active torsions:
REMARK  status: ('A' for Active; 'I' for Inactive)
REMARK    1  A    between atoms: C2_2  and  C3_3 
REMARK    2  A    between atoms: C3_3  and  C4_8 
REMARK    3  A    between atoms: N1_4  and  O1_6 
REMARK    4  A    between atoms: C7_11  and  N2_12 
REMARK    5  A    between atoms: N2_12  and  N3_14 
ROOT
HETATM    1  N3  UNL     1      -0.348  24.855  12.950  1.00  0.00    -0.281 N 
ATOM      2  H3  UNL     1       0.289  24.340  12.342  1.00  0.00     0.188 HD
HETATM    3  C8  UNL     1      -0.885  24.284  13.955  1.00  0.00     0.209 C 
HETATM    4  C9  UNL     1      -0.586  22.914  14.221  1.00  0.00     0.130 C 
HETATM    5  N4  UNL     1      -0.344  21.798  14.420  1.00  0.00    -0.189 NA
HETATM    6  C10 UNL     1      -1.771  25.015  14.796  1.00  0.00     0.130 C 
HETATM    7  N5  UNL     1      -2.477  25.615  15.490  1.00  0.00    -0.189 NA
ENDROOT
BRANCH   1   8
HETATM    8  N2  UNL     1      -0.641  26.188  12.694  1.00  0.00    -0.292 N 
ATOM      9  H2  UNL     1      -1.086  26.752  13.418  1.00  0.00     0.187 HD
BRANCH   8  10
HETATM   10  C7  UNL     1      -0.325  26.791  11.414  1.00  0.00     0.089 A 
HETATM   11  C6  UNL     1      -0.323  26.174  10.191  1.00  0.00     0.040 A 
HETATM   12  C5  UNL     1       0.004  26.927   9.121  1.00  0.00     0.024 A 
HETATM   13  C4  UNL     1       0.302  28.235   9.355  1.00  0.00     0.031 A 
HETATM   14  S1  UNL     1       0.123  28.389  11.042  1.00  0.00    -0.069 SA
BRANCH  13  15
HETATM   15  C3  UNL     1       0.693  29.288   8.360  1.00  0.00     0.048 C 
HETATM   16  N1  UNL     1       1.183  28.894   7.286  1.00  0.00    -0.272 N 
ATOM     17  H1  UNL     1       1.273  27.883   7.183  1.00  0.00     0.194 HD
BRANCH  15  18
HETATM   18  C2  UNL     1       0.474  30.699   8.720  1.00  0.00     0.056 C 
HETATM   19  C1  UNL     1      -0.932  31.162   8.708  1.00  0.00     0.011 C 
ENDBRANCH  15  18
BRANCH  16  20
HETATM   20  O1  UNL     1       1.605  29.616   6.259  1.00  0.00    -0.290 OA
ATOM     21  H1  UNL     1       1.521  29.429   5.331  1.00  0.00     0.244 HD
ENDBRANCH  16  20
ENDBRANCH  13  15
ENDBRANCH   8  10
ENDBRANCH   1   8
TORSDOF 5
ENDMDL
MODEL 5
REMARK VINA RESULT: -7.119241948      3.254      4.108
REMARK  5 active torsions:
REMARK  status: ('A' for Active; 'I' for Inactive)
REMARK    1  A    between atoms: C2_2  and  C3_3 
REMARK    2  A    between atoms: C3_3  and  C4_8 
REMARK    3  A    between atoms: N1_4  and  O1_6 
REMARK    4  A    between atoms: C7_11  and  N2_12 
REMARK    5  A    between atoms: N2_12  and  N3_14 
ROOT
HETATM    1  N3  UNL     1      -0.156  26.300  11.916  1.00  0.00    -0.281 N 
ATOM      2  H3  UNL     1       0.812  26.225  12.231  1.00  0.00     0.188 HD
HETATM    3  C8  UNL     1      -1.112  25.916  12.668  1.00  0.00     0.209 C 
HETATM    4  C9  UNL     1      -0.813  25.379  13.956  1.00  0.00     0.130 C 
HETATM    5  N4  UNL     1      -0.557  24.935  14.995  1.00  0.00    -0.189 NA
HETATM    6  C10 UNL     1      -2.457  26.026  12.216  1.00  0.00     0.130 C 
HETATM    7  N5  UNL     1      -3.551  26.134  11.856  1.00  0.00    -0.189 NA
ENDROOT
BRANCH   1   8
HETATM    8  N2  UNL     1      -0.449  26.821  10.663  1.00  0.00    -0.292 N 
ATOM      9  H2  UNL     1      -1.406  27.103  10.449  1.00  0.00     0.187 HD
BRANCH   8  10
HETATM   10  C7  UNL     1       0.581  26.972   9.655  1.00  0.00     0.089 A 
HETATM   11  C6  UNL     1       0.470  27.624   8.456  1.00  0.00     0.040 A 
HETATM   12  C5  UNL     1       1.560  27.644   7.661  1.00  0.00     0.024 A 
HETATM   13  C4  UNL     1       2.673  27.011   8.125  1.00  0.00     0.031 A 
HETATM   14  S1  UNL     1       2.186  26.408   9.643  1.00  0.00    -0.069 SA
BRANCH  13  15
HETATM   15  C3  UNL     1       4.010  26.880   7.456  1.00  0.00     0.048 C 
HETATM   16  N1  UNL     1       4.827  26.100   7.979  1.00  0.00    -0.272 N 
ATOM     17  H1  UNL     1       4.506  25.618   8.819  1.00  0.00     0.194 HD
BRANCH  15  18
HETATM   18  C2  UNL     1       4.261  27.677   6.244  1.00  0.00     0.056 C 
HETATM   19  C1  UNL     1       4.369  26.918   4.978  1.00  0.00     0.011 C 
ENDBRANCH  15  18
BRANCH  16  20
HETATM   20  O1  UNL     1       6.059  25.813   7.586  1.00  0.00    -0.290 OA
ATOM     21  H1  UNL     1       6.380  25.670   6.703  1.00  0.00     0.244 HD
ENDBRANCH  16  20
ENDBRANCH  13  15
ENDBRANCH   8  10
ENDBRANCH   1   8
TORSDOF 5
ENDMDL
