MODEL 1
REMARK VINA RESULT: -9.031239213      0.000      0.000
REMARK  1 active torsions:
REMARK  status: ('A' for Active; 'I' for Inactive)
REMARK       I    between atoms: C1_2  and  N1_3 
REMARK       I    between atoms: C1_2  and  N3_16 
REMARK    1  A    between atoms: N1_3  and  C2_5 
ROOT
HETATM    1  O1  UNL     1      -0.286  30.695   3.105  1.00  0.00    -0.246 OA
HETATM    2  C1  UNL     1       0.844  31.167   3.295  1.00  0.00     0.331 C 
HETATM    3  N1  UNL     1       1.126  32.534   3.005  1.00  0.00    -0.307 N 
ATOM      4  H1  UNL     1       1.667  32.737   2.166  1.00  0.00     0.170 HD
HETATM    5  N3  UNL     1       1.928  30.387   3.807  1.00  0.00    -0.274 N 
HETATM    6  C11 UNL     1       3.190  30.802   4.049  1.00  0.00     0.103 A 
HETATM    7  C12 UNL     1       3.983  29.812   4.538  1.00  0.00     0.031 A 
HETATM    8  C13 UNL     1       3.168  28.695   4.610  1.00  0.00    -0.007 A 
HETATM    9  C14 UNL     1       3.450  27.414   5.033  1.00  0.00     0.014 A 
HETATM   10  C15 UNL     1       2.411  26.486   4.992  1.00  0.00     0.001 A 
HETATM   11  C16 UNL     1       1.156  26.845   4.545  1.00  0.00     0.002 A 
HETATM   12  C17 UNL     1       0.902  28.140   4.126  1.00  0.00     0.031 A 
HETATM   13  C18 UNL     1       1.919  29.068   4.160  1.00  0.00     0.053 A 
ENDROOT
BRANCH   3  14
HETATM   14  C2  UNL     1       0.755  33.511   3.713  1.00  0.00     0.050 A 
HETATM   15  C3  UNL     1       1.546  33.962   4.740  1.00  0.00     0.047 A 
HETATM   16  C4  UNL     1       1.138  35.043   5.524  1.00  0.00     0.090 A 
HETATM   17  N2  UNL     1      -0.035  35.627   5.254  1.00  0.00    -0.365 N 
HETATM   18  C5  UNL     1      -0.825  35.194   4.249  1.00  0.00     0.044 A 
ATOM     19  H2  UNL     1      -0.341  36.417   5.822  1.00  0.00     0.165 HD
HETATM   20  C6  UNL     1      -2.034  35.789   3.966  1.00  0.00     0.030 A 
HETATM   21  C10 UNL     1      -0.447  34.114   3.444  1.00  0.00     0.017 A 
HETATM   22  C7  UNL     1      -2.854  35.365   2.946  1.00  0.00     0.002 A 
HETATM   23  C8  UNL     1      -2.485  34.303   2.151  1.00  0.00     0.001 A 
HETATM   24  C9  UNL     1      -1.276  33.694   2.420  1.00  0.00     0.016 A 
ENDBRANCH   3  14
TORSDOF 1
ENDMDL
MODEL 2
REMARK VINA RESULT: -8.277950042      1.277      6.854
REMARK  1 active torsions:
REMARK  status: ('A' for Active; 'I' for Inactive)
REMARK       I    between atoms: C1_2  and  N1_3 
REMARK       I    between atoms: C1_2  and  N3_16 
REMARK    1  A    between atoms: N1_3  and  C2_5 
ROOT
HETATM    1  O1  UNL     1      -0.760  30.610   3.636  1.00  0.00    -0.246 OA
HETATM    2  C1  UNL     1      -0.159  31.251   4.510  1.00  0.00     0.331 C 
HETATM    3  N1  UNL     1       0.675  30.591   5.460  1.00  0.00    -0.307 N 
ATOM      4  H1  UNL     1       0.319  30.486   6.409  1.00  0.00     0.170 HD
HETATM    5  N3  UNL     1      -0.258  32.673   4.628  1.00  0.00    -0.274 N 
HETATM    6  C11 UNL     1       0.352  33.461   5.540  1.00  0.00     0.103 A 
HETATM    7  C12 UNL     1       0.050  34.777   5.381  1.00  0.00     0.031 A 
HETATM    8  C13 UNL     1      -0.810  34.825   4.296  1.00  0.00    -0.007 A 
HETATM    9  C14 UNL     1      -1.426  35.901   3.696  1.00  0.00     0.014 A 
HETATM   10  C15 UNL     1      -2.249  35.637   2.603  1.00  0.00     0.001 A 
HETATM   11  C16 UNL     1      -2.432  34.347   2.148  1.00  0.00     0.002 A 
HETATM   12  C17 UNL     1      -1.799  33.284   2.770  1.00  0.00     0.031 A 
HETATM   13  C18 UNL     1      -0.983  33.530   3.853  1.00  0.00     0.053 A 
ENDROOT
BRANCH   3  14
HETATM   14  C2  UNL     1       1.823  30.128   5.210  1.00  0.00     0.050 A 
HETATM   15  C3  UNL     1       2.934  30.922   5.350  1.00  0.00     0.047 A 
HETATM   16  C4  UNL     1       4.206  30.412   5.075  1.00  0.00     0.090 A 
HETATM   17  N2  UNL     1       4.316  29.140   4.676  1.00  0.00    -0.365 N 
HETATM   18  C5  UNL     1       3.232  28.347   4.533  1.00  0.00     0.044 A 
ATOM     19  H2  UNL     1       5.240  28.760   4.474  1.00  0.00     0.165 HD
HETATM   20  C6  UNL     1       3.338  27.038   4.121  1.00  0.00     0.030 A 
HETATM   21  C10 UNL     1       1.945  28.826   4.799  1.00  0.00     0.017 A 
HETATM   22  C7  UNL     1       2.247  26.213   3.969  1.00  0.00     0.002 A 
HETATM   23  C8  UNL     1       0.979  26.680   4.231  1.00  0.00     0.001 A 
HETATM   24  C9  UNL     1       0.853  27.990   4.645  1.00  0.00     0.016 A 
ENDBRANCH   3  14
TORSDOF 1
ENDMDL
MODEL 3
REMARK VINA RESULT: -8.259924043      1.616      2.274
REMARK  1 active torsions:
REMARK  status: ('A' for Active; 'I' for Inactive)
REMARK       I    between atoms: C1_2  and  N1_3 
REMARK       I    between atoms: C1_2  and  N3_16 
REMARK    1  A    between atoms: N1_3  and  C2_5 
ROOT
HETATM    1  O1  UNL     1       2.436  31.415   6.053  1.00  0.00    -0.246 OA
HETATM    2  C1  UNL     1       1.286  31.295   5.607  1.00  0.00     0.331 C 
HETATM    3  N1  UNL     1       0.324  32.335   5.766  1.00  0.00    -0.307 N 
ATOM      4  H1  UNL     1      -0.408  32.199   6.462  1.00  0.00     0.170 HD
HETATM    5  N3  UNL     1       0.847  30.123   4.913  1.00  0.00    -0.274 N 
HETATM    6  C11 UNL     1      -0.377  29.893   4.391  1.00  0.00     0.103 A 
HETATM    7  C12 UNL     1      -0.471  28.676   3.793  1.00  0.00     0.031 A 
HETATM    8  C13 UNL     1       0.778  28.097   3.947  1.00  0.00    -0.007 A 
HETATM    9  C14 UNL     1       1.245  26.868   3.533  1.00  0.00     0.014 A 
HETATM   10  C15 UNL     1       2.569  26.556   3.836  1.00  0.00     0.001 A 
HETATM   11  C16 UNL     1       3.370  27.446   4.522  1.00  0.00     0.002 A 
HETATM   12  C17 UNL     1       2.873  28.674   4.924  1.00  0.00     0.031 A 
HETATM   13  C18 UNL     1       1.566  28.997   4.632  1.00  0.00     0.053 A 
ENDROOT
BRANCH   3  14
HETATM   14  C2  UNL     1       0.314  33.413   5.108  1.00  0.00     0.050 A 
HETATM   15  C3  UNL     1       1.248  34.386   5.360  1.00  0.00     0.047 A 
HETATM   16  C4  UNL     1       1.239  35.580   4.633  1.00  0.00     0.090 A 
HETATM   17  N2  UNL     1       0.305  35.751   3.690  1.00  0.00    -0.365 N 
HETATM   18  C5  UNL     1      -0.620  34.803   3.431  1.00  0.00     0.044 A 
ATOM     19  H2  UNL     1       0.292  36.618   3.155  1.00  0.00     0.165 HD
HETATM   20  C6  UNL     1      -1.584  34.972   2.463  1.00  0.00     0.030 A 
HETATM   21  C10 UNL     1      -0.640  33.597   4.140  1.00  0.00     0.017 A 
HETATM   22  C7  UNL     1      -2.536  34.019   2.182  1.00  0.00     0.002 A 
HETATM   23  C8  UNL     1      -2.558  32.831   2.878  1.00  0.00     0.001 A 
HETATM   24  C9  UNL     1      -1.599  32.643   3.852  1.00  0.00     0.016 A 
ENDBRANCH   3  14
TORSDOF 1
ENDMDL
MODEL 4
REMARK VINA RESULT: -7.840801844      1.575      6.704
REMARK  1 active torsions:
REMARK  status: ('A' for Active; 'I' for Inactive)
REMARK       I    between atoms: C1_2  and  N1_3 
REMARK       I    between atoms: C1_2  and  N3_16 
REMARK    1  A    between atoms: N1_3  and  C2_5 
ROOT
HETATM    1  O1  UNL     1       2.538  33.249   3.353  1.00  0.00    -0.246 OA
HETATM    2  C1  UNL     1       1.665  32.384   3.194  1.00  0.00     0.331 C 
HETATM    3  N1  UNL     1       2.011  31.047   2.845  1.00  0.00    -0.307 N 
ATOM      4  H1  UNL     1       1.850  30.753   1.882  1.00  0.00     0.170 HD
HETATM    5  N3  UNL     1       0.269  32.662   3.345  1.00  0.00    -0.274 N 
HETATM    6  C11 UNL     1      -0.757  31.797   3.194  1.00  0.00     0.103 A 
HETATM    7  C12 UNL     1      -1.967  32.377   3.409  1.00  0.00     0.031 A 
HETATM    8  C13 UNL     1      -1.688  33.699   3.716  1.00  0.00    -0.007 A 
HETATM    9  C14 UNL     1      -2.539  34.738   4.022  1.00  0.00     0.014 A 
HETATM   10  C15 UNL     1      -1.959  35.977   4.291  1.00  0.00     0.001 A 
HETATM   11  C16 UNL     1      -0.590  36.144   4.251  1.00  0.00     0.002 A 
HETATM   12  C17 UNL     1       0.240  35.080   3.941  1.00  0.00     0.031 A 
HETATM   13  C18 UNL     1      -0.318  33.850   3.672  1.00  0.00     0.053 A 
ENDROOT
BRANCH   3  14
HETATM   14  C2  UNL     1       2.503  30.199   3.641  1.00  0.00     0.050 A 
HETATM   15  C3  UNL     1       3.760  30.386   4.160  1.00  0.00     0.047 A 
HETATM   16  C4  UNL     1       4.307  29.450   5.041  1.00  0.00     0.090 A 
HETATM   17  N2  UNL     1       3.582  28.373   5.366  1.00  0.00    -0.365 N 
HETATM   18  C5  UNL     1       2.345  28.175   4.864  1.00  0.00     0.044 A 
ATOM     19  H2  UNL     1       3.973  27.685   6.009  1.00  0.00     0.165 HD
HETATM   20  C6  UNL     1       1.594  27.070   5.193  1.00  0.00     0.030 A 
HETATM   21  C10 UNL     1       1.768  29.093   3.978  1.00  0.00     0.017 A 
HETATM   22  C7  UNL     1       0.331  26.848   4.693  1.00  0.00     0.002 A 
HETATM   23  C8  UNL     1      -0.240  27.749   3.822  1.00  0.00     0.001 A 
HETATM   24  C9  UNL     1       0.498  28.864   3.480  1.00  0.00     0.016 A 
ENDBRANCH   3  14
TORSDOF 1
ENDMDL
MODEL 5
REMARK VINA RESULT: -7.065596320      1.710      3.090
REMARK  1 active torsions:
REMARK  status: ('A' for Active; 'I' for Inactive)
REMARK       I    between atoms: C1_2  and  N1_3 
REMARK       I    between atoms: C1_2  and  N3_16 
REMARK    1  A    between atoms: N1_3  and  C2_5 
ROOT
HETATM    1  O1  UNL     1       1.535  31.498   5.530  1.00  0.00    -0.246 OA
HETATM    2  C1  UNL     1       0.469  30.965   5.193  1.00  0.00     0.331 C 
HETATM    3  N1  UNL     1      -0.758  31.689   5.234  1.00  0.00    -0.307 N 
ATOM      4  H1  UNL     1      -1.406  31.479   5.992  1.00  0.00     0.170 HD
HETATM    5  N3  UNL     1       0.392  29.607   4.749  1.00  0.00    -0.274 N 
HETATM    6  C11 UNL     1      -0.714  28.935   4.362  1.00  0.00     0.103 A 
HETATM    7  C12 UNL     1      -0.447  27.654   3.995  1.00  0.00     0.031 A 
HETATM    8  C13 UNL     1       0.921  27.505   4.161  1.00  0.00    -0.007 A 
HETATM    9  C14 UNL     1       1.729  26.412   3.938  1.00  0.00     0.014 A 
HETATM   10  C15 UNL     1       3.090  26.562   4.198  1.00  0.00     0.001 A 
HETATM   11  C16 UNL     1       3.596  27.761   4.659  1.00  0.00     0.002 A 
HETATM   12  C17 UNL     1       2.759  28.842   4.873  1.00  0.00     0.031 A 
HETATM   13  C18 UNL     1       1.411  28.709   4.621  1.00  0.00     0.053 A 
ENDROOT
BRANCH   3  14
HETATM   14  C2  UNL     1      -1.101  32.572   4.399  1.00  0.00     0.050 A 
HETATM   15  C3  UNL     1      -2.010  32.277   3.414  1.00  0.00     0.047 A 
HETATM   16  C4  UNL     1      -2.391  33.253   2.489  1.00  0.00     0.090 A 
HETATM   17  N2  UNL     1      -1.853  34.474   2.584  1.00  0.00    -0.365 N 
HETATM   18  C5  UNL     1      -0.957  34.779   3.546  1.00  0.00     0.044 A 
ATOM     19  H2  UNL     1      -2.126  35.192   1.913  1.00  0.00     0.165 HD
HETATM   20  C6  UNL     1      -0.399  36.033   3.650  1.00  0.00     0.030 A 
HETATM   21  C10 UNL     1      -0.554  33.826   4.489  1.00  0.00     0.017 A 
HETATM   22  C7  UNL     1       0.515  36.366   4.623  1.00  0.00     0.002 A 
HETATM   23  C8  UNL     1       0.914  35.431   5.552  1.00  0.00     0.001 A 
HETATM   24  C9  UNL     1       0.365  34.168   5.464  1.00  0.00     0.016 A 
ENDBRANCH   3  14
TORSDOF 1
ENDMDL
