MODEL 1
REMARK VINA RESULT: -6.670973323      0.000      0.000
REMARK  1 active torsions:
REMARK  status: ('A' for Active; 'I' for Inactive)
REMARK    1  A    between atoms: N1_2  and  C2_5 
ROOT
HETATM    1  C2  UNL     1      42.582   0.908  27.068  1.00  0.00     0.196 C 
HETATM    2  C3  UNL     1      43.144   0.289  25.818  1.00  0.00     0.023 C 
HETATM    3  C4  UNL     1      44.655   0.074  25.888  1.00  0.00     0.028 C 
HETATM    4  C5  UNL     1      45.139  -0.897  24.885  1.00  0.00     0.021 C 
HETATM    5 BR1  UNL     1      46.852  -1.632  25.390  1.00  0.00    -0.085 Br
HETATM    6  C6  UNL     1      44.200  -1.913  24.362  1.00  0.00     0.043 C 
HETATM    7  C7  UNL     1      43.812  -0.982  23.279  1.00  0.00     0.029 C 
HETATM    8 BR2  UNL     1      43.585  -1.958  21.610  1.00  0.00    -0.085 Br
HETATM    9  C8  UNL     1      45.157  -0.349  23.461  1.00  0.00     0.043 C 
HETATM   10  C9  UNL     1      42.651  -0.078  23.509  1.00  0.00    -0.022 C 
HETATM   11  C10 UNL     1      42.464   0.686  22.198  1.00  0.00     0.017 C 
HETATM   12  C11 UNL     1      41.381  -0.781  23.864  1.00  0.00     0.012 C 
HETATM   13  C12 UNL     1      40.501  -0.189  24.898  1.00  0.00     0.017 C 
HETATM   14  C13 UNL     1      40.730   1.160  25.378  1.00  0.00     0.035 C 
HETATM   15  C14 UNL     1      41.654   1.875  24.489  1.00  0.00     0.022 C 
HETATM   16  C15 UNL     1      42.895   0.989  24.554  1.00  0.00     0.002 C 
HETATM   17  C16 UNL     1      41.296   1.494  26.733  1.00  0.00     0.055 C 
HETATM   18  C17 UNL     1      39.987   1.117  27.263  1.00  0.00     0.162 C 
HETATM   19 CL1  UNL     1      39.464   2.044  28.700  1.00  0.00    -0.118 Cl
HETATM   20  C18 UNL     1      39.501   1.767  25.955  1.00  0.00     0.268 C 
HETATM   21  F1  UNL     1      38.336   1.236  25.470  1.00  0.00    -0.204 F 
HETATM   22  F2  UNL     1      39.519   3.150  26.070  1.00  0.00    -0.204 F 
ENDROOT
BRANCH   1  23
HETATM   23  N1  UNL     1      42.565  -0.068  28.152  1.00  0.00    -0.074 N 
HETATM   24  C1  UNL     1      42.621  -1.432  27.661  1.00  0.00     0.267 C 
ATOM     25  H12 UNL     1      41.761   0.072  28.762  1.00  0.00     0.277 HD
ATOM     26  H11 UNL     1      43.311   0.114  28.823  1.00  0.00     0.277 HD
ENDBRANCH   1  23
TORSDOF 1
ENDMDL
MODEL 2
REMARK VINA RESULT: -6.667218743      3.711      5.177
REMARK  1 active torsions:
REMARK  status: ('A' for Active; 'I' for Inactive)
REMARK    1  A    between atoms: N1_2  and  C2_5 
ROOT
HETATM    1  C2  UNL     1      43.418  -0.908  27.068  1.00  0.00     0.196 C 
HETATM    2  C3  UNL     1      42.855  -0.289  25.818  1.00  0.00     0.023 C 
HETATM    3  C4  UNL     1      41.345  -0.074  25.888  1.00  0.00     0.028 C 
HETATM    4  C5  UNL     1      40.861   0.897  24.885  1.00  0.00     0.021 C 
HETATM    5 BR1  UNL     1      39.147   1.632  25.390  1.00  0.00    -0.085 Br
HETATM    6  C6  UNL     1      41.800   1.913  24.363  1.00  0.00     0.043 C 
HETATM    7  C7  UNL     1      42.188   0.983  23.279  1.00  0.00     0.029 C 
HETATM    8 BR2  UNL     1      42.415   1.958  21.611  1.00  0.00    -0.085 Br
HETATM    9  C8  UNL     1      40.843   0.349  23.461  1.00  0.00     0.043 C 
HETATM   10  C9  UNL     1      43.349   0.078  23.509  1.00  0.00    -0.022 C 
HETATM   11  C10 UNL     1      43.536  -0.685  22.198  1.00  0.00     0.017 C 
HETATM   12  C11 UNL     1      44.619   0.781  23.864  1.00  0.00     0.012 C 
HETATM   13  C12 UNL     1      45.499   0.189  24.898  1.00  0.00     0.017 C 
HETATM   14  C13 UNL     1      45.270  -1.160  25.378  1.00  0.00     0.035 C 
HETATM   15  C14 UNL     1      44.346  -1.875  24.489  1.00  0.00     0.022 C 
HETATM   16  C15 UNL     1      43.105  -0.989  24.554  1.00  0.00     0.002 C 
HETATM   17  C16 UNL     1      44.704  -1.494  26.733  1.00  0.00     0.055 C 
HETATM   18  C17 UNL     1      46.013  -1.117  27.263  1.00  0.00     0.162 C 
HETATM   19 CL1  UNL     1      46.536  -2.045  28.700  1.00  0.00    -0.118 Cl
HETATM   20  C18 UNL     1      46.499  -1.767  25.955  1.00  0.00     0.268 C 
HETATM   21  F1  UNL     1      47.664  -1.236  25.470  1.00  0.00    -0.204 F 
HETATM   22  F2  UNL     1      46.481  -3.150  26.070  1.00  0.00    -0.204 F 
ENDROOT
BRANCH   1  23
HETATM   23  N1  UNL     1      43.434   0.067  28.152  1.00  0.00    -0.074 N 
HETATM   24  C1  UNL     1      43.379   1.431  27.662  1.00  0.00     0.267 C 
ATOM     25  H12 UNL     1      44.239  -0.073  28.762  1.00  0.00     0.277 HD
ATOM     26  H11 UNL     1      42.688  -0.115  28.823  1.00  0.00     0.277 HD
ENDBRANCH   1  23
TORSDOF 1
ENDMDL
MODEL 3
REMARK VINA RESULT: -5.534865671      3.917      5.381
REMARK  1 active torsions:
REMARK  status: ('A' for Active; 'I' for Inactive)
REMARK    1  A    between atoms: N1_2  and  C2_5 
ROOT
HETATM    1  C2  UNL     1      44.040  -0.720  27.328  1.00  0.00     0.196 C 
HETATM    2  C3  UNL     1      42.804   0.135  27.384  1.00  0.00     0.023 C 
HETATM    3  C4  UNL     1      42.167   0.172  28.772  1.00  0.00     0.028 C 
HETATM    4  C5  UNL     1      41.243   1.312  28.945  1.00  0.00     0.021 C 
HETATM    5 BR1  UNL     1      40.972   1.718  30.814  1.00  0.00    -0.085 Br
HETATM    6  C6  UNL     1      41.428   2.516  28.107  1.00  0.00     0.043 C 
HETATM    7  C7  UNL     1      40.526   1.934  27.088  1.00  0.00     0.029 C 
HETATM    8 BR2  UNL     1      39.377   3.317  26.345  1.00  0.00    -0.085 Br
HETATM    9  C8  UNL     1      39.919   1.142  28.206  1.00  0.00     0.043 C 
HETATM   10  C9  UNL     1      41.129   1.122  25.995  1.00  0.00    -0.022 C 
HETATM   11  C10 UNL     1      39.964   0.738  25.083  1.00  0.00     0.017 C 
HETATM   12  C11 UNL     1      42.172   1.837  25.198  1.00  0.00     0.012 C 
HETATM   13  C12 UNL     1      43.382   1.095  24.775  1.00  0.00     0.017 C 
HETATM   14  C13 UNL     1      43.447  -0.348  24.907  1.00  0.00     0.035 C 
HETATM   15  C14 UNL     1      42.112  -0.904  25.160  1.00  0.00     0.022 C 
HETATM   16  C15 UNL     1      41.720  -0.193  26.453  1.00  0.00     0.002 C 
HETATM   17  C16 UNL     1      44.275  -1.069  25.938  1.00  0.00     0.055 C 
HETATM   18  C17 UNL     1      45.430  -0.709  25.119  1.00  0.00     0.162 C 
HETATM   19 CL1  UNL     1      46.753  -1.912  25.116  1.00  0.00    -0.118 Cl
HETATM   20  C18 UNL     1      44.431  -0.954  23.973  1.00  0.00     0.268 C 
HETATM   21  F1  UNL     1      44.674  -0.203  22.854  1.00  0.00    -0.204 F 
HETATM   22  F2  UNL     1      44.281  -2.316  23.750  1.00  0.00    -0.204 F 
ENDROOT
BRANCH   1  23
HETATM   23  N1  UNL     1      45.146  -0.053  28.005  1.00  0.00    -0.074 N 
HETATM   24  C1  UNL     1      46.068  -0.997  28.608  1.00  0.00     0.267 C 
ATOM     25  H12 UNL     1      44.807   0.620  28.691  1.00  0.00     0.277 HD
ATOM     26  H11 UNL     1      45.632   0.587  27.376  1.00  0.00     0.277 HD
ENDBRANCH   1  23
TORSDOF 1
ENDMDL
MODEL 4
REMARK VINA RESULT: -5.462518079      2.282      3.482
REMARK  1 active torsions:
REMARK  status: ('A' for Active; 'I' for Inactive)
REMARK    1  A    between atoms: N1_2  and  C2_5 
ROOT
HETATM    1  C2  UNL     1      41.929   0.736  27.383  1.00  0.00     0.196 C 
HETATM    2  C3  UNL     1      43.161  -0.125  27.435  1.00  0.00     0.023 C 
HETATM    3  C4  UNL     1      43.797  -0.171  28.823  1.00  0.00     0.028 C 
HETATM    4  C5  UNL     1      44.716  -1.315  28.991  1.00  0.00     0.021 C 
HETATM    5 BR1  UNL     1      44.986  -1.730  30.858  1.00  0.00    -0.085 Br
HETATM    6  C6  UNL     1      44.526  -2.515  28.149  1.00  0.00     0.043 C 
HETATM    7  C7  UNL     1      45.430  -1.934  27.132  1.00  0.00     0.029 C 
HETATM    8 BR2  UNL     1      46.573  -3.320  26.384  1.00  0.00    -0.085 Br
HETATM    9  C8  UNL     1      46.041  -1.149  28.252  1.00  0.00     0.043 C 
HETATM   10  C9  UNL     1      44.831  -1.115  26.042  1.00  0.00    -0.022 C 
HETATM   11  C10 UNL     1      45.998  -0.733  25.131  1.00  0.00     0.017 C 
HETATM   12  C11 UNL     1      43.784  -1.822  25.242  1.00  0.00     0.012 C 
HETATM   13  C12 UNL     1      42.578  -1.073  24.822  1.00  0.00     0.017 C 
HETATM   14  C13 UNL     1      42.519   0.370  24.961  1.00  0.00     0.035 C 
HETATM   15  C14 UNL     1      43.857   0.919  25.215  1.00  0.00     0.022 C 
HETATM   16  C15 UNL     1      44.246   0.201  26.505  1.00  0.00     0.002 C 
HETATM   17  C16 UNL     1      41.696   1.091  25.994  1.00  0.00     0.055 C 
HETATM   18  C17 UNL     1      40.538   0.739  25.174  1.00  0.00     0.162 C 
HETATM   19 CL1  UNL     1      39.221   1.949  25.176  1.00  0.00    -0.118 Cl
HETATM   20  C18 UNL     1      41.538   0.984  24.028  1.00  0.00     0.268 C 
HETATM   21  F1  UNL     1      41.291   0.238  22.907  1.00  0.00    -0.204 F 
HETATM   22  F2  UNL     1      41.695   2.346  23.811  1.00  0.00    -0.204 F 
ENDROOT
BRANCH   1  23
HETATM   23  N1  UNL     1      40.820   0.072  28.057  1.00  0.00    -0.074 N 
HETATM   24  C1  UNL     1      39.935   1.015  28.714  1.00  0.00     0.267 C 
ATOM     25  H12 UNL     1      41.155  -0.636  28.710  1.00  0.00     0.277 HD
ATOM     26  H11 UNL     1      40.305  -0.532  27.415  1.00  0.00     0.277 HD
ENDBRANCH   1  23
TORSDOF 1
ENDMDL
MODEL 5
REMARK VINA RESULT: -5.399190130      3.782      5.228
REMARK  1 active torsions:
REMARK  status: ('A' for Active; 'I' for Inactive)
REMARK    1  A    between atoms: N1_2  and  C2_5 
ROOT
HETATM    1  C2  UNL     1      45.257  -0.792  25.258  1.00  0.00     0.196 C 
HETATM    2  C3  UNL     1      43.971  -0.024  25.125  1.00  0.00     0.023 C 
HETATM    3  C4  UNL     1      43.943   0.886  23.899  1.00  0.00     0.028 C 
HETATM    4  C5  UNL     1      42.574   1.297  23.526  1.00  0.00     0.021 C 
HETATM    5 BR1  UNL     1      42.490   1.867  21.682  1.00  0.00    -0.085 Br
HETATM    6  C6  UNL     1      41.436   0.441  23.924  1.00  0.00     0.043 C 
HETATM    7  C7  UNL     1      41.322   1.197  25.191  1.00  0.00     0.029 C 
HETATM    8 BR2  UNL     1      39.448   1.471  25.639  1.00  0.00    -0.085 Br
HETATM    9  C8  UNL     1      41.970   2.337  24.466  1.00  0.00     0.043 C 
HETATM   10  C9  UNL     1      42.069   0.699  26.379  1.00  0.00    -0.022 C 
HETATM   11  C10 UNL     1      41.687   1.638  27.523  1.00  0.00     0.017 C 
HETATM   12  C11 UNL     1      41.751  -0.710  26.762  1.00  0.00     0.012 C 
HETATM   13  C12 UNL     1      42.851  -1.595  27.209  1.00  0.00     0.017 C 
HETATM   14  C13 UNL     1      44.160  -1.050  27.511  1.00  0.00     0.035 C 
HETATM   15  C14 UNL     1      44.096   0.411  27.635  1.00  0.00     0.022 C 
HETATM   16  C15 UNL     1      43.573   0.816  26.260  1.00  0.00     0.002 C 
HETATM   17  C16 UNL     1      45.375  -1.226  26.639  1.00  0.00     0.055 C 
HETATM   18  C17 UNL     1      45.410  -2.600  27.133  1.00  0.00     0.162 C 
HETATM   19 CL1  UNL     1      47.050  -3.293  27.307  1.00  0.00    -0.118 Cl
HETATM   20  C18 UNL     1      44.934  -1.924  28.432  1.00  0.00     0.268 C 
HETATM   21  F1  UNL     1      44.156  -2.727  29.224  1.00  0.00    -0.204 F 
HETATM   22  F2  UNL     1      46.001  -1.314  29.076  1.00  0.00    -0.204 F 
ENDROOT
BRANCH   1  23
HETATM   23  N1  UNL     1      45.318  -1.851  24.258  1.00  0.00    -0.074 N 
HETATM   24  C1  UNL     1      44.018  -2.138  23.683  1.00  0.00     0.267 C 
ATOM     25  H12 UNL     1      45.747  -2.694  24.639  1.00  0.00     0.277 HD
ATOM     26  H11 UNL     1      46.003  -1.636  23.533  1.00  0.00     0.277 HD
ENDBRANCH   1  23
TORSDOF 1
ENDMDL
