MODEL 1
REMARK VINA RESULT: -6.423780272      0.000      0.000
REMARK  4 active torsions:
REMARK  status: ('A' for Active; 'I' for Inactive)
REMARK    1  A    between atoms: C1_4  and  C2_5 
REMARK    2  A    between atoms: C2_5  and  C3_7 
REMARK    3  A    between atoms: C4_10  and  N3_11 
REMARK    4  A    between atoms: C5_16  and  N5_17 
ROOT
HETATM    1  C3  UNL     1      48.361 120.760  52.288  1.00  0.00     0.144 C 
HETATM    2  N2  UNL     1      49.567 121.138  51.840  1.00  0.00    -0.184 N 
ATOM      3  H2  UNL     1      50.104 121.709  52.493  1.00  0.00     0.184 HD
HETATM    4  C4  UNL     1      50.182 120.892  50.678  1.00  0.00     0.691 C 
HETATM    5  N4  UNL     1      49.721 120.178  49.625  1.00  0.00    -0.023 N 
ATOM      6  H4  UNL     1      50.313 120.179  48.795  1.00  0.00     0.203 HD
HETATM    7  C5  UNL     1      48.582 119.469  49.532  1.00  0.00     0.692 C 
HETATM    8  N6  UNL     1      47.621 119.272  50.479  1.00  0.00    -0.174 N 
ATOM      9  H6  UNL     1      46.943 118.533  50.294  1.00  0.00     0.186 HD
HETATM   10  C6  UNL     1      47.472 119.949  51.629  1.00  0.00     0.146 C 
HETATM   11  N7  UNL     1      46.343 119.826  52.195  1.00  0.00    -0.383 N 
ATOM     12  H71 UNL     1      45.682 119.223  51.705  1.00  0.00     0.157 HD
ATOM     13  H72 UNL     1      46.230 120.340  53.069  1.00  0.00     0.157 HD
ENDROOT
BRANCH   1  14
HETATM   14  C2  UNL     1      47.991 121.268  53.588  1.00  0.00     0.217 C 
HETATM   15  O1  UNL     1      47.228 122.265  53.657  1.00  0.00    -0.284 OA
BRANCH  14  16
HETATM   16  C1  UNL     1      48.461 120.678  54.826  1.00  0.00     0.138 C 
HETATM   17  N1  UNL     1      47.843 119.710  55.400  1.00  0.00    -0.405 N 
ATOM     18  H12 UNL     1      46.995 119.356  54.958  1.00  0.00     0.155 HD
ATOM     19  H11 UNL     1      48.174 119.295  56.271  1.00  0.00     0.155 HD
ENDBRANCH  14  16
ENDBRANCH   1  14
BRANCH   4  20
HETATM   20  N3  UNL     1      51.344 121.392  50.554  1.00  0.00    -0.234 N 
ATOM     21  H32 UNL     1      51.663 121.987  51.317  1.00  0.00     0.174 HD
ATOM     22  H31 UNL     1      51.841 121.145  49.698  1.00  0.00     0.174 HD
ENDBRANCH   4  20
BRANCH   7  23
HETATM   23  N5  UNL     1      48.398 118.909  48.385  1.00  0.00    -0.234 N 
ATOM     24  H52 UNL     1      48.539 119.489  47.558  1.00  0.00     0.174 HD
ATOM     25  H51 UNL     1      48.127 117.927  48.436  1.00  0.00     0.174 HD
ENDBRANCH   7  23
TORSDOF 4
ENDMDL
MODEL 2
REMARK VINA RESULT: -6.336771562      2.219      4.753
REMARK  4 active torsions:
REMARK  status: ('A' for Active; 'I' for Inactive)
REMARK    1  A    between atoms: C1_4  and  C2_5 
REMARK    2  A    between atoms: C2_5  and  C3_7 
REMARK    3  A    between atoms: C4_10  and  N3_11 
REMARK    4  A    between atoms: C5_16  and  N5_17 
ROOT
HETATM    1  C3  UNL     1      49.222 120.211  50.665  1.00  0.00     0.144 C 
HETATM    2  N2  UNL     1      47.980 119.822  50.344  1.00  0.00    -0.184 N 
ATOM      3  H2  UNL     1      47.896 119.381  49.428  1.00  0.00     0.184 HD
HETATM    4  C4  UNL     1      46.833 119.916  51.025  1.00  0.00     0.691 C 
HETATM    5  N4  UNL     1      46.632 120.453  52.250  1.00  0.00    -0.023 N 
ATOM      6  H4  UNL     1      45.662 120.503  52.560  1.00  0.00     0.203 HD
HETATM    7  C5  UNL     1      47.547 120.930  53.113  1.00  0.00     0.692 C 
HETATM    8  N6  UNL     1      48.904 120.971  52.979  1.00  0.00    -0.174 N 
ATOM      9  H6  UNL     1      49.440 121.169  53.824  1.00  0.00     0.186 HD
HETATM   10  C6  UNL     1      49.610 120.778  51.854  1.00  0.00     0.146 C 
HETATM   11  N7  UNL     1      50.814 121.176  51.886  1.00  0.00    -0.383 N 
ATOM     12  H71 UNL     1      51.102 121.597  52.769  1.00  0.00     0.157 HD
ATOM     13  H72 UNL     1      51.350 121.029  51.030  1.00  0.00     0.157 HD
ENDROOT
BRANCH   1  14
HETATM   14  C2  UNL     1      50.225 120.004  49.646  1.00  0.00     0.217 C 
HETATM   15  O1  UNL     1      50.479 120.938  48.843  1.00  0.00    -0.284 OA
BRANCH  14  16
HETATM   16  C1  UNL     1      50.957 118.760  49.505  1.00  0.00     0.138 C 
HETATM   17  N1  UNL     1      52.194 118.654  49.834  1.00  0.00    -0.405 N 
ATOM     18  H12 UNL     1      52.662 119.481  50.205  1.00  0.00     0.155 HD
ATOM     19  H11 UNL     1      52.709 117.779  49.735  1.00  0.00     0.155 HD
ENDBRANCH  14  16
ENDBRANCH   1  14
BRANCH   4  20
HETATM   20  N3  UNL     1      45.808 119.439  50.444  1.00  0.00    -0.234 N 
ATOM     21  H32 UNL     1      45.672 119.713  49.471  1.00  0.00     0.174 HD
ATOM     22  H31 UNL     1      45.223 118.828  51.013  1.00  0.00     0.174 HD
ENDBRANCH   4  20
BRANCH   7  23
HETATM   23  N5  UNL     1      47.051 121.405  54.204  1.00  0.00    -0.234 N 
ATOM     24  H52 UNL     1      47.704 121.606  54.961  1.00  0.00     0.174 HD
ATOM     25  H51 UNL     1      46.039 121.529  54.186  1.00  0.00     0.174 HD
ENDBRANCH   7  23
TORSDOF 4
ENDMDL
MODEL 3
REMARK VINA RESULT: -6.325790410      1.259      1.651
REMARK  4 active torsions:
REMARK  status: ('A' for Active; 'I' for Inactive)
REMARK    1  A    between atoms: C1_4  and  C2_5 
REMARK    2  A    between atoms: C2_5  and  C3_7 
REMARK    3  A    between atoms: C4_10  and  N3_11 
REMARK    4  A    between atoms: C5_16  and  N5_17 
ROOT
HETATM    1  C3  UNL     1      48.593 120.781  52.298  1.00  0.00     0.144 C 
HETATM    2  N2  UNL     1      49.747 121.214  51.770  1.00  0.00    -0.184 N 
ATOM      3  H2  UNL     1      50.167 122.005  52.257  1.00  0.00     0.184 HD
HETATM    4  C4  UNL     1      50.438 120.780  50.710  1.00  0.00     0.691 C 
HETATM    5  N4  UNL     1      50.129 119.763  49.873  1.00  0.00    -0.023 N 
ATOM      6  H4  UNL     1      50.747 119.645  49.071  1.00  0.00     0.203 HD
HETATM    7  C5  UNL     1      49.112 118.888  49.962  1.00  0.00     0.692 C 
HETATM    8  N6  UNL     1      48.152 118.792  50.927  1.00  0.00    -0.174 N 
ATOM      9  H6  UNL     1      47.599 117.935  50.936  1.00  0.00     0.186 HD
HETATM   10  C6  UNL     1      47.860 119.705  51.867  1.00  0.00     0.146 C 
HETATM   11  N7  UNL     1      46.739 119.558  52.445  1.00  0.00    -0.383 N 
ATOM     12  H71 UNL     1      46.194 118.757  52.124  1.00  0.00     0.157 HD
ATOM     13  H72 UNL     1      46.517 120.252  53.158  1.00  0.00     0.157 HD
ENDROOT
BRANCH   1  14
HETATM   14  C2  UNL     1      48.101 121.537  53.426  1.00  0.00     0.217 C 
HETATM   15  O1  UNL     1      48.114 121.008  54.567  1.00  0.00    -0.284 OA
BRANCH  14  16
HETATM   16  C1  UNL     1      47.589 122.889  53.304  1.00  0.00     0.138 C 
HETATM   17  N1  UNL     1      46.756 123.224  52.386  1.00  0.00    -0.405 N 
ATOM     18  H12 UNL     1      46.454 122.504  51.729  1.00  0.00     0.155 HD
ATOM     19  H11 UNL     1      46.396 124.175  52.301  1.00  0.00     0.155 HD
ENDBRANCH  14  16
ENDBRANCH   1  14
BRANCH   4  20
HETATM   20  N3  UNL     1      51.517 121.404  50.464  1.00  0.00    -0.234 N 
ATOM     21  H32 UNL     1      52.332 120.829  50.251  1.00  0.00     0.174 HD
ATOM     22  H31 UNL     1      51.457 122.421  50.503  1.00  0.00     0.174 HD
ENDBRANCH   4  20
BRANCH   7  23
HETATM   23  N5  UNL     1      49.058 118.036  48.995  1.00  0.00    -0.234 N 
ATOM     24  H52 UNL     1      49.663 117.218  49.065  1.00  0.00     0.174 HD
ATOM     25  H51 UNL     1      48.402 118.283  48.255  1.00  0.00     0.174 HD
ENDBRANCH   7  23
TORSDOF 4
ENDMDL
MODEL 4
REMARK VINA RESULT: -6.309073942      2.344      4.775
REMARK  4 active torsions:
REMARK  status: ('A' for Active; 'I' for Inactive)
REMARK    1  A    between atoms: C1_4  and  C2_5 
REMARK    2  A    between atoms: C2_5  and  C3_7 
REMARK    3  A    between atoms: C4_10  and  N3_11 
REMARK    4  A    between atoms: C5_16  and  N5_17 
ROOT
HETATM    1  C3  UNL     1      48.960 119.918  50.926  1.00  0.00     0.144 C 
HETATM    2  N2  UNL     1      48.343 119.184  51.863  1.00  0.00    -0.184 N 
ATOM      3  H2  UNL     1      48.528 118.182  51.808  1.00  0.00     0.184 HD
HETATM    4  C4  UNL     1      47.525 119.547  52.856  1.00  0.00     0.691 C 
HETATM    5  N4  UNL     1      47.096 120.791  53.171  1.00  0.00    -0.023 N 
ATOM      6  H4  UNL     1      46.405 120.847  53.918  1.00  0.00     0.203 HD
HETATM    7  C5  UNL     1      47.464 121.964  52.625  1.00  0.00     0.692 C 
HETATM    8  N6  UNL     1      48.375 122.195  51.636  1.00  0.00    -0.174 N 
ATOM      9  H6  UNL     1      48.672 123.162  51.507  1.00  0.00     0.186 HD
HETATM   10  C6  UNL     1      48.920 121.285  50.813  1.00  0.00     0.146 C 
HETATM   11  N7  UNL     1      49.483 121.751  49.776  1.00  0.00    -0.383 N 
ATOM     12  H71 UNL     1      49.453 122.768  49.692  1.00  0.00     0.157 HD
ATOM     13  H72 UNL     1      49.897 121.060  49.151  1.00  0.00     0.157 HD
ENDROOT
BRANCH   1  14
HETATM   14  C2  UNL     1      49.732 119.174  49.958  1.00  0.00     0.217 C 
HETATM   15  O1  UNL     1      50.988 119.209  50.024  1.00  0.00    -0.284 OA
BRANCH  14  16
HETATM   16  C1  UNL     1      49.123 118.383  48.907  1.00  0.00     0.138 C 
HETATM   17  N1  UNL     1      49.246 117.106  48.854  1.00  0.00    -0.405 N 
ATOM     18  H12 UNL     1      49.794 116.648  49.583  1.00  0.00     0.155 HD
ATOM     19  H11 UNL     1      48.818 116.549  48.114  1.00  0.00     0.155 HD
ENDBRANCH  14  16
ENDBRANCH   1  14
BRANCH   4  20
HETATM   20  N3  UNL     1      47.102 118.603  53.593  1.00  0.00    -0.234 N 
ATOM     21  H32 UNL     1      47.794 118.150  54.190  1.00  0.00     0.174 HD
ATOM     22  H31 UNL     1      46.107 118.393  53.514  1.00  0.00     0.174 HD
ENDBRANCH   4  20
BRANCH   7  23
HETATM   23  N5  UNL     1      46.862 122.992  53.119  1.00  0.00    -0.234 N 
ATOM     24  H52 UNL     1      47.392 123.862  53.164  1.00  0.00     0.174 HD
ATOM     25  H51 UNL     1      45.903 122.813  53.416  1.00  0.00     0.174 HD
ENDBRANCH   7  23
TORSDOF 4
ENDMDL
MODEL 5
REMARK VINA RESULT: -6.245710620      2.251      2.585
REMARK  4 active torsions:
REMARK  status: ('A' for Active; 'I' for Inactive)
REMARK    1  A    between atoms: C1_4  and  C2_5 
REMARK    2  A    between atoms: C2_5  and  C3_7 
REMARK    3  A    between atoms: C4_10  and  N3_11 
REMARK    4  A    between atoms: C5_16  and  N5_17 
ROOT
HETATM    1  C3  UNL     1      48.548 121.107  52.622  1.00  0.00     0.144 C 
HETATM    2  N2  UNL     1      49.387 120.901  51.596  1.00  0.00    -0.184 N 
ATOM      3  H2  UNL     1      50.123 120.219  51.778  1.00  0.00     0.184 HD
HETATM    4  C4  UNL     1      49.418 121.443  50.373  1.00  0.00     0.691 C 
HETATM    5  N4  UNL     1      48.584 122.372  49.851  1.00  0.00    -0.023 N 
ATOM      6  H4  UNL     1      48.830 122.718  48.924  1.00  0.00     0.203 HD
HETATM    7  C5  UNL     1      47.474 122.898  50.397  1.00  0.00     0.692 C 
HETATM    8  N6  UNL     1      46.898 122.612  51.601  1.00  0.00    -0.174 N 
ATOM      9  H6  UNL     1      45.948 122.954  51.744  1.00  0.00     0.186 HD
HETATM   10  C6  UNL     1      47.449 121.929  52.616  1.00  0.00     0.146 C 
HETATM   11  N7  UNL     1      46.875 122.058  53.740  1.00  0.00    -0.383 N 
ATOM     12  H71 UNL     1      46.058 122.669  53.735  1.00  0.00     0.157 HD
ATOM     13  H72 UNL     1      47.294 121.539  54.511  1.00  0.00     0.157 HD
ENDROOT
BRANCH   1  14
HETATM   14  C2  UNL     1      48.855 120.383  53.833  1.00  0.00     0.217 C 
HETATM   15  O1  UNL     1      49.420 120.990  54.779  1.00  0.00    -0.284 OA
BRANCH  14  16
HETATM   16  C1  UNL     1      48.539 118.979  54.012  1.00  0.00     0.138 C 
HETATM   17  N1  UNL     1      47.360 118.512  53.812  1.00  0.00    -0.405 N 
ATOM     18  H12 UNL     1      46.632 119.164  53.517  1.00  0.00     0.155 HD
ATOM     19  H11 UNL     1      47.139 117.524  53.937  1.00  0.00     0.155 HD
ENDBRANCH  14  16
ENDBRANCH   1  14
BRANCH   4  20
HETATM   20  N3  UNL     1      50.348 121.030  49.612  1.00  0.00    -0.234 N 
ATOM     21  H32 UNL     1      51.192 120.693  50.074  1.00  0.00     0.174 HD
ATOM     22  H31 UNL     1      50.153 121.076  48.612  1.00  0.00     0.174 HD
ENDBRANCH   4  20
BRANCH   7  23
HETATM   23  N5  UNL     1      46.893 123.788  49.666  1.00  0.00    -0.234 N 
ATOM     24  H52 UNL     1      47.487 124.507  49.253  1.00  0.00     0.174 HD
ATOM     25  H51 UNL     1      45.884 123.669  49.583  1.00  0.00     0.174 HD
ENDBRANCH   7  23
TORSDOF 4
ENDMDL
