MODEL 1
REMARK VINA RESULT: -6.374430692      0.000      0.000
REMARK  4 active torsions:
REMARK  status: ('A' for Active; 'I' for Inactive)
REMARK       I    between atoms: C1_2  and  N2_4 
REMARK    1  A    between atoms: N2_4  and  N3_6 
REMARK       I    between atoms: N3_6  and  C2_8 
REMARK    2  A    between atoms: C2_8  and  O3_10 
REMARK    3  A    between atoms: O3_10  and  N4_11 
REMARK    4  A    between atoms: N4_11  and  C3_13 
ROOT
HETATM    1  O3  UNL     1      47.074 123.206  51.162  1.00  0.00    -0.177 OA
ENDROOT
BRANCH   1   2
HETATM    2  C2  UNL     1      46.441 122.738  50.049  1.00  0.00     0.401 C 
HETATM    3  N3  UNL     1      46.498 121.393  49.593  1.00  0.00    -0.240 N 
ATOM      4  H3  UNL     1      47.050 120.726  50.133  1.00  0.00     0.192 HD
HETATM    5  O2  UNL     1      45.750 123.535  49.360  1.00  0.00    -0.235 OA
BRANCH   3   6
HETATM    6  N2  UNL     1      45.851 120.938  48.463  1.00  0.00    -0.250 N 
HETATM    7  C1  UNL     1      45.695 119.562  48.147  1.00  0.00     0.347 C 
HETATM    8  N1  UNL     1      45.021 119.146  46.973  1.00  0.00    -0.038 NA
HETATM    9  O1  UNL     1      46.152 118.664  48.901  1.00  0.00    -0.249 OA
ATOM     10  H2  UNL     1      45.462 121.627  47.820  1.00  0.00     0.191 HD
ENDBRANCH   3   6
ENDBRANCH   1   2
BRANCH   1  11
HETATM   11  N4  UNL     1      46.766 122.881  52.460  1.00  0.00    -0.226 N 
ATOM     12  H4  UNL     1      45.881 123.213  52.842  1.00  0.00     0.198 HD
BRANCH  11  13
HETATM   13  C3  UNL     1      47.613 122.107  53.304  1.00  0.00     0.196 C 
HETATM   14  N5  UNL     1      48.882 121.989  53.236  1.00  0.00    -0.359 N 
HETATM   15  C4  UNL     1      49.403 121.114  54.265  1.00  0.00     0.142 C 
ATOM     16  H5  UNL     1      49.461 122.456  52.538  1.00  0.00     0.162 HD
HETATM   17  C5  UNL     1      48.178 120.341  54.714  1.00  0.00     0.142 C 
HETATM   18  N6  UNL     1      47.130 121.311  54.404  1.00  0.00    -0.359 N 
ATOM     19  H6  UNL     1      46.231 121.407  54.876  1.00  0.00     0.162 HD
ENDBRANCH  11  13
ENDBRANCH   1  11
TORSDOF 4
ENDMDL
MODEL 2
REMARK VINA RESULT: -6.371121448      2.559      3.502
REMARK  4 active torsions:
REMARK  status: ('A' for Active; 'I' for Inactive)
REMARK       I    between atoms: C1_2  and  N2_4 
REMARK    1  A    between atoms: N2_4  and  N3_6 
REMARK       I    between atoms: N3_6  and  C2_8 
REMARK    2  A    between atoms: C2_8  and  O3_10 
REMARK    3  A    between atoms: O3_10  and  N4_11 
REMARK    4  A    between atoms: N4_11  and  C3_13 
ROOT
HETATM    1  O3  UNL     1      46.363 123.222  51.814  1.00  0.00    -0.177 OA
ENDROOT
BRANCH   1   2
HETATM    2  C2  UNL     1      46.921 122.975  50.596  1.00  0.00     0.401 C 
HETATM    3  N3  UNL     1      48.284 123.211  50.269  1.00  0.00    -0.240 N 
ATOM      4  H3  UNL     1      48.892 123.591  50.993  1.00  0.00     0.192 HD
HETATM    5  O2  UNL     1      46.198 122.504  49.677  1.00  0.00    -0.235 OA
BRANCH   3   6
HETATM    6  N2  UNL     1      48.831 122.955  49.028  1.00  0.00    -0.250 N 
HETATM    7  C1  UNL     1      49.549 123.919  48.271  1.00  0.00     0.347 C 
HETATM    8  N1  UNL     1      50.091 123.606  47.001  1.00  0.00    -0.038 NA
HETATM    9  O1  UNL     1      49.726 125.086  48.705  1.00  0.00    -0.249 OA
ATOM     10  H2  UNL     1      48.714 122.022  48.633  1.00  0.00     0.191 HD
ENDBRANCH   3   6
ENDBRANCH   1   2
BRANCH   1  11
HETATM   11  N4  UNL     1      47.033 123.276  53.011  1.00  0.00    -0.226 N 
ATOM     12  H4  UNL     1      47.073 124.171  53.499  1.00  0.00     0.198 HD
BRANCH  11  13
HETATM   13  C3  UNL     1      47.676 122.155  53.610  1.00  0.00     0.196 C 
HETATM   14  N5  UNL     1      47.152 121.269  54.363  1.00  0.00    -0.359 N 
HETATM   15  C4  UNL     1      48.115 120.275  54.787  1.00  0.00     0.142 C 
ATOM     16  H5  UNL     1      46.168 121.261  54.635  1.00  0.00     0.162 HD
HETATM   17  C5  UNL     1      49.447 120.955  54.530  1.00  0.00     0.142 C 
HETATM   18  N6  UNL     1      49.074 121.853  53.439  1.00  0.00    -0.359 N 
ATOM     19  H6  UNL     1      49.686 122.199  52.700  1.00  0.00     0.162 HD
ENDBRANCH  11  13
ENDBRANCH   1  11
TORSDOF 4
ENDMDL
MODEL 3
REMARK VINA RESULT: -6.363305704      0.114      1.018
REMARK  4 active torsions:
REMARK  status: ('A' for Active; 'I' for Inactive)
REMARK       I    between atoms: C1_2  and  N2_4 
REMARK    1  A    between atoms: N2_4  and  N3_6 
REMARK       I    between atoms: N3_6  and  C2_8 
REMARK    2  A    between atoms: C2_8  and  O3_10 
REMARK    3  A    between atoms: O3_10  and  N4_11 
REMARK    4  A    between atoms: N4_11  and  C3_13 
ROOT
HETATM    1  O3  UNL     1      47.082 123.239  51.133  1.00  0.00    -0.177 OA
ENDROOT
BRANCH   1   2
HETATM    2  C2  UNL     1      46.442 122.763  50.028  1.00  0.00     0.401 C 
HETATM    3  N3  UNL     1      46.501 121.417  49.578  1.00  0.00    -0.240 N 
ATOM      4  H3  UNL     1      47.060 120.755  50.116  1.00  0.00     0.192 HD
HETATM    5  O2  UNL     1      45.742 123.554  49.340  1.00  0.00    -0.235 OA
BRANCH   3   6
HETATM    6  N2  UNL     1      45.846 120.953  48.455  1.00  0.00    -0.250 N 
HETATM    7  C1  UNL     1      45.696 119.575  48.145  1.00  0.00     0.347 C 
HETATM    8  N1  UNL     1      45.015 119.151  46.978  1.00  0.00    -0.038 NA
HETATM    9  O1  UNL     1      46.165 118.683  48.897  1.00  0.00    -0.249 OA
ATOM     10  H2  UNL     1      45.448 121.638  47.813  1.00  0.00     0.191 HD
ENDBRANCH   3   6
ENDBRANCH   1   2
BRANCH   1  11
HETATM   11  N4  UNL     1      46.776 122.931  52.436  1.00  0.00    -0.226 N 
ATOM     12  H4  UNL     1      45.964 123.380  52.858  1.00  0.00     0.198 HD
BRANCH  11  13
HETATM   13  C3  UNL     1      47.529 122.021  53.232  1.00  0.00     0.196 C 
HETATM   14  N5  UNL     1      47.106 121.289  54.188  1.00  0.00    -0.359 N 
HETATM   15  C4  UNL     1      48.162 120.487  54.768  1.00  0.00     0.142 C 
ATOM     16  H5  UNL     1      46.136 121.272  54.506  1.00  0.00     0.162 HD
HETATM   17  C5  UNL     1      49.423 121.186  54.299  1.00  0.00     0.142 C 
HETATM   18  N6  UNL     1      48.941 121.790  53.059  1.00  0.00    -0.359 N 
ATOM     19  H6  UNL     1      49.496 122.005  52.231  1.00  0.00     0.162 HD
ENDBRANCH  11  13
ENDBRANCH   1  11
TORSDOF 4
ENDMDL
MODEL 4
REMARK VINA RESULT: -6.328853655      1.042      1.545
REMARK  4 active torsions:
REMARK  status: ('A' for Active; 'I' for Inactive)
REMARK       I    between atoms: C1_2  and  N2_4 
REMARK    1  A    between atoms: N2_4  and  N3_6 
REMARK       I    between atoms: N3_6  and  C2_8 
REMARK    2  A    between atoms: C2_8  and  O3_10 
REMARK    3  A    between atoms: O3_10  and  N4_11 
REMARK    4  A    between atoms: N4_11  and  C3_13 
ROOT
HETATM    1  O3  UNL     1      46.616 123.226  51.268  1.00  0.00    -0.177 OA
ENDROOT
BRANCH   1   2
HETATM    2  C2  UNL     1      46.933 122.220  50.406  1.00  0.00     0.401 C 
HETATM    3  N3  UNL     1      45.995 121.314  49.842  1.00  0.00    -0.240 N 
ATOM      4  H3  UNL     1      45.013 121.419  50.097  1.00  0.00     0.192 HD
HETATM    5  O2  UNL     1      48.137 122.062  50.069  1.00  0.00    -0.235 OA
BRANCH   3   6
HETATM    6  N2  UNL     1      46.336 120.300  48.970  1.00  0.00    -0.250 N 
HETATM    7  C1  UNL     1      45.479 119.828  47.939  1.00  0.00     0.347 C 
HETATM    8  N1  UNL     1      45.877 118.783  47.070  1.00  0.00    -0.038 NA
HETATM    9  O1  UNL     1      44.336 120.323  47.765  1.00  0.00    -0.249 OA
ATOM     10  H2  UNL     1      47.253 119.865  49.072  1.00  0.00     0.191 HD
ENDBRANCH   3   6
ENDBRANCH   1   2
BRANCH   1  11
HETATM   11  N4  UNL     1      46.831 123.223  52.624  1.00  0.00    -0.226 N 
ATOM     12  H4  UNL     1      46.471 124.005  53.170  1.00  0.00     0.198 HD
BRANCH  11  13
HETATM   13  C3  UNL     1      47.529 122.189  53.312  1.00  0.00     0.196 C 
HETATM   14  N5  UNL     1      47.057 121.366  54.164  1.00  0.00    -0.359 N 
HETATM   15  C4  UNL     1      48.067 120.452  54.656  1.00  0.00     0.142 C 
ATOM     16  H5  UNL     1      46.082 121.352  54.465  1.00  0.00     0.162 HD
HETATM   17  C5  UNL     1      49.366 121.147  54.294  1.00  0.00     0.142 C 
HETATM   18  N6  UNL     1      48.933 121.919  53.131  1.00  0.00    -0.359 N 
ATOM     19  H6  UNL     1      49.513 122.209  52.344  1.00  0.00     0.162 HD
ENDBRANCH  11  13
ENDBRANCH   1  11
TORSDOF 4
ENDMDL
MODEL 5
REMARK VINA RESULT: -6.251580158      2.623      5.198
REMARK  4 active torsions:
REMARK  status: ('A' for Active; 'I' for Inactive)
REMARK       I    between atoms: C1_2  and  N2_4 
REMARK    1  A    between atoms: N2_4  and  N3_6 
REMARK       I    between atoms: N3_6  and  C2_8 
REMARK    2  A    between atoms: C2_8  and  O3_10 
REMARK    3  A    between atoms: O3_10  and  N4_11 
REMARK    4  A    between atoms: N4_11  and  C3_13 
ROOT
HETATM    1  O3  UNL     1      46.829 123.439  51.924  1.00  0.00    -0.177 OA
ENDROOT
BRANCH   1   2
HETATM    2  C2  UNL     1      47.229 122.494  52.820  1.00  0.00     0.401 C 
HETATM    3  N3  UNL     1      46.890 121.116  52.746  1.00  0.00    -0.240 N 
ATOM      4  H3  UNL     1      46.307 120.807  51.969  1.00  0.00     0.192 HD
HETATM    5  O2  UNL     1      47.951 122.843  53.792  1.00  0.00    -0.235 OA
BRANCH   3   6
HETATM    6  N2  UNL     1      47.304 120.174  53.665  1.00  0.00    -0.250 N 
HETATM    7  C1  UNL     1      47.847 118.911  53.305  1.00  0.00     0.347 C 
HETATM    8  N1  UNL     1      48.257 117.977  54.288  1.00  0.00    -0.038 NA
HETATM    9  O1  UNL     1      47.979 118.578  52.100  1.00  0.00    -0.249 OA
ATOM     10  H2  UNL     1      47.217 120.396  54.656  1.00  0.00     0.191 HD
ENDBRANCH   3   6
ENDBRANCH   1   2
BRANCH   1  11
HETATM   11  N4  UNL     1      46.368 123.200  50.653  1.00  0.00    -0.226 N 
ATOM     12  H4  UNL     1      45.417 122.846  50.545  1.00  0.00     0.198 HD
BRANCH  11  13
HETATM   13  C3  UNL     1      47.140 123.418  49.476  1.00  0.00     0.196 C 
HETATM   14  N5  UNL     1      46.809 123.165  48.270  1.00  0.00    -0.359 N 
HETATM   15  C4  UNL     1      47.853 123.521  47.333  1.00  0.00     0.142 C 
ATOM     16  H5  UNL     1      45.913 122.759  47.998  1.00  0.00     0.162 HD
HETATM   17  C5  UNL     1      49.085 123.623  48.211  1.00  0.00     0.142 C 
HETATM   18  N6  UNL     1      48.466 123.981  49.486  1.00  0.00    -0.359 N 
ATOM     19  H6  UNL     1      48.892 124.524  50.237  1.00  0.00     0.162 HD
ENDBRANCH  11  13
ENDBRANCH   1  11
TORSDOF 4
ENDMDL
