MODEL 1
REMARK VINA RESULT: -3.380973704      0.000      0.000
REMARK  5 active torsions:
REMARK  status: ('A' for Active; 'I' for Inactive)
REMARK    1  A    between atoms: O1_2  and  C2_3 
REMARK    2  A    between atoms: C2_3  and  C3_4 
REMARK    3  A    between atoms: C3_4  and  N1_5 
REMARK    4  A    between atoms: N1_5  and  C4_7 
REMARK    5  A    between atoms: C5_12  and  N4_13 
ROOT
HETATM    1  C4  UNL     1      21.924  10.531  28.275  1.00  0.00     0.707 A 
HETATM    2  N2  UNL     1      21.295   9.440  28.757  1.00  0.00    -0.117 N 
ATOM      3  H2  UNL     1      21.753   8.557  28.985  1.00  0.00     0.206 HD
HETATM    4  N3  UNL     1      20.005   9.675  28.891  1.00  0.00    -0.118 N 
ATOM      5  H3  UNL     1      19.308   9.015  29.236  1.00  0.00     0.206 HD
HETATM    6  C5  UNL     1      19.770  10.939  28.492  1.00  0.00     0.705 A 
HETATM    7  N5  UNL     1      20.955  11.459  28.115  1.00  0.00    -0.020 N 
ATOM      8  H5  UNL     1      21.099  12.406  27.763  1.00  0.00     0.203 HD
ENDROOT
BRANCH   1   9
HETATM    9  N1  UNL     1      23.188  10.613  28.036  1.00  0.00    -0.222 N 
ATOM     10  H1  UNL     1      23.643  11.524  27.978  1.00  0.00     0.177 HD
BRANCH   9  11
HETATM   11  C3  UNL     1      23.952   9.404  27.852  1.00  0.00     0.164 C 
BRANCH  11  12
HETATM   12  C2  UNL     1      25.381   9.600  27.501  1.00  0.00     0.187 C 
BRANCH  12  13
HETATM   13  O1  UNL     1      25.846   9.134  26.330  1.00  0.00    -0.394 OA
HETATM   14  C1  UNL     1      25.685   9.848  25.189  1.00  0.00     0.201 C 
ENDBRANCH  12  13
ENDBRANCH  11  12
ENDBRANCH   9  11
ENDBRANCH   1   9
BRANCH   6  15
HETATM   15  N4  UNL     1      18.597  11.529  28.482  1.00  0.00    -0.233 N 
ATOM     16  H42 UNL     1      18.201  12.137  29.199  1.00  0.00     0.174 HD
ATOM     17  H41 UNL     1      17.905  11.457  27.736  1.00  0.00     0.174 HD
ENDBRANCH   6  15
TORSDOF 5
ENDMDL
MODEL 2
REMARK VINA RESULT: -3.334519991      0.608      1.277
REMARK  5 active torsions:
REMARK  status: ('A' for Active; 'I' for Inactive)
REMARK    1  A    between atoms: O1_2  and  C2_3 
REMARK    2  A    between atoms: C2_3  and  C3_4 
REMARK    3  A    between atoms: C3_4  and  N1_5 
REMARK    4  A    between atoms: N1_5  and  C4_7 
REMARK    5  A    between atoms: C5_12  and  N4_13 
ROOT
HETATM    1  C4  UNL     1      21.905  10.804  28.149  1.00  0.00     0.707 A 
HETATM    2  N2  UNL     1      21.137  11.879  27.882  1.00  0.00    -0.117 N 
ATOM      3  H2  UNL     1      21.487  12.776  27.544  1.00  0.00     0.206 HD
HETATM    4  N3  UNL     1      19.869  11.608  28.120  1.00  0.00    -0.118 N 
ATOM      5  H3  UNL     1      19.085  12.249  27.999  1.00  0.00     0.206 HD
HETATM    6  C5  UNL     1      19.791  10.335  28.553  1.00  0.00     0.705 A 
HETATM    7  N5  UNL     1      21.048   9.848  28.567  1.00  0.00    -0.020 N 
ATOM      8  H5  UNL     1      21.311   8.903  28.850  1.00  0.00     0.203 HD
ENDROOT
BRANCH   1   9
HETATM    9  N1  UNL     1      23.187  10.757  28.015  1.00  0.00    -0.222 N 
ATOM     10  H1  UNL     1      23.740  11.613  28.043  1.00  0.00     0.177 HD
BRANCH   9  11
HETATM   11  C3  UNL     1      23.831   9.481  27.823  1.00  0.00     0.164 C 
BRANCH  11  12
HETATM   12  C2  UNL     1      25.271   9.540  27.472  1.00  0.00     0.187 C 
BRANCH  12  13
HETATM   13  O1  UNL     1      25.677   9.116  26.264  1.00  0.00    -0.394 OA
HETATM   14  C1  UNL     1      25.656   9.951  25.195  1.00  0.00     0.201 C 
ENDBRANCH  12  13
ENDBRANCH  11  12
ENDBRANCH   9  11
ENDBRANCH   1   9
BRANCH   6  15
HETATM   15  N4  UNL     1      18.686   9.712  28.890  1.00  0.00    -0.233 N 
ATOM     16  H42 UNL     1      18.513   9.165  29.733  1.00  0.00     0.174 HD
ATOM     17  H41 UNL     1      17.829   9.688  28.338  1.00  0.00     0.174 HD
ENDBRANCH   6  15
TORSDOF 5
ENDMDL
MODEL 3
REMARK VINA RESULT: -3.300181177      1.017      1.481
REMARK  5 active torsions:
REMARK  status: ('A' for Active; 'I' for Inactive)
REMARK    1  A    between atoms: O1_2  and  C2_3 
REMARK    2  A    between atoms: C2_3  and  C3_4 
REMARK    3  A    between atoms: C3_4  and  N1_5 
REMARK    4  A    between atoms: N1_5  and  C4_7 
REMARK    5  A    between atoms: C5_12  and  N4_13 
ROOT
HETATM    1  C4  UNL     1      22.963   9.195  28.294  1.00  0.00     0.707 A 
HETATM    2  N2  UNL     1      21.845   8.725  28.883  1.00  0.00    -0.117 N 
ATOM      3  H2  UNL     1      21.742   7.787  29.272  1.00  0.00     0.206 HD
HETATM    4  N3  UNL     1      20.904   9.647  28.885  1.00  0.00    -0.118 N 
ATOM      5  H3  UNL     1      19.965   9.546  29.270  1.00  0.00     0.206 HD
HETATM    6  C5  UNL     1      21.400  10.747  28.288  1.00  0.00     0.705 A 
HETATM    7  N5  UNL     1      22.667  10.461  27.928  1.00  0.00    -0.020 N 
ATOM      8  H5  UNL     1      23.304  11.101  27.452  1.00  0.00     0.203 HD
ENDROOT
BRANCH   1   9
HETATM    9  N1  UNL     1      24.056   8.529  28.140  1.00  0.00    -0.222 N 
ATOM     10  H1  UNL     1      24.030   7.562  27.819  1.00  0.00     0.177 HD
BRANCH   9  11
HETATM   11  C3  UNL     1      25.318   9.166  28.427  1.00  0.00     0.164 C 
BRANCH  11  12
HETATM   12  C2  UNL     1      26.028   9.733  27.254  1.00  0.00     0.187 C 
BRANCH  12  13
HETATM   13  O1  UNL     1      25.854   9.179  26.043  1.00  0.00    -0.394 OA
HETATM   14  C1  UNL     1      25.601   9.953  24.958  1.00  0.00     0.201 C 
ENDBRANCH  12  13
ENDBRANCH  11  12
ENDBRANCH   9  11
ENDBRANCH   1   9
BRANCH   6  15
HETATM   15  N4  UNL     1      20.751  11.873  28.105  1.00  0.00    -0.233 N 
ATOM     16  H42 UNL     1      20.514  12.576  28.805  1.00  0.00     0.174 HD
ATOM     17  H41 UNL     1      20.385  12.206  27.213  1.00  0.00     0.174 HD
ENDBRANCH   6  15
TORSDOF 5
ENDMDL
MODEL 4
REMARK VINA RESULT: -3.119641606      1.734      2.394
REMARK  5 active torsions:
REMARK  status: ('A' for Active; 'I' for Inactive)
REMARK    1  A    between atoms: O1_2  and  C2_3 
REMARK    2  A    between atoms: C2_3  and  C3_4 
REMARK    3  A    between atoms: C3_4  and  N1_5 
REMARK    4  A    between atoms: N1_5  and  C4_7 
REMARK    5  A    between atoms: C5_12  and  N4_13 
ROOT
HETATM    1  C4  UNL     1      21.050  11.788  28.121  1.00  0.00     0.707 A 
HETATM    2  N2  UNL     1      19.907  12.464  27.890  1.00  0.00    -0.117 N 
ATOM      3  H2  UNL     1      19.858  13.431  27.565  1.00  0.00     0.206 HD
HETATM    4  N3  UNL     1      18.862  11.701  28.142  1.00  0.00    -0.118 N 
ATOM      5  H3  UNL     1      17.884  11.973  28.047  1.00  0.00     0.206 HD
HETATM    6  C5  UNL     1      19.315  10.500  28.549  1.00  0.00     0.705 A 
HETATM    7  N5  UNL     1      20.661  10.561  28.533  1.00  0.00    -0.020 N 
ATOM      8  H5  UNL     1      21.289   9.800  28.792  1.00  0.00     0.203 HD
ENDROOT
BRANCH   1   9
HETATM    9  N1  UNL     1      22.238  12.263  27.965  1.00  0.00    -0.222 N 
ATOM     10  H1  UNL     1      22.540  13.081  28.495  1.00  0.00     0.177 HD
BRANCH   9  11
HETATM   11  C3  UNL     1      23.137  11.628  27.033  1.00  0.00     0.164 C 
BRANCH  11  12
HETATM   12  C2  UNL     1      24.188  10.776  27.641  1.00  0.00     0.187 C 
BRANCH  12  13
HETATM   13  O1  UNL     1      23.848   9.856  28.560  1.00  0.00    -0.394 OA
HETATM   14  C1  UNL     1      23.677   8.558  28.207  1.00  0.00     0.201 C 
ENDBRANCH  12  13
ENDBRANCH  11  12
ENDBRANCH   9  11
ENDBRANCH   1   9
BRANCH   6  15
HETATM   15  N4  UNL     1      18.563   9.480  28.891  1.00  0.00    -0.233 N 
ATOM     16  H42 UNL     1      18.857   8.617  29.350  1.00  0.00     0.174 HD
ATOM     17  H41 UNL     1      17.557   9.409  28.739  1.00  0.00     0.174 HD
ENDBRANCH   6  15
TORSDOF 5
ENDMDL
MODEL 5
REMARK VINA RESULT: -3.063519657      2.993      3.805
REMARK  5 active torsions:
REMARK  status: ('A' for Active; 'I' for Inactive)
REMARK    1  A    between atoms: O1_2  and  C2_3 
REMARK    2  A    between atoms: C2_3  and  C3_4 
REMARK    3  A    between atoms: C3_4  and  N1_5 
REMARK    4  A    between atoms: N1_5  and  C4_7 
REMARK    5  A    between atoms: C5_12  and  N4_13 
ROOT
HETATM    1  C4  UNL     1      24.215  12.122  25.568  1.00  0.00     0.707 A 
HETATM    2  N2  UNL     1      23.297  11.955  26.541  1.00  0.00    -0.117 N 
ATOM      3  H2  UNL     1      23.503  11.639  27.489  1.00  0.00     0.206 HD
HETATM    4  N3  UNL     1      22.094  12.259  26.094  1.00  0.00    -0.118 N 
ATOM      5  H3  UNL     1      21.228  12.219  26.630  1.00  0.00     0.206 HD
HETATM    6  C5  UNL     1      22.212  12.631  24.806  1.00  0.00     0.705 A 
HETATM    7  N5  UNL     1      23.520  12.545  24.490  1.00  0.00    -0.020 N 
ATOM      8  H5  UNL     1      23.922  12.764  23.578  1.00  0.00     0.203 HD
ENDROOT
BRANCH   1   9
HETATM    9  N1  UNL     1      25.480  11.906  25.697  1.00  0.00    -0.222 N 
ATOM     10  H1  UNL     1      26.098  12.648  26.024  1.00  0.00     0.177 HD
BRANCH   9  11
HETATM   11  C3  UNL     1      26.011  10.605  25.374  1.00  0.00     0.164 C 
BRANCH  11  12
HETATM   12  C2  UNL     1      26.028   9.628  26.491  1.00  0.00     0.187 C 
BRANCH  12  13
HETATM   13  O1  UNL     1      24.893   8.997  26.837  1.00  0.00    -0.394 OA
HETATM   14  C1  UNL     1      24.529   8.894  28.139  1.00  0.00     0.201 C 
ENDBRANCH  12  13
ENDBRANCH  11  12
ENDBRANCH   9  11
ENDBRANCH   1   9
BRANCH   6  15
HETATM   15  N4  UNL     1      21.224  13.005  24.027  1.00  0.00    -0.233 N 
ATOM     16  H42 UNL     1      20.335  12.528  23.878  1.00  0.00     0.174 HD
ATOM     17  H41 UNL     1      21.211  13.845  23.449  1.00  0.00     0.174 HD
ENDBRANCH   6  15
TORSDOF 5
ENDMDL
