MODEL 1
REMARK VINA RESULT: -6.704558962      0.000      0.000
REMARK  14 active torsions:
REMARK  status: ('A' for Active; 'I' for Inactive)
REMARK    1  A    between atoms: C2_2  and  C3_3 
REMARK    2  A    between atoms: C3_3  and  C4_4 
REMARK    3  A    between atoms: C4_4  and  C5_5 
REMARK    4  A    between atoms: C5_5  and  C6_6 
REMARK    5  A    between atoms: C6_6  and  C7_7 
REMARK    6  A    between atoms: C7_7  and  C8_8 
REMARK    7  A    between atoms: C8_8  and  C9_9 
REMARK       I    between atoms: C9_9  and  N1_11 
REMARK    8  A    between atoms: N1_11  and  C10_12 
REMARK    9  A    between atoms: C10_12  and  C11_13 
REMARK   10  A    between atoms: C11_13  and  O2_14 
REMARK   11  A    between atoms: O2_14  and  C12_15 
REMARK   12  A    between atoms: C15_18  and  C16_19 
REMARK   13  A    between atoms: C27_32  and  O3_33 
REMARK   14  A    between atoms: C33_47  and  O7_48 
ROOT
HETATM    1  C12 UNL     1      20.163  16.052   6.512  1.00  0.00     0.159 C 
HETATM    2  C13 UNL     1      19.800  16.601   7.849  1.00  0.00     0.006 C 
HETATM    3  C14 UNL     1      19.531  16.259   9.080  1.00  0.00     0.003 C 
HETATM    4  C15 UNL     1      19.425  15.036   9.923  1.00  0.00    -0.060 C 
HETATM    5  C22 UNL     1      20.166  13.836   9.420  1.00  0.00     0.058 C 
HETATM    6  C23 UNL     1      20.621  13.047  10.691  1.00  0.00     0.048 C 
HETATM    7  C24 UNL     1      21.577  11.964  10.400  1.00  0.00    -0.023 C 
HETATM    8  C25 UNL     1      21.610  11.233   9.160  1.00  0.00     0.022 C 
HETATM    9  C26 UNL     1      21.274  11.790   7.834  1.00  0.00     0.026 C 
HETATM   10  N2  UNL     1      19.925  12.121   7.641  1.00  0.00    -0.365 N 
ATOM     11  H2  UNL     1      19.399  11.833   6.816  1.00  0.00     0.162 HD
HETATM   12  C27 UNL     1      19.343  12.902   8.704  1.00  0.00     0.233 C 
HETATM   13  C28 UNL     1      22.185  12.809   7.211  1.00  0.00     0.171 C 
HETATM   14  C29 UNL     1      23.494  12.533   7.813  1.00  0.00     0.072 C 
HETATM   15  N3  UNL     1      24.532  12.282   8.315  1.00  0.00    -0.196 NA
HETATM   16  C30 UNL     1      21.740  14.255   7.459  1.00  0.00     0.146 C 
HETATM   17  C31 UNL     1      20.796  14.728   6.445  1.00  0.00     0.141 C 
HETATM   18  C32 UNL     1      21.647  14.755   5.179  1.00  0.00     0.239 C 
HETATM   19  O4  UNL     1      21.519  14.066   4.115  1.00  0.00    -0.272 OA
HETATM   20  N4  UNL     1      22.629  15.733   5.447  1.00  0.00    -0.253 N 
ATOM     21  H4  UNL     1      22.982  16.468   4.834  1.00  0.00     0.181 HD
HETATM   22  S1  UNL     1      23.089  15.364   7.096  1.00  0.00     0.246 S 
HETATM   23  O5  UNL     1      24.412  14.778   6.932  1.00  0.00    -0.205 OA
HETATM   24  O6  UNL     1      23.085  16.591   7.929  1.00  0.00    -0.205 OA
HETATM   25  C33 UNL     1      21.487  14.300   8.897  1.00  0.00     0.163 C 
ENDROOT
BRANCH  25  26
HETATM   26  O7  UNL     1      21.837  15.483   9.572  1.00  0.00    -0.392 OA
ATOM     27  H7  UNL     1      21.667  16.217   8.993  1.00  0.00     0.210 HD
ENDBRANCH  25  26
BRANCH  12  28
HETATM   28  O3  UNL     1      18.123  13.315   8.176  1.00  0.00    -0.376 OA
ATOM     29  H3  UNL     1      17.328  12.842   8.392  1.00  0.00     0.212 HD
ENDBRANCH  12  28
BRANCH   1  30
HETATM   30  O2  UNL     1      19.146  16.173   5.716  1.00  0.00    -0.379 OA
BRANCH  30  31
HETATM   31  C11 UNL     1      18.256  16.359   4.910  1.00  0.00     0.202 C 
BRANCH  31  32
HETATM   32  C10 UNL     1      18.646  17.045   3.560  1.00  0.00     0.247 C 
BRANCH  32  33
HETATM   33  N1  UNL     1      17.554  17.586   2.957  1.00  0.00    -0.413 NA
HETATM   34  C9  UNL     1      16.466  18.132   2.348  1.00  0.00     0.286 C 
HETATM   35  O1  UNL     1      16.380  18.733   1.245  1.00  0.00    -0.258 OA
BRANCH  34  36
HETATM   36  C8  UNL     1      15.119  18.056   3.071  1.00  0.00     0.119 C 
BRANCH  36  37
HETATM   37  C7  UNL     1      15.171  18.520   4.473  1.00  0.00     0.010 C 
BRANCH  37  38
HETATM   38  C6  UNL     1      14.866  19.925   4.829  1.00  0.00     0.001 C 
BRANCH  38  39
HETATM   39  C5  UNL     1      15.807  20.232   6.032  1.00  0.00     0.000 C 
BRANCH  39  40
HETATM   40  C4  UNL     1      17.213  19.924   5.573  1.00  0.00     0.000 C 
BRANCH  40  41
HETATM   41  C3  UNL     1      18.041  19.721   6.834  1.00  0.00    -0.000 C 
BRANCH  41  42
HETATM   42  C2  UNL     1      17.346  20.233   8.048  1.00  0.00    -0.005 C 
HETATM   43  C1  UNL     1      17.909  19.662   9.324  1.00  0.00     0.005 C 
ENDBRANCH  41  42
ENDBRANCH  40  41
ENDBRANCH  39  40
ENDBRANCH  38  39
ENDBRANCH  37  38
ENDBRANCH  36  37
ENDBRANCH  34  36
ENDBRANCH  32  33
ENDBRANCH  31  32
ENDBRANCH  30  31
ENDBRANCH   1  30
BRANCH   4  44
HETATM   44  C16 UNL     1      18.202  14.943  10.724  1.00  0.00     0.015 C 
HETATM   45  C17 UNL     1      18.527  15.094  12.250  1.00  0.00     0.009 C 
HETATM   46  C18 UNL     1      17.340  14.786  13.076  1.00  0.00     0.001 C 
HETATM   47  C19 UNL     1      16.273  15.837  12.814  1.00  0.00     0.000 C 
HETATM   48  C20 UNL     1      15.987  15.733  11.315  1.00  0.00     0.001 C 
HETATM   49  C21 UNL     1      17.283  16.184  10.628  1.00  0.00     0.009 C 
ENDBRANCH   4  44
TORSDOF 14
ENDMDL
MODEL 2
REMARK VINA RESULT: -6.516377982      1.233      2.411
REMARK  14 active torsions:
REMARK  status: ('A' for Active; 'I' for Inactive)
REMARK    1  A    between atoms: C2_2  and  C3_3 
REMARK    2  A    between atoms: C3_3  and  C4_4 
REMARK    3  A    between atoms: C4_4  and  C5_5 
REMARK    4  A    between atoms: C5_5  and  C6_6 
REMARK    5  A    between atoms: C6_6  and  C7_7 
REMARK    6  A    between atoms: C7_7  and  C8_8 
REMARK    7  A    between atoms: C8_8  and  C9_9 
REMARK       I    between atoms: C9_9  and  N1_11 
REMARK    8  A    between atoms: N1_11  and  C10_12 
REMARK    9  A    between atoms: C10_12  and  C11_13 
REMARK   10  A    between atoms: C11_13  and  O2_14 
REMARK   11  A    between atoms: O2_14  and  C12_15 
REMARK   12  A    between atoms: C15_18  and  C16_19 
REMARK   13  A    between atoms: C27_32  and  O3_33 
REMARK   14  A    between atoms: C33_47  and  O7_48 
ROOT
HETATM    1  C12 UNL     1      20.161  16.115   6.563  1.00  0.00     0.159 C 
HETATM    2  C13 UNL     1      19.788  16.636   7.908  1.00  0.00     0.006 C 
HETATM    3  C14 UNL     1      19.508  16.268   9.129  1.00  0.00     0.003 C 
HETATM    4  C15 UNL     1      19.391  15.026   9.944  1.00  0.00    -0.060 C 
HETATM    5  C22 UNL     1      20.131  13.835   9.421  1.00  0.00     0.058 C 
HETATM    6  C23 UNL     1      20.572  13.016  10.678  1.00  0.00     0.048 C 
HETATM    7  C24 UNL     1      21.528  11.937  10.371  1.00  0.00    -0.023 C 
HETATM    8  C25 UNL     1      21.568  11.233   9.116  1.00  0.00     0.022 C 
HETATM    9  C26 UNL     1      21.246  11.820   7.800  1.00  0.00     0.026 C 
HETATM   10  N2  UNL     1      19.900  12.160   7.603  1.00  0.00    -0.365 N 
ATOM     11  H2  UNL     1      19.380  11.892   6.767  1.00  0.00     0.162 HD
HETATM   12  C27 UNL     1      19.311  12.920   8.678  1.00  0.00     0.233 C 
HETATM   13  C28 UNL     1      22.165  12.849   7.207  1.00  0.00     0.171 C 
HETATM   14  C29 UNL     1      23.469  12.556   7.814  1.00  0.00     0.072 C 
HETATM   15  N3  UNL     1      24.501  12.290   8.319  1.00  0.00    -0.196 NA
HETATM   16  C30 UNL     1      21.724  14.291   7.483  1.00  0.00     0.146 C 
HETATM   17  C31 UNL     1      20.790  14.790   6.471  1.00  0.00     0.141 C 
HETATM   18  C32 UNL     1      21.652  14.842   5.213  1.00  0.00     0.239 C 
HETATM   19  O4  UNL     1      21.531  14.176   4.134  1.00  0.00    -0.272 OA
HETATM   20  N4  UNL     1      22.635  15.809   5.511  1.00  0.00    -0.253 N 
ATOM     21  H4  UNL     1      22.996  16.556   4.918  1.00  0.00     0.181 HD
HETATM   22  S1  UNL     1      23.079  15.403   7.156  1.00  0.00     0.246 S 
HETATM   23  O5  UNL     1      24.402  14.816   6.990  1.00  0.00    -0.205 OA
HETATM   24  O6  UNL     1      23.073  16.611   8.016  1.00  0.00    -0.205 OA
HETATM   25  C33 UNL     1      21.459  14.305   8.919  1.00  0.00     0.163 C 
ENDROOT
BRANCH  25  26
HETATM   26  O7  UNL     1      21.807  15.472   9.623  1.00  0.00    -0.392 OA
ATOM     27  H7  UNL     1      21.670  16.217   9.050  1.00  0.00     0.210 HD
ENDBRANCH  25  26
BRANCH  12  28
HETATM   28  O3  UNL     1      18.098  13.348   8.148  1.00  0.00    -0.376 OA
ATOM     29  H3  UNL     1      17.466  12.712   7.834  1.00  0.00     0.212 HD
ENDBRANCH  12  28
BRANCH   1  30
HETATM   30  O2  UNL     1      19.151  16.256   5.760  1.00  0.00    -0.379 OA
BRANCH  30  31
HETATM   31  C11 UNL     1      18.280  16.420   4.929  1.00  0.00     0.202 C 
BRANCH  31  32
HETATM   32  C10 UNL     1      18.101  17.864   4.357  1.00  0.00     0.247 C 
BRANCH  32  33
HETATM   33  N1  UNL     1      18.188  18.793   5.347  1.00  0.00    -0.413 NA
HETATM   34  C9  UNL     1      18.283  19.722   6.337  1.00  0.00     0.286 C 
HETATM   35  O1  UNL     1      19.303  20.271   6.828  1.00  0.00    -0.258 OA
BRANCH  34  36
HETATM   36  C8  UNL     1      16.992  20.193   7.012  1.00  0.00     0.119 C 
BRANCH  36  37
HETATM   37  C7  UNL     1      16.089  20.940   6.112  1.00  0.00     0.010 C 
BRANCH  37  38
HETATM   38  C6  UNL     1      14.711  21.291   6.526  1.00  0.00     0.001 C 
BRANCH  38  39
HETATM   39  C5  UNL     1      13.949  21.507   5.184  1.00  0.00     0.000 C 
BRANCH  39  40
HETATM   40  C4  UNL     1      14.989  21.852   4.144  1.00  0.00     0.000 C 
BRANCH  40  41
HETATM   41  C3  UNL     1      14.554  21.164   2.858  1.00  0.00    -0.000 C 
BRANCH  41  42
HETATM   42  C2  UNL     1      14.962  19.732   2.825  1.00  0.00    -0.005 C 
HETATM   43  C1  UNL     1      15.031  19.179   1.425  1.00  0.00     0.005 C 
ENDBRANCH  41  42
ENDBRANCH  40  41
ENDBRANCH  39  40
ENDBRANCH  38  39
ENDBRANCH  37  38
ENDBRANCH  36  37
ENDBRANCH  34  36
ENDBRANCH  32  33
ENDBRANCH  31  32
ENDBRANCH  30  31
ENDBRANCH   1  30
BRANCH   4  44
HETATM   44  C16 UNL     1      18.160  14.920  10.732  1.00  0.00     0.015 C 
HETATM   45  C17 UNL     1      18.466  15.091  12.260  1.00  0.00     0.009 C 
HETATM   46  C18 UNL     1      17.275  14.771  13.076  1.00  0.00     0.001 C 
HETATM   47  C19 UNL     1      16.194  15.802  12.792  1.00  0.00     0.000 C 
HETATM   48  C20 UNL     1      15.925  15.678  11.291  1.00  0.00     0.001 C 
HETATM   49  C21 UNL     1      17.221  16.144  10.613  1.00  0.00     0.009 C 
ENDBRANCH   4  44
TORSDOF 14
ENDMDL
MODEL 3
REMARK VINA RESULT: -6.476953387      1.184      1.780
REMARK  14 active torsions:
REMARK  status: ('A' for Active; 'I' for Inactive)
REMARK    1  A    between atoms: C2_2  and  C3_3 
REMARK    2  A    between atoms: C3_3  and  C4_4 
REMARK    3  A    between atoms: C4_4  and  C5_5 
REMARK    4  A    between atoms: C5_5  and  C6_6 
REMARK    5  A    between atoms: C6_6  and  C7_7 
REMARK    6  A    between atoms: C7_7  and  C8_8 
REMARK    7  A    between atoms: C8_8  and  C9_9 
REMARK       I    between atoms: C9_9  and  N1_11 
REMARK    8  A    between atoms: N1_11  and  C10_12 
REMARK    9  A    between atoms: C10_12  and  C11_13 
REMARK   10  A    between atoms: C11_13  and  O2_14 
REMARK   11  A    between atoms: O2_14  and  C12_15 
REMARK   12  A    between atoms: C15_18  and  C16_19 
REMARK   13  A    between atoms: C27_32  and  O3_33 
REMARK   14  A    between atoms: C33_47  and  O7_48 
ROOT
HETATM    1  C12 UNL     1      20.072  16.125   6.643  1.00  0.00     0.159 C 
HETATM    2  C13 UNL     1      19.714  16.640   7.995  1.00  0.00     0.006 C 
HETATM    3  C14 UNL     1      19.448  16.267   9.218  1.00  0.00     0.003 C 
HETATM    4  C15 UNL     1      19.341  15.022  10.028  1.00  0.00    -0.060 C 
HETATM    5  C22 UNL     1      20.076  13.834   9.492  1.00  0.00     0.058 C 
HETATM    6  C23 UNL     1      20.532  13.009  10.741  1.00  0.00     0.048 C 
HETATM    7  C24 UNL     1      21.485  11.932  10.418  1.00  0.00    -0.023 C 
HETATM    8  C25 UNL     1      21.511  11.233   9.159  1.00  0.00     0.022 C 
HETATM    9  C26 UNL     1      21.173  11.826   7.850  1.00  0.00     0.026 C 
HETATM   10  N2  UNL     1      19.825  12.166   7.669  1.00  0.00    -0.365 N 
ATOM     11  H2  UNL     1      19.295  11.901   6.838  1.00  0.00     0.162 HD
HETATM   12  C27 UNL     1      19.248  12.921   8.754  1.00  0.00     0.233 C 
HETATM   13  C28 UNL     1      22.085  12.858   7.251  1.00  0.00     0.171 C 
HETATM   14  C29 UNL     1      23.396  12.563   7.841  1.00  0.00     0.072 C 
HETATM   15  N3  UNL     1      24.434  12.296   8.333  1.00  0.00    -0.196 NA
HETATM   16  C30 UNL     1      21.646  14.299   7.538  1.00  0.00     0.146 C 
HETATM   17  C31 UNL     1      20.700  14.801   6.539  1.00  0.00     0.141 C 
HETATM   18  C32 UNL     1      21.548  14.859   5.271  1.00  0.00     0.239 C 
HETATM   19  O4  UNL     1      21.415  14.198   4.190  1.00  0.00    -0.272 OA
HETATM   20  N4  UNL     1      22.534  15.826   5.563  1.00  0.00    -0.253 N 
ATOM     21  H4  UNL     1      22.888  16.576   4.968  1.00  0.00     0.181 HD
HETATM   22  S1  UNL     1      22.997  15.413   7.200  1.00  0.00     0.246 S 
HETATM   23  O5  UNL     1      24.318  14.827   7.016  1.00  0.00    -0.205 OA
HETATM   24  O6  UNL     1      23.000  16.617   8.065  1.00  0.00    -0.205 OA
HETATM   25  C33 UNL     1      21.397  14.306   8.977  1.00  0.00     0.163 C 
ENDROOT
BRANCH  25  26
HETATM   26  O7  UNL     1      21.753  15.470   9.682  1.00  0.00    -0.392 OA
ATOM     27  H7  UNL     1      21.038  16.092   9.609  1.00  0.00     0.210 HD
ENDBRANCH  25  26
BRANCH  12  28
HETATM   28  O3  UNL     1      18.028  13.351   8.241  1.00  0.00    -0.376 OA
ATOM     29  H3  UNL     1      17.325  12.727   8.102  1.00  0.00     0.212 HD
ENDBRANCH  12  28
BRANCH   1  30
HETATM   30  O2  UNL     1      19.053  16.269   5.853  1.00  0.00    -0.379 OA
BRANCH  30  31
HETATM   31  C11 UNL     1      18.160  16.351   5.034  1.00  0.00     0.202 C 
BRANCH  31  32
HETATM   32  C10 UNL     1      17.760  17.784   4.552  1.00  0.00     0.247 C 
BRANCH  32  33
HETATM   33  N1  UNL     1      17.364  17.766   3.251  1.00  0.00    -0.413 NA
HETATM   34  C9  UNL     1      16.973  17.743   1.948  1.00  0.00     0.286 C 
HETATM   35  O1  UNL     1      17.370  17.012   1.003  1.00  0.00    -0.258 OA
BRANCH  34  36
HETATM   36  C8  UNL     1      15.911  18.748   1.494  1.00  0.00     0.119 C 
BRANCH  36  37
HETATM   37  C7  UNL     1      15.068  19.260   2.594  1.00  0.00     0.010 C 
BRANCH  37  38
HETATM   38  C6  UNL     1      14.764  20.704   2.721  1.00  0.00     0.001 C 
BRANCH  38  39
HETATM   39  C5  UNL     1      15.248  21.075   4.155  1.00  0.00     0.000 C 
BRANCH  39  40
HETATM   40  C4  UNL     1      14.354  20.334   5.121  1.00  0.00     0.000 C 
BRANCH  40  41
HETATM   41  C3  UNL     1      13.849  21.369   6.117  1.00  0.00    -0.000 C 
BRANCH  41  42
HETATM   42  C2  UNL     1      12.365  21.494   6.089  1.00  0.00    -0.005 C 
HETATM   43  C1  UNL     1      11.904  22.923   5.961  1.00  0.00     0.005 C 
ENDBRANCH  41  42
ENDBRANCH  40  41
ENDBRANCH  39  40
ENDBRANCH  38  39
ENDBRANCH  37  38
ENDBRANCH  36  37
ENDBRANCH  34  36
ENDBRANCH  32  33
ENDBRANCH  31  32
ENDBRANCH  30  31
ENDBRANCH   1  30
BRANCH   4  44
HETATM   44  C16 UNL     1      18.119  14.912  10.831  1.00  0.00     0.015 C 
HETATM   45  C17 UNL     1      18.444  15.070  12.356  1.00  0.00     0.009 C 
HETATM   46  C18 UNL     1      17.261  14.745  13.183  1.00  0.00     0.001 C 
HETATM   47  C19 UNL     1      16.179  15.780  12.921  1.00  0.00     0.000 C 
HETATM   48  C20 UNL     1      15.893  15.669  11.422  1.00  0.00     0.001 C 
HETATM   49  C21 UNL     1      17.182  16.138  10.733  1.00  0.00     0.009 C 
ENDBRANCH   4  44
TORSDOF 14
ENDMDL
MODEL 4
REMARK VINA RESULT: -6.459155720      3.436      6.093
REMARK  14 active torsions:
REMARK  status: ('A' for Active; 'I' for Inactive)
REMARK    1  A    between atoms: C2_2  and  C3_3 
REMARK    2  A    between atoms: C3_3  and  C4_4 
REMARK    3  A    between atoms: C4_4  and  C5_5 
REMARK    4  A    between atoms: C5_5  and  C6_6 
REMARK    5  A    between atoms: C6_6  and  C7_7 
REMARK    6  A    between atoms: C7_7  and  C8_8 
REMARK    7  A    between atoms: C8_8  and  C9_9 
REMARK       I    between atoms: C9_9  and  N1_11 
REMARK    8  A    between atoms: N1_11  and  C10_12 
REMARK    9  A    between atoms: C10_12  and  C11_13 
REMARK   10  A    between atoms: C11_13  and  O2_14 
REMARK   11  A    between atoms: O2_14  and  C12_15 
REMARK   12  A    between atoms: C15_18  and  C16_19 
REMARK   13  A    between atoms: C27_32  and  O3_33 
REMARK   14  A    between atoms: C33_47  and  O7_48 
ROOT
HETATM    1  C12 UNL     1      18.139  17.169  11.651  1.00  0.00     0.159 C 
HETATM    2  C13 UNL     1      17.770  16.244  10.542  1.00  0.00     0.006 C 
HETATM    3  C14 UNL     1      18.248  15.325   9.747  1.00  0.00     0.003 C 
HETATM    4  C15 UNL     1      19.528  14.617   9.466  1.00  0.00    -0.060 C 
HETATM    5  C22 UNL     1      20.523  14.610  10.583  1.00  0.00     0.058 C 
HETATM    6  C23 UNL     1      21.304  13.261  10.457  1.00  0.00     0.048 C 
HETATM    7  C24 UNL     1      22.159  12.966  11.621  1.00  0.00    -0.023 C 
HETATM    8  C25 UNL     1      22.777  13.975  12.441  1.00  0.00     0.022 C 
HETATM    9  C26 UNL     1      22.198  15.300  12.741  1.00  0.00     0.026 C 
HETATM   10  N2  UNL     1      22.117  16.184  11.656  1.00  0.00    -0.365 N 
ATOM     11  H2  UNL     1      22.438  17.151  11.708  1.00  0.00     0.162 HD
HETATM   12  C27 UNL     1      21.542  15.616  10.462  1.00  0.00     0.233 C 
HETATM   13  C28 UNL     1      20.980  15.390  13.616  1.00  0.00     0.171 C 
HETATM   14  C29 UNL     1      21.044  14.180  14.444  1.00  0.00     0.072 C 
HETATM   15  N3  UNL     1      21.129  13.200  15.094  1.00  0.00    -0.196 NA
HETATM   16  C30 UNL     1      19.668  15.468  12.827  1.00  0.00     0.146 C 
HETATM   17  C31 UNL     1      19.310  16.844  12.477  1.00  0.00     0.141 C 
HETATM   18  C32 UNL     1      19.027  17.475  13.837  1.00  0.00     0.239 C 
HETATM   19  O4  UNL     1      19.647  18.420  14.424  1.00  0.00    -0.272 OA
HETATM   20  N4  UNL     1      17.902  16.768  14.315  1.00  0.00    -0.253 N 
ATOM     21  H4  UNL     1      17.070  17.132  14.779  1.00  0.00     0.181 HD
HETATM   22  S1  UNL     1      18.298  15.110  13.911  1.00  0.00     0.246 S 
HETATM   23  O5  UNL     1      18.606  14.534  15.212  1.00  0.00    -0.205 OA
HETATM   24  O6  UNL     1      17.159  14.450  13.227  1.00  0.00    -0.205 OA
HETATM   25  C33 UNL     1      19.779  14.380  11.859  1.00  0.00     0.163 C 
ENDROOT
BRANCH  25  26
HETATM   26  O7  UNL     1      18.604  13.667  11.559  1.00  0.00    -0.392 OA
ATOM     27  H7  UNL     1      18.188  13.422  12.377  1.00  0.00     0.210 HD
ENDBRANCH  25  26
BRANCH  12  28
HETATM   28  O3  UNL     1      21.332  16.721   9.643  1.00  0.00    -0.376 OA
ATOM     29  H3  UNL     1      20.918  17.501   9.994  1.00  0.00     0.212 HD
ENDBRANCH  12  28
BRANCH   1  30
HETATM   30  O2  UNL     1      18.157  18.385  11.197  1.00  0.00    -0.379 OA
BRANCH  30  31
HETATM   31  C11 UNL     1      18.193  19.478  10.670  1.00  0.00     0.202 C 
BRANCH  31  32
HETATM   32  C10 UNL     1      17.099  19.792   9.597  1.00  0.00     0.247 C 
BRANCH  32  33
HETATM   33  N1  UNL     1      17.651  19.904   8.360  1.00  0.00    -0.413 NA
HETATM   34  C9  UNL     1      18.210  20.021   7.124  1.00  0.00     0.286 C 
HETATM   35  O1  UNL     1      19.365  20.399   6.797  1.00  0.00    -0.258 OA
BRANCH  34  36
HETATM   36  C8  UNL     1      17.349  19.676   5.906  1.00  0.00     0.119 C 
BRANCH  36  37
HETATM   37  C7  UNL     1      18.035  18.822   4.915  1.00  0.00     0.010 C 
BRANCH  37  38
HETATM   38  C6  UNL     1      17.333  17.698   4.253  1.00  0.00     0.001 C 
BRANCH  38  39
HETATM   39  C5  UNL     1      18.048  17.553   2.877  1.00  0.00     0.000 C 
BRANCH  39  40
HETATM   40  C4  UNL     1      17.270  18.393   1.892  1.00  0.00     0.000 C 
BRANCH  40  41
HETATM   41  C3  UNL     1      15.797  18.154   2.194  1.00  0.00    -0.000 C 
BRANCH  41  42
HETATM   42  C2  UNL     1      14.961  19.346   1.880  1.00  0.00    -0.005 C 
HETATM   43  C1  UNL     1      14.843  20.296   3.044  1.00  0.00     0.005 C 
ENDBRANCH  41  42
ENDBRANCH  40  41
ENDBRANCH  39  40
ENDBRANCH  38  39
ENDBRANCH  37  38
ENDBRANCH  36  37
ENDBRANCH  34  36
ENDBRANCH  32  33
ENDBRANCH  31  32
ENDBRANCH  30  31
ENDBRANCH   1  30
BRANCH   4  44
HETATM   44  C16 UNL     1      19.912  14.575   8.052  1.00  0.00     0.015 C 
HETATM   45  C17 UNL     1      19.235  13.358   7.332  1.00  0.00     0.009 C 
HETATM   46  C18 UNL     1      19.784  13.180   5.970  1.00  0.00     0.001 C 
HETATM   47  C19 UNL     1      19.395  14.381   5.123  1.00  0.00     0.000 C 
HETATM   48  C20 UNL     1      20.008  15.580   5.848  1.00  0.00     0.001 C 
HETATM   49  C21 UNL     1      19.253  15.670   7.181  1.00  0.00     0.009 C 
ENDBRANCH   4  44
TORSDOF 14
ENDMDL
MODEL 5
REMARK VINA RESULT: -6.400092367      1.322      2.043
REMARK  14 active torsions:
REMARK  status: ('A' for Active; 'I' for Inactive)
REMARK    1  A    between atoms: C2_2  and  C3_3 
REMARK    2  A    between atoms: C3_3  and  C4_4 
REMARK    3  A    between atoms: C4_4  and  C5_5 
REMARK    4  A    between atoms: C5_5  and  C6_6 
REMARK    5  A    between atoms: C6_6  and  C7_7 
REMARK    6  A    between atoms: C7_7  and  C8_8 
REMARK    7  A    between atoms: C8_8  and  C9_9 
REMARK       I    between atoms: C9_9  and  N1_11 
REMARK    8  A    between atoms: N1_11  and  C10_12 
REMARK    9  A    between atoms: C10_12  and  C11_13 
REMARK   10  A    between atoms: C11_13  and  O2_14 
REMARK   11  A    between atoms: O2_14  and  C12_15 
REMARK   12  A    between atoms: C15_18  and  C16_19 
REMARK   13  A    between atoms: C27_32  and  O3_33 
REMARK   14  A    between atoms: C33_47  and  O7_48 
ROOT
HETATM    1  C12 UNL     1      19.992  16.063   6.534  1.00  0.00     0.159 C 
HETATM    2  C13 UNL     1      19.669  16.603   7.885  1.00  0.00     0.006 C 
HETATM    3  C14 UNL     1      19.440  16.253   9.121  1.00  0.00     0.003 C 
HETATM    4  C15 UNL     1      19.365  15.024   9.960  1.00  0.00    -0.060 C 
HETATM    5  C22 UNL     1      20.093  13.830   9.427  1.00  0.00     0.058 C 
HETATM    6  C23 UNL     1      20.591  13.035  10.679  1.00  0.00     0.048 C 
HETATM    7  C24 UNL     1      21.542  11.958  10.351  1.00  0.00    -0.023 C 
HETATM    8  C25 UNL     1      21.537  11.233   9.106  1.00  0.00     0.022 C 
HETATM    9  C26 UNL     1      21.158  11.796   7.795  1.00  0.00     0.026 C 
HETATM   10  N2  UNL     1      19.803  12.124   7.646  1.00  0.00    -0.365 N 
ATOM     11  H2  UNL     1      19.252  11.839   6.837  1.00  0.00     0.162 HD
HETATM   12  C27 UNL     1      19.252  12.897   8.732  1.00  0.00     0.233 C 
HETATM   13  C28 UNL     1      22.046  12.822   7.150  1.00  0.00     0.171 C 
HETATM   14  C29 UNL     1      23.374  12.548   7.709  1.00  0.00     0.072 C 
HETATM   15  N3  UNL     1      24.428  12.298   8.176  1.00  0.00    -0.196 NA
HETATM   16  C30 UNL     1      21.604  14.266   7.420  1.00  0.00     0.146 C 
HETATM   17  C31 UNL     1      20.627  14.741   6.439  1.00  0.00     0.141 C 
HETATM   18  C32 UNL     1      21.437  14.779   5.147  1.00  0.00     0.239 C 
HETATM   19  O4  UNL     1      21.279  14.095   4.083  1.00  0.00    -0.272 OA
HETATM   20  N4  UNL     1      22.424  15.758   5.390  1.00  0.00    -0.253 N 
ATOM     21  H4  UNL     1      22.755  16.498   4.771  1.00  0.00     0.181 HD
HETATM   22  S1  UNL     1      22.937  15.382   7.022  1.00  0.00     0.246 S 
HETATM   23  O5  UNL     1      24.256  14.801   6.812  1.00  0.00    -0.205 OA
HETATM   24  O6  UNL     1      22.955  16.604   7.862  1.00  0.00    -0.205 OA
HETATM   25  C33 UNL     1      21.396  14.301   8.865  1.00  0.00     0.163 C 
ENDROOT
BRANCH  25  26
HETATM   26  O7  UNL     1      21.763  15.482   9.536  1.00  0.00    -0.392 OA
ATOM     27  H7  UNL     1      21.707  16.203   8.921  1.00  0.00     0.210 HD
ENDBRANCH  25  26
BRANCH  12  28
HETATM   28  O3  UNL     1      18.015  13.308   8.244  1.00  0.00    -0.376 OA
ATOM     29  H3  UNL     1      17.597  12.824   7.542  1.00  0.00     0.212 HD
ENDBRANCH  12  28
BRANCH   1  30
HETATM   30  O2  UNL     1      18.950  16.184   5.770  1.00  0.00    -0.379 OA
BRANCH  30  31
HETATM   31  C11 UNL     1      18.046  16.306   4.968  1.00  0.00     0.202 C 
BRANCH  31  32
HETATM   32  C10 UNL     1      17.868  17.710   4.301  1.00  0.00     0.247 C 
BRANCH  32  33
HETATM   33  N1  UNL     1      17.931  18.701   5.230  1.00  0.00    -0.413 NA
HETATM   34  C9  UNL     1      18.002  19.689   6.163  1.00  0.00     0.286 C 
HETATM   35  O1  UNL     1      18.911  19.945   6.995  1.00  0.00    -0.258 OA
BRANCH  34  36
HETATM   36  C8  UNL     1      16.820  20.654   6.284  1.00  0.00     0.119 C 
BRANCH  36  37
HETATM   37  C7  UNL     1      16.080  20.531   7.557  1.00  0.00     0.010 C 
BRANCH  37  38
HETATM   38  C6  UNL     1      15.694  21.727   8.340  1.00  0.00     0.001 C 
BRANCH  38  39
HETATM   39  C5  UNL     1      15.791  21.265   9.825  1.00  0.00     0.000 C 
BRANCH  39  40
HETATM   40  C4  UNL     1      16.039  19.775   9.801  1.00  0.00     0.000 C 
BRANCH  40  41
HETATM   41  C3  UNL     1      16.983  19.478  10.957  1.00  0.00    -0.000 C 
BRANCH  41  42
HETATM   42  C2  UNL     1      18.401  19.778  10.611  1.00  0.00    -0.005 C 
HETATM   43  C1  UNL     1      19.381  19.018  11.468  1.00  0.00     0.005 C 
ENDBRANCH  41  42
ENDBRANCH  40  41
ENDBRANCH  39  40
ENDBRANCH  38  39
ENDBRANCH  37  38
ENDBRANCH  36  37
ENDBRANCH  34  36
ENDBRANCH  32  33
ENDBRANCH  31  32
ENDBRANCH  30  31
ENDBRANCH   1  30
BRANCH   4  44
HETATM   44  C16 UNL     1      18.167  14.922  10.799  1.00  0.00     0.015 C 
HETATM   45  C17 UNL     1      18.508  15.257  12.292  1.00  0.00     0.009 C 
HETATM   46  C18 UNL     1      17.364  14.947  13.176  1.00  0.00     0.001 C 
HETATM   47  C19 UNL     1      16.213  15.880  12.836  1.00  0.00     0.000 C 
HETATM   48  C20 UNL     1      15.908  15.597  11.364  1.00  0.00     0.001 C 
HETATM   49  C21 UNL     1      17.152  16.071  10.599  1.00  0.00     0.009 C 
ENDBRANCH   4  44
TORSDOF 14
ENDMDL
