MODEL 1
REMARK VINA RESULT: -4.621215012      0.000      0.000
REMARK  3 active torsions:
REMARK  status: ('A' for Active; 'I' for Inactive)
REMARK    1  A    between atoms: N1_2  and  C2_4 
REMARK    2  A    between atoms: C8_17  and  C9_18 
REMARK    3  A    between atoms: N5_19  and  O2_21 
ROOT
HETATM    1  C2  UNL     1      30.638  25.255  17.387  1.00  0.00     0.114 A 
HETATM    2  N2  UNL     1      29.391  25.447  16.889  1.00  0.00    -0.326 N 
ATOM      3  H2  UNL     1      28.709  24.693  16.973  1.00  0.00     0.169 HD
HETATM    4  C3  UNL     1      29.022  26.575  16.297  1.00  0.00     0.138 A 
HETATM    5  N3  UNL     1      27.855  26.987  15.726  1.00  0.00    -0.282 N 
ATOM      6  H3  UNL     1      27.002  26.432  15.669  1.00  0.00     0.188 HD
HETATM    7  N4  UNL     1      27.994  28.199  15.266  1.00  0.00    -0.264 N 
ATOM      8  H4  UNL     1      27.278  28.750  14.792  1.00  0.00     0.190 HD
HETATM    9  C4  UNL     1      29.286  28.600  15.537  1.00  0.00     0.274 A 
HETATM   10  O1  UNL     1      29.752  29.705  15.232  1.00  0.00    -0.266 OA
HETATM   11  C5  UNL     1      29.931  27.575  16.187  1.00  0.00     0.086 A 
HETATM   12  C6  UNL     1      31.240  27.455  16.678  1.00  0.00    -0.027 A 
HETATM   13  C7  UNL     1      32.164  28.565  16.577  1.00  0.00     0.050 C 
HETATM   14  C8  UNL     1      31.616  26.279  17.291  1.00  0.00     0.032 A 
ENDROOT
BRANCH  14  15
HETATM   15  C9  UNL     1      32.894  25.973  17.860  1.00  0.00     0.132 C 
HETATM   16  N5  UNL     1      33.638  26.197  18.821  1.00  0.00    -0.276 N 
HETATM   17  C10 UNL     1      34.997  25.469  18.801  1.00  0.00     0.184 C 
BRANCH  16  18
HETATM   18  O2  UNL     1      33.581  26.960  19.923  1.00  0.00    -0.288 OA
ATOM     19  H2  UNL     1      33.249  26.855  20.807  1.00  0.00     0.244 HD
ENDBRANCH  16  18
ENDBRANCH  14  15
BRANCH   1  20
HETATM   20  N1  UNL     1      30.836  23.988  17.960  1.00  0.00    -0.380 N 
HETATM   21  C1  UNL     1      30.519  23.725  19.373  1.00  0.00     0.147 C 
ATOM     22  H1  UNL     1      31.209  23.233  17.385  1.00  0.00     0.160 HD
ENDBRANCH   1  20
TORSDOF 3
ENDMDL
MODEL 2
REMARK VINA RESULT: -4.190666065      1.573      5.071
REMARK  3 active torsions:
REMARK  status: ('A' for Active; 'I' for Inactive)
REMARK    1  A    between atoms: N1_2  and  C2_4 
REMARK    2  A    between atoms: C8_17  and  C9_18 
REMARK    3  A    between atoms: N5_19  and  O2_21 
ROOT
HETATM    1  C2  UNL     1      30.931  25.130  17.095  1.00  0.00     0.114 A 
HETATM    2  N2  UNL     1      31.851  24.354  17.721  1.00  0.00    -0.326 N 
ATOM      3  H2  UNL     1      31.674  23.353  17.799  1.00  0.00     0.169 HD
HETATM    4  C3  UNL     1      32.970  24.845  18.235  1.00  0.00     0.138 A 
HETATM    5  N3  UNL     1      34.016  24.278  18.900  1.00  0.00    -0.282 N 
ATOM      6  H3  UNL     1      34.101  23.286  19.120  1.00  0.00     0.188 HD
HETATM    7  N4  UNL     1      34.889  25.193  19.212  1.00  0.00    -0.264 N 
ATOM      8  H4  UNL     1      35.766  25.045  19.712  1.00  0.00     0.190 HD
HETATM    9  C4  UNL     1      34.411  26.400  18.743  1.00  0.00     0.274 A 
HETATM   10  O1  UNL     1      34.998  27.481  18.873  1.00  0.00    -0.266 OA
HETATM   11  C5  UNL     1      33.203  26.177  18.127  1.00  0.00     0.086 A 
HETATM   12  C6  UNL     1      32.302  27.045  17.493  1.00  0.00    -0.027 A 
HETATM   13  C7  UNL     1      32.611  28.454  17.364  1.00  0.00     0.050 C 
HETATM   14  C8  UNL     1      31.139  26.528  16.962  1.00  0.00     0.032 A 
ENDROOT
BRANCH  14  15
HETATM   15  C9  UNL     1      30.110  27.248  16.274  1.00  0.00     0.132 C 
HETATM   16  N5  UNL     1      28.887  27.353  16.137  1.00  0.00    -0.276 N 
HETATM   17  C10 UNL     1      28.413  28.434  15.146  1.00  0.00     0.184 C 
BRANCH  16  18
HETATM   18  O2  UNL     1      27.807  26.728  16.632  1.00  0.00    -0.288 OA
ATOM     19  H2  UNL     1      26.881  26.700  16.420  1.00  0.00     0.244 HD
ENDBRANCH  16  18
ENDBRANCH  14  15
BRANCH   1  20
HETATM   20  N1  UNL     1      29.806  24.425  16.634  1.00  0.00    -0.380 N 
HETATM   21  C1  UNL     1      29.814  23.725  15.341  1.00  0.00     0.147 C 
ATOM     22  H1  UNL     1      28.964  24.399  17.210  1.00  0.00     0.160 HD
ENDBRANCH   1  20
TORSDOF 3
ENDMDL
MODEL 3
REMARK VINA RESULT: -3.115991769      2.440      2.850
REMARK  3 active torsions:
REMARK  status: ('A' for Active; 'I' for Inactive)
REMARK    1  A    between atoms: N1_2  and  C2_4 
REMARK    2  A    between atoms: C8_17  and  C9_18 
REMARK    3  A    between atoms: N5_19  and  O2_21 
ROOT
HETATM    1  C2  UNL     1      29.528  26.345  15.320  1.00  0.00     0.114 A 
HETATM    2  N2  UNL     1      28.175  26.270  15.355  1.00  0.00    -0.326 N 
ATOM      3  H2  UNL     1      27.737  25.351  15.416  1.00  0.00     0.169 HD
HETATM    4  C3  UNL     1      27.397  27.344  15.314  1.00  0.00     0.138 A 
HETATM    5  N3  UNL     1      26.045  27.514  15.328  1.00  0.00    -0.282 N 
ATOM      6  H3  UNL     1      25.360  26.761  15.384  1.00  0.00     0.188 HD
HETATM    7  N4  UNL     1      25.760  28.784  15.261  1.00  0.00    -0.264 N 
ATOM      8  H4  UNL     1      24.825  29.193  15.256  1.00  0.00     0.190 HD
HETATM    9  C4  UNL     1      26.953  29.474  15.200  1.00  0.00     0.274 A 
HETATM   10  O1  UNL     1      27.044  30.706  15.127  1.00  0.00    -0.266 OA
HETATM   11  C5  UNL     1      27.983  28.564  15.234  1.00  0.00     0.086 A 
HETATM   12  C6  UNL     1      29.375  28.725  15.195  1.00  0.00    -0.027 A 
HETATM   13  C7  UNL     1      29.958  30.051  15.152  1.00  0.00     0.050 C 
HETATM   14  C8  UNL     1      30.177  27.604  15.237  1.00  0.00     0.032 A 
ENDROOT
BRANCH  14  15
HETATM   15  C9  UNL     1      31.609  27.567  15.218  1.00  0.00     0.132 C 
HETATM   16  N5  UNL     1      32.621  27.723  15.910  1.00  0.00    -0.276 N 
HETATM   17  C10 UNL     1      33.966  27.502  15.191  1.00  0.00     0.184 C 
BRANCH  16  18
HETATM   18  O2  UNL     1      32.871  28.070  17.182  1.00  0.00    -0.288 OA
ATOM     19  H2  UNL     1      33.475  28.659  17.620  1.00  0.00     0.244 HD
ENDBRANCH  16  18
ENDBRANCH  14  15
BRANCH   1  20
HETATM   20  N1  UNL     1      30.172  25.096  15.358  1.00  0.00    -0.380 N 
HETATM   21  C1  UNL     1      29.788  24.062  16.331  1.00  0.00     0.147 C 
ATOM     22  H1  UNL     1      30.922  24.902  14.695  1.00  0.00     0.160 HD
ENDBRANCH   1  20
TORSDOF 3
ENDMDL
MODEL 4
REMARK VINA RESULT: -2.989033541      9.748     10.069
REMARK  3 active torsions:
REMARK  status: ('A' for Active; 'I' for Inactive)
REMARK    1  A    between atoms: N1_2  and  C2_4 
REMARK    2  A    between atoms: C8_17  and  C9_18 
REMARK    3  A    between atoms: N5_19  and  O2_21 
ROOT
HETATM    1  C2  UNL     1      28.056  31.380  23.747  1.00  0.00     0.114 A 
HETATM    2  N2  UNL     1      27.192  31.056  22.753  1.00  0.00    -0.326 N 
ATOM      3  H2  UNL     1      27.484  30.373  22.054  1.00  0.00     0.169 HD
HETATM    4  C3  UNL     1      25.983  31.592  22.654  1.00  0.00     0.138 A 
HETATM    5  N3  UNL     1      24.966  31.432  21.761  1.00  0.00    -0.282 N 
ATOM      6  H3  UNL     1      24.985  30.807  20.955  1.00  0.00     0.188 HD
HETATM    7  N4  UNL     1      23.964  32.197  22.092  1.00  0.00    -0.264 N 
ATOM      8  H4  UNL     1      23.075  32.275  21.599  1.00  0.00     0.190 HD
HETATM    9  C4  UNL     1      24.326  32.883  23.234  1.00  0.00     0.274 A 
HETATM   10  O1  UNL     1      23.601  33.699  23.817  1.00  0.00    -0.266 OA
HETATM   11  C5  UNL     1      25.598  32.499  23.585  1.00  0.00     0.086 A 
HETATM   12  C6  UNL     1      26.433  32.885  24.644  1.00  0.00    -0.027 A 
HETATM   13  C7  UNL     1      25.964  33.825  25.641  1.00  0.00     0.050 C 
HETATM   14  C8  UNL     1      27.689  32.324  24.741  1.00  0.00     0.032 A 
ENDROOT
BRANCH  14  15
HETATM   15  C9  UNL     1      28.673  32.582  25.748  1.00  0.00     0.132 C 
HETATM   16  N5  UNL     1      29.543  33.381  26.113  1.00  0.00    -0.276 N 
HETATM   17  C10 UNL     1      30.293  33.013  27.408  1.00  0.00     0.184 C 
BRANCH  16  18
HETATM   18  O2  UNL     1      30.047  34.533  25.644  1.00  0.00    -0.288 OA
ATOM     19  H2  UNL     1      29.711  35.407  25.483  1.00  0.00     0.244 HD
ENDBRANCH  16  18
ENDBRANCH  14  15
BRANCH   1  20
HETATM   20  N1  UNL     1      29.293  30.717  23.669  1.00  0.00    -0.380 N 
HETATM   21  C1  UNL     1      30.417  31.275  22.901  1.00  0.00     0.147 C 
ATOM     22  H1  UNL     1      29.414  29.828  24.155  1.00  0.00     0.160 HD
ENDBRANCH   1  20
TORSDOF 3
ENDMDL
MODEL 5
REMARK VINA RESULT: -2.939211311      9.762     10.201
REMARK  3 active torsions:
REMARK  status: ('A' for Active; 'I' for Inactive)
REMARK    1  A    between atoms: N1_2  and  C2_4 
REMARK    2  A    between atoms: C8_17  and  C9_18 
REMARK    3  A    between atoms: N5_19  and  O2_21 
ROOT
HETATM    1  C2  UNL     1      28.031  32.511  25.176  1.00  0.00     0.114 A 
HETATM    2  N2  UNL     1      26.833  32.396  25.803  1.00  0.00    -0.326 N 
ATOM      3  H2  UNL     1      26.821  32.181  26.800  1.00  0.00     0.169 HD
HETATM    4  C3  UNL     1      25.677  32.553  25.172  1.00  0.00     0.138 A 
HETATM    5  N3  UNL     1      24.379  32.480  25.578  1.00  0.00    -0.282 N 
ATOM      6  H3  UNL     1      24.073  32.278  26.529  1.00  0.00     0.188 HD
HETATM    7  N4  UNL     1      23.587  32.709  24.568  1.00  0.00    -0.264 N 
ATOM      8  H4  UNL     1      22.567  32.717  24.591  1.00  0.00     0.190 HD
HETATM    9  C4  UNL     1      24.381  32.938  23.463  1.00  0.00     0.274 A 
HETATM   10  O1  UNL     1      23.946  33.188  22.331  1.00  0.00    -0.266 OA
HETATM   11  C5  UNL     1      25.697  32.839  23.846  1.00  0.00     0.086 A 
HETATM   12  C6  UNL     1      26.894  32.976  23.127  1.00  0.00    -0.027 A 
HETATM   13  C7  UNL     1      26.868  33.325  21.722  1.00  0.00     0.050 C 
HETATM   14  C8  UNL     1      28.091  32.811  23.790  1.00  0.00     0.032 A 
ENDROOT
BRANCH  14  15
HETATM   15  C9  UNL     1      29.407  32.920  23.234  1.00  0.00     0.132 C 
HETATM   16  N5  UNL     1      30.367  32.269  22.808  1.00  0.00    -0.276 N 
HETATM   17  C10 UNL     1      31.571  33.095  22.314  1.00  0.00     0.184 C 
BRANCH  16  18
HETATM   18  O2  UNL     1      30.663  30.967  22.675  1.00  0.00    -0.288 OA
ATOM     19  H2  UNL     1      31.457  30.445  22.684  1.00  0.00     0.244 HD
ENDBRANCH  16  18
ENDBRANCH  14  15
BRANCH   1  20
HETATM   20  N1  UNL     1      29.138  32.293  26.013  1.00  0.00    -0.380 N 
HETATM   21  C1  UNL     1      29.824  33.407  26.686  1.00  0.00     0.147 C 
ATOM     22  H1  UNL     1      29.474  31.341  26.158  1.00  0.00     0.160 HD
ENDBRANCH   1  20
TORSDOF 3
ENDMDL
