MODEL 1
REMARK VINA RESULT: -5.450151506      0.000      0.000
REMARK  5 active torsions:
REMARK  status: ('A' for Active; 'I' for Inactive)
REMARK    1  A    between atoms: C2_2  and  N1_3 
REMARK    2  A    between atoms: N1_3  and  N2_4 
REMARK    3  A    between atoms: N2_4  and  C3_6 
REMARK    4  A    between atoms: C3_6  and  N3_8 
REMARK       I    between atoms: C4_10  and  N4_11 
REMARK       I    between atoms: C4_10  and  N5_18 
REMARK    5  A    between atoms: N4_11  and  C5_13 
ROOT
HETATM    1  N3  UNL     1      14.151  45.052  19.160  1.00  0.00    -0.165 N 
ATOM      2  H3  UNL     1      14.565  44.734  20.036  1.00  0.00     0.186 HD
HETATM    3  C4  UNL     1      14.975  45.202  18.218  1.00  0.00     0.680 C 
HETATM    4  N4  UNL     1      16.354  44.905  18.520  1.00  0.00    -0.221 N 
ATOM      5  H4  UNL     1      16.851  44.191  17.987  1.00  0.00     0.178 HD
HETATM    6  N5  UNL     1      14.713  45.628  16.893  1.00  0.00    -0.196 N 
HETATM    7  C10 UNL     1      13.931  46.796  16.546  1.00  0.00     0.169 C 
HETATM    8  C11 UNL     1      13.129  46.461  15.326  1.00  0.00     0.188 C 
HETATM    9  O1  UNL     1      13.955  46.266  14.231  1.00  0.00    -0.386 OA
HETATM   10  C12 UNL     1      15.234  45.869  14.577  1.00  0.00     0.209 C 
HETATM   11  C13 UNL     1      15.240  44.891  15.732  1.00  0.00     0.222 C 
HETATM   12 CL1  UNL     1      14.313  43.456  15.351  1.00  0.00    -0.100 Cl
ENDROOT
BRANCH   1  13
HETATM   13  C3  UNL     1      12.776  45.246  19.211  1.00  0.00     0.202 C 
HETATM   14  S1  UNL     1      11.815  44.228  18.347  1.00  0.00    -0.039 SA
BRANCH  13  15
HETATM   15  N2  UNL     1      12.124  46.261  19.958  1.00  0.00    -0.280 N 
ATOM     16  H2  UNL     1      12.683  47.043  20.300  1.00  0.00     0.184 HD
BRANCH  15  17
HETATM   17  N1  UNL     1      10.765  46.247  20.249  1.00  0.00    -0.140 NA
BRANCH  17  18
HETATM   18  C2  UNL     1      10.467  46.936  21.488  1.00  0.00     0.130 C 
HETATM   19  C1  UNL     1       9.870  48.294  21.193  1.00  0.00     0.024 C 
ENDBRANCH  17  18
ENDBRANCH  15  17
ENDBRANCH  13  15
ENDBRANCH   1  13
BRANCH   4  20
HETATM   20  C5  UNL     1      17.024  45.612  19.569  1.00  0.00     0.099 C 
HETATM   21  C6  UNL     1      17.465  44.691  20.698  1.00  0.00     0.026 C 
HETATM   22  C7  UNL     1      18.799  45.313  21.111  1.00  0.00     0.002 C 
HETATM   23  C8  UNL     1      19.407  45.582  19.728  1.00  0.00     0.002 C 
HETATM   24  C9  UNL     1      18.247  46.296  19.054  1.00  0.00     0.026 C 
ENDBRANCH   4  20
TORSDOF 5
ENDMDL
MODEL 2
REMARK VINA RESULT: -5.342261427      2.808      5.680
REMARK  5 active torsions:
REMARK  status: ('A' for Active; 'I' for Inactive)
REMARK    1  A    between atoms: C2_2  and  N1_3 
REMARK    2  A    between atoms: N1_3  and  N2_4 
REMARK    3  A    between atoms: N2_4  and  C3_6 
REMARK    4  A    between atoms: C3_6  and  N3_8 
REMARK       I    between atoms: C4_10  and  N4_11 
REMARK       I    between atoms: C4_10  and  N5_18 
REMARK    5  A    between atoms: N4_11  and  C5_13 
ROOT
HETATM    1  N3  UNL     1      15.605  45.801  18.672  1.00  0.00    -0.165 N 
ATOM      2  H3  UNL     1      14.892  45.893  19.397  1.00  0.00     0.186 HD
HETATM    3  C4  UNL     1      15.149  45.728  17.499  1.00  0.00     0.680 C 
HETATM    4  N4  UNL     1      13.714  45.784  17.364  1.00  0.00    -0.221 N 
ATOM      5  H4  UNL     1      13.283  46.516  16.800  1.00  0.00     0.178 HD
HETATM    6  N5  UNL     1      15.876  45.596  16.291  1.00  0.00    -0.196 N 
HETATM    7  C10 UNL     1      16.926  44.623  16.067  1.00  0.00     0.169 C 
HETATM    8  C11 UNL     1      17.987  45.282  15.241  1.00  0.00     0.188 C 
HETATM    9  O1  UNL     1      17.515  45.572  13.971  1.00  0.00    -0.386 OA
HETATM   10  C12 UNL     1      16.142  45.731  13.924  1.00  0.00     0.209 C 
HETATM   11  C13 UNL     1      15.605  46.465  15.134  1.00  0.00     0.222 C 
HETATM   12 CL1  UNL     1      16.328  48.052  15.283  1.00  0.00    -0.100 Cl
ENDROOT
BRANCH   1  13
HETATM   13  C3  UNL     1      16.909  45.778  19.150  1.00  0.00     0.202 C 
HETATM   14  S1  UNL     1      17.330  44.589  20.206  1.00  0.00    -0.039 SA
BRANCH  13  15
HETATM   15  N2  UNL     1      17.922  46.706  18.794  1.00  0.00    -0.280 N 
ATOM     16  H2  UNL     1      18.443  46.546  17.930  1.00  0.00     0.184 HD
BRANCH  15  17
HETATM   17  N1  UNL     1      18.244  47.821  19.559  1.00  0.00    -0.140 NA
BRANCH  17  18
HETATM   18  C2  UNL     1      19.582  47.737  20.106  1.00  0.00     0.130 C 
HETATM   19  C1  UNL     1      19.637  48.435  21.446  1.00  0.00     0.024 C 
ENDBRANCH  17  18
ENDBRANCH  15  17
ENDBRANCH  13  15
ENDBRANCH   1  13
BRANCH   4  20
HETATM   20  C5  UNL     1      12.896  44.812  18.024  1.00  0.00     0.099 C 
HETATM   21  C6  UNL     1      12.009  45.433  19.093  1.00  0.00     0.026 C 
HETATM   22  C7  UNL     1      10.731  44.605  18.965  1.00  0.00     0.002 C 
HETATM   23  C8  UNL     1      10.594  44.561  17.437  1.00  0.00     0.002 C 
HETATM   24  C9  UNL     1      11.997  44.124  17.050  1.00  0.00     0.026 C 
ENDBRANCH   4  20
TORSDOF 5
ENDMDL
MODEL 3
REMARK VINA RESULT: -5.297869685      2.714      5.572
REMARK  5 active torsions:
REMARK  status: ('A' for Active; 'I' for Inactive)
REMARK    1  A    between atoms: C2_2  and  N1_3 
REMARK    2  A    between atoms: N1_3  and  N2_4 
REMARK    3  A    between atoms: N2_4  and  C3_6 
REMARK    4  A    between atoms: C3_6  and  N3_8 
REMARK       I    between atoms: C4_10  and  N4_11 
REMARK       I    between atoms: C4_10  and  N5_18 
REMARK    5  A    between atoms: N4_11  and  C5_13 
ROOT
HETATM    1  N3  UNL     1      15.747  45.807  18.709  1.00  0.00    -0.165 N 
ATOM      2  H3  UNL     1      15.146  45.936  19.523  1.00  0.00     0.186 HD
HETATM    3  C4  UNL     1      15.136  45.782  17.607  1.00  0.00     0.680 C 
HETATM    4  N4  UNL     1      13.702  45.936  17.667  1.00  0.00    -0.221 N 
ATOM      5  H4  UNL     1      13.250  46.703  17.169  1.00  0.00     0.178 HD
HETATM    6  N5  UNL     1      15.684  45.621  16.312  1.00  0.00    -0.196 N 
HETATM    7  C10 UNL     1      16.626  44.584  15.943  1.00  0.00     0.169 C 
HETATM    8  C11 UNL     1      17.609  45.183  14.986  1.00  0.00     0.188 C 
HETATM    9  O1  UNL     1      16.993  45.523  13.793  1.00  0.00    -0.386 OA
HETATM   10  C12 UNL     1      15.639  45.773  13.931  1.00  0.00     0.209 C 
HETATM   11  C13 UNL     1      15.320  46.523  15.206  1.00  0.00     0.222 C 
HETATM   12 CL1  UNL     1      16.162  48.056  15.266  1.00  0.00    -0.100 Cl
ENDROOT
BRANCH   1  13
HETATM   13  C3  UNL     1      17.099  45.691  19.007  1.00  0.00     0.202 C 
HETATM   14  S1  UNL     1      18.077  46.978  18.701  1.00  0.00    -0.039 SA
BRANCH  13  15
HETATM   15  N2  UNL     1      17.713  44.539  19.563  1.00  0.00    -0.280 N 
ATOM     16  H2  UNL     1      18.338  43.990  18.971  1.00  0.00     0.184 HD
BRANCH  15  17
HETATM   17  N1  UNL     1      17.510  44.117  20.873  1.00  0.00    -0.140 NA
BRANCH  17  18
HETATM   18  C2  UNL     1      18.100  45.026  21.834  1.00  0.00     0.130 C 
HETATM   19  C1  UNL     1      19.608  44.983  21.726  1.00  0.00     0.024 C 
ENDBRANCH  17  18
ENDBRANCH  15  17
ENDBRANCH  13  15
ENDBRANCH   1  13
BRANCH   4  20
HETATM   20  C5  UNL     1      12.916  45.010  18.424  1.00  0.00     0.099 C 
HETATM   21  C6  UNL     1      11.944  45.711  19.363  1.00  0.00     0.026 C 
HETATM   22  C7  UNL     1      10.726  44.790  19.305  1.00  0.00     0.002 C 
HETATM   23  C8  UNL     1      10.662  44.528  17.794  1.00  0.00     0.002 C 
HETATM   24  C9  UNL     1      12.106  44.137  17.523  1.00  0.00     0.026 C 
ENDBRANCH   4  20
TORSDOF 5
ENDMDL
MODEL 4
REMARK VINA RESULT: -5.211829073      3.555      6.002
REMARK  5 active torsions:
REMARK  status: ('A' for Active; 'I' for Inactive)
REMARK    1  A    between atoms: C2_2  and  N1_3 
REMARK    2  A    between atoms: N1_3  and  N2_4 
REMARK    3  A    between atoms: N2_4  and  C3_6 
REMARK    4  A    between atoms: C3_6  and  N3_8 
REMARK       I    between atoms: C4_10  and  N4_11 
REMARK       I    between atoms: C4_10  and  N5_18 
REMARK    5  A    between atoms: N4_11  and  C5_13 
ROOT
HETATM    1  N3  UNL     1      16.041  46.238  16.190  1.00  0.00    -0.165 N 
ATOM      2  H3  UNL     1      15.252  45.918  15.629  1.00  0.00     0.186 HD
HETATM    3  C4  UNL     1      16.064  45.784  17.365  1.00  0.00     0.680 C 
HETATM    4  N4  UNL     1      14.986  44.897  17.730  1.00  0.00    -0.221 N 
ATOM      5  H4  UNL     1      15.190  43.948  18.045  1.00  0.00     0.178 HD
HETATM    6  N5  UNL     1      17.020  46.038  18.378  1.00  0.00    -0.196 N 
HETATM    7  C10 UNL     1      17.483  47.358  18.756  1.00  0.00     0.169 C 
HETATM    8  C11 UNL     1      18.945  47.256  19.062  1.00  0.00     0.188 C 
HETATM    9  O1  UNL     1      19.161  46.483  20.191  1.00  0.00    -0.386 OA
HETATM   10  C12 UNL     1      18.150  45.568  20.426  1.00  0.00     0.209 C 
HETATM   11  C13 UNL     1      17.631  44.943  19.149  1.00  0.00     0.222 C 
HETATM   12 CL1  UNL     1      18.911  44.123  18.281  1.00  0.00    -0.100 Cl
ENDROOT
BRANCH   1  13
HETATM   13  C3  UNL     1      16.907  47.098  15.526  1.00  0.00     0.202 C 
HETATM   14  S1  UNL     1      18.358  46.508  15.025  1.00  0.00    -0.039 SA
BRANCH  13  15
HETATM   15  N2  UNL     1      16.636  48.461  15.238  1.00  0.00    -0.280 N 
ATOM     16  H2  UNL     1      16.712  48.775  14.270  1.00  0.00     0.184 HD
BRANCH  15  17
HETATM   17  N1  UNL     1      16.273  49.393  16.205  1.00  0.00    -0.140 NA
BRANCH  17  18
HETATM   18  C2  UNL     1      14.835  49.523  16.320  1.00  0.00     0.130 C 
HETATM   19  C1  UNL     1      14.470  50.957  16.627  1.00  0.00     0.024 C 
ENDBRANCH  17  18
ENDBRANCH  15  17
ENDBRANCH  13  15
ENDBRANCH   1  13
BRANCH   4  20
HETATM   20  C5  UNL     1      13.630  45.349  17.649  1.00  0.00     0.099 C 
HETATM   21  C6  UNL     1      12.825  44.580  16.612  1.00  0.00     0.026 C 
HETATM   22  C7  UNL     1      11.453  44.490  17.278  1.00  0.00     0.002 C 
HETATM   23  C8  UNL     1      11.874  44.123  18.708  1.00  0.00     0.002 C 
HETATM   24  C9  UNL     1      12.935  45.183  18.960  1.00  0.00     0.026 C 
ENDBRANCH   4  20
TORSDOF 5
ENDMDL
MODEL 5
REMARK VINA RESULT: -5.165556589      3.618      5.961
REMARK  5 active torsions:
REMARK  status: ('A' for Active; 'I' for Inactive)
REMARK    1  A    between atoms: C2_2  and  N1_3 
REMARK    2  A    between atoms: N1_3  and  N2_4 
REMARK    3  A    between atoms: N2_4  and  C3_6 
REMARK    4  A    between atoms: C3_6  and  N3_8 
REMARK       I    between atoms: C4_10  and  N4_11 
REMARK       I    between atoms: C4_10  and  N5_18 
REMARK    5  A    between atoms: N4_11  and  C5_13 
ROOT
HETATM    1  N3  UNL     1      15.131  47.323  15.965  1.00  0.00    -0.165 N 
ATOM      2  H3  UNL     1      14.219  47.252  15.515  1.00  0.00     0.186 HD
HETATM    3  C4  UNL     1      15.429  46.340  16.697  1.00  0.00     0.680 C 
HETATM    4  N4  UNL     1      14.449  45.285  16.783  1.00  0.00    -0.221 N 
ATOM      5  H4  UNL     1      14.696  44.335  16.507  1.00  0.00     0.178 HD
HETATM    6  N5  UNL     1      16.613  46.144  17.449  1.00  0.00    -0.196 N 
HETATM    7  C10 UNL     1      17.193  47.129  18.339  1.00  0.00     0.169 C 
HETATM    8  C11 UNL     1      18.682  47.037  18.209  1.00  0.00     0.188 C 
HETATM    9  O1  UNL     1      19.146  45.825  18.693  1.00  0.00    -0.386 OA
HETATM   10  C12 UNL     1      18.198  44.819  18.643  1.00  0.00     0.209 C 
HETATM   11  C13 UNL     1      17.363  44.878  17.382  1.00  0.00     0.222 C 
HETATM   12 CL1  UNL     1      18.365  44.748  15.953  1.00  0.00    -0.100 Cl
ENDROOT
BRANCH   1  13
HETATM   13  C3  UNL     1      15.831  48.485  15.666  1.00  0.00     0.202 C 
HETATM   14  S1  UNL     1      17.122  48.377  14.652  1.00  0.00    -0.039 SA
BRANCH  13  15
HETATM   15  N2  UNL     1      15.518  49.775  16.169  1.00  0.00    -0.280 N 
ATOM     16  H2  UNL     1      14.733  49.865  16.814  1.00  0.00     0.184 HD
BRANCH  15  17
HETATM   17  N1  UNL     1      16.225  50.923  15.827  1.00  0.00    -0.140 NA
BRANCH  17  18
HETATM   18  C2  UNL     1      15.456  52.127  16.072  1.00  0.00     0.130 C 
HETATM   19  C1  UNL     1      14.043  51.766  16.469  1.00  0.00     0.024 C 
ENDBRANCH  17  18
ENDBRANCH  15  17
ENDBRANCH  13  15
ENDBRANCH   1  13
BRANCH   4  20
HETATM   20  C5  UNL     1      13.129  45.573  17.256  1.00  0.00     0.099 C 
HETATM   21  C6  UNL     1      12.059  44.824  16.475  1.00  0.00     0.026 C 
HETATM   22  C7  UNL     1      11.040  44.496  17.566  1.00  0.00     0.002 C 
HETATM   23  C8  UNL     1      11.986  44.036  18.684  1.00  0.00     0.002 C 
HETATM   24  C9  UNL     1      12.981  45.186  18.690  1.00  0.00     0.026 C 
ENDBRANCH   4  20
TORSDOF 5
ENDMDL
