MODEL 1
REMARK VINA RESULT: -7.161138166      0.000      0.000
REMARK  4 active torsions:
REMARK  status: ('A' for Active; 'I' for Inactive)
REMARK    1  A    between atoms: C2_2  and  C3_3 
REMARK    2  A    between atoms: C2_2  and  C4_6 
REMARK    3  A    between atoms: C3_3  and  O1_4 
REMARK    4  A    between atoms: C4_6  and  O2_7 
ROOT
HETATM    1  C4  UNL     1      38.114  27.936  17.541  1.00  0.00     0.091 C 
HETATM    2  C5  UNL     1      39.164  27.027  18.150  1.00  0.00     0.045 C 
HETATM    3  C6  UNL     1      40.177  26.824  17.074  1.00  0.00     0.022 C 
HETATM    4  C7  UNL     1      39.736  27.705  15.912  1.00  0.00     0.030 A 
HETATM    5  C8  UNL     1      40.628  28.781  15.744  1.00  0.00    -0.072 A 
HETATM    6  C9  UNL     1      41.164  30.003  16.486  1.00  0.00     0.044 C 
HETATM    7  C10 UNL     1      40.981  28.404  14.556  1.00  0.00     0.018 A 
HETATM    8  C11 UNL     1      40.134  27.288  14.581  1.00  0.00     0.118 A 
HETATM    9  O3  UNL     1      39.067  27.651  13.560  1.00  0.00    -0.364 OA
HETATM   10  C12 UNL     1      39.473  26.381  13.866  1.00  0.00     0.163 A 
HETATM   11  C13 UNL     1      38.355  25.657  14.602  1.00  0.00     0.036 C 
HETATM   12  C14 UNL     1      37.735  26.378  15.723  1.00  0.00     0.016 C 
HETATM   13  C15 UNL     1      38.242  27.761  16.058  1.00  0.00     0.006 C 
HETATM   14  C16 UNL     1      37.526  28.767  15.253  1.00  0.00     0.020 C 
ENDROOT
BRANCH   1  15
HETATM   15  C2  UNL     1      36.807  27.741  18.181  1.00  0.00    -0.031 C 
HETATM   16  C1  UNL     1      36.682  26.638  18.929  1.00  0.00     0.019 C 
BRANCH  15  17
HETATM   17  C3  UNL     1      35.603  28.592  18.083  1.00  0.00     0.200 C 
BRANCH  17  18
HETATM   18  O1  UNL     1      35.794  29.749  18.893  1.00  0.00    -0.397 OA
ATOM     19  H1  UNL     1      36.610  30.166  18.640  1.00  0.00     0.209 HD
ENDBRANCH  17  18
ENDBRANCH  15  17
ENDBRANCH   1  15
BRANCH   1  20
HETATM   20  O2  UNL     1      38.576  29.256  17.887  1.00  0.00    -0.384 OA
ATOM     21  H2  UNL     1      39.164  29.545  17.199  1.00  0.00     0.211 HD
ENDBRANCH   1  20
TORSDOF 4
ENDMDL
MODEL 2
REMARK VINA RESULT: -7.098735321      1.288      3.038
REMARK  4 active torsions:
REMARK  status: ('A' for Active; 'I' for Inactive)
REMARK    1  A    between atoms: C2_2  and  C3_3 
REMARK    2  A    between atoms: C2_2  and  C4_6 
REMARK    3  A    between atoms: C3_3  and  O1_4 
REMARK    4  A    between atoms: C4_6  and  O2_7 
ROOT
HETATM    1  C4  UNL     1      37.486  27.927  16.409  1.00  0.00     0.091 C 
HETATM    2  C5  UNL     1      37.094  29.103  15.535  1.00  0.00     0.045 C 
HETATM    3  C6  UNL     1      38.359  29.544  14.880  1.00  0.00     0.022 C 
HETATM    4  C7  UNL     1      39.425  28.545  15.315  1.00  0.00     0.030 A 
HETATM    5  C8  UNL     1      39.823  27.746  14.225  1.00  0.00    -0.072 A 
HETATM    6  C9  UNL     1      39.262  26.736  13.228  1.00  0.00     0.044 C 
HETATM    7  C10 UNL     1      41.046  28.173  14.260  1.00  0.00     0.018 A 
HETATM    8  C11 UNL     1      40.795  29.018  15.350  1.00  0.00     0.118 A 
HETATM    9  O3  UNL     1      41.568  28.352  16.479  1.00  0.00    -0.364 OA
HETATM   10  C12 UNL     1      41.315  29.693  16.373  1.00  0.00     0.163 A 
HETATM   11  C13 UNL     1      40.325  30.106  17.451  1.00  0.00     0.036 C 
HETATM   12  C14 UNL     1      39.120  29.275  17.589  1.00  0.00     0.016 C 
HETATM   13  C15 UNL     1      38.954  28.090  16.666  1.00  0.00     0.006 C 
HETATM   14  C16 UNL     1      39.615  26.907  17.245  1.00  0.00     0.020 C 
ENDROOT
BRANCH   1  15
HETATM   15  C2  UNL     1      36.567  27.779  17.544  1.00  0.00    -0.031 C 
HETATM   16  C1  UNL     1      36.734  26.681  18.291  1.00  0.00     0.019 C 
BRANCH  15  17
HETATM   17  C3  UNL     1      35.463  28.673  17.952  1.00  0.00     0.200 C 
BRANCH  17  18
HETATM   18  O1  UNL     1      35.965  29.616  18.896  1.00  0.00    -0.397 OA
ATOM     19  H1  UNL     1      36.903  29.701  18.771  1.00  0.00     0.209 HD
ENDBRANCH  17  18
ENDBRANCH  15  17
ENDBRANCH   1  15
BRANCH   1  20
HETATM   20  O2  UNL     1      37.297  26.792  15.543  1.00  0.00    -0.384 OA
ATOM     21  H2  UNL     1      37.231  27.117  14.653  1.00  0.00     0.211 HD
ENDBRANCH   1  20
TORSDOF 4
ENDMDL
MODEL 3
REMARK VINA RESULT: -7.092105059      1.616      4.719
REMARK  4 active torsions:
REMARK  status: ('A' for Active; 'I' for Inactive)
REMARK    1  A    between atoms: C2_2  and  C3_3 
REMARK    2  A    between atoms: C2_2  and  C4_6 
REMARK    3  A    between atoms: C3_3  and  O1_4 
REMARK    4  A    between atoms: C4_6  and  O2_7 
ROOT
HETATM    1  C4  UNL     1      39.729  28.264  17.048  1.00  0.00     0.091 C 
HETATM    2  C5  UNL     1      39.811  29.234  18.211  1.00  0.00     0.045 C 
HETATM    3  C6  UNL     1      38.591  28.970  19.028  1.00  0.00     0.022 C 
HETATM    4  C7  UNL     1      37.895  27.785  18.369  1.00  0.00     0.030 A 
HETATM    5  C8  UNL     1      37.982  26.645  19.190  1.00  0.00    -0.072 A 
HETATM    6  C9  UNL     1      39.015  25.710  19.814  1.00  0.00     0.044 C 
HETATM    7  C10 UNL     1      36.698  26.562  19.343  1.00  0.00     0.018 A 
HETATM    8  C11 UNL     1      36.459  27.686  18.543  1.00  0.00     0.118 A 
HETATM    9  O3  UNL     1      35.805  27.088  17.306  1.00  0.00    -0.364 OA
HETATM   10  C12 UNL     1      35.580  28.347  17.792  1.00  0.00     0.163 A 
HETATM   11  C13 UNL     1      36.175  29.370  16.838  1.00  0.00     0.036 C 
HETATM   12  C14 UNL     1      37.559  29.132  16.402  1.00  0.00     0.016 C 
HETATM   13  C15 UNL     1      38.277  27.909  16.922  1.00  0.00     0.006 C 
HETATM   14  C16 UNL     1      37.997  26.754  16.051  1.00  0.00     0.020 C 
ENDROOT
BRANCH   1  15
HETATM   15  C2  UNL     1      40.450  28.776  15.877  1.00  0.00    -0.031 C 
HETATM   16  C1  UNL     1      40.978  30.000  16.004  1.00  0.00     0.019 C 
BRANCH  15  17
HETATM   17  C3  UNL     1      40.645  28.126  14.564  1.00  0.00     0.200 C 
BRANCH  17  18
HETATM   18  O1  UNL     1      41.850  28.622  13.984  1.00  0.00    -0.397 OA
ATOM     19  H1  UNL     1      42.293  27.905  13.544  1.00  0.00     0.209 HD
ENDBRANCH  17  18
ENDBRANCH  15  17
ENDBRANCH   1  15
BRANCH   1  20
HETATM   20  O2  UNL     1      40.442  27.108  17.528  1.00  0.00    -0.384 OA
ATOM     21  H2  UNL     1      40.207  26.374  16.971  1.00  0.00     0.211 HD
ENDBRANCH   1  20
TORSDOF 4
ENDMDL
MODEL 4
REMARK VINA RESULT: -7.062160680      3.293      5.522
REMARK  4 active torsions:
REMARK  status: ('A' for Active; 'I' for Inactive)
REMARK    1  A    between atoms: C2_2  and  C3_3 
REMARK    2  A    between atoms: C2_2  and  C4_6 
REMARK    3  A    between atoms: C3_3  and  O1_4 
REMARK    4  A    between atoms: C4_6  and  O2_7 
ROOT
HETATM    1  C4  UNL     1      38.884  23.982  19.359  1.00  0.00     0.091 C 
HETATM    2  C5  UNL     1      37.562  23.808  20.082  1.00  0.00     0.045 C 
HETATM    3  C6  UNL     1      36.675  24.875  19.538  1.00  0.00     0.022 C 
HETATM    4  C7  UNL     1      37.476  25.568  18.442  1.00  0.00     0.030 A 
HETATM    5  C8  UNL     1      36.931  25.279  17.177  1.00  0.00    -0.072 A 
HETATM    6  C9  UNL     1      36.651  24.101  16.247  1.00  0.00     0.044 C 
HETATM    7  C10 UNL     1      36.641  26.519  16.933  1.00  0.00     0.018 A 
HETATM    8  C11 UNL     1      37.151  26.953  18.164  1.00  0.00     0.118 A 
HETATM    9  O3  UNL     1      38.395  27.730  17.759  1.00  0.00    -0.364 OA
HETATM   10  C12 UNL     1      37.630  27.977  18.866  1.00  0.00     0.163 A 
HETATM   11  C13 UNL     1      38.414  27.602  20.115  1.00  0.00     0.036 C 
HETATM   12  C14 UNL     1      39.058  26.281  20.111  1.00  0.00     0.016 C 
HETATM   13  C15 UNL     1      38.900  25.406  18.890  1.00  0.00     0.006 C 
HETATM   14  C16 UNL     1      39.953  25.720  17.907  1.00  0.00     0.020 C 
ENDROOT
BRANCH   1  15
HETATM   15  C2  UNL     1      40.001  23.476  20.165  1.00  0.00    -0.031 C 
HETATM   16  C1  UNL     1      39.671  22.671  21.183  1.00  0.00     0.019 C 
BRANCH  15  17
HETATM   17  C3  UNL     1      41.444  23.762  20.015  1.00  0.00     0.200 C 
BRANCH  17  18
HETATM   18  O1  UNL     1      41.893  24.461  21.173  1.00  0.00    -0.397 OA
ATOM     19  H1  UNL     1      42.818  24.657  21.070  1.00  0.00     0.209 HD
ENDBRANCH  17  18
ENDBRANCH  15  17
ENDBRANCH   1  15
BRANCH   1  20
HETATM   20  O2  UNL     1      38.751  23.124  18.210  1.00  0.00    -0.384 OA
ATOM     21  H2  UNL     1      37.834  23.120  17.959  1.00  0.00     0.211 HD
ENDBRANCH   1  20
TORSDOF 4
ENDMDL
MODEL 5
REMARK VINA RESULT: -7.015022202      3.672      5.884
REMARK  4 active torsions:
REMARK  status: ('A' for Active; 'I' for Inactive)
REMARK    1  A    between atoms: C2_2  and  C3_3 
REMARK    2  A    between atoms: C2_2  and  C4_6 
REMARK    3  A    between atoms: C3_3  and  O1_4 
REMARK    4  A    between atoms: C4_6  and  O2_7 
ROOT
HETATM    1  C4  UNL     1      38.455  25.100  17.564  1.00  0.00     0.091 C 
HETATM    2  C5  UNL     1      38.508  26.214  18.592  1.00  0.00     0.045 C 
HETATM    3  C6  UNL     1      38.553  25.525  19.914  1.00  0.00     0.022 C 
HETATM    4  C7  UNL     1      38.629  24.034  19.607  1.00  0.00     0.030 A 
HETATM    5  C8  UNL     1      39.896  23.525  19.952  1.00  0.00    -0.072 A 
HETATM    6  C9  UNL     1      41.373  23.687  19.606  1.00  0.00     0.044 C 
HETATM    7  C10 UNL     1      39.413  22.718  20.844  1.00  0.00     0.018 A 
HETATM    8  C11 UNL     1      38.095  23.128  20.605  1.00  0.00     0.118 A 
HETATM    9  O3  UNL     1      37.474  21.905  19.946  1.00  0.00    -0.364 OA
HETATM   10  C12 UNL     1      36.803  22.825  20.706  1.00  0.00     0.163 A 
HETATM   11  C13 UNL     1      35.871  23.631  19.814  1.00  0.00     0.036 C 
HETATM   12  C14 UNL     1      36.455  24.180  18.581  1.00  0.00     0.016 C 
HETATM   13  C15 UNL     1      37.913  23.907  18.293  1.00  0.00     0.006 C 
HETATM   14  C16 UNL     1      38.052  22.628  17.573  1.00  0.00     0.020 C 
ENDROOT
BRANCH   1  15
HETATM   15  C2  UNL     1      37.801  25.548  16.328  1.00  0.00    -0.031 C 
HETATM   16  C1  UNL     1      37.289  26.785  16.353  1.00  0.00     0.019 C 
BRANCH  15  17
HETATM   17  C3  UNL     1      37.612  24.799  15.068  1.00  0.00     0.200 C 
BRANCH  17  18
HETATM   18  O1  UNL     1      38.892  24.441  14.554  1.00  0.00    -0.397 OA
ATOM     19  H1  UNL     1      38.927  23.497  14.454  1.00  0.00     0.209 HD
ENDBRANCH  17  18
ENDBRANCH  15  17
ENDBRANCH   1  15
BRANCH   1  20
HETATM   20  O2  UNL     1      39.842  24.860  17.261  1.00  0.00    -0.384 OA
ATOM     21  H2  UNL     1      40.069  24.005  17.610  1.00  0.00     0.211 HD
ENDBRANCH   1  20
TORSDOF 4
ENDMDL
