MODEL 1
REMARK VINA RESULT: -6.914346127      0.000      0.000
REMARK  8 active torsions:
REMARK  status: ('A' for Active; 'I' for Inactive)
REMARK    1  A    between atoms: C2_2  and  N1_3 
REMARK    2  A    between atoms: C2_2  and  C3_7 
REMARK       I    between atoms: C3_7  and  N2_9 
REMARK    3  A    between atoms: N2_9  and  C4_11 
REMARK    4  A    between atoms: C4_11  and  O2_13 
REMARK    5  A    between atoms: C4_11  and  C6_15 
REMARK       I    between atoms: C6_15  and  N3_17 
REMARK    6  A    between atoms: N3_17  and  C7_19 
REMARK    7  A    between atoms: C8_24  and  S1_25 
REMARK    8  A    between atoms: S1_25  and  N6_26 
ROOT
HETATM    1  C6  UNL     1      14.712  21.704 108.681  1.00  0.00     0.279 C 
HETATM    2  O3  UNL     1      13.558  21.237 108.931  1.00  0.00    -0.268 OA
HETATM    3  N3  UNL     1      15.648  20.740 108.220  1.00  0.00    -0.302 N 
ATOM      4  H3  UNL     1      16.478  20.526 108.773  1.00  0.00     0.171 HD
ENDROOT
BRANCH   1   5
HETATM    5  C4  UNL     1      14.975  23.129 108.875  1.00  0.00     0.213 C 
HETATM    6  C5  UNL     1      14.409  23.929 107.709  1.00  0.00     0.082 C 
BRANCH   5   7
HETATM    7  N2  UNL     1      16.366  23.413 109.084  1.00  0.00    -0.320 N 
HETATM    8  C3  UNL     1      17.085  23.237 110.280  1.00  0.00     0.250 C 
HETATM    9  O1  UNL     1      16.600  22.792 111.356  1.00  0.00    -0.271 OA
ATOM     10  H2  UNL     1      16.885  23.779 108.286  1.00  0.00     0.166 HD
BRANCH   8  11
HETATM   11  C2  UNL     1      18.544  23.600 110.303  1.00  0.00     0.270 C 
HETATM   12  C1  UNL     1      18.712  25.009 109.810  1.00  0.00     0.050 C 
BRANCH  11  13
HETATM   13  N1  UNL     1      19.310  22.649 109.549  1.00  0.00    -0.067 N 
ATOM     14  H13 UNL     1      19.756  23.094 108.746  1.00  0.00     0.275 HD
ATOM     15  H12 UNL     1      20.143  22.361 110.063  1.00  0.00     0.275 HD
ATOM     16  H11 UNL     1      18.763  21.838 109.260  1.00  0.00     0.275 HD
ENDBRANCH  11  13
ENDBRANCH   8  11
ENDBRANCH   5   7
BRANCH   5  17
HETATM   17  O2  UNL     1      14.295  23.513 110.056  1.00  0.00    -0.363 OA
ATOM     18  H2  UNL     1      13.409  23.741 109.803  1.00  0.00     0.213 HD
ENDBRANCH   5  17
ENDBRANCH   1   5
BRANCH   3  19
HETATM   19  C7  UNL     1      15.438  20.124 107.079  1.00  0.00     0.168 A 
HETATM   20  N4  UNL     1      15.973  18.977 106.654  1.00  0.00    -0.278 N 
HETATM   21  N5  UNL     1      15.644  18.537 105.512  1.00  0.00    -0.281 N 
ATOM     22  H4  UNL     1      16.634  18.464 107.238  1.00  0.00     0.189 HD
HETATM   23  C8  UNL     1      14.786  19.209 104.759  1.00  0.00     0.208 A 
ATOM     24  H5  UNL     1      16.042  17.662 105.170  1.00  0.00     0.188 HD
HETATM   25  S2  UNL     1      14.436  20.549 105.760  1.00  0.00    -0.020 SA
BRANCH  23  26
HETATM   26  S1  UNL     1      14.205  18.768 103.149  1.00  0.00     0.280 S 
HETATM   27  O4  UNL     1      12.713  18.602 103.159  1.00  0.00    -0.199 OA
HETATM   28  O5  UNL     1      14.568  19.892 102.202  1.00  0.00    -0.199 OA
BRANCH  26  29
HETATM   29  N6  UNL     1      14.949  17.325 102.588  1.00  0.00    -0.323 N 
ATOM     30  H62 UNL     1      15.927  17.092 102.763  1.00  0.00     0.169 HD
ATOM     31  H61 UNL     1      14.292  16.746 102.066  1.00  0.00     0.169 HD
ENDBRANCH  26  29
ENDBRANCH  23  26
ENDBRANCH   3  19
TORSDOF 8
ENDMDL
MODEL 2
REMARK VINA RESULT: -6.651335398      1.906      1.982
REMARK  8 active torsions:
REMARK  status: ('A' for Active; 'I' for Inactive)
REMARK    1  A    between atoms: C2_2  and  N1_3 
REMARK    2  A    between atoms: C2_2  and  C3_7 
REMARK       I    between atoms: C3_7  and  N2_9 
REMARK    3  A    between atoms: N2_9  and  C4_11 
REMARK    4  A    between atoms: C4_11  and  O2_13 
REMARK    5  A    between atoms: C4_11  and  C6_15 
REMARK       I    between atoms: C6_15  and  N3_17 
REMARK    6  A    between atoms: N3_17  and  C7_19 
REMARK    7  A    between atoms: C8_24  and  S1_25 
REMARK    8  A    between atoms: S1_25  and  N6_26 
ROOT
HETATM    1  C6  UNL     1      15.803  22.519 107.553  1.00  0.00     0.279 C 
HETATM    2  O3  UNL     1      16.871  22.770 106.914  1.00  0.00    -0.268 OA
HETATM    3  N3  UNL     1      14.770  21.942 106.767  1.00  0.00    -0.302 N 
ATOM      4  H3  UNL     1      13.893  22.443 106.624  1.00  0.00     0.171 HD
ENDROOT
BRANCH   1   5
HETATM    5  C4  UNL     1      15.723  22.828 108.981  1.00  0.00     0.213 C 
HETATM    6  C5  UNL     1      14.638  23.869 109.229  1.00  0.00     0.082 C 
BRANCH   5   7
HETATM    7  N2  UNL     1      16.983  23.237 109.532  1.00  0.00    -0.320 N 
HETATM    8  C3  UNL     1      17.338  23.244 110.892  1.00  0.00     0.250 C 
HETATM    9  O1  UNL     1      16.586  22.880 111.837  1.00  0.00    -0.271 OA
ATOM     10  H2  UNL     1      17.692  23.553 108.870  1.00  0.00     0.166 HD
BRANCH   8  11
HETATM   11  C2  UNL     1      18.713  23.716 111.275  1.00  0.00     0.270 C 
HETATM   12  C1  UNL     1      18.707  24.145 112.715  1.00  0.00     0.050 C 
BRANCH  11  13
HETATM   13  N1  UNL     1      19.155  24.751 110.385  1.00  0.00    -0.067 N 
ATOM     14  H13 UNL     1      19.120  24.438 109.414  1.00  0.00     0.275 HD
ATOM     15  H12 UNL     1      18.474  25.509 110.339  1.00  0.00     0.275 HD
ATOM     16  H11 UNL     1      20.081  25.108 110.620  1.00  0.00     0.275 HD
ENDBRANCH  11  13
ENDBRANCH   8  11
ENDBRANCH   5   7
BRANCH   5  17
HETATM   17  O2  UNL     1      15.355  21.629 109.638  1.00  0.00    -0.363 OA
ATOM     18  H2  UNL     1      15.322  21.823 110.567  1.00  0.00     0.213 HD
ENDBRANCH   5  17
ENDBRANCH   1   5
BRANCH   3  19
HETATM   19  C7  UNL     1      14.951  20.759 106.224  1.00  0.00     0.168 A 
HETATM   20  N4  UNL     1      15.662  19.736 106.704  1.00  0.00    -0.278 N 
HETATM   21  N5  UNL     1      15.719  18.664 106.030  1.00  0.00    -0.281 N 
ATOM     22  H4  UNL     1      16.150  19.816 107.596  1.00  0.00     0.189 HD
HETATM   23  C8  UNL     1      15.083  18.569 104.872  1.00  0.00     0.208 A 
ATOM     24  H5  UNL     1      16.256  17.872 106.381  1.00  0.00     0.188 HD
HETATM   25  S2  UNL     1      14.363  20.114 104.754  1.00  0.00    -0.020 SA
BRANCH  23  26
HETATM   26  S1  UNL     1      15.038  17.172 103.790  1.00  0.00     0.280 S 
HETATM   27  O4  UNL     1      14.327  17.520 102.516  1.00  0.00    -0.199 OA
HETATM   28  O5  UNL     1      16.468  16.792 103.467  1.00  0.00    -0.199 OA
BRANCH  26  29
HETATM   29  N6  UNL     1      14.277  15.826 104.537  1.00  0.00    -0.323 N 
ATOM     30  H62 UNL     1      13.412  15.407 104.194  1.00  0.00     0.169 HD
ATOM     31  H61 UNL     1      14.798  15.509 105.354  1.00  0.00     0.169 HD
ENDBRANCH  26  29
ENDBRANCH  23  26
ENDBRANCH   3  19
TORSDOF 8
ENDMDL
MODEL 3
REMARK VINA RESULT: -6.619661998      1.892      2.103
REMARK  8 active torsions:
REMARK  status: ('A' for Active; 'I' for Inactive)
REMARK    1  A    between atoms: C2_2  and  N1_3 
REMARK    2  A    between atoms: C2_2  and  C3_7 
REMARK       I    between atoms: C3_7  and  N2_9 
REMARK    3  A    between atoms: N2_9  and  C4_11 
REMARK    4  A    between atoms: C4_11  and  O2_13 
REMARK    5  A    between atoms: C4_11  and  C6_15 
REMARK       I    between atoms: C6_15  and  N3_17 
REMARK    6  A    between atoms: N3_17  and  C7_19 
REMARK    7  A    between atoms: C8_24  and  S1_25 
REMARK    8  A    between atoms: S1_25  and  N6_26 
ROOT
HETATM    1  C6  UNL     1      15.760  22.525 107.536  1.00  0.00     0.279 C 
HETATM    2  O3  UNL     1      16.816  22.797 106.888  1.00  0.00    -0.268 OA
HETATM    3  N3  UNL     1      14.723  21.949 106.754  1.00  0.00    -0.302 N 
ATOM      4  H3  UNL     1      13.839  22.443 106.631  1.00  0.00     0.171 HD
ENDROOT
BRANCH   1   5
HETATM    5  C4  UNL     1      15.695  22.811 108.969  1.00  0.00     0.213 C 
HETATM    6  C5  UNL     1      14.601  23.835 109.248  1.00  0.00     0.082 C 
BRANCH   5   7
HETATM    7  N2  UNL     1      16.957  23.227 109.510  1.00  0.00    -0.320 N 
HETATM    8  C3  UNL     1      17.322  23.239 110.867  1.00  0.00     0.250 C 
HETATM    9  O1  UNL     1      16.578  22.876 111.819  1.00  0.00    -0.271 OA
ATOM     10  H2  UNL     1      17.660  23.544 108.842  1.00  0.00     0.166 HD
BRANCH   8  11
HETATM   11  C2  UNL     1      18.698  23.718 111.239  1.00  0.00     0.270 C 
HETATM   12  C1  UNL     1      18.698  24.161 112.675  1.00  0.00     0.050 C 
BRANCH  11  13
HETATM   13  N1  UNL     1      19.132  24.747 110.337  1.00  0.00    -0.067 N 
ATOM     14  H13 UNL     1      20.141  24.887 110.402  1.00  0.00     0.275 HD
ATOM     15  H12 UNL     1      19.070  24.434 109.368  1.00  0.00     0.275 HD
ATOM     16  H11 UNL     1      18.633  25.627 110.469  1.00  0.00     0.275 HD
ENDBRANCH  11  13
ENDBRANCH   8  11
ENDBRANCH   5   7
BRANCH   5  17
HETATM   17  O2  UNL     1      15.351  21.598 109.613  1.00  0.00    -0.363 OA
ATOM     18  H2  UNL     1      15.340  21.774 110.546  1.00  0.00     0.213 HD
ENDBRANCH   5  17
ENDBRANCH   1   5
BRANCH   3  19
HETATM   19  C7  UNL     1      14.909  20.777 106.191  1.00  0.00     0.168 A 
HETATM   20  N4  UNL     1      15.595  19.736 106.669  1.00  0.00    -0.278 N 
HETATM   21  N5  UNL     1      15.662  18.679 105.974  1.00  0.00    -0.281 N 
ATOM     22  H4  UNL     1      16.056  19.791 107.578  1.00  0.00     0.189 HD
HETATM   23  C8  UNL     1      15.061  18.616 104.795  1.00  0.00     0.208 A 
ATOM     24  H5  UNL     1      16.181  17.873 106.322  1.00  0.00     0.188 HD
HETATM   25  S2  UNL     1      14.361  20.171 104.689  1.00  0.00    -0.020 SA
BRANCH  23  26
HETATM   26  S1  UNL     1      15.037  17.244 103.681  1.00  0.00     0.280 S 
HETATM   27  O4  UNL     1      16.420  16.690 103.503  1.00  0.00    -0.199 OA
HETATM   28  O5  UNL     1      14.153  16.173 104.286  1.00  0.00    -0.199 OA
BRANCH  26  29
HETATM   29  N6  UNL     1      14.383  17.686 102.156  1.00  0.00    -0.323 N 
ATOM     30  H62 UNL     1      14.650  17.240 101.278  1.00  0.00     0.169 HD
ATOM     31  H61 UNL     1      13.705  18.442 102.247  1.00  0.00     0.169 HD
ENDBRANCH  26  29
ENDBRANCH  23  26
ENDBRANCH   3  19
TORSDOF 8
ENDMDL
MODEL 4
REMARK VINA RESULT: -6.607174118      1.357      1.544
REMARK  8 active torsions:
REMARK  status: ('A' for Active; 'I' for Inactive)
REMARK    1  A    between atoms: C2_2  and  N1_3 
REMARK    2  A    between atoms: C2_2  and  C3_7 
REMARK       I    between atoms: C3_7  and  N2_9 
REMARK    3  A    between atoms: N2_9  and  C4_11 
REMARK    4  A    between atoms: C4_11  and  O2_13 
REMARK    5  A    between atoms: C4_11  and  C6_15 
REMARK       I    between atoms: C6_15  and  N3_17 
REMARK    6  A    between atoms: N3_17  and  C7_19 
REMARK    7  A    between atoms: C8_24  and  S1_25 
REMARK    8  A    between atoms: S1_25  and  N6_26 
ROOT
HETATM    1  C6  UNL     1      14.780  21.760 108.704  1.00  0.00     0.279 C 
HETATM    2  O3  UNL     1      13.658  21.270 109.039  1.00  0.00    -0.268 OA
HETATM    3  N3  UNL     1      15.693  20.818 108.159  1.00  0.00    -0.302 N 
ATOM      4  H3  UNL     1      16.568  20.614 108.641  1.00  0.00     0.171 HD
ENDROOT
BRANCH   1   5
HETATM    5  C4  UNL     1      15.033  23.188 108.895  1.00  0.00     0.213 C 
HETATM    6  C5  UNL     1      14.441  23.982 107.737  1.00  0.00     0.082 C 
BRANCH   5   7
HETATM    7  N2  UNL     1      16.424  23.485 109.083  1.00  0.00    -0.320 N 
HETATM    8  C3  UNL     1      17.168  23.291 110.260  1.00  0.00     0.250 C 
HETATM    9  O1  UNL     1      16.710  22.815 111.335  1.00  0.00    -0.271 OA
ATOM     10  H2  UNL     1      16.922  23.875 108.284  1.00  0.00     0.166 HD
BRANCH   8  11
HETATM   11  C2  UNL     1      18.623  23.671 110.263  1.00  0.00     0.270 C 
HETATM   12  C1  UNL     1      18.763  25.098 109.812  1.00  0.00     0.050 C 
BRANCH  11  13
HETATM   13  N1  UNL     1      19.384  22.755 109.462  1.00  0.00    -0.067 N 
ATOM     14  H13 UNL     1      19.024  21.805 109.553  1.00  0.00     0.275 HD
ATOM     15  H12 UNL     1      19.207  22.904 108.468  1.00  0.00     0.275 HD
ATOM     16  H11 UNL     1      20.383  22.788 109.662  1.00  0.00     0.275 HD
ENDBRANCH  11  13
ENDBRANCH   8  11
ENDBRANCH   5   7
BRANCH   5  17
HETATM   17  O2  UNL     1      14.367  23.565 110.087  1.00  0.00    -0.363 OA
ATOM     18  H2  UNL     1      14.278  24.510 110.066  1.00  0.00     0.213 HD
ENDBRANCH   5  17
ENDBRANCH   1   5
BRANCH   3  19
HETATM   19  C7  UNL     1      15.404  20.212 107.030  1.00  0.00     0.168 A 
HETATM   20  N4  UNL     1      14.618  20.648 106.042  1.00  0.00    -0.278 N 
HETATM   21  N5  UNL     1      14.459  19.914 105.021  1.00  0.00    -0.281 N 
ATOM     22  H4  UNL     1      14.156  21.555 106.108  1.00  0.00     0.189 HD
HETATM   23  C8  UNL     1      15.063  18.738 104.943  1.00  0.00     0.208 A 
ATOM     24  H5  UNL     1      13.864  20.231 104.256  1.00  0.00     0.188 HD
HETATM   25  S2  UNL     1      15.907  18.693 106.428  1.00  0.00    -0.020 SA
BRANCH  23  26
HETATM   26  S1  UNL     1      14.970  17.575 103.615  1.00  0.00     0.280 S 
HETATM   27  O4  UNL     1      16.334  17.040 103.292  1.00  0.00    -0.199 OA
HETATM   28  O5  UNL     1      14.086  16.431 104.063  1.00  0.00    -0.199 OA
BRANCH  26  29
HETATM   29  N6  UNL     1      14.272  18.281 102.213  1.00  0.00    -0.323 N 
ATOM     30  H62 UNL     1      13.707  17.760 101.543  1.00  0.00     0.169 HD
ATOM     31  H61 UNL     1      14.496  19.273 102.146  1.00  0.00     0.169 HD
ENDBRANCH  26  29
ENDBRANCH  23  26
ENDBRANCH   3  19
TORSDOF 8
ENDMDL
MODEL 5
REMARK VINA RESULT: -6.403629001      3.345      7.929
REMARK  8 active torsions:
REMARK  status: ('A' for Active; 'I' for Inactive)
REMARK    1  A    between atoms: C2_2  and  N1_3 
REMARK    2  A    between atoms: C2_2  and  C3_7 
REMARK       I    between atoms: C3_7  and  N2_9 
REMARK    3  A    between atoms: N2_9  and  C4_11 
REMARK    4  A    between atoms: C4_11  and  O2_13 
REMARK    5  A    between atoms: C4_11  and  C6_15 
REMARK       I    between atoms: C6_15  and  N3_17 
REMARK    6  A    between atoms: N3_17  and  C7_19 
REMARK    7  A    between atoms: C8_24  and  S1_25 
REMARK    8  A    between atoms: S1_25  and  N6_26 
ROOT
HETATM    1  C6  UNL     1      15.609  21.974 107.232  1.00  0.00     0.279 C 
HETATM    2  O3  UNL     1      14.885  23.017 107.224  1.00  0.00    -0.268 OA
HETATM    3  N3  UNL     1      16.975  22.210 107.543  1.00  0.00    -0.302 N 
ATOM      4  H3  UNL     1      17.700  22.018 106.852  1.00  0.00     0.171 HD
ENDROOT
BRANCH   1   5
HETATM    5  C4  UNL     1      15.011  20.673 106.935  1.00  0.00     0.213 C 
HETATM    6  C5  UNL     1      16.005  19.559 107.237  1.00  0.00     0.082 C 
BRANCH   5   7
HETATM    7  N2  UNL     1      14.511  20.586 105.593  1.00  0.00    -0.320 N 
HETATM    8  C3  UNL     1      14.531  19.449 104.766  1.00  0.00     0.250 C 
HETATM    9  O1  UNL     1      14.994  18.323 105.096  1.00  0.00    -0.271 OA
ATOM     10  H2  UNL     1      14.101  21.433 105.199  1.00  0.00     0.166 HD
BRANCH   8  11
HETATM   11  C2  UNL     1      13.961  19.557 103.379  1.00  0.00     0.270 C 
HETATM   12  C1  UNL     1      14.281  18.305 102.612  1.00  0.00     0.050 C 
BRANCH  11  13
HETATM   13  N1  UNL     1      14.439  20.746 102.731  1.00  0.00    -0.067 N 
ATOM     14  H13 UNL     1      14.632  20.572 101.745  1.00  0.00     0.275 HD
ATOM     15  H12 UNL     1      13.692  21.435 102.635  1.00  0.00     0.275 HD
ATOM     16  H11 UNL     1      15.251  21.153 103.196  1.00  0.00     0.275 HD
ENDBRANCH  11  13
ENDBRANCH   8  11
ENDBRANCH   5   7
BRANCH   5  17
HETATM   17  O2  UNL     1      13.898  20.530 107.798  1.00  0.00    -0.363 OA
ATOM     18  H2  UNL     1      14.086  21.037 108.578  1.00  0.00     0.213 HD
ENDBRANCH   5  17
ENDBRANCH   1   5
BRANCH   3  19
HETATM   19  C7  UNL     1      17.299  22.679 108.728  1.00  0.00     0.168 A 
HETATM   20  N4  UNL     1      16.524  22.780 109.810  1.00  0.00    -0.278 N 
HETATM   21  N5  UNL     1      17.021  23.262 110.872  1.00  0.00    -0.281 N 
ATOM     22  H4  UNL     1      15.552  22.475 109.783  1.00  0.00     0.189 HD
HETATM   23  C8  UNL     1      18.286  23.657 110.898  1.00  0.00     0.208 A 
ATOM     24  H5  UNL     1      16.445  23.347 111.709  1.00  0.00     0.188 HD
HETATM   25  S2  UNL     1      18.781  23.310 109.301  1.00  0.00    -0.020 SA
BRANCH  23  26
HETATM   26  S1  UNL     1      19.159  24.351 112.270  1.00  0.00     0.280 S 
HETATM   27  O4  UNL     1      20.278  23.444 112.690  1.00  0.00    -0.199 OA
HETATM   28  O5  UNL     1      19.740  25.676 111.825  1.00  0.00    -0.199 OA
BRANCH  26  29
HETATM   29  N6  UNL     1      18.110  24.639 113.599  1.00  0.00    -0.323 N 
ATOM     30  H62 UNL     1      17.608  23.900 114.091  1.00  0.00     0.169 HD
ATOM     31  H61 UNL     1      18.059  25.633 113.824  1.00  0.00     0.169 HD
ENDBRANCH  26  29
ENDBRANCH  23  26
ENDBRANCH   3  19
TORSDOF 8
ENDMDL
