MODEL 1
REMARK VINA RESULT: -8.267013695      0.000      0.000
REMARK  8 active torsions:
REMARK  status: ('A' for Active; 'I' for Inactive)
REMARK    1  A    between atoms: C3_3  and  C4_4 
REMARK    2  A    between atoms: C5_5  and  C6_6 
REMARK    3  A    between atoms: N3_17  and  C12_18 
REMARK    4  A    between atoms: C12_18  and  C13_19 
REMARK    5  A    between atoms: C13_19  and  C14_20 
REMARK    6  A    between atoms: C14_20  and  C15_21 
REMARK    7  A    between atoms: C16_22  and  C17_23 
REMARK    8  A    between atoms: C19_27  and  N5_28 
ROOT
HETATM    1  C1  UNL     1      22.788  10.582  30.123  1.00  0.00     0.070 C 
HETATM    2  C2  UNL     1      23.338  10.739  28.750  1.00  0.00     0.026 A 
HETATM    3  C3  UNL     1      22.463  11.347  27.819  1.00  0.00     0.040 A 
HETATM    4  C9  UNL     1      22.897  11.544  26.538  1.00  0.00     0.024 A 
HETATM    5  C10 UNL     1      24.173  11.154  26.153  1.00  0.00     0.019 A 
HETATM    6  C11 UNL     1      25.004  10.568  27.059  1.00  0.00     0.091 A 
HETATM    7  N3  UNL     1      24.553  10.380  28.337  1.00  0.00    -0.359 N 
ENDROOT
BRANCH   7   8
HETATM    8  C12 UNL     1      25.476   9.737  29.222  1.00  0.00     0.129 C 
BRANCH   8   9
HETATM    9  C13 UNL     1      26.671   9.112  28.606  1.00  0.00     0.032 C 
BRANCH   9  10
HETATM   10  C14 UNL     1      26.632   7.627  28.404  1.00  0.00     0.096 C 
BRANCH  10  11
HETATM   11  C15 UNL     1      28.053   7.188  28.275  1.00  0.00    -0.100 C 
HETATM   12  C16 UNL     1      29.194   6.827  28.154  1.00  0.00    -0.047 C 
BRANCH  12  13
HETATM   13  C17 UNL     1      30.567   6.368  27.991  1.00  0.00     0.118 A 
HETATM   14  C18 UNL     1      31.692   7.154  27.922  1.00  0.00     0.145 A 
HETATM   15  N4  UNL     1      32.734   6.323  27.771  1.00  0.00    -0.199 N 
HETATM   16  C19 UNL     1      32.302   5.052  27.744  1.00  0.00     0.676 A 
ATOM     17  H4  UNL     1      33.709   6.614  27.689  1.00  0.00     0.183 HD
HETATM   18  N6  UNL     1      30.969   5.099  27.880  1.00  0.00    -0.183 N 
ATOM     19  H6  UNL     1      30.354   4.285  27.897  1.00  0.00     0.185 HD
BRANCH  16  20
HETATM   20  N5  UNL     1      33.052   3.993  27.610  1.00  0.00    -0.234 N 
ATOM     21  H52 UNL     1      33.740   3.806  26.881  1.00  0.00     0.174 HD
ATOM     22  H51 UNL     1      33.056   3.182  28.228  1.00  0.00     0.174 HD
ENDBRANCH  16  20
ENDBRANCH  12  13
ENDBRANCH  10  11
ENDBRANCH   9  10
ENDBRANCH   8   9
ENDBRANCH   7   8
BRANCH   3  23
HETATM   23  C4  UNL     1      21.142  11.758  28.194  1.00  0.00    -0.058 C 
HETATM   24  C5  UNL     1      20.025  12.101  28.513  1.00  0.00    -0.042 C 
BRANCH  24  25
HETATM   25  C6  UNL     1      18.695  12.492  28.898  1.00  0.00     0.106 A 
HETATM   26  C7  UNL     1      17.699  12.850  28.023  1.00  0.00     0.132 A 
HETATM   27  N1  UNL     1      16.586  13.157  28.714  1.00  0.00    -0.316 N 
HETATM   28  C8  UNL     1      16.860  12.997  30.026  1.00  0.00     0.325 A 
ATOM     29  H1  UNL     1      15.695  13.455  28.318  1.00  0.00     0.170 HD
HETATM   30  O1  UNL     1      16.103  13.178  30.993  1.00  0.00    -0.247 OA
HETATM   31  N2  UNL     1      18.152  12.591  30.123  1.00  0.00    -0.300 N 
ATOM     32  H2  UNL     1      18.639  12.391  30.997  1.00  0.00     0.171 HD
ENDBRANCH  24  25
ENDBRANCH   3  23
TORSDOF 8
ENDMDL
MODEL 2
REMARK VINA RESULT: -8.207584667      1.624      2.486
REMARK  8 active torsions:
REMARK  status: ('A' for Active; 'I' for Inactive)
REMARK    1  A    between atoms: C3_3  and  C4_4 
REMARK    2  A    between atoms: C5_5  and  C6_6 
REMARK    3  A    between atoms: N3_17  and  C12_18 
REMARK    4  A    between atoms: C12_18  and  C13_19 
REMARK    5  A    between atoms: C13_19  and  C14_20 
REMARK    6  A    between atoms: C14_20  and  C15_21 
REMARK    7  A    between atoms: C16_22  and  C17_23 
REMARK    8  A    between atoms: C19_27  and  N5_28 
ROOT
HETATM    1  C1  UNL     1      22.085  10.889  26.571  1.00  0.00     0.070 C 
HETATM    2  C2  UNL     1      22.324  10.745  28.032  1.00  0.00     0.026 A 
HETATM    3  C3  UNL     1      21.284  11.229  28.860  1.00  0.00     0.040 A 
HETATM    4  C9  UNL     1      21.418  11.120  30.216  1.00  0.00     0.024 A 
HETATM    5  C10 UNL     1      22.552  10.546  30.774  1.00  0.00     0.019 A 
HETATM    6  C11 UNL     1      23.546  10.086  29.964  1.00  0.00     0.091 A 
HETATM    7  N3  UNL     1      23.395  10.203  28.609  1.00  0.00    -0.359 N 
ENDROOT
BRANCH   7   8
HETATM    8  C12 UNL     1      24.493   9.718  27.829  1.00  0.00     0.129 C 
BRANCH   8   9
HETATM    9  C13 UNL     1      25.574   9.011  28.557  1.00  0.00     0.032 C 
BRANCH   9  10
HETATM   10  C14 UNL     1      26.912   9.686  28.605  1.00  0.00     0.096 C 
BRANCH  10  11
HETATM   11  C15 UNL     1      27.929   8.595  28.522  1.00  0.00    -0.100 C 
HETATM   12  C16 UNL     1      28.762   7.731  28.454  1.00  0.00    -0.047 C 
BRANCH  12  13
HETATM   13  C17 UNL     1      29.787   6.701  28.358  1.00  0.00     0.118 A 
HETATM   14  C18 UNL     1      29.817   5.506  29.037  1.00  0.00     0.145 A 
HETATM   15  N4  UNL     1      30.932   4.870  28.650  1.00  0.00    -0.199 N 
HETATM   16  C19 UNL     1      31.597   5.621  27.758  1.00  0.00     0.676 A 
ATOM     17  H4  UNL     1      31.230   3.953  28.984  1.00  0.00     0.183 HD
HETATM   18  N6  UNL     1      30.880   6.741  27.590  1.00  0.00    -0.183 N 
ATOM     19  H6  UNL     1      31.131   7.509  26.969  1.00  0.00     0.185 HD
BRANCH  16  20
HETATM   20  N5  UNL     1      32.722   5.302  27.178  1.00  0.00    -0.234 N 
ATOM     21  H52 UNL     1      32.855   4.950  26.230  1.00  0.00     0.174 HD
ATOM     22  H51 UNL     1      33.649   5.360  27.599  1.00  0.00     0.174 HD
ENDBRANCH  16  20
ENDBRANCH  12  13
ENDBRANCH  10  11
ENDBRANCH   9  10
ENDBRANCH   8   9
ENDBRANCH   7   8
BRANCH   3  23
HETATM   23  C4  UNL     1      20.104  11.825  28.306  1.00  0.00    -0.058 C 
HETATM   24  C5  UNL     1      19.109  12.333  27.840  1.00  0.00    -0.042 C 
BRANCH  24  25
HETATM   25  C6  UNL     1      17.932  12.952  27.291  1.00  0.00     0.106 A 
HETATM   26  C7  UNL     1      17.200  12.453  26.242  1.00  0.00     0.132 A 
HETATM   27  N1  UNL     1      16.168  13.276  25.985  1.00  0.00    -0.316 N 
HETATM   28  C8  UNL     1      16.231  14.302  26.861  1.00  0.00     0.325 A 
ATOM     29  H1  UNL     1      15.464  13.149  25.258  1.00  0.00     0.170 HD
HETATM   30  O1  UNL     1      15.466  15.273  26.957  1.00  0.00    -0.247 OA
HETATM   31  N2  UNL     1      17.315  14.090  27.652  1.00  0.00    -0.300 N 
ATOM     32  H2  UNL     1      17.616  14.705  28.409  1.00  0.00     0.171 HD
ENDBRANCH  24  25
ENDBRANCH   3  23
TORSDOF 8
ENDMDL
MODEL 3
REMARK VINA RESULT: -7.833649837      1.078      1.295
REMARK  8 active torsions:
REMARK  status: ('A' for Active; 'I' for Inactive)
REMARK    1  A    between atoms: C3_3  and  C4_4 
REMARK    2  A    between atoms: C5_5  and  C6_6 
REMARK    3  A    between atoms: N3_17  and  C12_18 
REMARK    4  A    between atoms: C12_18  and  C13_19 
REMARK    5  A    between atoms: C13_19  and  C14_20 
REMARK    6  A    between atoms: C14_20  and  C15_21 
REMARK    7  A    between atoms: C16_22  and  C17_23 
REMARK    8  A    between atoms: C19_27  and  N5_28 
ROOT
HETATM    1  C1  UNL     1      22.595  10.037  27.909  1.00  0.00     0.070 C 
HETATM    2  C2  UNL     1      23.586  11.076  28.298  1.00  0.00     0.026 A 
HETATM    3  C3  UNL     1      23.033  12.262  28.835  1.00  0.00     0.040 A 
HETATM    4  C9  UNL     1      23.876  13.261  29.233  1.00  0.00     0.024 A 
HETATM    5  C10 UNL     1      25.253  13.119  29.112  1.00  0.00     0.019 A 
HETATM    6  C11 UNL     1      25.771  11.972  28.592  1.00  0.00     0.091 A 
HETATM    7  N3  UNL     1      24.912  10.982  28.199  1.00  0.00    -0.359 N 
ENDROOT
BRANCH   7   8
HETATM    8  C12 UNL     1      25.534   9.820  27.641  1.00  0.00     0.129 C 
BRANCH   8   9
HETATM    9  C13 UNL     1      26.621   9.196  28.431  1.00  0.00     0.032 C 
BRANCH   9  10
HETATM   10  C14 UNL     1      26.584   7.704  28.574  1.00  0.00     0.096 C 
BRANCH  10  11
HETATM   11  C15 UNL     1      27.991   7.235  28.396  1.00  0.00    -0.100 C 
HETATM   12  C16 UNL     1      29.126   6.871  28.238  1.00  0.00    -0.047 C 
BRANCH  12  13
HETATM   13  C17 UNL     1      30.500   6.438  28.022  1.00  0.00     0.118 A 
HETATM   14  C18 UNL     1      31.608   7.244  27.919  1.00  0.00     0.145 A 
HETATM   15  N4  UNL     1      32.658   6.433  27.723  1.00  0.00    -0.199 N 
HETATM   16  C19 UNL     1      32.248   5.155  27.700  1.00  0.00     0.676 A 
ATOM     17  H4  UNL     1      33.624   6.742  27.609  1.00  0.00     0.183 HD
HETATM   18  N6  UNL     1      30.920   5.176  27.885  1.00  0.00    -0.183 N 
ATOM     19  H6  UNL     1      30.320   4.353  27.917  1.00  0.00     0.185 HD
BRANCH  16  20
HETATM   20  N5  UNL     1      33.010   4.110  27.530  1.00  0.00    -0.234 N 
ATOM     21  H52 UNL     1      34.013   4.096  27.345  1.00  0.00     0.174 HD
ATOM     22  H51 UNL     1      32.706   3.137  27.558  1.00  0.00     0.174 HD
ENDBRANCH  16  20
ENDBRANCH  12  13
ENDBRANCH  10  11
ENDBRANCH   9  10
ENDBRANCH   8   9
ENDBRANCH   7   8
BRANCH   3  23
HETATM   23  C4  UNL     1      21.616  12.431  28.970  1.00  0.00    -0.058 C 
HETATM   24  C5  UNL     1      20.420  12.577  29.088  1.00  0.00    -0.042 C 
BRANCH  24  25
HETATM   25  C6  UNL     1      19.002  12.762  29.239  1.00  0.00     0.106 A 
HETATM   26  C7  UNL     1      18.114  12.914  28.201  1.00  0.00     0.132 A 
HETATM   27  N1  UNL     1      16.872  13.065  28.693  1.00  0.00    -0.316 N 
HETATM   28  C8  UNL     1      16.953  13.011  30.040  1.00  0.00     0.325 A 
ATOM     29  H1  UNL     1      16.021  13.196  28.147  1.00  0.00     0.170 HD
HETATM   30  O1  UNL     1      16.033  13.109  30.866  1.00  0.00    -0.247 OA
HETATM   31  N2  UNL     1      18.261  12.827  30.358  1.00  0.00    -0.300 N 
ATOM     32  H2  UNL     1      18.626  12.749  31.308  1.00  0.00     0.171 HD
ENDBRANCH  24  25
ENDBRANCH   3  23
TORSDOF 8
ENDMDL
MODEL 4
REMARK VINA RESULT: -7.830891398      2.101      2.819
REMARK  8 active torsions:
REMARK  status: ('A' for Active; 'I' for Inactive)
REMARK    1  A    between atoms: C3_3  and  C4_4 
REMARK    2  A    between atoms: C5_5  and  C6_6 
REMARK    3  A    between atoms: N3_17  and  C12_18 
REMARK    4  A    between atoms: C12_18  and  C13_19 
REMARK    5  A    between atoms: C13_19  and  C14_20 
REMARK    6  A    between atoms: C14_20  and  C15_21 
REMARK    7  A    between atoms: C16_22  and  C17_23 
REMARK    8  A    between atoms: C19_27  and  N5_28 
ROOT
HETATM    1  C1  UNL     1      23.034  10.512  26.489  1.00  0.00     0.070 C 
HETATM    2  C2  UNL     1      23.065  10.355  27.968  1.00  0.00     0.026 A 
HETATM    3  C3  UNL     1      21.884  10.748  28.638  1.00  0.00     0.040 A 
HETATM    4  C9  UNL     1      21.825  10.620  29.998  1.00  0.00     0.024 A 
HETATM    5  C10 UNL     1      22.904  10.114  30.711  1.00  0.00     0.019 A 
HETATM    6  C11 UNL     1      24.035   9.740  30.052  1.00  0.00     0.091 A 
HETATM    7  N3  UNL     1      24.077   9.875  28.691  1.00  0.00    -0.359 N 
ENDROOT
BRANCH   7   8
HETATM    8  C12 UNL     1      25.308   9.484  28.077  1.00  0.00     0.129 C 
BRANCH   8   9
HETATM    9  C13 UNL     1      26.279   8.751  28.925  1.00  0.00     0.032 C 
BRANCH   9  10
HETATM   10  C14 UNL     1      27.605   9.411  29.161  1.00  0.00     0.096 C 
BRANCH  10  11
HETATM   11  C15 UNL     1      28.637   8.351  28.956  1.00  0.00    -0.100 C 
HETATM   12  C16 UNL     1      29.459   7.486  28.805  1.00  0.00    -0.047 C 
BRANCH  12  13
HETATM   13  C17 UNL     1      30.448   6.429  28.646  1.00  0.00     0.118 A 
HETATM   14  C18 UNL     1      30.419   5.182  29.223  1.00  0.00     0.145 A 
HETATM   15  N4  UNL     1      31.519   4.539  28.809  1.00  0.00    -0.199 N 
HETATM   16  C19 UNL     1      32.233   5.335  27.997  1.00  0.00     0.676 A 
ATOM     17  H4  UNL     1      31.776   3.587  29.072  1.00  0.00     0.183 HD
HETATM   18  N6  UNL     1      31.561   6.491  27.908  1.00  0.00    -0.183 N 
ATOM     19  H6  UNL     1      31.855   7.298  27.358  1.00  0.00     0.185 HD
BRANCH  16  20
HETATM   20  N5  UNL     1      33.359   5.023  27.417  1.00  0.00    -0.234 N 
ATOM     21  H52 UNL     1      34.042   4.328  27.719  1.00  0.00     0.174 HD
ATOM     22  H51 UNL     1      33.726   5.438  26.561  1.00  0.00     0.174 HD
ENDBRANCH  16  20
ENDBRANCH  12  13
ENDBRANCH  10  11
ENDBRANCH   9  10
ENDBRANCH   8   9
ENDBRANCH   7   8
BRANCH   3  23
HETATM   23  C4  UNL     1      20.758  11.272  27.923  1.00  0.00    -0.058 C 
HETATM   24  C5  UNL     1      19.810  11.716  27.314  1.00  0.00    -0.042 C 
BRANCH  24  25
HETATM   25  C6  UNL     1      18.693  12.244  26.577  1.00  0.00     0.106 A 
HETATM   26  C7  UNL     1      17.491  12.612  27.131  1.00  0.00     0.132 A 
HETATM   27  N1  UNL     1      16.672  13.062  26.163  1.00  0.00    -0.316 N 
HETATM   28  C8  UNL     1      17.340  12.987  24.992  1.00  0.00     0.325 A 
ATOM     29  H1  UNL     1      15.719  13.400  26.291  1.00  0.00     0.170 HD
HETATM   30  O1  UNL     1      16.939  13.305  23.862  1.00  0.00    -0.247 OA
HETATM   31  N2  UNL     1      18.573  12.485  25.261  1.00  0.00    -0.300 N 
ATOM     32  H2  UNL     1      19.300  12.315  24.566  1.00  0.00     0.171 HD
ENDBRANCH  24  25
ENDBRANCH   3  23
TORSDOF 8
ENDMDL
MODEL 5
REMARK VINA RESULT: -7.764138574      1.147      1.358
REMARK  8 active torsions:
REMARK  status: ('A' for Active; 'I' for Inactive)
REMARK    1  A    between atoms: C3_3  and  C4_4 
REMARK    2  A    between atoms: C5_5  and  C6_6 
REMARK    3  A    between atoms: N3_17  and  C12_18 
REMARK    4  A    between atoms: C12_18  and  C13_19 
REMARK    5  A    between atoms: C13_19  and  C14_20 
REMARK    6  A    between atoms: C14_20  and  C15_21 
REMARK    7  A    between atoms: C16_22  and  C17_23 
REMARK    8  A    between atoms: C19_27  and  N5_28 
ROOT
HETATM    1  C1  UNL     1      22.942   9.872  29.760  1.00  0.00     0.070 C 
HETATM    2  C2  UNL     1      23.821  10.800  28.999  1.00  0.00     0.026 A 
HETATM    3  C3  UNL     1      23.177  11.950  28.486  1.00  0.00     0.040 A 
HETATM    4  C9  UNL     1      23.917  12.863  27.788  1.00  0.00     0.024 A 
HETATM    5  C10 UNL     1      25.277  12.667  27.583  1.00  0.00     0.019 A 
HETATM    6  C11 UNL     1      25.883  11.555  28.082  1.00  0.00     0.091 A 
HETATM    7  N3  UNL     1      25.127  10.652  28.779  1.00  0.00    -0.359 N 
ENDROOT
BRANCH   7   8
HETATM    8  C12 UNL     1      25.832   9.499  29.248  1.00  0.00     0.129 C 
BRANCH   8   9
HETATM    9  C13 UNL     1      27.175   9.252  28.672  1.00  0.00     0.032 C 
BRANCH   9  10
HETATM   10  C14 UNL     1      28.344   9.366  29.603  1.00  0.00     0.096 C 
BRANCH  10  11
HETATM   11  C15 UNL     1      29.292   8.279  29.214  1.00  0.00    -0.100 C 
HETATM   12  C16 UNL     1      30.053   7.397  28.919  1.00  0.00    -0.047 C 
BRANCH  12  13
HETATM   13  C17 UNL     1      30.980   6.323  28.587  1.00  0.00     0.118 A 
HETATM   14  C18 UNL     1      30.899   5.012  28.992  1.00  0.00     0.145 A 
HETATM   15  N4  UNL     1      31.952   4.378  28.459  1.00  0.00    -0.199 N 
HETATM   16  C19 UNL     1      32.687   5.240  27.739  1.00  0.00     0.676 A 
ATOM     17  H4  UNL     1      32.164   3.387  28.582  1.00  0.00     0.183 HD
HETATM   18  N6  UNL     1      32.076   6.430  27.828  1.00  0.00    -0.183 N 
ATOM     19  H6  UNL     1      32.398   7.289  27.383  1.00  0.00     0.185 HD
BRANCH  16  20
HETATM   20  N5  UNL     1      33.780   4.955  27.086  1.00  0.00    -0.234 N 
ATOM     21  H52 UNL     1      34.627   4.521  27.452  1.00  0.00     0.174 HD
ATOM     22  H51 UNL     1      33.947   5.129  26.095  1.00  0.00     0.174 HD
ENDBRANCH  16  20
ENDBRANCH  12  13
ENDBRANCH  10  11
ENDBRANCH   9  10
ENDBRANCH   8   9
ENDBRANCH   7   8
BRANCH   3  23
HETATM   23  C4  UNL     1      21.775  12.173  28.686  1.00  0.00    -0.058 C 
HETATM   24  C5  UNL     1      20.590  12.361  28.849  1.00  0.00    -0.042 C 
BRANCH  24  25
HETATM   25  C6  UNL     1      19.180  12.581  29.026  1.00  0.00     0.106 A 
HETATM   26  C7  UNL     1      18.270  12.700  28.004  1.00  0.00     0.132 A 
HETATM   27  N1  UNL     1      17.043  12.898  28.519  1.00  0.00    -0.316 N 
HETATM   28  C8  UNL     1      17.157  12.907  29.864  1.00  0.00     0.325 A 
ATOM     29  H1  UNL     1      16.181  13.020  27.988  1.00  0.00     0.170 HD
HETATM   30  O1  UNL     1      16.260  13.062  30.707  1.00  0.00    -0.247 OA
HETATM   31  N2  UNL     1      18.469  12.712  30.159  1.00  0.00    -0.300 N 
ATOM     32  H2  UNL     1      18.857  12.672  31.102  1.00  0.00     0.171 HD
ENDBRANCH  24  25
ENDBRANCH   3  23
TORSDOF 8
ENDMDL
