MODEL 1
REMARK VINA RESULT: -6.527713064      0.000      0.000
REMARK  12 active torsions:
REMARK  status: ('A' for Active; 'I' for Inactive)
REMARK    1  A    between atoms: N1_2  and  C4_5 
REMARK    2  A    between atoms: C4_5  and  C5_6 
REMARK    3  A    between atoms: C5_6  and  C6_7 
REMARK    4  A    between atoms: C6_7  and  N2_8 
REMARK    5  A    between atoms: N2_8  and  C7_10 
REMARK    6  A    between atoms: C8_13  and  N4_14 
REMARK    7  A    between atoms: N4_14  and  C9_16 
REMARK    8  A    between atoms: C9_16  and  C10_17 
REMARK    9  A    between atoms: C10_17  and  C11_18 
REMARK   10  A    between atoms: C12_22  and  N6_23 
REMARK   11  A    between atoms: N6_23  and  C13_24 
REMARK   12  A    between atoms: C13_24  and  C14_25 
ROOT
HETATM    1  C7  UNL     1      37.172  20.180  36.234  1.00  0.00     0.696 A 
HETATM    2  N3  UNL     1      38.490  20.493  36.143  1.00  0.00    -0.022 N 
ATOM      3  H3  UNL     1      38.866  21.006  35.346  1.00  0.00     0.203 HD
HETATM    4  C8  UNL     1      39.286  20.086  37.177  1.00  0.00     0.696 A 
HETATM    5  N5  UNL     1      38.899  19.373  38.251  1.00  0.00    -0.148 N 
ATOM      6  H5  UNL     1      39.528  19.092  39.005  1.00  0.00     0.188 HD
HETATM    7  C12 UNL     1      37.511  19.055  38.216  1.00  0.00     0.287 A 
HETATM    8  N7  UNL     1      36.715  19.473  37.222  1.00  0.00    -0.148 N 
ATOM      9  H7  UNL     1      35.725  19.230  37.241  1.00  0.00     0.188 HD
ENDROOT
BRANCH   7  10
HETATM   10  N6  UNL     1      37.087  18.646  39.274  1.00  0.00    -0.382 NA
BRANCH  10  11
HETATM   11  C13 UNL     1      36.559  18.232  40.366  1.00  0.00     0.199 C 
BRANCH  11  12
HETATM   12  C14 UNL     1      35.108  18.091  40.593  1.00  0.00     0.015 A 
HETATM   13  C15 UNL     1      34.203  18.518  39.691  1.00  0.00     0.017 A 
HETATM   14  C16 UNL     1      32.819  18.249  39.750  1.00  0.00     0.025 A 
HETATM   15  C17 UNL     1      32.344  17.516  40.814  1.00  0.00     0.035 A 
HETATM   16 CL2  UNL     1      30.673  17.026  40.995  1.00  0.00    -0.084 Cl
HETATM   17  C18 UNL     1      33.314  17.074  41.810  1.00  0.00     0.048 A 
HETATM   18  C19 UNL     1      34.715  17.332  41.738  1.00  0.00     0.048 A 
HETATM   19 CL3  UNL     1      35.730  16.665  42.907  1.00  0.00    -0.083 Cl
ENDBRANCH  11  12
ENDBRANCH  10  11
ENDBRANCH   7  10
BRANCH   4  20
HETATM   20  N4  UNL     1      40.323  20.839  37.234  1.00  0.00    -0.225 N 
ATOM     21  H4  UNL     1      41.236  20.533  36.899  1.00  0.00     0.177 HD
BRANCH  20  22
HETATM   22  C9  UNL     1      40.116  22.123  37.795  1.00  0.00     0.139 C 
BRANCH  22  23
HETATM   23  C10 UNL     1      41.037  23.100  37.142  1.00  0.00     0.035 C 
BRANCH  23  24
HETATM   24  C11 UNL     1      40.672  24.507  37.492  1.00  0.00     0.116 C 
HETATM   25 CL1  UNL     1      41.054  24.835  39.272  1.00  0.00    -0.130 Cl
ENDBRANCH  23  24
ENDBRANCH  22  23
ENDBRANCH  20  22
ENDBRANCH   4  20
BRANCH   1  26
HETATM   26  N2  UNL     1      36.528  20.855  35.306  1.00  0.00    -0.225 N 
ATOM     27  H2  UNL     1      36.126  21.786  35.418  1.00  0.00     0.177 HD
BRANCH  26  28
HETATM   28  C6  UNL     1      36.485  20.030  34.057  1.00  0.00     0.139 C 
BRANCH  28  29
HETATM   29  C5  UNL     1      35.835  20.582  32.865  1.00  0.00     0.048 C 
BRANCH  29  30
HETATM   30  C4  UNL     1      35.324  21.986  33.072  1.00  0.00     0.237 C 
BRANCH  30  31
HETATM   31  N1  UNL     1      35.419  22.921  32.002  1.00  0.00    -0.079 N 
HETATM   32  C1  UNL     1      35.495  24.215  32.579  1.00  0.00     0.271 C 
HETATM   33  C2  UNL     1      36.464  22.585  31.060  1.00  0.00     0.271 C 
HETATM   34  C3  UNL     1      34.117  22.855  31.228  1.00  0.00     0.271 C 
ENDBRANCH  30  31
ENDBRANCH  29  30
ENDBRANCH  28  29
ENDBRANCH  26  28
ENDBRANCH   1  26
TORSDOF 12
ENDMDL
MODEL 2
REMARK VINA RESULT: -6.309483042      3.737      5.971
REMARK  12 active torsions:
REMARK  status: ('A' for Active; 'I' for Inactive)
REMARK    1  A    between atoms: N1_2  and  C4_5 
REMARK    2  A    between atoms: C4_5  and  C5_6 
REMARK    3  A    between atoms: C5_6  and  C6_7 
REMARK    4  A    between atoms: C6_7  and  N2_8 
REMARK    5  A    between atoms: N2_8  and  C7_10 
REMARK    6  A    between atoms: C8_13  and  N4_14 
REMARK    7  A    between atoms: N4_14  and  C9_16 
REMARK    8  A    between atoms: C9_16  and  C10_17 
REMARK    9  A    between atoms: C10_17  and  C11_18 
REMARK   10  A    between atoms: C12_22  and  N6_23 
REMARK   11  A    between atoms: N6_23  and  C13_24 
REMARK   12  A    between atoms: C13_24  and  C14_25 
ROOT
HETATM    1  C7  UNL     1      40.642  19.110  38.509  1.00  0.00     0.696 A 
HETATM    2  N3  UNL     1      40.724  20.386  38.052  1.00  0.00    -0.022 N 
ATOM      3  H3  UNL     1      41.622  20.832  37.864  1.00  0.00     0.203 HD
HETATM    4  C8  UNL     1      39.540  21.041  37.859  1.00  0.00     0.696 A 
HETATM    5  N5  UNL     1      38.309  20.560  38.114  1.00  0.00    -0.148 N 
ATOM      6  H5  UNL     1      37.448  21.083  37.951  1.00  0.00     0.188 HD
HETATM    7  C12 UNL     1      38.346  19.235  38.639  1.00  0.00     0.287 A 
HETATM    8  N7  UNL     1      39.499  18.573  38.806  1.00  0.00    -0.148 N 
ATOM      9  H7  UNL     1      39.478  17.623  39.176  1.00  0.00     0.188 HD
ENDROOT
BRANCH   7  10
HETATM   10  N6  UNL     1      37.265  18.689  38.634  1.00  0.00    -0.382 NA
BRANCH  10  11
HETATM   11  C13 UNL     1      36.126  18.108  38.717  1.00  0.00     0.199 C 
BRANCH  11  12
HETATM   12  C14 UNL     1      35.626  17.411  39.917  1.00  0.00     0.015 A 
HETATM   13  C15 UNL     1      34.588  17.885  40.633  1.00  0.00     0.017 A 
HETATM   14  C16 UNL     1      33.939  17.183  41.671  1.00  0.00     0.025 A 
HETATM   15  C17 UNL     1      34.404  15.930  41.998  1.00  0.00     0.035 A 
HETATM   16 CL2  UNL     1      33.663  14.895  43.200  1.00  0.00    -0.084 Cl
HETATM   17  C18 UNL     1      35.546  15.421  41.247  1.00  0.00     0.048 A 
HETATM   18  C19 UNL     1      36.189  16.125  40.187  1.00  0.00     0.048 A 
HETATM   19 CL3  UNL     1      37.430  15.366  39.334  1.00  0.00    -0.083 Cl
ENDBRANCH  11  12
ENDBRANCH  10  11
ENDBRANCH   7  10
BRANCH   4  20
HETATM   20  N4  UNL     1      39.708  21.972  36.993  1.00  0.00    -0.225 N 
ATOM     21  H4  UNL     1      38.967  22.263  36.356  1.00  0.00     0.177 HD
BRANCH  20  22
HETATM   22  C9  UNL     1      40.993  22.569  36.980  1.00  0.00     0.139 C 
BRANCH  22  23
HETATM   23  C10 UNL     1      40.854  24.041  37.184  1.00  0.00     0.035 C 
BRANCH  23  24
HETATM   24  C11 UNL     1      40.812  24.385  38.638  1.00  0.00     0.116 C 
HETATM   25 CL1  UNL     1      40.597  26.210  38.851  1.00  0.00    -0.130 Cl
ENDBRANCH  23  24
ENDBRANCH  22  23
ENDBRANCH  20  22
ENDBRANCH   4  20
BRANCH   1  26
HETATM   26  N2  UNL     1      41.833  18.560  38.394  1.00  0.00    -0.225 N 
ATOM     27  H2  UNL     1      42.491  18.720  37.632  1.00  0.00     0.177 HD
BRANCH  26  28
HETATM   28  C6  UNL     1      42.060  17.661  39.570  1.00  0.00     0.139 C 
BRANCH  28  29
HETATM   29  C5  UNL     1      42.428  16.262  39.332  1.00  0.00     0.048 C 
BRANCH  29  30
HETATM   30  C4  UNL     1      41.231  15.364  39.145  1.00  0.00     0.237 C 
BRANCH  30  31
HETATM   31  N1  UNL     1      41.059  14.692  37.901  1.00  0.00    -0.079 N 
HETATM   32  C1  UNL     1      40.344  13.495  38.164  1.00  0.00     0.271 C 
HETATM   33  C2  UNL     1      40.503  15.550  36.878  1.00  0.00     0.271 C 
HETATM   34  C3  UNL     1      42.436  14.290  37.412  1.00  0.00     0.271 C 
ENDBRANCH  30  31
ENDBRANCH  29  30
ENDBRANCH  28  29
ENDBRANCH  26  28
ENDBRANCH   1  26
TORSDOF 12
ENDMDL
MODEL 3
REMARK VINA RESULT: -6.268862792      3.863      6.221
REMARK  12 active torsions:
REMARK  status: ('A' for Active; 'I' for Inactive)
REMARK    1  A    between atoms: N1_2  and  C4_5 
REMARK    2  A    between atoms: C4_5  and  C5_6 
REMARK    3  A    between atoms: C5_6  and  C6_7 
REMARK    4  A    between atoms: C6_7  and  N2_8 
REMARK    5  A    between atoms: N2_8  and  C7_10 
REMARK    6  A    between atoms: C8_13  and  N4_14 
REMARK    7  A    between atoms: N4_14  and  C9_16 
REMARK    8  A    between atoms: C9_16  and  C10_17 
REMARK    9  A    between atoms: C10_17  and  C11_18 
REMARK   10  A    between atoms: C12_22  and  N6_23 
REMARK   11  A    between atoms: N6_23  and  C13_24 
REMARK   12  A    between atoms: C13_24  and  C14_25 
ROOT
HETATM    1  C7  UNL     1      40.738  19.105  38.684  1.00  0.00     0.696 A 
HETATM    2  N3  UNL     1      40.712  20.368  38.189  1.00  0.00    -0.022 N 
ATOM      3  H3  UNL     1      41.569  20.888  37.999  1.00  0.00     0.203 HD
HETATM    4  C8  UNL     1      39.477  20.907  37.958  1.00  0.00     0.696 A 
HETATM    5  N5  UNL     1      38.291  20.324  38.211  1.00  0.00    -0.148 N 
ATOM      6  H5  UNL     1      37.389  20.761  38.019  1.00  0.00     0.188 HD
HETATM    7  C12 UNL     1      38.439  19.025  38.777  1.00  0.00     0.287 A 
HETATM    8  N7  UNL     1      39.644  18.475  38.982  1.00  0.00    -0.148 N 
ATOM      9  H7  UNL     1      39.703  17.539  39.381  1.00  0.00     0.188 HD
ENDROOT
BRANCH   7  10
HETATM   10  N6  UNL     1      37.412  18.383  38.775  1.00  0.00    -0.382 NA
BRANCH  10  11
HETATM   11  C13 UNL     1      36.358  17.655  38.837  1.00  0.00     0.199 C 
BRANCH  11  12
HETATM   12  C14 UNL     1      36.199  16.487  39.723  1.00  0.00     0.015 A 
HETATM   13  C15 UNL     1      36.792  15.307  39.457  1.00  0.00     0.017 A 
HETATM   14  C16 UNL     1      36.840  14.212  40.346  1.00  0.00     0.025 A 
HETATM   15  C17 UNL     1      36.222  14.340  41.569  1.00  0.00     0.035 A 
HETATM   16 CL2  UNL     1      36.260  13.111  42.816  1.00  0.00    -0.084 Cl
HETATM   17  C18 UNL     1      35.553  15.604  41.854  1.00  0.00     0.048 A 
HETATM   18  C19 UNL     1      35.521  16.716  40.961  1.00  0.00     0.048 A 
HETATM   19 CL3  UNL     1      34.802  18.153  41.470  1.00  0.00    -0.083 Cl
ENDBRANCH  11  12
ENDBRANCH  10  11
ENDBRANCH   7  10
BRANCH   4  20
HETATM   20  N4  UNL     1      39.576  21.823  37.066  1.00  0.00    -0.225 N 
ATOM     21  H4  UNL     1      38.794  22.083  36.465  1.00  0.00     0.177 HD
BRANCH  20  22
HETATM   22  C9  UNL     1      40.843  22.449  36.970  1.00  0.00     0.139 C 
BRANCH  22  23
HETATM   23  C10 UNL     1      40.680  23.921  37.162  1.00  0.00     0.035 C 
BRANCH  23  24
HETATM   24  C11 UNL     1      40.855  24.303  38.596  1.00  0.00     0.116 C 
HETATM   25 CL1  UNL     1      40.618  26.127  38.798  1.00  0.00    -0.130 Cl
ENDBRANCH  23  24
ENDBRANCH  22  23
ENDBRANCH  20  22
ENDBRANCH   4  20
BRANCH   1  26
HETATM   26  N2  UNL     1      41.976  18.661  38.604  1.00  0.00    -0.225 N 
ATOM     27  H2  UNL     1      42.702  19.034  37.993  1.00  0.00     0.177 HD
BRANCH  26  28
HETATM   28  C6  UNL     1      42.138  17.520  39.558  1.00  0.00     0.139 C 
BRANCH  28  29
HETATM   29  C5  UNL     1      42.464  16.192  39.028  1.00  0.00     0.048 C 
BRANCH  29  30
HETATM   30  C4  UNL     1      41.334  15.206  39.181  1.00  0.00     0.237 C 
BRANCH  30  31
HETATM   31  N1  UNL     1      40.843  14.532  38.026  1.00  0.00    -0.079 N 
HETATM   32  C1  UNL     1      40.025  13.464  38.477  1.00  0.00     0.271 C 
HETATM   33  C2  UNL     1      40.238  15.434  37.071  1.00  0.00     0.271 C 
HETATM   34  C3  UNL     1      42.036  13.913  37.324  1.00  0.00     0.271 C 
ENDBRANCH  30  31
ENDBRANCH  29  30
ENDBRANCH  28  29
ENDBRANCH  26  28
ENDBRANCH   1  26
TORSDOF 12
ENDMDL
MODEL 4
REMARK VINA RESULT: -6.241219764      4.419      6.157
REMARK  12 active torsions:
REMARK  status: ('A' for Active; 'I' for Inactive)
REMARK    1  A    between atoms: N1_2  and  C4_5 
REMARK    2  A    between atoms: C4_5  and  C5_6 
REMARK    3  A    between atoms: C5_6  and  C6_7 
REMARK    4  A    between atoms: C6_7  and  N2_8 
REMARK    5  A    between atoms: N2_8  and  C7_10 
REMARK    6  A    between atoms: C8_13  and  N4_14 
REMARK    7  A    between atoms: N4_14  and  C9_16 
REMARK    8  A    between atoms: C9_16  and  C10_17 
REMARK    9  A    between atoms: C10_17  and  C11_18 
REMARK   10  A    between atoms: C12_22  and  N6_23 
REMARK   11  A    between atoms: N6_23  and  C13_24 
REMARK   12  A    between atoms: C13_24  and  C14_25 
ROOT
HETATM    1  C7  UNL     1      40.778  20.613  38.212  1.00  0.00     0.696 A 
HETATM    2  N3  UNL     1      41.677  19.646  38.527  1.00  0.00    -0.022 N 
ATOM      3  H3  UNL     1      42.679  19.835  38.563  1.00  0.00     0.203 HD
HETATM    4  C8  UNL     1      41.169  18.406  38.795  1.00  0.00     0.696 A 
HETATM    5  N5  UNL     1      39.874  18.043  38.737  1.00  0.00    -0.148 N 
ATOM      6  H5  UNL     1      39.536  17.104  38.949  1.00  0.00     0.188 HD
HETATM    7  C12 UNL     1      39.029  19.121  38.345  1.00  0.00     0.287 A 
HETATM    8  N7  UNL     1      39.513  20.348  38.108  1.00  0.00    -0.148 N 
ATOM      9  H7  UNL     1      38.870  21.093  37.839  1.00  0.00     0.188 HD
ENDROOT
BRANCH   7  10
HETATM   10  N6  UNL     1      37.854  18.899  38.532  1.00  0.00    -0.382 NA
BRANCH  10  11
HETATM   11  C13 UNL     1      36.633  18.589  38.768  1.00  0.00     0.199 C 
BRANCH  11  12
HETATM   12  C14 UNL     1      36.186  17.738  39.888  1.00  0.00     0.015 A 
HETATM   13  C15 UNL     1      35.507  18.244  40.936  1.00  0.00     0.017 A 
HETATM   14  C16 UNL     1      34.887  17.471  41.942  1.00  0.00     0.025 A 
HETATM   15  C17 UNL     1      34.995  16.101  41.868  1.00  0.00     0.035 A 
HETATM   16 CL2  UNL     1      34.219  14.998  42.984  1.00  0.00    -0.084 Cl
HETATM   17  C18 UNL     1      35.753  15.547  40.751  1.00  0.00     0.048 A 
HETATM   18  C19 UNL     1      36.362  16.329  39.726  1.00  0.00     0.048 A 
HETATM   19 CL3  UNL     1      37.114  15.545  38.437  1.00  0.00    -0.083 Cl
ENDBRANCH  11  12
ENDBRANCH  10  11
ENDBRANCH   7  10
BRANCH   4  20
HETATM   20  N4  UNL     1      41.993  17.762  39.538  1.00  0.00    -0.225 N 
ATOM     21  H4  UNL     1      42.133  17.993  40.521  1.00  0.00     0.177 HD
BRANCH  20  22
HETATM   22  C9  UNL     1      42.697  16.710  38.902  1.00  0.00     0.139 C 
BRANCH  22  23
HETATM   23  C10 UNL     1      42.338  15.415  39.551  1.00  0.00     0.035 C 
BRANCH  23  24
HETATM   24  C11 UNL     1      41.318  14.672  38.750  1.00  0.00     0.116 C 
HETATM   25 CL1  UNL     1      39.969  14.058  39.858  1.00  0.00    -0.130 Cl
ENDBRANCH  23  24
ENDBRANCH  22  23
ENDBRANCH  20  22
ENDBRANCH   4  20
BRANCH   1  26
HETATM   26  N2  UNL     1      41.402  21.772  38.238  1.00  0.00    -0.225 N 
ATOM     27  H2  UNL     1      41.848  22.190  39.054  1.00  0.00     0.177 HD
BRANCH  26  28
HETATM   28  C6  UNL     1      41.348  22.375  36.868  1.00  0.00     0.139 C 
BRANCH  28  29
HETATM   29  C5  UNL     1      42.604  22.630  36.156  1.00  0.00     0.048 C 
BRANCH  29  30
HETATM   30  C4  UNL     1      43.259  21.368  35.654  1.00  0.00     0.237 C 
BRANCH  30  31
HETATM   31  N1  UNL     1      44.447  21.469  34.874  1.00  0.00    -0.079 N 
HETATM   32  C1  UNL     1      44.051  21.699  33.532  1.00  0.00     0.271 C 
HETATM   33  C2  UNL     1      45.396  22.412  35.425  1.00  0.00     0.271 C 
HETATM   34  C3  UNL     1      45.128  20.115  34.912  1.00  0.00     0.271 C 
ENDBRANCH  30  31
ENDBRANCH  29  30
ENDBRANCH  28  29
ENDBRANCH  26  28
ENDBRANCH   1  26
TORSDOF 12
ENDMDL
MODEL 5
REMARK VINA RESULT: -6.237529359      6.690     10.003
REMARK  12 active torsions:
REMARK  status: ('A' for Active; 'I' for Inactive)
REMARK    1  A    between atoms: N1_2  and  C4_5 
REMARK    2  A    between atoms: C4_5  and  C5_6 
REMARK    3  A    between atoms: C5_6  and  C6_7 
REMARK    4  A    between atoms: C6_7  and  N2_8 
REMARK    5  A    between atoms: N2_8  and  C7_10 
REMARK    6  A    between atoms: C8_13  and  N4_14 
REMARK    7  A    between atoms: N4_14  and  C9_16 
REMARK    8  A    between atoms: C9_16  and  C10_17 
REMARK    9  A    between atoms: C10_17  and  C11_18 
REMARK   10  A    between atoms: C12_22  and  N6_23 
REMARK   11  A    between atoms: N6_23  and  C13_24 
REMARK   12  A    between atoms: C13_24  and  C14_25 
ROOT
HETATM    1  C7  UNL     1      46.877  21.398  34.460  1.00  0.00     0.696 A 
HETATM    2  N3  UNL     1      46.967  22.070  33.284  1.00  0.00    -0.022 N 
ATOM      3  H3  UNL     1      47.783  21.982  32.677  1.00  0.00     0.203 HD
HETATM    4  C8  UNL     1      45.909  22.870  32.957  1.00  0.00     0.696 A 
HETATM    5  N5  UNL     1      44.809  23.087  33.702  1.00  0.00    -0.148 N 
ATOM      6  H5  UNL     1      44.038  23.691  33.416  1.00  0.00     0.188 HD
HETATM    7  C12 UNL     1      44.845  22.374  34.935  1.00  0.00     0.287 A 
HETATM    8  N7  UNL     1      45.865  21.565  35.254  1.00  0.00    -0.148 N 
ATOM      9  H7  UNL     1      45.845  21.067  36.144  1.00  0.00     0.188 HD
ENDROOT
BRANCH   7  10
HETATM   10  N6  UNL     1      43.775  22.344  35.501  1.00  0.00    -0.382 NA
BRANCH  10  11
HETATM   11  C13 UNL     1      42.606  22.292  36.023  1.00  0.00     0.199 C 
BRANCH  11  12
HETATM   12  C14 UNL     1      42.030  21.097  36.670  1.00  0.00     0.015 A 
HETATM   13  C15 UNL     1      42.539  19.866  36.469  1.00  0.00     0.017 A 
HETATM   14  C16 UNL     1      42.167  18.713  37.194  1.00  0.00     0.025 A 
HETATM   15  C17 UNL     1      41.199  18.840  38.164  1.00  0.00     0.035 A 
HETATM   16 CL2  UNL     1      40.683  17.531  39.206  1.00  0.00    -0.084 Cl
HETATM   17  C18 UNL     1      40.623  20.164  38.368  1.00  0.00     0.048 A 
HETATM   18  C19 UNL     1      41.014  21.331  37.648  1.00  0.00     0.048 A 
HETATM   19 CL3  UNL     1      40.337  22.817  38.067  1.00  0.00    -0.083 Cl
ENDBRANCH  11  12
ENDBRANCH  10  11
ENDBRANCH   7  10
BRANCH   4  20
HETATM   20  N4  UNL     1      45.874  23.024  31.683  1.00  0.00    -0.225 N 
ATOM     21  H4  UNL     1      46.565  22.601  31.065  1.00  0.00     0.177 HD
BRANCH  20  22
HETATM   22  C9  UNL     1      44.810  23.822  31.193  1.00  0.00     0.139 C 
BRANCH  22  23
HETATM   23  C10 UNL     1      45.337  25.169  30.821  1.00  0.00     0.035 C 
BRANCH  23  24
HETATM   24  C11 UNL     1      45.500  25.296  29.340  1.00  0.00     0.116 C 
HETATM   25 CL1  UNL     1      47.297  25.387  28.908  1.00  0.00    -0.130 Cl
ENDBRANCH  23  24
ENDBRANCH  22  23
ENDBRANCH  20  22
ENDBRANCH   4  20
BRANCH   1  26
HETATM   26  N2  UNL     1      47.840  20.501  34.492  1.00  0.00    -0.225 N 
ATOM     27  H2  UNL     1      48.752  20.592  34.044  1.00  0.00     0.177 HD
BRANCH  26  28
HETATM   28  C6  UNL     1      47.374  19.327  35.295  1.00  0.00     0.139 C 
BRANCH  28  29
HETATM   29  C5  UNL     1      46.641  18.252  34.620  1.00  0.00     0.048 C 
BRANCH  29  30
HETATM   30  C4  UNL     1      45.461  17.756  35.418  1.00  0.00     0.237 C 
BRANCH  30  31
HETATM   31  N1  UNL     1      45.230  16.354  35.513  1.00  0.00    -0.079 N 
HETATM   32  C1  UNL     1      44.934  16.066  36.870  1.00  0.00     0.271 C 
HETATM   33  C2  UNL     1      44.270  15.881  34.540  1.00  0.00     0.271 C 
HETATM   34  C3  UNL     1      46.538  15.659  35.187  1.00  0.00     0.271 C 
ENDBRANCH  30  31
ENDBRANCH  29  30
ENDBRANCH  28  29
ENDBRANCH  26  28
ENDBRANCH   1  26
TORSDOF 12
ENDMDL
