MODEL 1
REMARK VINA RESULT: -3.947406815      0.000      0.000
REMARK  2 active torsions:
REMARK  status: ('A' for Active; 'I' for Inactive)
REMARK    1  A    between atoms: C2_2  and  N1_4 
REMARK    2  A    between atoms: C2_2  and  N2_8 
ROOT
HETATM    1  C1  UNL     1       9.653  30.923  24.434  1.00  0.00     0.081 C 
HETATM    2  C2  UNL     1       8.888  31.922  25.326  1.00  0.00     0.311 C 
HETATM    3  C3  UNL     1       8.182  32.866  24.387  1.00  0.00     0.081 C 
ENDROOT
BRANCH   2   4
HETATM    4  N1  UNL     1       7.857  31.124  25.980  1.00  0.00    -0.043 N 
ATOM      5  H13 UNL     1       7.907  30.128  25.768  1.00  0.00     0.277 HD
ATOM      6  H12 UNL     1       7.979  31.035  26.988  1.00  0.00     0.277 HD
ATOM      7  H11 UNL     1       6.977  31.561  25.707  1.00  0.00     0.277 HD
ENDBRANCH   2   4
BRANCH   2   8
HETATM    8  N2  UNL     1       9.824  32.477  26.209  1.00  0.00     0.128 N 
HETATM    9  C4  UNL     1      11.177  32.751  25.899  1.00  0.00     0.306 A 
HETATM   10  C5  UNL     1      10.182  33.845  26.321  1.00  0.00     0.306 A 
ENDBRANCH   2   8
TORSDOF 2
ENDMDL
MODEL 2
REMARK VINA RESULT: -3.932287597      1.563      2.978
REMARK  2 active torsions:
REMARK  status: ('A' for Active; 'I' for Inactive)
REMARK    1  A    between atoms: C2_2  and  N1_4 
REMARK    2  A    between atoms: C2_2  and  N2_8 
ROOT
HETATM    1  C1  UNL     1       9.481  32.888  25.033  1.00  0.00     0.081 C 
HETATM    2  C2  UNL     1      10.460  32.243  26.036  1.00  0.00     0.311 C 
HETATM    3  C3  UNL     1      11.613  31.721  25.217  1.00  0.00     0.081 C 
ENDROOT
BRANCH   2   4
HETATM    4  N1  UNL     1      10.971  33.355  26.828  1.00  0.00    -0.043 N 
ATOM      5  H13 UNL     1      10.909  34.260  26.360  1.00  0.00     0.277 HD
ATOM      6  H12 UNL     1      10.385  33.598  27.627  1.00  0.00     0.277 HD
ATOM      7  H11 UNL     1      11.921  33.083  27.078  1.00  0.00     0.277 HD
ENDBRANCH   2   4
BRANCH   2   8
HETATM    8  N2  UNL     1       9.724  31.307  26.775  1.00  0.00     0.128 N 
HETATM    9  C4  UNL     1       8.574  31.596  27.546  1.00  0.00     0.306 A 
HETATM   10  C5  UNL     1       8.555  30.621  26.358  1.00  0.00     0.306 A 
ENDBRANCH   2   8
TORSDOF 2
ENDMDL
MODEL 3
REMARK VINA RESULT: -3.917204988      2.034      2.987
REMARK  2 active torsions:
REMARK  status: ('A' for Active; 'I' for Inactive)
REMARK    1  A    between atoms: C2_2  and  N1_4 
REMARK    2  A    between atoms: C2_2  and  N2_8 
ROOT
HETATM    1  C1  UNL     1       9.763  31.699  24.644  1.00  0.00     0.081 C 
HETATM    2  C2  UNL     1      10.897  31.775  25.687  1.00  0.00     0.311 C 
HETATM    3  C3  UNL     1      11.008  33.226  26.079  1.00  0.00     0.081 C 
ENDROOT
BRANCH   2   4
HETATM    4  N1  UNL     1      10.384  31.059  26.849  1.00  0.00    -0.043 N 
ATOM      5  H13 UNL     1      10.690  31.445  27.742  1.00  0.00     0.277 HD
ATOM      6  H12 UNL     1       9.384  31.184  27.005  1.00  0.00     0.277 HD
ATOM      7  H11 UNL     1      10.661  30.089  26.701  1.00  0.00     0.277 HD
ENDBRANCH   2   4
BRANCH   2   8
HETATM    8  N2  UNL     1      12.025  31.181  25.103  1.00  0.00     0.128 N 
HETATM    9  C4  UNL     1      12.545  29.909  25.439  1.00  0.00     0.306 A 
HETATM   10  C5  UNL     1      12.040  30.255  24.029  1.00  0.00     0.306 A 
ENDBRANCH   2   8
TORSDOF 2
ENDMDL
MODEL 4
REMARK VINA RESULT: -3.915208228      2.055      2.512
REMARK  2 active torsions:
REMARK  status: ('A' for Active; 'I' for Inactive)
REMARK    1  A    between atoms: C2_2  and  N1_4 
REMARK    2  A    between atoms: C2_2  and  N2_8 
ROOT
HETATM    1  C1  UNL     1      10.388  29.851  23.409  1.00  0.00     0.081 C 
HETATM    2  C2  UNL     1      10.121  30.682  24.680  1.00  0.00     0.311 C 
HETATM    3  C3  UNL     1       9.301  31.868  24.240  1.00  0.00     0.081 C 
ENDROOT
BRANCH   2   4
HETATM    4  N1  UNL     1       9.252  29.845  25.498  1.00  0.00    -0.043 N 
ATOM      5  H13 UNL     1       8.762  29.120  24.974  1.00  0.00     0.277 HD
ATOM      6  H12 UNL     1       9.754  29.216  26.126  1.00  0.00     0.277 HD
ATOM      7  H11 UNL     1       8.634  30.499  25.977  1.00  0.00     0.277 HD
ENDBRANCH   2   4
BRANCH   2   8
HETATM    8  N2  UNL     1      11.369  30.948  25.261  1.00  0.00     0.128 N 
HETATM    9  C4  UNL     1      12.274  29.969  25.735  1.00  0.00     0.306 A 
HETATM   10  C5  UNL     1      12.628  30.952  24.608  1.00  0.00     0.306 A 
ENDBRANCH   2   8
TORSDOF 2
ENDMDL
MODEL 5
REMARK VINA RESULT: -3.883689993      1.465      3.003
REMARK  2 active torsions:
REMARK  status: ('A' for Active; 'I' for Inactive)
REMARK    1  A    between atoms: C2_2  and  N1_4 
REMARK    2  A    between atoms: C2_2  and  N2_8 
ROOT
HETATM    1  C1  UNL     1      11.036  33.022  26.002  1.00  0.00     0.081 C 
HETATM    2  C2  UNL     1      10.940  31.519  25.666  1.00  0.00     0.311 C 
HETATM    3  C3  UNL     1      12.187  31.184  24.888  1.00  0.00     0.081 C 
ENDROOT
BRANCH   2   4
HETATM    4  N1  UNL     1      11.048  30.842  26.953  1.00  0.00    -0.043 N 
ATOM      5  H13 UNL     1      12.005  30.742  27.290  1.00  0.00     0.277 HD
ATOM      6  H12 UNL     1      10.703  31.391  27.740  1.00  0.00     0.277 HD
ATOM      7  H11 UNL     1      10.561  29.955  26.823  1.00  0.00     0.277 HD
ENDBRANCH   2   4
BRANCH   2   8
HETATM    8  N2  UNL     1       9.711  31.325  25.021  1.00  0.00     0.128 N 
HETATM    9  C4  UNL     1       8.440  31.439  25.632  1.00  0.00     0.306 A 
HETATM   10  C5  UNL     1       8.879  32.325  24.455  1.00  0.00     0.306 A 
ENDBRANCH   2   8
TORSDOF 2
ENDMDL
