MODEL 1
REMARK VINA RESULT: -6.273168264      0.000      0.000
REMARK  2 active torsions:
REMARK  status: ('A' for Active; 'I' for Inactive)
REMARK    1  A    between atoms: O1_1  and  C1_3 
REMARK    2  A    between atoms: C3_5  and  O2_6 
ROOT
HETATM    1  C1  UNL     1      18.939  17.913  20.526  1.00  0.00     0.149 C 
HETATM    2  C2  UNL     1      18.236  17.353  19.340  1.00  0.00     0.067 C 
HETATM    3  C3  UNL     1      16.798  17.062  19.515  1.00  0.00     0.154 C 
HETATM    4  C4  UNL     1      16.394  16.628  20.891  1.00  0.00     0.251 C 
HETATM    5  C5  UNL     1      14.898  16.573  20.911  1.00  0.00     0.038 C 
HETATM    6  C6  UNL     1      14.276  16.459  22.243  1.00  0.00     0.004 C 
HETATM    7  C7  UNL     1      15.094  16.860  23.403  1.00  0.00     0.030 C 
HETATM    8  C8  UNL     1      16.513  17.158  23.162  1.00  0.00     0.273 C 
HETATM    9  N1  UNL     1      16.865  17.584  21.838  1.00  0.00     0.098 N 
HETATM   10  C9  UNL     1      18.294  17.758  21.833  1.00  0.00     0.304 C 
ENDROOT
BRANCH   1  11
HETATM   11  O1  UNL     1      20.217  17.327  20.579  1.00  0.00    -0.394 OA
ATOM     12  H1  UNL     1      20.120  16.462  20.959  1.00  0.00     0.210 HD
ENDBRANCH   1  11
BRANCH   3  13
HETATM   13  O2  UNL     1      16.388  16.040  18.631  1.00  0.00    -0.393 OA
ATOM     14  H2  UNL     1      16.276  15.220  19.097  1.00  0.00     0.210 HD
ENDBRANCH   3  13
TORSDOF 2
ENDMDL
MODEL 2
REMARK VINA RESULT: -6.137286890      1.752      3.509
REMARK  2 active torsions:
REMARK  status: ('A' for Active; 'I' for Inactive)
REMARK    1  A    between atoms: O1_1  and  C1_3 
REMARK    2  A    between atoms: C3_5  and  O2_6 
ROOT
HETATM    1  C1  UNL     1      16.992  17.471  23.410  1.00  0.00     0.149 C 
HETATM    2  C2  UNL     1      18.380  17.578  22.882  1.00  0.00     0.067 C 
HETATM    3  C3  UNL     1      18.511  17.661  21.413  1.00  0.00     0.154 C 
HETATM    4  C4  UNL     1      17.476  16.910  20.632  1.00  0.00     0.251 C 
HETATM    5  C5  UNL     1      17.663  17.274  19.193  1.00  0.00     0.038 C 
HETATM    6  C6  UNL     1      16.570  16.886  18.283  1.00  0.00     0.004 C 
HETATM    7  C7  UNL     1      15.255  16.613  18.892  1.00  0.00     0.030 C 
HETATM    8  C8  UNL     1      15.183  16.564  20.358  1.00  0.00     0.273 C 
HETATM    9  N1  UNL     1      16.180  17.305  21.077  1.00  0.00     0.098 N 
HETATM   10  C9  UNL     1      15.941  17.061  22.474  1.00  0.00     0.304 C 
ENDROOT
BRANCH   1  11
HETATM   11  O1  UNL     1      17.016  16.569  24.489  1.00  0.00    -0.394 OA
ATOM     12  H1  UNL     1      16.612  15.760  24.197  1.00  0.00     0.210 HD
ENDBRANCH   1  11
BRANCH   3  13
HETATM   13  O2  UNL     1      19.768  17.169  20.999  1.00  0.00    -0.393 OA
ATOM     14  H2  UNL     1      19.753  16.221  20.945  1.00  0.00     0.210 HD
ENDBRANCH   3  13
TORSDOF 2
ENDMDL
MODEL 3
REMARK VINA RESULT: -6.073474110      1.895      3.034
REMARK  2 active torsions:
REMARK  status: ('A' for Active; 'I' for Inactive)
REMARK    1  A    between atoms: O1_1  and  C1_3 
REMARK    2  A    between atoms: C3_5  and  O2_6 
ROOT
HETATM    1  C1  UNL     1      19.299  17.245  20.562  1.00  0.00     0.149 C 
HETATM    2  C2  UNL     1      18.535  17.244  21.840  1.00  0.00     0.067 C 
HETATM    3  C3  UNL     1      17.120  16.831  21.749  1.00  0.00     0.154 C 
HETATM    4  C4  UNL     1      16.426  17.188  20.470  1.00  0.00     0.251 C 
HETATM    5  C5  UNL     1      15.087  16.522  20.497  1.00  0.00     0.038 C 
HETATM    6  C6  UNL     1      14.357  16.493  19.216  1.00  0.00     0.004 C 
HETATM    7  C7  UNL     1      15.149  16.684  17.987  1.00  0.00     0.030 C 
HETATM    8  C8  UNL     1      16.557  17.074  18.141  1.00  0.00     0.273 C 
HETATM    9  N1  UNL     1      17.196  16.705  19.371  1.00  0.00     0.098 N 
HETATM   10  C9  UNL     1      18.532  17.237  19.313  1.00  0.00     0.304 C 
ENDROOT
BRANCH   1  11
HETATM   11  O1  UNL     1      20.140  18.373  20.570  1.00  0.00    -0.394 OA
ATOM     12  H1  UNL     1      20.455  18.489  21.459  1.00  0.00     0.210 HD
ENDBRANCH   1  11
BRANCH   3  13
HETATM   13  O2  UNL     1      16.367  17.409  22.794  1.00  0.00    -0.393 OA
ATOM     14  H2  UNL     1      15.488  17.614  22.498  1.00  0.00     0.210 HD
ENDBRANCH   3  13
TORSDOF 2
ENDMDL
MODEL 4
REMARK VINA RESULT: -6.066529771      1.194      1.724
REMARK  2 active torsions:
REMARK  status: ('A' for Active; 'I' for Inactive)
REMARK    1  A    between atoms: O1_1  and  C1_3 
REMARK    2  A    between atoms: C3_5  and  O2_6 
ROOT
HETATM    1  C1  UNL     1      18.390  17.858  18.793  1.00  0.00     0.149 C 
HETATM    2  C2  UNL     1      17.068  17.260  18.457  1.00  0.00     0.067 C 
HETATM    3  C3  UNL     1      16.119  17.114  19.579  1.00  0.00     0.154 C 
HETATM    4  C4  UNL     1      16.739  16.840  20.915  1.00  0.00     0.251 C 
HETATM    5  C5  UNL     1      15.644  16.919  21.931  1.00  0.00     0.038 C 
HETATM    6  C6  UNL     1      16.076  16.977  23.340  1.00  0.00     0.004 C 
HETATM    7  C7  UNL     1      17.463  17.404  23.600  1.00  0.00     0.030 C 
HETATM    8  C8  UNL     1      18.355  17.554  22.442  1.00  0.00     0.273 C 
HETATM    9  N1  UNL     1      17.731  17.830  21.180  1.00  0.00     0.098 N 
HETATM   10  C9  UNL     1      18.787  17.876  20.204  1.00  0.00     0.304 C 
ENDROOT
BRANCH   1  11
HETATM   11  O1  UNL     1      19.369  17.169  18.054  1.00  0.00    -0.394 OA
ATOM     12  H1  UNL     1      20.019  16.849  18.669  1.00  0.00     0.210 HD
ENDBRANCH   1  11
BRANCH   3  13
HETATM   13  O2  UNL     1      15.214  16.059  19.327  1.00  0.00    -0.393 OA
ATOM     14  H2  UNL     1      14.713  15.857  20.109  1.00  0.00     0.210 HD
ENDBRANCH   3  13
TORSDOF 2
ENDMDL
MODEL 5
REMARK VINA RESULT: -6.006315052      2.418      4.388
REMARK  2 active torsions:
REMARK  status: ('A' for Active; 'I' for Inactive)
REMARK    1  A    between atoms: O1_1  and  C1_3 
REMARK    2  A    between atoms: C3_5  and  O2_6 
ROOT
HETATM    1  C1  UNL     1      12.966  16.442  23.360  1.00  0.00     0.149 C 
HETATM    2  C2  UNL     1      12.893  16.242  21.887  1.00  0.00     0.067 C 
HETATM    3  C3  UNL     1      14.186  16.205  21.172  1.00  0.00     0.154 C 
HETATM    4  C4  UNL     1      15.265  17.068  21.752  1.00  0.00     0.251 C 
HETATM    5  C5  UNL     1      16.527  16.745  21.015  1.00  0.00     0.038 C 
HETATM    6  C6  UNL     1      17.772  17.257  21.616  1.00  0.00     0.004 C 
HETATM    7  C7  UNL     1      17.731  17.613  23.046  1.00  0.00     0.030 C 
HETATM    8  C8  UNL     1      16.419  17.611  23.708  1.00  0.00     0.273 C 
HETATM    9  N1  UNL     1      15.411  16.764  23.137  1.00  0.00     0.098 N 
HETATM   10  C9  UNL     1      14.216  16.973  23.911  1.00  0.00     0.304 C 
ENDROOT
BRANCH   1  11
HETATM   11  O1  UNL     1      11.910  17.297  23.726  1.00  0.00    -0.394 OA
ATOM     12  H1  UNL     1      11.760  17.894  23.001  1.00  0.00     0.210 HD
ENDBRANCH   1  11
BRANCH   3  13
HETATM   13  O2  UNL     1      14.021  16.609  19.829  1.00  0.00    -0.393 OA
ATOM     14  H2  UNL     1      13.870  17.545  19.778  1.00  0.00     0.210 HD
ENDBRANCH   3  13
TORSDOF 2
ENDMDL
