MODEL 1
REMARK VINA RESULT: -4.939179846      0.000      0.000
REMARK  2 active torsions:
REMARK  status: ('A' for Active; 'I' for Inactive)
REMARK    1  A    between atoms: C2_2  and  N2_6 
REMARK    2  A    between atoms: N3_8  and  N4_10 
ROOT
HETATM    1  N2  UNL     1      15.400  -9.252  45.399  1.00  0.00    -0.275 N 
ATOM      2  H2  UNL     1      15.452  -8.972  44.420  1.00  0.00     0.189 HD
HETATM    3  N3  UNL     1      15.458 -10.474  45.730  1.00  0.00    -0.238 N 
ATOM      4  H3  UNL     1      15.408 -10.769  46.706  1.00  0.00     0.208 HD
ENDROOT
BRANCH   3   5
HETATM    5  N4  UNL     1      15.597 -11.408  44.675  1.00  0.00    -0.272 N 
HETATM    6  C3  UNL     1      16.775 -11.643  43.932  1.00  0.00     0.197 C 
HETATM    7  N5  UNL     1      16.737 -12.742  43.261  1.00  0.00    -0.379 N 
HETATM    8  C4  UNL     1      15.454 -13.370  43.514  1.00  0.00     0.098 C 
ATOM      9  H5  UNL     1      17.476 -13.105  42.660  1.00  0.00     0.160 HD
HETATM   10  C5  UNL     1      14.853 -13.948  42.266  1.00  0.00     0.034 C 
HETATM   11  C6  UNL     1      14.586 -12.301  44.144  1.00  0.00     0.176 C 
ENDBRANCH   3   5
BRANCH   1  12
HETATM   12  C2  UNL     1      15.261  -8.285  46.425  1.00  0.00     0.086 C 
HETATM   13  C1  UNL     1      15.583  -6.869  46.142  1.00  0.00     0.090 C 
HETATM   14  N1  UNL     1      14.862  -8.598  47.610  1.00  0.00    -0.388 N 
ATOM     15  H12 UNL     1      14.762  -7.901  48.349  1.00  0.00     0.157 HD
ATOM     16  H11 UNL     1      14.639  -9.574  47.806  1.00  0.00     0.157 HD
ENDBRANCH   1  12
TORSDOF 2
ENDMDL
MODEL 2
REMARK VINA RESULT: -4.929571659      3.648      5.131
REMARK  2 active torsions:
REMARK  status: ('A' for Active; 'I' for Inactive)
REMARK    1  A    between atoms: C2_2  and  N2_6 
REMARK    2  A    between atoms: N3_8  and  N4_10 
ROOT
HETATM    1  N2  UNL     1      13.852 -12.710  43.578  1.00  0.00    -0.275 N 
ATOM      2  H2  UNL     1      13.015 -12.899  44.129  1.00  0.00     0.189 HD
HETATM    3  N3  UNL     1      13.859 -12.890  42.323  1.00  0.00    -0.238 N 
ATOM      4  H3  UNL     1      14.688 -12.704  41.758  1.00  0.00     0.208 HD
ENDROOT
BRANCH   3   5
HETATM    5  N4  UNL     1      12.654 -13.361  41.746  1.00  0.00    -0.272 N 
HETATM    6  C3  UNL     1      11.350 -12.999  42.152  1.00  0.00     0.197 C 
HETATM    7  N5  UNL     1      10.450 -13.304  41.282  1.00  0.00    -0.379 N 
HETATM    8  C4  UNL     1      11.116 -13.931  40.156  1.00  0.00     0.098 C 
ATOM      9  H5  UNL     1       9.449 -13.134  41.369  1.00  0.00     0.160 HD
HETATM   10  C5  UNL     1      10.356 -15.117  39.640  1.00  0.00     0.034 C 
HETATM   11  C6  UNL     1      12.504 -14.290  40.645  1.00  0.00     0.176 C 
ENDBRANCH   3   5
BRANCH   1  12
HETATM   12  C2  UNL     1      15.037 -12.239  44.194  1.00  0.00     0.086 C 
HETATM   13  C1  UNL     1      16.330 -12.370  43.486  1.00  0.00     0.090 C 
HETATM   14  N1  UNL     1      15.031 -11.695  45.363  1.00  0.00    -0.388 N 
ATOM     15  H12 UNL     1      15.884 -11.356  45.807  1.00  0.00     0.157 HD
ATOM     16  H11 UNL     1      14.140 -11.604  45.851  1.00  0.00     0.157 HD
ENDBRANCH   1  12
TORSDOF 2
ENDMDL
MODEL 3
REMARK VINA RESULT: -4.887548412      3.022      6.108
REMARK  2 active torsions:
REMARK  status: ('A' for Active; 'I' for Inactive)
REMARK    1  A    between atoms: C2_2  and  N2_6 
REMARK    2  A    between atoms: N3_8  and  N4_10 
ROOT
HETATM    1  N2  UNL     1      13.022 -13.459  41.454  1.00  0.00    -0.275 N 
ATOM      2  H2  UNL     1      12.580 -12.630  41.853  1.00  0.00     0.189 HD
HETATM    3  N3  UNL     1      14.141 -13.870  41.885  1.00  0.00    -0.238 N 
ATOM      4  H3  UNL     1      14.595 -14.697  41.496  1.00  0.00     0.208 HD
ENDROOT
BRANCH   3   5
HETATM    5  N4  UNL     1      14.727 -13.122  42.935  1.00  0.00    -0.272 N 
HETATM    6  C3  UNL     1      14.037 -12.566  44.035  1.00  0.00     0.197 C 
HETATM    7  N5  UNL     1      14.821 -12.217  44.996  1.00  0.00    -0.379 N 
HETATM    8  C4  UNL     1      16.180 -12.528  44.595  1.00  0.00     0.098 C 
ATOM      9  H5  UNL     1      14.536 -11.797  45.881  1.00  0.00     0.160 HD
HETATM   10  C5  UNL     1      17.143 -11.441  44.970  1.00  0.00     0.034 C 
HETATM   11  C6  UNL     1      16.124 -12.775  43.101  1.00  0.00     0.176 C 
ENDBRANCH   3   5
BRANCH   1  12
HETATM   12  C2  UNL     1      12.402 -14.179  40.405  1.00  0.00     0.086 C 
HETATM   13  C1  UNL     1      13.122 -15.303  39.765  1.00  0.00     0.090 C 
HETATM   14  N1  UNL     1      11.219 -13.888  39.980  1.00  0.00    -0.388 N 
ATOM     15  H12 UNL     1      10.773 -14.408  39.224  1.00  0.00     0.157 HD
ATOM     16  H11 UNL     1      10.722 -13.115  40.421  1.00  0.00     0.157 HD
ENDBRANCH   1  12
TORSDOF 2
ENDMDL
MODEL 4
REMARK VINA RESULT: -4.853962700      4.789      6.212
REMARK  2 active torsions:
REMARK  status: ('A' for Active; 'I' for Inactive)
REMARK    1  A    between atoms: C2_2  and  N2_6 
REMARK    2  A    between atoms: N3_8  and  N4_10 
ROOT
HETATM    1  N2  UNL     1      14.826 -13.789  42.432  1.00  0.00    -0.275 N 
ATOM      2  H2  UNL     1      14.360 -13.153  43.079  1.00  0.00     0.189 HD
HETATM    3  N3  UNL     1      14.228 -14.221  41.400  1.00  0.00    -0.238 N 
ATOM      4  H3  UNL     1      14.680 -14.857  40.744  1.00  0.00     0.208 HD
ENDROOT
BRANCH   3   5
HETATM    5  N4  UNL     1      12.899 -13.771  41.207  1.00  0.00    -0.272 N 
HETATM    6  C3  UNL     1      12.100 -14.025  40.070  1.00  0.00     0.197 C 
HETATM    7  N5  UNL     1      10.850 -13.789  40.270  1.00  0.00    -0.379 N 
HETATM    8  C4  UNL     1      10.699 -13.330  41.638  1.00  0.00     0.098 C 
ATOM      9  H5  UNL     1      10.100 -13.904  39.589  1.00  0.00     0.160 HD
HETATM   10  C5  UNL     1       9.738 -12.183  41.746  1.00  0.00     0.034 C 
HETATM   11  C6  UNL     1      12.094 -12.975  42.111  1.00  0.00     0.176 C 
ENDBRANCH   3   5
BRANCH   1  12
HETATM   12  C2  UNL     1      16.157 -14.215  42.662  1.00  0.00     0.086 C 
HETATM   13  C1  UNL     1      17.068 -14.416  41.513  1.00  0.00     0.090 C 
HETATM   14  N1  UNL     1      16.609 -14.437  43.849  1.00  0.00    -0.388 N 
ATOM     15  H12 UNL     1      17.567 -14.743  44.014  1.00  0.00     0.157 HD
ATOM     16  H11 UNL     1      15.981 -14.298  44.641  1.00  0.00     0.157 HD
ENDBRANCH   1  12
TORSDOF 2
ENDMDL
MODEL 5
REMARK VINA RESULT: -4.776047618      3.262      5.514
REMARK  2 active torsions:
REMARK  status: ('A' for Active; 'I' for Inactive)
REMARK    1  A    between atoms: C2_2  and  N2_6 
REMARK    2  A    between atoms: N3_8  and  N4_10 
ROOT
HETATM    1  N2  UNL     1      12.540 -12.967  42.290  1.00  0.00    -0.275 N 
ATOM      2  H2  UNL     1      12.275 -12.604  43.206  1.00  0.00     0.189 HD
HETATM    3  N3  UNL     1      13.710 -13.410  42.080  1.00  0.00    -0.238 N 
ATOM      4  H3  UNL     1      13.989 -13.777  41.170  1.00  0.00     0.208 HD
ENDROOT
BRANCH   3   5
HETATM    5  N4  UNL     1      14.607 -13.370  43.175  1.00  0.00    -0.272 N 
HETATM    6  C3  UNL     1      14.587 -12.421  44.221  1.00  0.00     0.197 C 
HETATM    7  N5  UNL     1      15.285 -12.782  45.241  1.00  0.00    -0.379 N 
HETATM    8  C4  UNL     1      15.864 -14.079  44.945  1.00  0.00     0.098 C 
ATOM      9  H5  UNL     1      15.409 -12.251  46.103  1.00  0.00     0.160 HD
HETATM   10  C5  UNL     1      17.291 -14.177  45.399  1.00  0.00     0.034 C 
HETATM   11  C6  UNL     1      15.708 -14.270  43.451  1.00  0.00     0.176 C 
ENDBRANCH   3   5
BRANCH   1  12
HETATM   12  C2  UNL     1      11.612 -12.991  41.221  1.00  0.00     0.086 C 
HETATM   13  C1  UNL     1      10.192 -12.667  41.480  1.00  0.00     0.090 C 
HETATM   14  N1  UNL     1      11.963 -13.288  40.016  1.00  0.00    -0.388 N 
ATOM     15  H12 UNL     1      11.294 -13.305  39.246  1.00  0.00     0.157 HD
ATOM     16  H11 UNL     1      12.942 -13.511  39.837  1.00  0.00     0.157 HD
ENDBRANCH   1  12
TORSDOF 2
ENDMDL
