MODEL 1
REMARK VINA RESULT: -4.876498711      0.000      0.000
REMARK  4 active torsions:
REMARK  status: ('A' for Active; 'I' for Inactive)
REMARK    1  A    between atoms: C2_2  and  O1_3 
REMARK    2  A    between atoms: O1_3  and  C3_4 
REMARK    3  A    between atoms: N1_6  and  O2_8 
REMARK    4  A    between atoms: O2_8  and  C4_9 
ROOT
HETATM    1  C3  UNL     1      12.829 -13.958  40.874  1.00  0.00     0.214 C 
HETATM    2  S1  UNL     1      13.277 -15.367  39.880  1.00  0.00    -0.003 SA
HETATM    3  N1  UNL     1      11.693 -13.369  40.742  1.00  0.00    -0.228 N 
ATOM      4  H1  UNL     1      11.477 -12.565  41.332  1.00  0.00     0.197 HD
ENDROOT
BRANCH   3   5
HETATM    5  O2  UNL     1      10.765 -13.798  39.827  1.00  0.00    -0.181 OA
BRANCH   5   6
HETATM    6  C4  UNL     1       9.744 -14.646  40.235  1.00  0.00     0.394 C 
HETATM    7  N2  UNL     1       9.250 -14.621  41.582  1.00  0.00    -0.031 NA
HETATM    8  O3  UNL     1       9.272 -15.435  39.378  1.00  0.00    -0.240 OA
ENDBRANCH   5   6
ENDBRANCH   3   5
BRANCH   1   9
HETATM    9  O1  UNL     1      13.717 -13.488  41.802  1.00  0.00    -0.329 OA
BRANCH   9  10
HETATM   10  C2  UNL     1      14.874 -14.256  42.091  1.00  0.00     0.173 C 
HETATM   11  C1  UNL     1      15.958 -13.268  42.484  1.00  0.00     0.034 C 
ENDBRANCH   9  10
ENDBRANCH   1   9
TORSDOF 4
ENDMDL
MODEL 2
REMARK VINA RESULT: -4.813653672      1.062      1.062
REMARK  4 active torsions:
REMARK  status: ('A' for Active; 'I' for Inactive)
REMARK    1  A    between atoms: C2_2  and  O1_3 
REMARK    2  A    between atoms: O1_3  and  C3_4 
REMARK    3  A    between atoms: N1_6  and  O2_8 
REMARK    4  A    between atoms: O2_8  and  C4_9 
ROOT
HETATM    1  C3  UNL     1      12.755 -13.853  40.988  1.00  0.00     0.214 C 
HETATM    2  S1  UNL     1      13.155 -15.185  39.874  1.00  0.00    -0.003 SA
HETATM    3  N1  UNL     1      11.624 -13.242  40.935  1.00  0.00    -0.228 N 
ATOM      4  H1  UNL     1      11.436 -12.484  41.592  1.00  0.00     0.197 HD
ENDROOT
BRANCH   3   5
HETATM    5  O2  UNL     1      10.665 -13.587  40.016  1.00  0.00    -0.181 OA
BRANCH   5   6
HETATM    6  C4  UNL     1       9.736 -14.568  40.333  1.00  0.00     0.394 C 
HETATM    7  N2  UNL     1       9.338 -15.555  39.369  1.00  0.00    -0.031 NA
HETATM    8  O3  UNL     1       9.258 -14.557  41.495  1.00  0.00    -0.240 OA
ENDBRANCH   5   6
ENDBRANCH   3   5
BRANCH   1   9
HETATM    9  O1  UNL     1      13.674 -13.468  41.924  1.00  0.00    -0.329 OA
BRANCH   9  10
HETATM   10  C2  UNL     1      14.851 -14.244  42.085  1.00  0.00     0.173 C 
HETATM   11  C1  UNL     1      15.954 -13.276  42.473  1.00  0.00     0.034 C 
ENDBRANCH   9  10
ENDBRANCH   1   9
TORSDOF 4
ENDMDL
MODEL 3
REMARK VINA RESULT: -4.748007797      1.363      1.363
REMARK  4 active torsions:
REMARK  status: ('A' for Active; 'I' for Inactive)
REMARK    1  A    between atoms: C2_2  and  O1_3 
REMARK    2  A    between atoms: O1_3  and  C3_4 
REMARK    3  A    between atoms: N1_6  and  O2_8 
REMARK    4  A    between atoms: O2_8  and  C4_9 
ROOT
HETATM    1  C3  UNL     1      13.274 -14.141  41.049  1.00  0.00     0.214 C 
HETATM    2  S1  UNL     1      12.913 -15.304  39.748  1.00  0.00    -0.003 SA
HETATM    3  N1  UNL     1      12.488 -13.160  41.319  1.00  0.00    -0.228 N 
ATOM      4  H1  UNL     1      12.733 -12.517  42.072  1.00  0.00     0.197 HD
ENDROOT
BRANCH   3   5
HETATM    5  O2  UNL     1      11.326 -12.957  40.616  1.00  0.00    -0.181 OA
BRANCH   5   6
HETATM    6  C4  UNL     1      10.105 -13.156  41.244  1.00  0.00     0.394 C 
HETATM    7  N2  UNL     1       9.975 -13.057  42.670  1.00  0.00    -0.031 NA
HETATM    8  O3  UNL     1       9.118 -13.426  40.514  1.00  0.00    -0.240 OA
ENDBRANCH   5   6
ENDBRANCH   3   5
BRANCH   1   9
HETATM    9  O1  UNL     1      14.419 -14.295  41.781  1.00  0.00    -0.329 OA
BRANCH   9  10
HETATM   10  C2  UNL     1      14.735 -13.326  42.768  1.00  0.00     0.173 C 
HETATM   11  C1  UNL     1      16.201 -12.981  42.578  1.00  0.00     0.034 C 
ENDBRANCH   9  10
ENDBRANCH   1   9
TORSDOF 4
ENDMDL
MODEL 4
REMARK VINA RESULT: -4.660591731      1.475      1.628
REMARK  4 active torsions:
REMARK  status: ('A' for Active; 'I' for Inactive)
REMARK    1  A    between atoms: C2_2  and  O1_3 
REMARK    2  A    between atoms: O1_3  and  C3_4 
REMARK    3  A    between atoms: N1_6  and  O2_8 
REMARK    4  A    between atoms: O2_8  and  C4_9 
ROOT
HETATM    1  C3  UNL     1      13.217 -14.120  41.050  1.00  0.00     0.214 C 
HETATM    2  S1  UNL     1      12.907 -15.259  39.715  1.00  0.00    -0.003 SA
HETATM    3  N1  UNL     1      12.409 -13.158  41.321  1.00  0.00    -0.228 N 
ATOM      4  H1  UNL     1      12.626 -12.528  42.095  1.00  0.00     0.197 HD
ENDROOT
BRANCH   3   5
HETATM    5  O2  UNL     1      11.261 -12.958  40.595  1.00  0.00    -0.181 OA
BRANCH   5   6
HETATM    6  C4  UNL     1      10.029 -13.203  41.184  1.00  0.00     0.394 C 
HETATM    7  N2  UNL     1       9.008 -13.939  40.493  1.00  0.00    -0.031 NA
HETATM    8  O3  UNL     1       9.843 -12.755  42.343  1.00  0.00    -0.240 OA
ENDBRANCH   5   6
ENDBRANCH   3   5
BRANCH   1   9
HETATM    9  O1  UNL     1      14.346 -14.273  41.807  1.00  0.00    -0.329 OA
BRANCH   9  10
HETATM   10  C2  UNL     1      14.656 -13.287  42.778  1.00  0.00     0.173 C 
HETATM   11  C1  UNL     1      16.139 -12.994  42.635  1.00  0.00     0.034 C 
ENDBRANCH   9  10
ENDBRANCH   1   9
TORSDOF 4
ENDMDL
MODEL 5
REMARK VINA RESULT: -4.627905939      2.006      2.087
REMARK  4 active torsions:
REMARK  status: ('A' for Active; 'I' for Inactive)
REMARK    1  A    between atoms: C2_2  and  O1_3 
REMARK    2  A    between atoms: O1_3  and  C3_4 
REMARK    3  A    between atoms: N1_6  and  O2_8 
REMARK    4  A    between atoms: O2_8  and  C4_9 
ROOT
HETATM    1  C3  UNL     1      11.797 -13.093  41.756  1.00  0.00     0.214 C 
HETATM    2  S1  UNL     1      10.251 -13.101  42.643  1.00  0.00    -0.003 SA
HETATM    3  N1  UNL     1      11.872 -13.447  40.522  1.00  0.00    -0.228 N 
ATOM      4  H1  UNL     1      12.777 -13.429  40.052  1.00  0.00     0.197 HD
ENDROOT
BRANCH   3   5
HETATM    5  O2  UNL     1      10.761 -13.850  39.822  1.00  0.00    -0.181 OA
BRANCH   5   6
HETATM    6  C4  UNL     1      10.600 -15.192  39.509  1.00  0.00     0.394 C 
HETATM    7  N2  UNL     1      11.720 -16.090  39.483  1.00  0.00    -0.031 NA
HETATM    8  O3  UNL     1       9.436 -15.589  39.248  1.00  0.00    -0.240 OA
ENDBRANCH   5   6
ENDBRANCH   3   5
BRANCH   1   9
HETATM    9  O1  UNL     1      12.935 -12.701  42.404  1.00  0.00    -0.329 OA
BRANCH   9  10
HETATM   10  C2  UNL     1      14.117 -13.466  42.232  1.00  0.00     0.173 C 
HETATM   11  C1  UNL     1      14.999 -13.170  43.432  1.00  0.00     0.034 C 
ENDBRANCH   9  10
ENDBRANCH   1   9
TORSDOF 4
ENDMDL
