MODEL 1
REMARK VINA RESULT: -10.289036632      0.000      0.000
REMARK  7 active torsions:
REMARK  status: ('A' for Active; 'I' for Inactive)
REMARK    1  A    between atoms: O1_1  and  C1_3 
REMARK    2  A    between atoms: C9_11  and  C10_12 
REMARK    3  A    between atoms: C10_12  and  C11_13 
REMARK    4  A    between atoms: C11_13  and  C12_14 
REMARK    5  A    between atoms: C12_14  and  C13_15 
REMARK    6  A    between atoms: C13_15  and  C14_16 
REMARK    7  A    between atoms: C14_16  and  C15_17 
ROOT
HETATM    1  C1  UNL     1      30.768  20.819  43.444  1.00  0.00     0.186 A 
HETATM    2  C2  UNL     1      30.925  21.866  44.472  1.00  0.00    -0.014 A 
HETATM    3  C3  UNL     1      30.673  23.240  44.377  1.00  0.00     0.011 A 
HETATM    4  C4  UNL     1      30.893  24.034  45.469  1.00  0.00     0.001 A 
HETATM    5  C5  UNL     1      31.355  23.459  46.626  1.00  0.00     0.001 A 
HETATM    6  C6  UNL     1      31.606  22.080  46.714  1.00  0.00     0.013 A 
HETATM    7  C7  UNL     1      31.388  21.273  45.626  1.00  0.00    -0.016 A 
HETATM    8  C8  UNL     1      31.536  19.820  45.433  1.00  0.00    -0.010 A 
HETATM    9  C9  UNL     1      31.933  18.803  46.271  1.00  0.00    -0.046 A 
HETATM   10  C21 UNL     1      31.910  17.516  45.726  1.00  0.00     0.008 A 
HETATM   11  C22 UNL     1      31.518  17.268  44.432  1.00  0.00     0.001 A 
HETATM   12  C23 UNL     1      31.127  18.289  43.608  1.00  0.00     0.011 A 
HETATM   13  C24 UNL     1      31.143  19.579  44.135  1.00  0.00    -0.013 A 
ENDROOT
BRANCH   9  14
HETATM   14  C10 UNL     1      32.419  19.003  47.658  1.00  0.00     0.039 C 
BRANCH  14  15
HETATM   15  C11 UNL     1      31.523  18.403  48.701  1.00  0.00     0.005 C 
BRANCH  15  16
HETATM   16  C12 UNL     1      32.094  18.661  50.070  1.00  0.00     0.001 C 
BRANCH  16  17
HETATM   17  C13 UNL     1      32.901  19.926  50.099  1.00  0.00     0.005 C 
BRANCH  17  18
HETATM   18  C14 UNL     1      33.211  20.289  51.539  1.00  0.00     0.038 C 
BRANCH  18  19
HETATM   19  C15 UNL     1      34.378  19.616  52.101  1.00  0.00    -0.058 A 
HETATM   20  C16 UNL     1      34.409  19.125  53.389  1.00  0.00     0.007 A 
HETATM   21  C17 UNL     1      35.535  18.503  53.828  1.00  0.00     0.001 A 
HETATM   22  C18 UNL     1      36.659  18.345  53.017  1.00  0.00     0.000 A 
HETATM   23  C19 UNL     1      36.628  18.837  51.724  1.00  0.00     0.001 A 
HETATM   24  C20 UNL     1      35.498  19.460  51.291  1.00  0.00     0.007 A 
ENDBRANCH  18  19
ENDBRANCH  17  18
ENDBRANCH  16  17
ENDBRANCH  15  16
ENDBRANCH  14  15
ENDBRANCH   9  14
BRANCH   1  25
HETATM   25  O1  UNL     1      29.469  20.763  42.939  1.00  0.00    -0.386 OA
ATOM     26  H1  UNL     1      29.151  19.871  42.863  1.00  0.00     0.210 HD
ENDBRANCH   1  25
TORSDOF 7
ENDMDL
MODEL 2
REMARK VINA RESULT: -10.252304313      1.693      3.665
REMARK  7 active torsions:
REMARK  status: ('A' for Active; 'I' for Inactive)
REMARK    1  A    between atoms: O1_1  and  C1_3 
REMARK    2  A    between atoms: C9_11  and  C10_12 
REMARK    3  A    between atoms: C10_12  and  C11_13 
REMARK    4  A    between atoms: C11_13  and  C12_14 
REMARK    5  A    between atoms: C12_14  and  C13_15 
REMARK    6  A    between atoms: C13_15  and  C14_16 
REMARK    7  A    between atoms: C14_16  and  C15_17 
ROOT
HETATM    1  C1  UNL     1      30.356  20.661  42.907  1.00  0.00     0.186 A 
HETATM    2  C2  UNL     1      31.065  19.583  43.623  1.00  0.00    -0.014 A 
HETATM    3  C3  UNL     1      31.989  18.654  43.129  1.00  0.00     0.011 A 
HETATM    4  C4  UNL     1      32.526  17.729  43.981  1.00  0.00     0.001 A 
HETATM    5  C5  UNL     1      32.141  17.740  45.298  1.00  0.00     0.001 A 
HETATM    6  C6  UNL     1      31.214  18.673  45.788  1.00  0.00     0.013 A 
HETATM    7  C7  UNL     1      30.669  19.606  44.942  1.00  0.00    -0.016 A 
HETATM    8  C8  UNL     1      29.710  20.702  45.170  1.00  0.00    -0.010 A 
HETATM    9  C9  UNL     1      29.055  21.149  46.295  1.00  0.00    -0.046 A 
HETATM   10  C21 UNL     1      28.234  22.266  46.122  1.00  0.00     0.008 A 
HETATM   11  C22 UNL     1      28.079  22.889  44.906  1.00  0.00     0.001 A 
HETATM   12  C23 UNL     1      28.734  22.433  43.795  1.00  0.00     0.011 A 
HETATM   13  C24 UNL     1      29.560  21.320  43.949  1.00  0.00    -0.013 A 
ENDROOT
BRANCH   9  14
HETATM   14  C10 UNL     1      29.132  20.495  47.625  1.00  0.00     0.039 C 
BRANCH  14  15
HETATM   15  C11 UNL     1      29.817  21.330  48.667  1.00  0.00     0.005 C 
BRANCH  15  16
HETATM   16  C12 UNL     1      31.297  21.053  48.644  1.00  0.00     0.001 C 
BRANCH  16  17
HETATM   17  C13 UNL     1      31.624  19.758  49.329  1.00  0.00     0.005 C 
BRANCH  17  18
HETATM   18  C14 UNL     1      33.123  19.529  49.274  1.00  0.00     0.038 C 
BRANCH  18  19
HETATM   19  C15 UNL     1      33.785  19.503  50.575  1.00  0.00    -0.058 A 
HETATM   20  C16 UNL     1      35.154  19.588  50.719  1.00  0.00     0.007 A 
HETATM   21  C17 UNL     1      35.686  19.565  51.970  1.00  0.00     0.001 A 
HETATM   22  C18 UNL     1      34.891  19.462  53.112  1.00  0.00     0.000 A 
HETATM   23  C19 UNL     1      33.517  19.378  52.968  1.00  0.00     0.001 A 
HETATM   24  C20 UNL     1      32.991  19.400  51.712  1.00  0.00     0.007 A 
ENDBRANCH  18  19
ENDBRANCH  17  18
ENDBRANCH  16  17
ENDBRANCH  15  16
ENDBRANCH  14  15
ENDBRANCH   9  14
BRANCH   1  25
HETATM   25  O1  UNL     1      31.234  21.547  42.282  1.00  0.00    -0.386 OA
ATOM     26  H1  UNL     1      31.077  22.448  42.537  1.00  0.00     0.210 HD
ENDBRANCH   1  25
TORSDOF 7
ENDMDL
MODEL 3
REMARK VINA RESULT: -10.182612564      1.471      3.069
REMARK  7 active torsions:
REMARK  status: ('A' for Active; 'I' for Inactive)
REMARK    1  A    between atoms: O1_1  and  C1_3 
REMARK    2  A    between atoms: C9_11  and  C10_12 
REMARK    3  A    between atoms: C10_12  and  C11_13 
REMARK    4  A    between atoms: C11_13  and  C12_14 
REMARK    5  A    between atoms: C12_14  and  C13_15 
REMARK    6  A    between atoms: C13_15  and  C14_16 
REMARK    7  A    between atoms: C14_16  and  C15_17 
ROOT
HETATM    1  C1  UNL     1      29.904  21.017  44.690  1.00  0.00     0.186 A 
HETATM    2  C2  UNL     1      30.843  19.958  44.273  1.00  0.00    -0.014 A 
HETATM    3  C3  UNL     1      31.313  19.650  42.989  1.00  0.00     0.011 A 
HETATM    4  C4  UNL     1      32.188  18.611  42.831  1.00  0.00     0.001 A 
HETATM    5  C5  UNL     1      32.580  17.900  43.937  1.00  0.00     0.001 A 
HETATM    6  C6  UNL     1      32.105  18.213  45.221  1.00  0.00     0.013 A 
HETATM    7  C7  UNL     1      31.227  19.253  45.392  1.00  0.00    -0.016 A 
HETATM    8  C8  UNL     1      30.592  19.817  46.596  1.00  0.00    -0.010 A 
HETATM    9  C9  UNL     1      30.670  19.492  47.931  1.00  0.00    -0.046 A 
HETATM   10  C21 UNL     1      29.933  20.299  48.802  1.00  0.00     0.008 A 
HETATM   11  C22 UNL     1      29.169  21.355  48.363  1.00  0.00     0.001 A 
HETATM   12  C23 UNL     1      29.098  21.666  47.032  1.00  0.00     0.011 A 
HETATM   13  C24 UNL     1      29.828  20.873  46.149  1.00  0.00    -0.013 A 
ENDROOT
BRANCH   9  14
HETATM   14  C10 UNL     1      31.429  18.336  48.469  1.00  0.00     0.039 C 
BRANCH  14  15
HETATM   15  C11 UNL     1      32.606  18.730  49.312  1.00  0.00     0.005 C 
BRANCH  15  16
HETATM   16  C12 UNL     1      32.415  18.225  50.717  1.00  0.00     0.001 C 
BRANCH  16  17
HETATM   17  C13 UNL     1      32.370  19.353  51.705  1.00  0.00     0.005 C 
BRANCH  17  18
HETATM   18  C14 UNL     1      33.675  20.125  51.643  1.00  0.00     0.038 C 
BRANCH  18  19
HETATM   19  C15 UNL     1      34.814  19.449  52.257  1.00  0.00    -0.058 A 
HETATM   20  C16 UNL     1      34.847  19.103  53.591  1.00  0.00     0.007 A 
HETATM   21  C17 UNL     1      35.946  18.466  54.078  1.00  0.00     0.001 A 
HETATM   22  C18 UNL     1      37.039  18.151  53.270  1.00  0.00     0.000 A 
HETATM   23  C19 UNL     1      37.005  18.498  51.930  1.00  0.00     0.001 A 
HETATM   24  C20 UNL     1      35.902  19.136  51.450  1.00  0.00     0.007 A 
ENDBRANCH  18  19
ENDBRANCH  17  18
ENDBRANCH  16  17
ENDBRANCH  15  16
ENDBRANCH  14  15
ENDBRANCH   9  14
BRANCH   1  25
HETATM   25  O1  UNL     1      30.338  22.287  44.313  1.00  0.00    -0.386 OA
ATOM     26  H1  UNL     1      31.280  22.325  44.195  1.00  0.00     0.210 HD
ENDBRANCH   1  25
TORSDOF 7
ENDMDL
MODEL 4
REMARK VINA RESULT: -10.053392974      1.435      1.529
REMARK  7 active torsions:
REMARK  status: ('A' for Active; 'I' for Inactive)
REMARK    1  A    between atoms: O1_1  and  C1_3 
REMARK    2  A    between atoms: C9_11  and  C10_12 
REMARK    3  A    between atoms: C10_12  and  C11_13 
REMARK    4  A    between atoms: C11_13  and  C12_14 
REMARK    5  A    between atoms: C12_14  and  C13_15 
REMARK    6  A    between atoms: C13_15  and  C14_16 
REMARK    7  A    between atoms: C14_16  and  C15_17 
ROOT
HETATM    1  C1  UNL     1      30.353  21.020  43.296  1.00  0.00     0.186 A 
HETATM    2  C2  UNL     1      29.546  21.402  44.472  1.00  0.00    -0.014 A 
HETATM    3  C3  UNL     1      28.605  22.431  44.600  1.00  0.00     0.011 A 
HETATM    4  C4  UNL     1      27.969  22.607  45.798  1.00  0.00     0.001 A 
HETATM    5  C5  UNL     1      28.274  21.768  46.840  1.00  0.00     0.001 A 
HETATM    6  C6  UNL     1      29.219  20.739  46.705  1.00  0.00     0.013 A 
HETATM    7  C7  UNL     1      29.863  20.552  45.509  1.00  0.00    -0.016 A 
HETATM    8  C8  UNL     1      30.863  19.562  45.072  1.00  0.00    -0.010 A 
HETATM    9  C9  UNL     1      31.473  18.507  45.713  1.00  0.00    -0.046 A 
HETATM   10  C21 UNL     1      32.361  17.753  44.942  1.00  0.00     0.008 A 
HETATM   11  C22 UNL     1      32.622  18.039  43.623  1.00  0.00     0.001 A 
HETATM   12  C23 UNL     1      32.011  19.092  42.998  1.00  0.00     0.011 A 
HETATM   13  C24 UNL     1      31.119  19.854  43.751  1.00  0.00    -0.013 A 
ENDROOT
BRANCH   9  14
HETATM   14  C10 UNL     1      31.281  18.174  47.146  1.00  0.00     0.039 C 
BRANCH  14  15
HETATM   15  C11 UNL     1      32.470  18.500  48.003  1.00  0.00     0.005 C 
BRANCH  15  16
HETATM   16  C12 UNL     1      32.222  19.785  48.746  1.00  0.00     0.001 C 
BRANCH  16  17
HETATM   17  C13 UNL     1      31.983  19.537  50.207  1.00  0.00     0.005 C 
BRANCH  17  18
HETATM   18  C14 UNL     1      32.889  20.441  51.023  1.00  0.00     0.038 C 
BRANCH  18  19
HETATM   19  C15 UNL     1      33.925  19.745  51.780  1.00  0.00    -0.058 A 
HETATM   20  C16 UNL     1      33.745  19.325  53.081  1.00  0.00     0.007 A 
HETATM   21  C17 UNL     1      34.762  18.675  53.708  1.00  0.00     0.001 A 
HETATM   22  C18 UNL     1      35.979  18.418  53.077  1.00  0.00     0.000 A 
HETATM   23  C19 UNL     1      36.159  18.838  51.771  1.00  0.00     0.001 A 
HETATM   24  C20 UNL     1      35.138  19.490  51.149  1.00  0.00     0.007 A 
ENDBRANCH  18  19
ENDBRANCH  17  18
ENDBRANCH  16  17
ENDBRANCH  15  16
ENDBRANCH  14  15
ENDBRANCH   9  14
BRANCH   1  25
HETATM   25  O1  UNL     1      29.563  20.725  42.186  1.00  0.00    -0.386 OA
ATOM     26  H1  UNL     1      29.967  21.003  41.372  1.00  0.00     0.210 HD
ENDBRANCH   1  25
TORSDOF 7
ENDMDL
MODEL 5
REMARK VINA RESULT: -10.048936330      1.237      3.889
REMARK  7 active torsions:
REMARK  status: ('A' for Active; 'I' for Inactive)
REMARK    1  A    between atoms: O1_1  and  C1_3 
REMARK    2  A    between atoms: C9_11  and  C10_12 
REMARK    3  A    between atoms: C10_12  and  C11_13 
REMARK    4  A    between atoms: C11_13  and  C12_14 
REMARK    5  A    between atoms: C12_14  and  C13_15 
REMARK    6  A    between atoms: C13_15  and  C14_16 
REMARK    7  A    between atoms: C14_16  and  C15_17 
ROOT
HETATM    1  C1  UNL     1      30.659  20.828  43.190  1.00  0.00     0.186 A 
HETATM    2  C2  UNL     1      31.004  19.575  43.890  1.00  0.00    -0.014 A 
HETATM    3  C3  UNL     1      31.076  18.272  43.382  1.00  0.00     0.011 A 
HETATM    4  C4  UNL     1      31.417  17.248  44.221  1.00  0.00     0.001 A 
HETATM    5  C5  UNL     1      31.677  17.529  45.539  1.00  0.00     0.001 A 
HETATM    6  C6  UNL     1      31.602  18.838  46.042  1.00  0.00     0.013 A 
HETATM    7  C7  UNL     1      31.262  19.873  45.210  1.00  0.00    -0.016 A 
HETATM    8  C8  UNL     1      31.129  21.322  45.443  1.00  0.00    -0.010 A 
HETATM    9  C9  UNL     1      31.303  22.107  46.561  1.00  0.00    -0.046 A 
HETATM   10  C21 UNL     1      31.118  23.479  46.381  1.00  0.00     0.008 A 
HETATM   11  C22 UNL     1      30.780  24.026  45.165  1.00  0.00     0.001 A 
HETATM   12  C23 UNL     1      30.607  23.236  44.062  1.00  0.00     0.011 A 
HETATM   13  C24 UNL     1      30.789  21.863  44.223  1.00  0.00    -0.013 A 
ENDROOT
BRANCH   9  14
HETATM   14  C10 UNL     1      31.614  21.581  47.913  1.00  0.00     0.039 C 
BRANCH  14  15
HETATM   15  C11 UNL     1      30.417  21.492  48.814  1.00  0.00     0.005 C 
BRANCH  15  16
HETATM   16  C12 UNL     1      29.730  20.168  48.615  1.00  0.00     0.001 C 
BRANCH  16  17
HETATM   17  C13 UNL     1      29.905  19.273  49.808  1.00  0.00     0.005 C 
BRANCH  17  18
HETATM   18  C14 UNL     1      31.147  18.423  49.618  1.00  0.00     0.038 C 
BRANCH  18  19
HETATM   19  C15 UNL     1      32.330  18.903  50.327  1.00  0.00    -0.058 A 
HETATM   20  C16 UNL     1      33.538  19.121  49.700  1.00  0.00     0.007 A 
HETATM   21  C17 UNL     1      34.587  19.578  50.435  1.00  0.00     0.001 A 
HETATM   22  C18 UNL     1      34.478  19.834  51.802  1.00  0.00     0.000 A 
HETATM   23  C19 UNL     1      33.265  19.615  52.431  1.00  0.00     0.001 A 
HETATM   24  C20 UNL     1      32.219  19.156  51.689  1.00  0.00     0.007 A 
ENDBRANCH  18  19
ENDBRANCH  17  18
ENDBRANCH  16  17
ENDBRANCH  15  16
ENDBRANCH  14  15
ENDBRANCH   9  14
BRANCH   1  25
HETATM   25  O1  UNL     1      31.494  21.072  42.100  1.00  0.00    -0.386 OA
ATOM     26  H1  UNL     1      32.247  21.601  42.334  1.00  0.00     0.210 HD
ENDBRANCH   1  25
TORSDOF 7
ENDMDL
