MODEL 1
REMARK VINA RESULT: -4.733417694      0.000      0.000
REMARK  3 active torsions:
REMARK  status: ('A' for Active; 'I' for Inactive)
REMARK    1  A    between atoms: C2_2  and  N1_3 
REMARK    2  A    between atoms: C2_2  and  C3_7 
REMARK    3  A    between atoms: C4_10  and  N3_11 
ROOT
HETATM    1  C3  UNL     1      73.483  41.144  44.196  1.00  0.00     0.192 A 
HETATM    2  N2  UNL     1      72.434  41.920  43.826  1.00  0.00    -0.169 N 
ATOM      3  H2  UNL     1      71.551  42.013  44.327  1.00  0.00     0.186 HD
HETATM    4  C4  UNL     1      72.762  42.546  42.685  1.00  0.00     0.698 A 
HETATM    5  N4  UNL     1      74.002  42.148  42.370  1.00  0.00    -0.090 N 
ATOM      6  H4  UNL     1      74.533  42.450  41.554  1.00  0.00     0.213 HD
HETATM    7  O1  UNL     1      74.424  41.303  43.289  1.00  0.00    -0.207 OA
ENDROOT
BRANCH   1   8
HETATM    8  C2  UNL     1      73.619  40.257  45.379  1.00  0.00     0.256 C 
HETATM    9  C1  UNL     1      74.030  38.853  44.965  1.00  0.00     0.049 C 
BRANCH   8  10
HETATM   10  N1  UNL     1      72.419  40.154  46.148  1.00  0.00    -0.068 N 
ATOM     11  H13 UNL     1      72.518  39.535  46.952  1.00  0.00     0.275 HD
ATOM     12  H12 UNL     1      72.204  41.009  46.660  1.00  0.00     0.275 HD
ATOM     13  H11 UNL     1      71.669  39.870  45.519  1.00  0.00     0.275 HD
ENDBRANCH   8  10
ENDBRANCH   1   8
BRANCH   4  14
HETATM   14  N3  UNL     1      72.067  43.374  41.986  1.00  0.00    -0.233 N 
ATOM     15  H32 UNL     1      71.285  43.917  42.350  1.00  0.00     0.174 HD
ATOM     16  H31 UNL     1      72.165  43.625  41.003  1.00  0.00     0.174 HD
ENDBRANCH   4  14
TORSDOF 3
ENDMDL
MODEL 2
REMARK VINA RESULT: -4.426571880      1.836      2.169
REMARK  3 active torsions:
REMARK  status: ('A' for Active; 'I' for Inactive)
REMARK    1  A    between atoms: C2_2  and  N1_3 
REMARK    2  A    between atoms: C2_2  and  C3_7 
REMARK    3  A    between atoms: C4_10  and  N3_11 
ROOT
HETATM    1  C3  UNL     1      73.716  40.026  45.122  1.00  0.00     0.192 A 
HETATM    2  N2  UNL     1      73.458  40.217  43.805  1.00  0.00    -0.169 N 
ATOM      3  H2  UNL     1      73.144  39.504  43.147  1.00  0.00     0.186 HD
HETATM    4  C4  UNL     1      73.686  41.507  43.518  1.00  0.00     0.698 A 
HETATM    5  N4  UNL     1      74.081  42.091  44.659  1.00  0.00    -0.090 N 
ATOM      6  H4  UNL     1      74.329  43.074  44.768  1.00  0.00     0.213 HD
HETATM    7  O1  UNL     1      74.095  41.186  45.617  1.00  0.00    -0.207 OA
ENDROOT
BRANCH   1   8
HETATM    8  C2  UNL     1      73.617  38.780  45.925  1.00  0.00     0.256 C 
HETATM    9  C1  UNL     1      72.871  39.028  47.227  1.00  0.00     0.049 C 
BRANCH   8  10
HETATM   10  N1  UNL     1      74.888  38.215  46.248  1.00  0.00    -0.068 N 
ATOM     11  H13 UNL     1      74.928  37.853  47.201  1.00  0.00     0.275 HD
ATOM     12  H12 UNL     1      75.064  37.336  45.762  1.00  0.00     0.275 HD
ATOM     13  H11 UNL     1      75.600  38.920  46.062  1.00  0.00     0.275 HD
ENDBRANCH   8  10
ENDBRANCH   1   8
BRANCH   4  14
HETATM   14  N3  UNL     1      73.568  42.122  42.394  1.00  0.00    -0.233 N 
ATOM     15  H32 UNL     1      73.015  42.967  42.256  1.00  0.00     0.174 HD
ATOM     16  H31 UNL     1      73.980  41.892  41.489  1.00  0.00     0.174 HD
ENDBRANCH   4  14
TORSDOF 3
ENDMDL
MODEL 3
REMARK VINA RESULT: -4.374455077      1.507      1.822
REMARK  3 active torsions:
REMARK  status: ('A' for Active; 'I' for Inactive)
REMARK    1  A    between atoms: C2_2  and  N1_3 
REMARK    2  A    between atoms: C2_2  and  C3_7 
REMARK    3  A    between atoms: C4_10  and  N3_11 
ROOT
HETATM    1  C3  UNL     1      73.887  40.098  45.250  1.00  0.00     0.192 A 
HETATM    2  N2  UNL     1      73.422  40.054  43.976  1.00  0.00    -0.169 N 
ATOM      3  H2  UNL     1      73.093  39.222  43.487  1.00  0.00     0.186 HD
HETATM    4  C4  UNL     1      73.470  41.297  43.473  1.00  0.00     0.698 A 
HETATM    5  N4  UNL     1      73.961  42.085  44.440  1.00  0.00    -0.090 N 
ATOM      6  H4  UNL     1      74.117  43.090  44.364  1.00  0.00     0.213 HD
HETATM    7  O1  UNL     1      74.209  41.349  45.504  1.00  0.00    -0.207 OA
ENDROOT
BRANCH   1   8
HETATM    8  C2  UNL     1      74.036  38.992  46.230  1.00  0.00     0.256 C 
HETATM    9  C1  UNL     1      74.176  37.652  45.524  1.00  0.00     0.049 C 
BRANCH   8  10
HETATM   10  N1  UNL     1      72.942  38.896  47.142  1.00  0.00    -0.068 N 
ATOM     11  H13 UNL     1      72.718  37.932  47.390  1.00  0.00     0.275 HD
ATOM     12  H12 UNL     1      73.177  39.224  48.078  1.00  0.00     0.275 HD
ATOM     13  H11 UNL     1      72.151  39.394  46.735  1.00  0.00     0.275 HD
ENDBRANCH   8  10
ENDBRANCH   1   8
BRANCH   4  14
HETATM   14  N3  UNL     1      73.126  41.712  42.304  1.00  0.00    -0.233 N 
ATOM     15  H32 UNL     1      73.145  41.138  41.462  1.00  0.00     0.174 HD
ATOM     16  H31 UNL     1      72.793  42.634  42.022  1.00  0.00     0.174 HD
ENDBRANCH   4  14
TORSDOF 3
ENDMDL
MODEL 4
REMARK VINA RESULT: -4.371501151      8.511      9.848
REMARK  3 active torsions:
REMARK  status: ('A' for Active; 'I' for Inactive)
REMARK    1  A    between atoms: C2_2  and  N1_3 
REMARK    2  A    between atoms: C2_2  and  C3_7 
REMARK    3  A    between atoms: C4_10  and  N3_11 
ROOT
HETATM    1  C3  UNL     1      73.938  32.337  44.879  1.00  0.00     0.192 A 
HETATM    2  N2  UNL     1      74.255  31.038  45.105  1.00  0.00    -0.169 N 
ATOM      3  H2  UNL     1      73.782  30.411  45.756  1.00  0.00     0.186 HD
HETATM    4  C4  UNL     1      75.298  30.722  44.323  1.00  0.00     0.698 A 
HETATM    5  N4  UNL     1      75.607  31.827  43.629  1.00  0.00    -0.090 N 
ATOM      6  H4  UNL     1      76.360  31.908  42.945  1.00  0.00     0.213 HD
HETATM    7  O1  UNL     1      74.780  32.792  43.975  1.00  0.00    -0.207 OA
ENDROOT
BRANCH   1   8
HETATM    8  C2  UNL     1      72.864  33.159  45.494  1.00  0.00     0.256 C 
HETATM    9  C1  UNL     1      73.393  34.522  45.916  1.00  0.00     0.049 C 
BRANCH   8  10
HETATM   10  N1  UNL     1      72.270  32.546  46.639  1.00  0.00    -0.068 N 
ATOM     11  H13 UNL     1      72.475  31.549  46.704  1.00  0.00     0.275 HD
ATOM     12  H12 UNL     1      72.710  32.832  47.513  1.00  0.00     0.275 HD
ATOM     13  H11 UNL     1      71.270  32.743  46.616  1.00  0.00     0.275 HD
ENDBRANCH   8  10
ENDBRANCH   1   8
BRANCH   4  14
HETATM   14  N3  UNL     1      75.921  29.601  44.215  1.00  0.00    -0.233 N 
ATOM     15  H32 UNL     1      75.493  28.737  43.884  1.00  0.00     0.174 HD
ATOM     16  H31 UNL     1      76.894  29.384  44.427  1.00  0.00     0.174 HD
ENDBRANCH   4  14
TORSDOF 3
ENDMDL
MODEL 5
REMARK VINA RESULT: -4.284233767      8.764      9.935
REMARK  3 active torsions:
REMARK  status: ('A' for Active; 'I' for Inactive)
REMARK    1  A    between atoms: C2_2  and  N1_3 
REMARK    2  A    between atoms: C2_2  and  C3_7 
REMARK    3  A    between atoms: C4_10  and  N3_11 
ROOT
HETATM    1  C3  UNL     1      72.251  33.001  47.593  1.00  0.00     0.192 A 
HETATM    2  N2  UNL     1      72.370  32.605  48.885  1.00  0.00    -0.169 N 
ATOM      3  H2  UNL     1      73.185  32.155  49.301  1.00  0.00     0.186 HD
HETATM    4  C4  UNL     1      71.229  32.911  49.520  1.00  0.00     0.698 A 
HETATM    5  N4  UNL     1      70.427  33.488  48.614  1.00  0.00    -0.090 N 
ATOM      6  H4  UNL     1      69.484  33.834  48.791  1.00  0.00     0.213 HD
HETATM    7  O1  UNL     1      71.055  33.535  47.457  1.00  0.00    -0.207 OA
ENDROOT
BRANCH   1   8
HETATM    8  C2  UNL     1      73.234  32.887  46.485  1.00  0.00     0.256 C 
HETATM    9  C1  UNL     1      73.394  34.214  45.759  1.00  0.00     0.049 C 
BRANCH   8  10
HETATM   10  N1  UNL     1      72.882  31.897  45.518  1.00  0.00    -0.068 N 
ATOM     11  H13 UNL     1      73.692  31.518  45.028  1.00  0.00     0.275 HD
ATOM     12  H12 UNL     1      72.560  31.028  45.942  1.00  0.00     0.275 HD
ATOM     13  H11 UNL     1      72.194  32.308  44.887  1.00  0.00     0.275 HD
ENDBRANCH   8  10
ENDBRANCH   1   8
BRANCH   4  14
HETATM   14  N3  UNL     1      70.908  32.715  50.751  1.00  0.00    -0.233 N 
ATOM     15  H32 UNL     1      70.733  33.460  51.424  1.00  0.00     0.174 HD
ATOM     16  H31 UNL     1      70.779  31.835  51.249  1.00  0.00     0.174 HD
ENDBRANCH   4  14
TORSDOF 3
ENDMDL
