MODEL 1
REMARK VINA RESULT: -4.738468612      0.000      0.000
REMARK  3 active torsions:
REMARK  status: ('A' for Active; 'I' for Inactive)
REMARK    1  A    between atoms: N1_1  and  C1_4 
REMARK    2  A    between atoms: C4_11  and  N4_12 
REMARK    3  A    between atoms: N4_12  and  N5_14 
ROOT
HETATM    1  C1  UNL     1      73.140  31.650  44.865  1.00  0.00     0.142 A 
HETATM    2  N2  UNL     1      72.348  32.440  45.642  1.00  0.00    -0.284 N 
ATOM      3  H2  UNL     1      71.428  32.133  45.955  1.00  0.00     0.188 HD
HETATM    4  N3  UNL     1      72.833  33.618  45.969  1.00  0.00    -0.310 N 
ATOM      5  H3  UNL     1      72.265  34.235  46.551  1.00  0.00     0.186 HD
HETATM    6  C2  UNL     1      74.044  34.043  45.569  1.00  0.00     0.109 A 
HETATM    7  C3  UNL     1      74.859  33.262  44.784  1.00  0.00     0.053 A 
HETATM    8  C4  UNL     1      74.380  32.016  44.422  1.00  0.00     0.093 A 
ENDROOT
BRANCH   8   9
HETATM    9  N4  UNL     1      75.239  31.244  43.619  1.00  0.00    -0.304 N 
ATOM     10  H4  UNL     1      75.289  31.458  42.623  1.00  0.00     0.186 HD
BRANCH   9  11
HETATM   11  N5  UNL     1      76.022  30.210  44.105  1.00  0.00    -0.345 N 
ATOM     12  H52 UNL     1      76.201  30.195  45.109  1.00  0.00     0.176 HD
ATOM     13  H51 UNL     1      76.420  29.477  43.517  1.00  0.00     0.176 HD
ENDBRANCH   9  11
ENDBRANCH   8   9
BRANCH   1  14
HETATM   14  N1  UNL     1      72.655  30.506  44.554  1.00  0.00    -0.383 N 
ATOM     15  H12 UNL     1      72.026  30.413  43.757  1.00  0.00     0.157 HD
ATOM     16  H11 UNL     1      72.940  29.727  45.147  1.00  0.00     0.157 HD
ENDBRANCH   1  14
TORSDOF 3
ENDMDL
MODEL 2
REMARK VINA RESULT: -4.478980148      1.349      2.475
REMARK  3 active torsions:
REMARK  status: ('A' for Active; 'I' for Inactive)
REMARK    1  A    between atoms: N1_1  and  C1_4 
REMARK    2  A    between atoms: C4_11  and  N4_12 
REMARK    3  A    between atoms: N4_12  and  N5_14 
ROOT
HETATM    1  C1  UNL     1      74.768  32.632  44.632  1.00  0.00     0.142 A 
HETATM    2  N2  UNL     1      74.899  33.957  44.919  1.00  0.00    -0.284 N 
ATOM      3  H2  UNL     1      75.717  34.491  44.626  1.00  0.00     0.188 HD
HETATM    4  N3  UNL     1      73.916  34.512  45.595  1.00  0.00    -0.310 N 
ATOM      5  H3  UNL     1      73.982  35.504  45.828  1.00  0.00     0.186 HD
HETATM    6  C2  UNL     1      72.828  33.828  45.991  1.00  0.00     0.109 A 
HETATM    7  C3  UNL     1      72.677  32.490  45.711  1.00  0.00     0.053 A 
HETATM    8  C4  UNL     1      73.692  31.876  45.002  1.00  0.00     0.093 A 
ENDROOT
BRANCH   8   9
HETATM    9  N4  UNL     1      73.503  30.507  44.733  1.00  0.00    -0.304 N 
ATOM     10  H4  UNL     1      74.310  29.887  44.802  1.00  0.00     0.186 HD
BRANCH   9  11
HETATM   11  N5  UNL     1      72.283  29.955  44.378  1.00  0.00    -0.345 N 
ATOM     12  H52 UNL     1      72.146  28.964  44.576  1.00  0.00     0.176 HD
ATOM     13  H51 UNL     1      71.530  30.484  43.937  1.00  0.00     0.176 HD
ENDBRANCH   9  11
ENDBRANCH   8   9
BRANCH   1  14
HETATM   14  N1  UNL     1      75.732  32.105  43.973  1.00  0.00    -0.383 N 
ATOM     15  H12 UNL     1      75.987  32.468  43.055  1.00  0.00     0.157 HD
ATOM     16  H11 UNL     1      76.206  31.325  44.427  1.00  0.00     0.157 HD
ENDBRANCH   1  14
TORSDOF 3
ENDMDL
MODEL 3
REMARK VINA RESULT: -4.458105316      0.922      3.086
REMARK  3 active torsions:
REMARK  status: ('A' for Active; 'I' for Inactive)
REMARK    1  A    between atoms: N1_1  and  C1_4 
REMARK    2  A    between atoms: C4_11  and  N4_12 
REMARK    3  A    between atoms: N4_12  and  N5_14 
ROOT
HETATM    1  C1  UNL     1      73.667  30.946  44.505  1.00  0.00     0.142 A 
HETATM    2  N2  UNL     1      74.765  30.319  43.997  1.00  0.00    -0.284 N 
ATOM      3  H2  UNL     1      74.724  29.359  43.656  1.00  0.00     0.188 HD
HETATM    4  N3  UNL     1      75.880  31.017  43.968  1.00  0.00    -0.310 N 
ATOM      5  H3  UNL     1      76.721  30.578  43.594  1.00  0.00     0.186 HD
HETATM    6  C2  UNL     1      75.956  32.284  44.411  1.00  0.00     0.109 A 
HETATM    7  C3  UNL     1      74.860  32.935  44.927  1.00  0.00     0.053 A 
HETATM    8  C4  UNL     1      73.672  32.230  44.972  1.00  0.00     0.093 A 
ENDROOT
BRANCH   8   9
HETATM    9  N4  UNL     1      72.571  32.926  45.505  1.00  0.00    -0.304 N 
ATOM     10  H4  UNL     1      72.082  33.589  44.903  1.00  0.00     0.186 HD
BRANCH   9  11
HETATM   11  N5  UNL     1      72.114  32.763  46.802  1.00  0.00    -0.345 N 
ATOM     12  H52 UNL     1      72.377  31.902  47.283  1.00  0.00     0.176 HD
ATOM     13  H51 UNL     1      71.538  33.450  47.290  1.00  0.00     0.176 HD
ENDBRANCH   9  11
ENDBRANCH   8   9
BRANCH   1  14
HETATM   14  N1  UNL     1      72.589  30.254  44.526  1.00  0.00    -0.383 N 
ATOM     15  H12 UNL     1      72.602  29.291  44.862  1.00  0.00     0.157 HD
ATOM     16  H11 UNL     1      71.750  30.728  44.193  1.00  0.00     0.157 HD
ENDBRANCH   1  14
TORSDOF 3
ENDMDL
MODEL 4
REMARK VINA RESULT: -4.388295132      1.878      3.082
REMARK  3 active torsions:
REMARK  status: ('A' for Active; 'I' for Inactive)
REMARK    1  A    between atoms: N1_1  and  C1_4 
REMARK    2  A    between atoms: C4_11  and  N4_12 
REMARK    3  A    between atoms: N4_12  and  N5_14 
ROOT
HETATM    1  C1  UNL     1      74.048  31.171  44.716  1.00  0.00     0.142 A 
HETATM    2  N2  UNL     1      74.797  31.233  43.580  1.00  0.00    -0.284 N 
ATOM      3  H2  UNL     1      74.414  30.974  42.671  1.00  0.00     0.188 HD
HETATM    4  N3  UNL     1      76.039  31.642  43.716  1.00  0.00    -0.310 N 
ATOM      5  H3  UNL     1      76.629  31.699  42.886  1.00  0.00     0.186 HD
HETATM    6  C2  UNL     1      76.565  31.989  44.905  1.00  0.00     0.109 A 
HETATM    7  C3  UNL     1      75.825  31.934  46.063  1.00  0.00     0.053 A 
HETATM    8  C4  UNL     1      74.515  31.508  45.955  1.00  0.00     0.093 A 
ENDROOT
BRANCH   8   9
HETATM    9  N4  UNL     1      73.788  31.465  47.160  1.00  0.00    -0.304 N 
ATOM     10  H4  UNL     1      73.019  32.124  47.282  1.00  0.00     0.186 HD
BRANCH   9  11
HETATM   11  N5  UNL     1      74.058  30.578  48.188  1.00  0.00    -0.345 N 
ATOM     12  H52 UNL     1      73.796  29.603  48.043  1.00  0.00     0.176 HD
ATOM     13  H51 UNL     1      74.499  30.849  49.068  1.00  0.00     0.176 HD
ENDBRANCH   9  11
ENDBRANCH   8   9
BRANCH   1  14
HETATM   14  N1  UNL     1      72.840  30.771  44.568  1.00  0.00    -0.383 N 
ATOM     15  H12 UNL     1      72.474  30.014  45.145  1.00  0.00     0.157 HD
ATOM     16  H11 UNL     1      72.296  31.253  43.853  1.00  0.00     0.157 HD
ENDBRANCH   1  14
TORSDOF 3
ENDMDL
MODEL 5
REMARK VINA RESULT: -4.276605553      3.301      5.166
REMARK  3 active torsions:
REMARK  status: ('A' for Active; 'I' for Inactive)
REMARK    1  A    between atoms: N1_1  and  C1_4 
REMARK    2  A    between atoms: C4_11  and  N4_12 
REMARK    3  A    between atoms: N4_12  and  N5_14 
ROOT
HETATM    1  C1  UNL     1      72.297  34.993  48.017  1.00  0.00     0.142 A 
HETATM    2  N2  UNL     1      73.295  35.397  47.184  1.00  0.00    -0.284 N 
ATOM      3  H2  UNL     1      73.841  36.238  47.370  1.00  0.00     0.188 HD
HETATM    4  N3  UNL     1      73.518  34.648  46.126  1.00  0.00    -0.310 N 
ATOM      5  H3  UNL     1      74.259  34.922  45.480  1.00  0.00     0.186 HD
HETATM    6  C2  UNL     1      72.812  33.535  45.861  1.00  0.00     0.109 A 
HETATM    7  C3  UNL     1      71.800  33.109  46.689  1.00  0.00     0.053 A 
HETATM    8  C4  UNL     1      71.538  33.875  47.810  1.00  0.00     0.093 A 
ENDROOT
BRANCH   8   9
HETATM    9  N4  UNL     1      70.497  33.410  48.635  1.00  0.00    -0.304 N 
ATOM     10  H4  UNL     1      69.537  33.620  48.363  1.00  0.00     0.186 HD
BRANCH   9  11
HETATM   11  N5  UNL     1      70.704  32.682  49.796  1.00  0.00    -0.345 N 
ATOM     12  H52 UNL     1      70.199  31.801  49.888  1.00  0.00     0.176 HD
ATOM     13  H51 UNL     1      71.325  32.982  50.548  1.00  0.00     0.176 HD
ENDBRANCH   9  11
ENDBRANCH   8   9
BRANCH   1  14
HETATM   14  N1  UNL     1      72.091  35.732  49.043  1.00  0.00    -0.383 N 
ATOM     15  H12 UNL     1      71.189  36.191  49.173  1.00  0.00     0.157 HD
ATOM     16  H11 UNL     1      72.872  35.820  49.692  1.00  0.00     0.157 HD
ENDBRANCH   1  14
TORSDOF 3
ENDMDL
