MODEL 1
REMARK VINA RESULT: -7.144695000      0.000      0.000
REMARK  10 active torsions:
REMARK  status: ('A' for Active; 'I' for Inactive)
REMARK    1  A    between atoms: C2_2  and  C3_3 
REMARK    2  A    between atoms: C3_3  and  N1_4 
REMARK       I    between atoms: N1_4  and  C4_6 
REMARK    3  A    between atoms: C4_6  and  C5_8 
REMARK    4  A    between atoms: C12_20  and  N4_21 
REMARK       I    between atoms: N4_21  and  C13_23 
REMARK       I    between atoms: C13_23  and  N5_25 
REMARK    5  A    between atoms: N5_25  and  C14_27 
REMARK    6  A    between atoms: C14_27  and  C15_28 
REMARK    7  A    between atoms: C15_28  and  C16_29 
REMARK    8  A    between atoms: C16_29  and  N6_30 
REMARK    9  A    between atoms: N6_30  and  C19_33 
REMARK   10  A    between atoms: C19_33  and  C20_34 
ROOT
HETATM    1  C5  UNL     1      11.523  -4.373  22.532  1.00  0.00     0.208 C 
HETATM    2  N2  UNL     1      11.249  -4.528  23.961  1.00  0.00    -0.344 N 
ATOM      3  H2  UNL     1      10.391  -5.008  24.232  1.00  0.00     0.163 HD
HETATM    4  C6  UNL     1      12.098  -4.054  24.992  1.00  0.00     0.241 C 
HETATM    5  O2  UNL     1      11.721  -4.321  26.178  1.00  0.00    -0.271 OA
HETATM    6  C7  UNL     1      13.345  -3.304  24.888  1.00  0.00     0.179 C 
HETATM    7  C8  UNL     1      14.135  -3.528  26.174  1.00  0.00     0.037 C 
HETATM    8  C9  UNL     1      15.569  -3.679  25.782  1.00  0.00     0.022 C 
HETATM    9  C10 UNL     1      15.576  -3.282  24.310  1.00  0.00     0.127 C 
HETATM   10  N3  UNL     1      14.261  -3.748  23.897  1.00  0.00    -0.337 N 
HETATM   11  C11 UNL     1      14.008  -4.495  22.726  1.00  0.00     0.246 C 
HETATM   12  O3  UNL     1      15.002  -4.627  21.967  1.00  0.00    -0.271 OA
HETATM   13  C12 UNL     1      12.791  -5.129  22.264  1.00  0.00     0.210 C 
ENDROOT
BRANCH  13  14
HETATM   14  N4  UNL     1      12.739  -6.465  22.816  1.00  0.00    -0.327 N 
HETATM   15  C13 UNL     1      12.774  -7.608  21.968  1.00  0.00     0.316 C 
HETATM   16  O4  UNL     1      12.853  -7.418  20.726  1.00  0.00    -0.247 OA
HETATM   17  N5  UNL     1      12.724  -8.928  22.458  1.00  0.00    -0.343 N 
ATOM     18  H5  UNL     1      12.660  -9.103  23.461  1.00  0.00     0.164 HD
ATOM     19  H4  UNL     1      12.678  -6.590  23.827  1.00  0.00     0.165 HD
BRANCH  17  20
HETATM   20  C14 UNL     1      12.764 -10.036  21.528  1.00  0.00     0.126 C 
BRANCH  20  21
HETATM   21  C15 UNL     1      13.654 -11.147  22.013  1.00  0.00     0.048 C 
BRANCH  21  22
HETATM   22  C16 UNL     1      13.273 -11.737  23.292  1.00  0.00     0.238 C 
BRANCH  22  23
HETATM   23  N6  UNL     1      12.524 -12.925  23.411  1.00  0.00    -0.074 N 
HETATM   24  C17 UNL     1      12.106 -13.614  22.245  1.00  0.00     0.272 C 
HETATM   25  C18 UNL     1      11.202 -12.474  23.967  1.00  0.00     0.272 C 
BRANCH  23  26
HETATM   26  C19 UNL     1      12.960 -13.795  24.478  1.00  0.00     0.244 C 
BRANCH  26  27
HETATM   27  C20 UNL     1      14.025 -14.747  24.368  1.00  0.00    -0.027 C 
HETATM   28  C21 UNL     1      15.298 -14.345  23.654  1.00  0.00     0.016 C 
HETATM   29  C22 UNL     1      13.741 -16.162  23.950  1.00  0.00     0.016 C 
HETATM   30  C23 UNL     1      14.526 -14.944  25.838  1.00  0.00     0.016 C 
ENDBRANCH  26  27
ENDBRANCH  23  26
ENDBRANCH  22  23
ENDBRANCH  21  22
ENDBRANCH  20  21
ENDBRANCH  17  20
ENDBRANCH  13  14
BRANCH   1  31
HETATM   31  C4  UNL     1      10.386  -4.946  21.811  1.00  0.00     0.243 C 
HETATM   32  N1  UNL     1       9.941  -4.332  20.608  1.00  0.00    -0.356 N 
ATOM     33  H1  UNL     1      10.426  -3.500  20.272  1.00  0.00     0.162 HD
HETATM   34  O1  UNL     1       9.757  -5.972  22.188  1.00  0.00    -0.271 OA
BRANCH  32  35
HETATM   35  C3  UNL     1       8.822  -4.845  19.841  1.00  0.00     0.149 C 
BRANCH  35  36
HETATM   36  C2  UNL     1       7.733  -3.831  19.693  1.00  0.00    -0.018 C 
HETATM   37  C1  UNL     1       7.473  -2.990  20.678  1.00  0.00     0.008 C 
ENDBRANCH  35  36
ENDBRANCH  32  35
ENDBRANCH   1  31
TORSDOF 10
ENDMDL
MODEL 2
REMARK VINA RESULT: -6.981317585      0.906      1.398
REMARK  10 active torsions:
REMARK  status: ('A' for Active; 'I' for Inactive)
REMARK    1  A    between atoms: C2_2  and  C3_3 
REMARK    2  A    between atoms: C3_3  and  N1_4 
REMARK       I    between atoms: N1_4  and  C4_6 
REMARK    3  A    between atoms: C4_6  and  C5_8 
REMARK    4  A    between atoms: C12_20  and  N4_21 
REMARK       I    between atoms: N4_21  and  C13_23 
REMARK       I    between atoms: C13_23  and  N5_25 
REMARK    5  A    between atoms: N5_25  and  C14_27 
REMARK    6  A    between atoms: C14_27  and  C15_28 
REMARK    7  A    between atoms: C15_28  and  C16_29 
REMARK    8  A    between atoms: C16_29  and  N6_30 
REMARK    9  A    between atoms: N6_30  and  C19_33 
REMARK   10  A    between atoms: C19_33  and  C20_34 
ROOT
HETATM    1  C5  UNL     1      11.552  -4.397  22.513  1.00  0.00     0.208 C 
HETATM    2  N2  UNL     1      11.269  -4.543  23.941  1.00  0.00    -0.344 N 
ATOM      3  H2  UNL     1      10.409  -5.022  24.210  1.00  0.00     0.163 HD
HETATM    4  C6  UNL     1      12.111  -4.062  24.975  1.00  0.00     0.241 C 
HETATM    5  O2  UNL     1      11.727  -4.322  26.161  1.00  0.00    -0.271 OA
HETATM    6  C7  UNL     1      13.358  -3.312  24.874  1.00  0.00     0.179 C 
HETATM    7  C8  UNL     1      14.140  -3.527  26.166  1.00  0.00     0.037 C 
HETATM    8  C9  UNL     1      15.577  -3.679  25.785  1.00  0.00     0.022 C 
HETATM    9  C10 UNL     1      15.593  -3.292  24.310  1.00  0.00     0.127 C 
HETATM   10  N3  UNL     1      14.281  -3.762  23.892  1.00  0.00    -0.337 N 
HETATM   11  C11 UNL     1      14.036  -4.516  22.723  1.00  0.00     0.246 C 
HETATM   12  O3  UNL     1      15.035  -4.653  21.972  1.00  0.00    -0.271 OA
HETATM   13  C12 UNL     1      12.822  -5.154  22.259  1.00  0.00     0.210 C 
ENDROOT
BRANCH  13  14
HETATM   14  N4  UNL     1      12.768  -6.487  22.819  1.00  0.00    -0.327 N 
HETATM   15  C13 UNL     1      12.829  -7.635  21.981  1.00  0.00     0.316 C 
HETATM   16  O4  UNL     1      12.934  -7.454  20.739  1.00  0.00    -0.247 OA
HETATM   17  N5  UNL     1      12.777  -8.953  22.479  1.00  0.00    -0.343 N 
ATOM     18  H5  UNL     1      12.693  -9.120  23.482  1.00  0.00     0.164 HD
ATOM     19  H4  UNL     1      12.685  -6.605  23.829  1.00  0.00     0.165 HD
BRANCH  17  20
HETATM   20  C14 UNL     1      12.846 -10.066  21.557  1.00  0.00     0.126 C 
BRANCH  20  21
HETATM   21  C15 UNL     1      13.671 -11.199  22.103  1.00  0.00     0.048 C 
BRANCH  21  22
HETATM   22  C16 UNL     1      13.144 -12.535  21.843  1.00  0.00     0.238 C 
BRANCH  22  23
HETATM   23  N6  UNL     1      13.956 -13.651  21.559  1.00  0.00    -0.074 N 
HETATM   24  C17 UNL     1      15.213 -13.468  20.930  1.00  0.00     0.272 C 
HETATM   25  C18 UNL     1      13.204 -14.391  20.487  1.00  0.00     0.272 C 
BRANCH  23  26
HETATM   26  C19 UNL     1      13.965 -14.656  22.596  1.00  0.00     0.244 C 
BRANCH  26  27
HETATM   27  C20 UNL     1      13.976 -14.376  24.002  1.00  0.00    -0.027 C 
HETATM   28  C21 UNL     1      12.723 -13.831  24.651  1.00  0.00     0.016 C 
HETATM   29  C22 UNL     1      15.125 -13.629  24.618  1.00  0.00     0.016 C 
HETATM   30  C23 UNL     1      14.109 -15.780  24.679  1.00  0.00     0.016 C 
ENDBRANCH  26  27
ENDBRANCH  23  26
ENDBRANCH  22  23
ENDBRANCH  21  22
ENDBRANCH  20  21
ENDBRANCH  17  20
ENDBRANCH  13  14
BRANCH   1  31
HETATM   31  C4  UNL     1      10.420  -4.976  21.789  1.00  0.00     0.243 C 
HETATM   32  N1  UNL     1      10.008  -4.395  20.559  1.00  0.00    -0.356 N 
ATOM     33  H1  UNL     1      10.513  -3.582  20.206  1.00  0.00     0.162 HD
HETATM   34  O1  UNL     1       9.768  -5.979  22.186  1.00  0.00    -0.271 OA
BRANCH  32  35
HETATM   35  C3  UNL     1       8.895  -4.914  19.786  1.00  0.00     0.149 C 
BRANCH  35  36
HETATM   36  C2  UNL     1       7.804  -3.905  19.627  1.00  0.00    -0.018 C 
HETATM   37  C1  UNL     1       7.542  -3.053  20.602  1.00  0.00     0.008 C 
ENDBRANCH  35  36
ENDBRANCH  32  35
ENDBRANCH   1  31
TORSDOF 10
ENDMDL
MODEL 3
REMARK VINA RESULT: -6.938752208      2.765      5.144
REMARK  10 active torsions:
REMARK  status: ('A' for Active; 'I' for Inactive)
REMARK    1  A    between atoms: C2_2  and  C3_3 
REMARK    2  A    between atoms: C3_3  and  N1_4 
REMARK       I    between atoms: N1_4  and  C4_6 
REMARK    3  A    between atoms: C4_6  and  C5_8 
REMARK    4  A    between atoms: C12_20  and  N4_21 
REMARK       I    between atoms: N4_21  and  C13_23 
REMARK       I    between atoms: C13_23  and  N5_25 
REMARK    5  A    between atoms: N5_25  and  C14_27 
REMARK    6  A    between atoms: C14_27  and  C15_28 
REMARK    7  A    between atoms: C15_28  and  C16_29 
REMARK    8  A    between atoms: C16_29  and  N6_30 
REMARK    9  A    between atoms: N6_30  and  C19_33 
REMARK   10  A    between atoms: C19_33  and  C20_34 
ROOT
HETATM    1  C5  UNL     1      13.829  -4.483  21.300  1.00  0.00     0.208 C 
HETATM    2  N2  UNL     1      15.192  -4.399  20.774  1.00  0.00    -0.344 N 
ATOM      3  H2  UNL     1      15.964  -4.472  21.436  1.00  0.00     0.163 HD
HETATM    4  C6  UNL     1      15.509  -4.222  19.404  1.00  0.00     0.241 C 
HETATM    5  O2  UNL     1      16.751  -4.218  19.124  1.00  0.00    -0.271 OA
HETATM    6  C7  UNL     1      14.613  -4.043  18.266  1.00  0.00     0.179 C 
HETATM    7  C8  UNL     1      15.367  -4.459  17.006  1.00  0.00     0.037 C 
HETATM    8  C9  UNL     1      14.399  -5.202  16.144  1.00  0.00     0.022 C 
HETATM    9  C10 UNL     1      13.059  -4.962  16.833  1.00  0.00     0.127 C 
HETATM   10  N3  UNL     1      13.477  -4.896  18.225  1.00  0.00    -0.337 N 
HETATM   11  C11 UNL     1      12.836  -5.572  19.286  1.00  0.00     0.246 C 
HETATM   12  O3  UNL     1      11.767  -6.152  18.964  1.00  0.00    -0.271 OA
HETATM   13  C12 UNL     1      13.215  -5.702  20.677  1.00  0.00     0.210 C 
ENDROOT
BRANCH  13  14
HETATM   14  N4  UNL     1      14.077  -6.856  20.806  1.00  0.00    -0.327 N 
HETATM   15  C13 UNL     1      13.568  -8.101  21.271  1.00  0.00     0.316 C 
HETATM   16  O4  UNL     1      12.344  -8.165  21.565  1.00  0.00    -0.247 OA
HETATM   17  N5  UNL     1      14.368  -9.252  21.416  1.00  0.00    -0.343 N 
ATOM     18  H5  UNL     1      15.361  -9.221  21.183  1.00  0.00     0.164 HD
ATOM     19  H4  UNL     1      15.064  -6.778  20.559  1.00  0.00     0.165 HD
BRANCH  17  20
HETATM   20  C14 UNL     1      13.771 -10.480  21.896  1.00  0.00     0.126 C 
BRANCH  20  21
HETATM   21  C15 UNL     1      13.633 -11.504  20.804  1.00  0.00     0.048 C 
BRANCH  21  22
HETATM   22  C16 UNL     1      13.198 -12.826  21.241  1.00  0.00     0.238 C 
BRANCH  22  23
HETATM   23  N6  UNL     1      14.061 -13.935  21.351  1.00  0.00    -0.074 N 
HETATM   24  C17 UNL     1      15.427 -13.803  20.996  1.00  0.00     0.272 C 
HETATM   25  C18 UNL     1      13.578 -14.884  20.290  1.00  0.00     0.272 C 
BRANCH  23  26
HETATM   26  C19 UNL     1      13.840 -14.743  22.527  1.00  0.00     0.244 C 
BRANCH  26  27
HETATM   27  C20 UNL     1      13.799 -14.236  23.867  1.00  0.00    -0.027 C 
HETATM   28  C21 UNL     1      12.521 -13.603  24.373  1.00  0.00     0.016 C 
HETATM   29  C22 UNL     1      14.922 -13.390  24.395  1.00  0.00     0.016 C 
HETATM   30  C23 UNL     1      13.909 -15.510  24.770  1.00  0.00     0.016 C 
ENDBRANCH  26  27
ENDBRANCH  23  26
ENDBRANCH  22  23
ENDBRANCH  21  22
ENDBRANCH  20  21
ENDBRANCH  17  20
ENDBRANCH  13  14
BRANCH   1  31
HETATM   31  C4  UNL     1      13.936  -4.611  22.754  1.00  0.00     0.243 C 
HETATM   32  N1  UNL     1      14.794  -3.733  23.470  1.00  0.00    -0.356 N 
ATOM     33  H1  UNL     1      15.319  -3.028  22.952  1.00  0.00     0.162 HD
HETATM   34  O1  UNL     1      13.306  -5.465  23.434  1.00  0.00    -0.271 OA
BRANCH  32  35
HETATM   35  C3  UNL     1      14.950  -3.801  24.911  1.00  0.00     0.149 C 
BRANCH  35  36
HETATM   36  C2  UNL     1      13.929  -2.973  25.624  1.00  0.00    -0.018 C 
HETATM   37  C1  UNL     1      13.044  -3.552  26.416  1.00  0.00     0.008 C 
ENDBRANCH  35  36
ENDBRANCH  32  35
ENDBRANCH   1  31
TORSDOF 10
ENDMDL
MODEL 4
REMARK VINA RESULT: -6.889381687      0.611      1.030
REMARK  10 active torsions:
REMARK  status: ('A' for Active; 'I' for Inactive)
REMARK    1  A    between atoms: C2_2  and  C3_3 
REMARK    2  A    between atoms: C3_3  and  N1_4 
REMARK       I    between atoms: N1_4  and  C4_6 
REMARK    3  A    between atoms: C4_6  and  C5_8 
REMARK    4  A    between atoms: C12_20  and  N4_21 
REMARK       I    between atoms: N4_21  and  C13_23 
REMARK       I    between atoms: C13_23  and  N5_25 
REMARK    5  A    between atoms: N5_25  and  C14_27 
REMARK    6  A    between atoms: C14_27  and  C15_28 
REMARK    7  A    between atoms: C15_28  and  C16_29 
REMARK    8  A    between atoms: C16_29  and  N6_30 
REMARK    9  A    between atoms: N6_30  and  C19_33 
REMARK   10  A    between atoms: C19_33  and  C20_34 
ROOT
HETATM    1  C5  UNL     1      11.591  -4.395  22.493  1.00  0.00     0.208 C 
HETATM    2  N2  UNL     1      11.265  -4.540  23.913  1.00  0.00    -0.344 N 
ATOM      3  H2  UNL     1      10.398  -5.018  24.156  1.00  0.00     0.163 HD
HETATM    4  C6  UNL     1      12.076  -4.057  24.970  1.00  0.00     0.241 C 
HETATM    5  O2  UNL     1      11.656  -4.315  26.144  1.00  0.00    -0.271 OA
HETATM    6  C7  UNL     1      13.325  -3.307  24.906  1.00  0.00     0.179 C 
HETATM    7  C8  UNL     1      14.068  -3.521  26.221  1.00  0.00     0.037 C 
HETATM    8  C9  UNL     1      15.516  -3.673  25.884  1.00  0.00     0.022 C 
HETATM    9  C10 UNL     1      15.576  -3.288  24.410  1.00  0.00     0.127 C 
HETATM   10  N3  UNL     1      14.277  -3.758  23.953  1.00  0.00    -0.337 N 
HETATM   11  C11 UNL     1      14.068  -4.514  22.778  1.00  0.00     0.246 C 
HETATM   12  O3  UNL     1      15.089  -4.651  22.057  1.00  0.00    -0.271 OA
HETATM   13  C12 UNL     1      12.868  -5.152  22.278  1.00  0.00     0.210 C 
ENDROOT
BRANCH  13  14
HETATM   14  N4  UNL     1      12.797  -6.484  22.838  1.00  0.00    -0.327 N 
HETATM   15  C13 UNL     1      12.762  -7.630  21.995  1.00  0.00     0.316 C 
HETATM   16  O4  UNL     1      12.796  -7.447  20.749  1.00  0.00    -0.247 OA
HETATM   17  N5  UNL     1      12.690  -8.947  22.493  1.00  0.00    -0.343 N 
ATOM     18  H5  UNL     1      12.662  -9.116  23.499  1.00  0.00     0.164 HD
ATOM     19  H4  UNL     1      12.773  -6.604  23.851  1.00  0.00     0.165 HD
BRANCH  17  20
HETATM   20  C14 UNL     1      12.658 -10.058  21.567  1.00  0.00     0.126 C 
BRANCH  20  21
HETATM   21  C15 UNL     1      13.609 -11.152  21.966  1.00  0.00     0.048 C 
BRANCH  21  22
HETATM   22  C16 UNL     1      13.328 -11.784  23.251  1.00  0.00     0.238 C 
BRANCH  22  23
HETATM   23  N6  UNL     1      12.536 -12.941  23.395  1.00  0.00    -0.074 N 
HETATM   24  C17 UNL     1      12.082 -13.632  22.243  1.00  0.00     0.272 C 
HETATM   25  C18 UNL     1      11.237 -12.433  23.955  1.00  0.00     0.272 C 
BRANCH  23  26
HETATM   26  C19 UNL     1      12.949 -13.811  24.471  1.00  0.00     0.244 C 
BRANCH  26  27
HETATM   27  C20 UNL     1      14.011 -14.770  24.382  1.00  0.00    -0.027 C 
HETATM   28  C21 UNL     1      15.285 -14.388  23.661  1.00  0.00     0.016 C 
HETATM   29  C22 UNL     1      13.721 -16.192  23.993  1.00  0.00     0.016 C 
HETATM   30  C23 UNL     1      14.509 -14.938  25.856  1.00  0.00     0.016 C 
ENDBRANCH  26  27
ENDBRANCH  23  26
ENDBRANCH  22  23
ENDBRANCH  21  22
ENDBRANCH  20  21
ENDBRANCH  17  20
ENDBRANCH  13  14
BRANCH   1  31
HETATM   31  C4  UNL     1      10.482  -4.975  21.736  1.00  0.00     0.243 C 
HETATM   32  N1  UNL     1      10.219  -4.512  20.417  1.00  0.00    -0.356 N 
ATOM     33  H1  UNL     1      10.814  -3.781  20.026  1.00  0.00     0.162 HD
HETATM   34  O1  UNL     1       9.723  -5.879  22.178  1.00  0.00    -0.271 OA
BRANCH  32  35
HETATM   35  C3  UNL     1       9.138  -5.040  19.608  1.00  0.00     0.149 C 
BRANCH  35  36
HETATM   36  C2  UNL     1       9.637  -5.671  18.348  1.00  0.00    -0.018 C 
HETATM   37  C1  UNL     1      10.921  -5.614  18.043  1.00  0.00     0.008 C 
ENDBRANCH  35  36
ENDBRANCH  32  35
ENDBRANCH   1  31
TORSDOF 10
ENDMDL
MODEL 5
REMARK VINA RESULT: -6.791175106      3.285      5.852
REMARK  10 active torsions:
REMARK  status: ('A' for Active; 'I' for Inactive)
REMARK    1  A    between atoms: C2_2  and  C3_3 
REMARK    2  A    between atoms: C3_3  and  N1_4 
REMARK       I    between atoms: N1_4  and  C4_6 
REMARK    3  A    between atoms: C4_6  and  C5_8 
REMARK    4  A    between atoms: C12_20  and  N4_21 
REMARK       I    between atoms: N4_21  and  C13_23 
REMARK       I    between atoms: C13_23  and  N5_25 
REMARK    5  A    between atoms: N5_25  and  C14_27 
REMARK    6  A    between atoms: C14_27  and  C15_28 
REMARK    7  A    between atoms: C15_28  and  C16_29 
REMARK    8  A    between atoms: C16_29  and  N6_30 
REMARK    9  A    between atoms: N6_30  and  C19_33 
REMARK   10  A    between atoms: C19_33  and  C20_34 
ROOT
HETATM    1  C5  UNL     1      13.518  -4.516  21.508  1.00  0.00     0.208 C 
HETATM    2  N2  UNL     1      14.910  -4.488  21.057  1.00  0.00    -0.344 N 
ATOM      3  H2  UNL     1      15.642  -4.561  21.764  1.00  0.00     0.163 HD
HETATM    4  C6  UNL     1      15.307  -4.367  19.702  1.00  0.00     0.241 C 
HETATM    5  O2  UNL     1      16.562  -4.408  19.492  1.00  0.00    -0.271 OA
HETATM    6  C7  UNL     1      14.481  -4.202  18.510  1.00  0.00     0.179 C 
HETATM    7  C8  UNL     1      15.290  -4.682  17.309  1.00  0.00     0.037 C 
HETATM    8  C9  UNL     1      14.348  -5.426  16.419  1.00  0.00     0.022 C 
HETATM    9  C10 UNL     1      12.981  -5.126  17.023  1.00  0.00     0.127 C 
HETATM   10  N3  UNL     1      13.324  -5.024  18.433  1.00  0.00    -0.337 N 
HETATM   11  C11 UNL     1      12.605  -5.645  19.478  1.00  0.00     0.246 C 
HETATM   12  O3  UNL     1      11.538  -6.205  19.117  1.00  0.00    -0.271 OA
HETATM   13  C12 UNL     1      12.902  -5.738  20.892  1.00  0.00     0.210 C 
ENDROOT
BRANCH  13  14
HETATM   14  N4  UNL     1      13.721  -6.911  21.106  1.00  0.00    -0.327 N 
HETATM   15  C13 UNL     1      13.153  -8.118  21.602  1.00  0.00     0.316 C 
HETATM   16  O4  UNL     1      11.918  -8.132  21.846  1.00  0.00    -0.247 OA
HETATM   17  N5  UNL     1      13.910  -9.285  21.830  1.00  0.00    -0.343 N 
ATOM     18  H5  UNL     1      14.912  -9.294  21.638  1.00  0.00     0.164 HD
ATOM     19  H4  UNL     1      14.719  -6.873  20.899  1.00  0.00     0.165 HD
BRANCH  17  20
HETATM   20  C14 UNL     1      13.255 -10.472  22.336  1.00  0.00     0.126 C 
BRANCH  20  21
HETATM   21  C15 UNL     1      13.766 -11.723  21.676  1.00  0.00     0.048 C 
BRANCH  21  22
HETATM   22  C16 UNL     1      14.129 -11.581  20.269  1.00  0.00     0.238 C 
BRANCH  22  23
HETATM   23  N6  UNL     1      15.093 -12.385  19.627  1.00  0.00    -0.074 N 
HETATM   24  C17 UNL     1      14.725 -13.163  18.502  1.00  0.00     0.272 C 
HETATM   25  C18 UNL     1      15.404 -13.460  20.631  1.00  0.00     0.272 C 
BRANCH  23  26
HETATM   26  C19 UNL     1      16.394 -11.769  19.510  1.00  0.00     0.244 C 
BRANCH  26  27
HETATM   27  C20 UNL     1      16.633 -10.471  18.953  1.00  0.00    -0.027 C 
HETATM   28  C21 UNL     1      16.779  -9.288  19.886  1.00  0.00     0.016 C 
HETATM   29  C22 UNL     1      15.824  -9.984  17.785  1.00  0.00     0.016 C 
HETATM   30  C23 UNL     1      18.065 -10.571  18.330  1.00  0.00     0.016 C 
ENDBRANCH  26  27
ENDBRANCH  23  26
ENDBRANCH  22  23
ENDBRANCH  21  22
ENDBRANCH  20  21
ENDBRANCH  17  20
ENDBRANCH  13  14
BRANCH   1  31
HETATM   31  C4  UNL     1      13.541  -4.597  22.969  1.00  0.00     0.243 C 
HETATM   32  N1  UNL     1      14.294  -3.646  23.709  1.00  0.00    -0.356 N 
ATOM     33  H1  UNL     1      14.805  -2.922  23.202  1.00  0.00     0.162 HD
HETATM   34  O1  UNL     1      12.925  -5.472  23.636  1.00  0.00    -0.271 OA
BRANCH  32  35
HETATM   35  C3  UNL     1      14.363  -3.664  25.158  1.00  0.00     0.149 C 
BRANCH  35  36
HETATM   36  C2  UNL     1      13.060  -3.287  25.786  1.00  0.00    -0.018 C 
HETATM   37  C1  UNL     1      12.788  -3.660  27.023  1.00  0.00     0.008 C 
ENDBRANCH  35  36
ENDBRANCH  32  35
ENDBRANCH   1  31
TORSDOF 10
ENDMDL
