MODEL 1
REMARK VINA RESULT: -6.616458995      0.000      0.000
REMARK  11 active torsions:
REMARK  status: ('A' for Active; 'I' for Inactive)
REMARK    1  A    between atoms: C2_2  and  C3_3 
REMARK    2  A    between atoms: C3_3  and  C4_4 
REMARK    3  A    between atoms: C5_5  and  C6_6 
REMARK    4  A    between atoms: C6_6  and  C7_7 
REMARK    5  A    between atoms: C7_7  and  C8_8 
REMARK    6  A    between atoms: C8_8  and  C9_9 
REMARK    7  A    between atoms: C13_18  and  O2_19 
REMARK    8  A    between atoms: C18_28  and  C19_29 
REMARK    9  A    between atoms: C19_29  and  C20_30 
REMARK   10  A    between atoms: C20_30  and  C21_31 
REMARK   11  A    between atoms: C21_31  and  N5_32 
ROOT
HETATM    1  C9  UNL     1      12.242 -10.464  20.751  1.00  0.00     0.042 C 
HETATM    2  C10 UNL     1      10.741 -10.253  20.370  1.00  0.00     0.132 C 
HETATM    3  N1  UNL     1       9.874 -10.143  21.481  1.00  0.00    -0.359 N 
ATOM      4  H1  UNL     1       9.731 -10.988  22.034  1.00  0.00     0.162 HD
HETATM    5  C11 UNL     1       9.178  -8.972  21.912  1.00  0.00     0.235 C 
HETATM    6  O1  UNL     1       8.058  -9.101  22.463  1.00  0.00    -0.272 OA
HETATM    7  C12 UNL     1       9.710  -7.590  21.744  1.00  0.00     0.224 C 
HETATM    8  N2  UNL     1       9.606  -7.126  20.388  1.00  0.00    -0.362 N 
ATOM      9  H2  UNL     1       8.927  -7.625  19.813  1.00  0.00     0.162 HD
HETATM   10  C13 UNL     1      10.293  -6.097  19.733  1.00  0.00     0.136 C 
HETATM   11  C14 UNL     1      10.727  -4.802  20.191  1.00  0.00     0.060 C 
HETATM   12  C15 UNL     1      11.564  -4.404  21.115  1.00  0.00     0.068 C 
HETATM   13  C16 UNL     1      12.392  -5.101  22.047  1.00  0.00     0.173 C 
HETATM   14  N3  UNL     1      12.275  -4.717  23.266  1.00  0.00    -0.411 NA
HETATM   15  C17 UNL     1      12.164  -4.293  24.454  1.00  0.00     0.231 C 
HETATM   16  N4  UNL     1      13.335  -6.126  21.899  1.00  0.00    -0.352 N 
ATOM     17  H4  UNL     1      13.510  -6.695  22.727  1.00  0.00     0.163 HD
HETATM   18  C18 UNL     1      14.090  -6.476  20.716  1.00  0.00     0.177 C 
HETATM   19  C22 UNL     1      14.701  -7.828  20.838  1.00  0.00     0.245 C 
HETATM   20  O3  UNL     1      15.718  -7.940  21.586  1.00  0.00    -0.271 OA
HETATM   21  N6  UNL     1      14.260  -9.024  20.190  1.00  0.00    -0.334 N 
HETATM   22  C23 UNL     1      15.275  -9.944  19.625  1.00  0.00     0.158 C 
HETATM   23  C24 UNL     1      12.901  -9.346  20.041  1.00  0.00     0.072 C 
ENDROOT
BRANCH  18  24
HETATM   24  C19 UNL     1      15.281  -5.542  20.635  1.00  0.00     0.036 C 
BRANCH  24  25
HETATM   25  C20 UNL     1      15.102  -4.327  19.809  1.00  0.00     0.030 C 
BRANCH  25  26
HETATM   26  C21 UNL     1      16.110  -4.458  18.648  1.00  0.00     0.230 C 
BRANCH  26  27
HETATM   27  N5  UNL     1      16.970  -3.298  18.692  1.00  0.00    -0.079 N 
ATOM     28  H53 UNL     1      16.674  -2.557  18.056  1.00  0.00     0.274 HD
ATOM     29  H52 UNL     1      16.883  -2.769  19.560  1.00  0.00     0.274 HD
ATOM     30  H51 UNL     1      17.923  -3.618  18.513  1.00  0.00     0.274 HD
ENDBRANCH  26  27
ENDBRANCH  25  26
ENDBRANCH  24  25
ENDBRANCH  18  24
BRANCH  10  31
HETATM   31  O2  UNL     1      10.565  -6.419  18.478  1.00  0.00    -0.346 OA
ATOM     32  H2  UNL     1       9.773  -6.474  17.956  1.00  0.00     0.219 HD
ENDBRANCH  10  31
BRANCH   1  33
HETATM   33  C8  UNL     1      12.344 -10.591  22.201  1.00  0.00     0.012 C 
BRANCH  33  34
HETATM   34  C7  UNL     1      13.531 -11.084  22.883  1.00  0.00     0.004 C 
BRANCH  34  35
HETATM   35  C6  UNL     1      13.775 -12.579  22.756  1.00  0.00     0.027 C 
BRANCH  35  36
HETATM   36  C5  UNL     1      12.940 -13.333  23.744  1.00  0.00    -0.030 C 
HETATM   37  C4  UNL     1      13.395 -14.029  24.737  1.00  0.00    -0.027 C 
BRANCH  37  38
HETATM   38  C3  UNL     1      14.802 -14.230  25.102  1.00  0.00     0.053 C 
BRANCH  38  39
HETATM   39  C2  UNL     1      14.918 -15.315  26.133  1.00  0.00    -0.033 C 
HETATM   40  C1  UNL     1      14.920 -16.582  25.781  1.00  0.00     0.007 C 
ENDBRANCH  38  39
ENDBRANCH  37  38
ENDBRANCH  35  36
ENDBRANCH  34  35
ENDBRANCH  33  34
ENDBRANCH   1  33
TORSDOF 11
ENDMDL
MODEL 2
REMARK VINA RESULT: -6.417753803      0.995      1.685
REMARK  11 active torsions:
REMARK  status: ('A' for Active; 'I' for Inactive)
REMARK    1  A    between atoms: C2_2  and  C3_3 
REMARK    2  A    between atoms: C3_3  and  C4_4 
REMARK    3  A    between atoms: C5_5  and  C6_6 
REMARK    4  A    between atoms: C6_6  and  C7_7 
REMARK    5  A    between atoms: C7_7  and  C8_8 
REMARK    6  A    between atoms: C8_8  and  C9_9 
REMARK    7  A    between atoms: C13_18  and  O2_19 
REMARK    8  A    between atoms: C18_28  and  C19_29 
REMARK    9  A    between atoms: C19_29  and  C20_30 
REMARK   10  A    between atoms: C20_30  and  C21_31 
REMARK   11  A    between atoms: C21_31  and  N5_32 
ROOT
HETATM    1  C9  UNL     1      12.296 -10.335  20.658  1.00  0.00     0.042 C 
HETATM    2  C10 UNL     1      10.786 -10.153  20.304  1.00  0.00     0.132 C 
HETATM    3  N1  UNL     1       9.937 -10.047  21.430  1.00  0.00    -0.359 N 
ATOM      4  H1  UNL     1       9.819 -10.891  21.991  1.00  0.00     0.162 HD
HETATM    5  C11 UNL     1       9.229  -8.885  21.864  1.00  0.00     0.235 C 
HETATM    6  O1  UNL     1       8.122  -9.028  22.436  1.00  0.00    -0.272 OA
HETATM    7  C12 UNL     1       9.735  -7.496  21.675  1.00  0.00     0.224 C 
HETATM    8  N2  UNL     1       9.598  -7.045  20.318  1.00  0.00    -0.362 N 
ATOM      9  H2  UNL     1       8.917  -7.559  19.759  1.00  0.00     0.162 HD
HETATM   10  C13 UNL     1      10.256  -6.009  19.642  1.00  0.00     0.136 C 
HETATM   11  C14 UNL     1      10.676  -4.704  20.082  1.00  0.00     0.060 C 
HETATM   12  C15 UNL     1      11.523  -4.285  20.987  1.00  0.00     0.068 C 
HETATM   13  C16 UNL     1      12.379  -4.960  21.909  1.00  0.00     0.173 C 
HETATM   14  N3  UNL     1      12.278  -4.568  23.127  1.00  0.00    -0.411 NA
HETATM   15  C17 UNL     1      12.182  -4.136  24.314  1.00  0.00     0.231 C 
HETATM   16  N4  UNL     1      13.337  -5.970  21.752  1.00  0.00    -0.352 N 
ATOM     17  H4  UNL     1      13.537  -6.529  22.581  1.00  0.00     0.163 HD
HETATM   18  C18 UNL     1      14.076  -6.317  20.558  1.00  0.00     0.177 C 
HETATM   19  C22 UNL     1      14.712  -7.658  20.679  1.00  0.00     0.245 C 
HETATM   20  O3  UNL     1      15.744  -7.746  21.409  1.00  0.00    -0.271 OA
HETATM   21  N6  UNL     1      14.279  -8.866  20.049  1.00  0.00    -0.334 N 
HETATM   22  C23 UNL     1      15.299  -9.774  19.473  1.00  0.00     0.158 C 
HETATM   23  C24 UNL     1      12.923  -9.212  19.928  1.00  0.00     0.072 C 
ENDROOT
BRANCH  18  24
HETATM   24  C19 UNL     1      15.249  -5.364  20.447  1.00  0.00     0.036 C 
BRANCH  24  25
HETATM   25  C20 UNL     1      15.047  -4.178  19.586  1.00  0.00     0.030 C 
BRANCH  25  26
HETATM   26  C21 UNL     1      16.306  -4.085  18.699  1.00  0.00     0.230 C 
BRANCH  26  27
HETATM   27  N5  UNL     1      16.782  -2.723  18.767  1.00  0.00    -0.079 N 
ATOM     28  H53 UNL     1      16.784  -2.255  17.861  1.00  0.00     0.274 HD
ATOM     29  H52 UNL     1      16.130  -2.096  19.239  1.00  0.00     0.274 HD
ATOM     30  H51 UNL     1      17.703  -2.744  19.206  1.00  0.00     0.274 HD
ENDBRANCH  26  27
ENDBRANCH  25  26
ENDBRANCH  24  25
ENDBRANCH  18  24
BRANCH  10  31
HETATM   31  O2  UNL     1      10.510  -6.337  18.385  1.00  0.00    -0.346 OA
ATOM     32  H2  UNL     1       9.731  -6.661  17.948  1.00  0.00     0.219 HD
ENDBRANCH  10  31
BRANCH   1  33
HETATM   33  C8  UNL     1      12.427 -10.449  22.107  1.00  0.00     0.012 C 
BRANCH  33  34
HETATM   34  C7  UNL     1      13.616 -10.963  22.769  1.00  0.00     0.004 C 
BRANCH  34  35
HETATM   35  C6  UNL     1      13.870 -12.450  22.577  1.00  0.00     0.027 C 
BRANCH  35  36
HETATM   36  C5  UNL     1      13.770 -13.172  23.886  1.00  0.00    -0.030 C 
HETATM   37  C4  UNL     1      12.685 -13.665  24.390  1.00  0.00    -0.027 C 
BRANCH  37  38
HETATM   38  C3  UNL     1      11.340 -13.623  23.803  1.00  0.00     0.053 C 
BRANCH  38  39
HETATM   39  C2  UNL     1      10.384 -12.956  24.750  1.00  0.00    -0.033 C 
HETATM   40  C1  UNL     1      10.100 -11.679  24.632  1.00  0.00     0.007 C 
ENDBRANCH  38  39
ENDBRANCH  37  38
ENDBRANCH  35  36
ENDBRANCH  34  35
ENDBRANCH  33  34
ENDBRANCH   1  33
TORSDOF 11
ENDMDL
MODEL 3
REMARK VINA RESULT: -6.225102681      1.007      1.729
REMARK  11 active torsions:
REMARK  status: ('A' for Active; 'I' for Inactive)
REMARK    1  A    between atoms: C2_2  and  C3_3 
REMARK    2  A    between atoms: C3_3  and  C4_4 
REMARK    3  A    between atoms: C5_5  and  C6_6 
REMARK    4  A    between atoms: C6_6  and  C7_7 
REMARK    5  A    between atoms: C7_7  and  C8_8 
REMARK    6  A    between atoms: C8_8  and  C9_9 
REMARK    7  A    between atoms: C13_18  and  O2_19 
REMARK    8  A    between atoms: C18_28  and  C19_29 
REMARK    9  A    between atoms: C19_29  and  C20_30 
REMARK   10  A    between atoms: C20_30  and  C21_31 
REMARK   11  A    between atoms: C21_31  and  N5_32 
ROOT
HETATM    1  C9  UNL     1      12.559 -10.244  20.679  1.00  0.00     0.042 C 
HETATM    2  C10 UNL     1      11.039 -10.137  20.334  1.00  0.00     0.132 C 
HETATM    3  N1  UNL     1      10.196 -10.040  21.465  1.00  0.00    -0.359 N 
ATOM      4  H1  UNL     1      10.120 -10.873  22.049  1.00  0.00     0.162 HD
HETATM    5  C11 UNL     1       9.441  -8.900  21.877  1.00  0.00     0.235 C 
HETATM    6  O1  UNL     1       8.346  -9.077  22.462  1.00  0.00    -0.272 OA
HETATM    7  C12 UNL     1       9.882  -7.495  21.648  1.00  0.00     0.224 C 
HETATM    8  N2  UNL     1       9.716  -7.085  20.281  1.00  0.00    -0.362 N 
ATOM      9  H2  UNL     1       9.053  -7.643  19.742  1.00  0.00     0.162 HD
HETATM   10  C13 UNL     1      10.321  -6.039  19.573  1.00  0.00     0.136 C 
HETATM   11  C14 UNL     1      10.686  -4.706  19.976  1.00  0.00     0.060 C 
HETATM   12  C15 UNL     1      11.521  -4.226  20.863  1.00  0.00     0.068 C 
HETATM   13  C16 UNL     1      12.414  -4.840  21.793  1.00  0.00     0.173 C 
HETATM   14  N3  UNL     1      12.306  -4.422  23.001  1.00  0.00    -0.411 NA
HETATM   15  C17 UNL     1      12.200  -3.964  24.178  1.00  0.00     0.231 C 
HETATM   16  N4  UNL     1      13.414  -5.810  21.653  1.00  0.00    -0.352 N 
ATOM     17  H4  UNL     1      13.646  -6.338  22.494  1.00  0.00     0.163 HD
HETATM   18  C18 UNL     1      14.158  -6.155  20.461  1.00  0.00     0.177 C 
HETATM   19  C22 UNL     1      14.854  -7.463  20.610  1.00  0.00     0.245 C 
HETATM   20  O3  UNL     1      15.895  -7.487  21.333  1.00  0.00    -0.271 OA
HETATM   21  N6  UNL     1      14.470  -8.705  20.015  1.00  0.00    -0.334 N 
HETATM   22  C23 UNL     1      15.524  -9.581  19.452  1.00  0.00     0.158 C 
HETATM   23  C24 UNL     1      13.129  -9.113  19.915  1.00  0.00     0.072 C 
ENDROOT
BRANCH  18  24
HETATM   24  C19 UNL     1      15.287  -5.154  20.315  1.00  0.00     0.036 C 
BRANCH  24  25
HETATM   25  C20 UNL     1      15.086  -4.085  19.312  1.00  0.00     0.030 C 
BRANCH  25  26
HETATM   26  C21 UNL     1      16.385  -4.042  18.480  1.00  0.00     0.230 C 
BRANCH  26  27
HETATM   27  N5  UNL     1      16.979  -2.739  18.677  1.00  0.00    -0.079 N 
ATOM     28  H53 UNL     1      16.610  -2.033  18.040  1.00  0.00     0.274 HD
ATOM     29  H52 UNL     1      16.689  -2.297  19.549  1.00  0.00     0.274 HD
ATOM     30  H51 UNL     1      17.991  -2.852  18.603  1.00  0.00     0.274 HD
ENDBRANCH  26  27
ENDBRANCH  25  26
ENDBRANCH  24  25
ENDBRANCH  18  24
BRANCH  10  31
HETATM   31  O2  UNL     1      10.579  -6.388  18.323  1.00  0.00    -0.346 OA
ATOM     32  H2  UNL     1      10.530  -5.641  17.738  1.00  0.00     0.219 HD
ENDBRANCH  10  31
BRANCH   1  33
HETATM   33  C8  UNL     1      12.707 -10.314  22.130  1.00  0.00     0.012 C 
BRANCH  33  34
HETATM   34  C7  UNL     1      13.718 -11.120  22.796  1.00  0.00     0.004 C 
BRANCH  34  35
HETATM   35  C6  UNL     1      13.185 -12.313  23.573  1.00  0.00     0.027 C 
BRANCH  35  36
HETATM   36  C5  UNL     1      14.309 -13.208  23.996  1.00  0.00    -0.030 C 
HETATM   37  C4  UNL     1      14.866 -14.115  23.259  1.00  0.00    -0.027 C 
BRANCH  37  38
HETATM   38  C3  UNL     1      14.521 -14.459  21.874  1.00  0.00     0.053 C 
BRANCH  38  39
HETATM   39  C2  UNL     1      15.466 -13.782  20.924  1.00  0.00    -0.033 C 
HETATM   40  C1  UNL     1      15.020 -13.177  19.845  1.00  0.00     0.007 C 
ENDBRANCH  38  39
ENDBRANCH  37  38
ENDBRANCH  35  36
ENDBRANCH  34  35
ENDBRANCH  33  34
ENDBRANCH   1  33
TORSDOF 11
ENDMDL
MODEL 4
REMARK VINA RESULT: -6.015268908      3.220      5.593
REMARK  11 active torsions:
REMARK  status: ('A' for Active; 'I' for Inactive)
REMARK    1  A    between atoms: C2_2  and  C3_3 
REMARK    2  A    between atoms: C3_3  and  C4_4 
REMARK    3  A    between atoms: C5_5  and  C6_6 
REMARK    4  A    between atoms: C6_6  and  C7_7 
REMARK    5  A    between atoms: C7_7  and  C8_8 
REMARK    6  A    between atoms: C8_8  and  C9_9 
REMARK    7  A    between atoms: C13_18  and  O2_19 
REMARK    8  A    between atoms: C18_28  and  C19_29 
REMARK    9  A    between atoms: C19_29  and  C20_30 
REMARK   10  A    between atoms: C20_30  and  C21_31 
REMARK   11  A    between atoms: C21_31  and  N5_32 
ROOT
HETATM    1  C9  UNL     1      14.015  -5.090  16.736  1.00  0.00     0.042 C 
HETATM    2  C10 UNL     1      12.557  -5.268  16.203  1.00  0.00     0.132 C 
HETATM    3  N1  UNL     1      12.221  -6.602  15.878  1.00  0.00    -0.359 N 
ATOM      4  H1  UNL     1      12.687  -7.004  15.064  1.00  0.00     0.162 HD
HETATM    5  C11 UNL     1      11.298  -7.447  16.567  1.00  0.00     0.235 C 
HETATM    6  O1  UNL     1      10.651  -8.300  15.914  1.00  0.00    -0.272 OA
HETATM    7  C12 UNL     1      11.055  -7.373  18.036  1.00  0.00     0.224 C 
HETATM    8  N2  UNL     1      10.255  -6.237  18.402  1.00  0.00    -0.362 N 
ATOM      9  H2  UNL     1       9.706  -5.834  17.641  1.00  0.00     0.162 HD
HETATM   10  C13 UNL     1      10.112  -5.596  19.638  1.00  0.00     0.136 C 
HETATM   11  C14 UNL     1      10.064  -6.118  20.979  1.00  0.00     0.060 C 
HETATM   12  C15 UNL     1      10.917  -6.774  21.725  1.00  0.00     0.068 C 
HETATM   13  C16 UNL     1      12.250  -7.237  21.505  1.00  0.00     0.173 C 
HETATM   14  N3  UNL     1      12.444  -8.475  21.778  1.00  0.00    -0.411 NA
HETATM   15  C17 UNL     1      12.613  -9.691  22.090  1.00  0.00     0.231 C 
HETATM   16  N4  UNL     1      13.415  -6.601  21.060  1.00  0.00    -0.352 N 
ATOM     17  H4  UNL     1      14.122  -7.204  20.640  1.00  0.00     0.163 HD
HETATM   18  C18 UNL     1      13.739  -5.192  21.122  1.00  0.00     0.177 C 
HETATM   19  C22 UNL     1      14.881  -4.853  20.229  1.00  0.00     0.245 C 
HETATM   20  O3  UNL     1      16.040  -5.193  20.615  1.00  0.00    -0.271 OA
HETATM   21  N6  UNL     1      14.808  -4.176  18.972  1.00  0.00    -0.334 N 
HETATM   22  C23 UNL     1      15.828  -3.149  18.655  1.00  0.00     0.158 C 
HETATM   23  C24 UNL     1      13.788  -4.424  18.038  1.00  0.00     0.072 C 
ENDROOT
BRANCH  18  24
HETATM   24  C19 UNL     1      14.264  -4.900  22.514  1.00  0.00     0.036 C 
BRANCH  24  25
HETATM   25  C20 UNL     1      13.378  -4.102  23.391  1.00  0.00     0.030 C 
BRANCH  25  26
HETATM   26  C21 UNL     1      14.298  -3.483  24.464  1.00  0.00     0.230 C 
BRANCH  26  27
HETATM   27  N5  UNL     1      15.662  -3.706  24.042  1.00  0.00    -0.079 N 
ATOM     28  H53 UNL     1      15.772  -3.700  23.028  1.00  0.00     0.274 HD
ATOM     29  H52 UNL     1      16.277  -2.917  24.247  1.00  0.00     0.274 HD
ATOM     30  H51 UNL     1      15.975  -4.577  24.471  1.00  0.00     0.274 HD
ENDBRANCH  26  27
ENDBRANCH  25  26
ENDBRANCH  24  25
ENDBRANCH  18  24
BRANCH  10  31
HETATM   31  O2  UNL     1      10.003  -4.285  19.493  1.00  0.00    -0.346 OA
ATOM     32  H2  UNL     1       9.226  -3.952  19.926  1.00  0.00     0.219 HD
ENDBRANCH  10  31
BRANCH   1  33
HETATM   33  C8  UNL     1      14.700  -6.376  16.665  1.00  0.00     0.012 C 
BRANCH  33  34
HETATM   34  C7  UNL     1      16.145  -6.512  16.570  1.00  0.00     0.004 C 
BRANCH  34  35
HETATM   35  C6  UNL     1      16.725  -7.746  17.243  1.00  0.00     0.027 C 
BRANCH  35  36
HETATM   36  C5  UNL     1      16.045  -7.995  18.555  1.00  0.00    -0.030 C 
HETATM   37  C4  UNL     1      16.293  -8.985  19.353  1.00  0.00    -0.027 C 
BRANCH  37  38
HETATM   38  C3  UNL     1      17.272 -10.059  19.148  1.00  0.00     0.053 C 
BRANCH  38  39
HETATM   39  C2  UNL     1      16.578 -11.391  19.121  1.00  0.00    -0.033 C 
HETATM   40  C1  UNL     1      15.462 -11.584  19.788  1.00  0.00     0.007 C 
ENDBRANCH  38  39
ENDBRANCH  37  38
ENDBRANCH  35  36
ENDBRANCH  34  35
ENDBRANCH  33  34
ENDBRANCH   1  33
TORSDOF 11
ENDMDL
MODEL 5
REMARK VINA RESULT: -5.971031530      3.114      4.326
REMARK  11 active torsions:
REMARK  status: ('A' for Active; 'I' for Inactive)
REMARK    1  A    between atoms: C2_2  and  C3_3 
REMARK    2  A    between atoms: C3_3  and  C4_4 
REMARK    3  A    between atoms: C5_5  and  C6_6 
REMARK    4  A    between atoms: C6_6  and  C7_7 
REMARK    5  A    between atoms: C7_7  and  C8_8 
REMARK    6  A    between atoms: C8_8  and  C9_9 
REMARK    7  A    between atoms: C13_18  and  O2_19 
REMARK    8  A    between atoms: C18_28  and  C19_29 
REMARK    9  A    between atoms: C19_29  and  C20_30 
REMARK   10  A    between atoms: C20_30  and  C21_31 
REMARK   11  A    between atoms: C21_31  and  N5_32 
ROOT
HETATM    1  C9  UNL     1      15.008  -9.023  18.940  1.00  0.00     0.042 C 
HETATM    2  C10 UNL     1      13.680  -9.580  19.545  1.00  0.00     0.132 C 
HETATM    3  N1  UNL     1      13.778  -9.955  20.905  1.00  0.00    -0.359 N 
ATOM      4  H1  UNL     1      14.347 -10.776  21.111  1.00  0.00     0.162 HD
HETATM    5  C11 UNL     1      13.165  -9.306  22.020  1.00  0.00     0.235 C 
HETATM    6  O1  UNL     1      12.817  -9.997  23.008  1.00  0.00    -0.272 OA
HETATM    7  C12 UNL     1      12.909  -7.839  22.079  1.00  0.00     0.224 C 
HETATM    8  N2  UNL     1      11.794  -7.445  21.264  1.00  0.00    -0.362 N 
ATOM      9  H2  UNL     1      11.147  -8.198  21.026  1.00  0.00     0.162 HD
HETATM   10  C13 UNL     1      11.456  -6.189  20.745  1.00  0.00     0.136 C 
HETATM   11  C14 UNL     1      11.572  -4.867  21.305  1.00  0.00     0.060 C 
HETATM   12  C15 UNL     1      12.586  -4.134  21.689  1.00  0.00     0.068 C 
HETATM   13  C16 UNL     1      13.997  -4.353  21.703  1.00  0.00     0.173 C 
HETATM   14  N3  UNL     1      14.568  -4.119  22.828  1.00  0.00    -0.411 NA
HETATM   15  C17 UNL     1      15.109  -3.847  23.941  1.00  0.00     0.231 C 
HETATM   16  N4  UNL     1      14.906  -4.761  20.719  1.00  0.00    -0.352 N 
ATOM     17  H4  UNL     1      15.767  -5.192  21.056  1.00  0.00     0.163 HD
HETATM   18  C18 UNL     1      14.774  -4.647  19.283  1.00  0.00     0.177 C 
HETATM   19  C22 UNL     1      15.753  -5.514  18.572  1.00  0.00     0.245 C 
HETATM   20  O3  UNL     1      16.960  -5.125  18.547  1.00  0.00    -0.271 OA
HETATM   21  N6  UNL     1      15.474  -6.748  17.907  1.00  0.00    -0.334 N 
HETATM   22  C23 UNL     1      16.122  -7.016  16.602  1.00  0.00     0.158 C 
HETATM   23  C24 UNL     1      14.584  -7.702  18.426  1.00  0.00     0.072 C 
ENDROOT
BRANCH  18  24
HETATM   24  C19 UNL     1      15.179  -3.239  18.892  1.00  0.00     0.036 C 
BRANCH  24  25
HETATM   25  C20 UNL     1      14.956  -2.865  17.478  1.00  0.00     0.030 C 
BRANCH  25  26
HETATM   26  C21 UNL     1      15.974  -1.745  17.176  1.00  0.00     0.230 C 
BRANCH  26  27
HETATM   27  N5  UNL     1      17.259  -2.187  17.667  1.00  0.00    -0.079 N 
ATOM     28  H53 UNL     1      17.250  -2.411  18.662  1.00  0.00     0.274 HD
ATOM     29  H52 UNL     1      17.520  -3.112  17.325  1.00  0.00     0.274 HD
ATOM     30  H51 UNL     1      17.940  -1.466  17.427  1.00  0.00     0.274 HD
ENDBRANCH  26  27
ENDBRANCH  25  26
ENDBRANCH  24  25
ENDBRANCH  18  24
BRANCH  10  31
HETATM   31  O2  UNL     1      10.943  -6.290  19.530  1.00  0.00    -0.346 OA
ATOM     32  H2  UNL     1      10.599  -5.457  19.228  1.00  0.00     0.219 HD
ENDBRANCH  10  31
BRANCH   1  33
HETATM   33  C8  UNL     1      16.062  -9.129  19.945  1.00  0.00     0.012 C 
BRANCH  33  34
HETATM   34  C7  UNL     1      17.394  -9.640  19.661  1.00  0.00     0.004 C 
BRANCH  34  35
HETATM   35  C6  UNL     1      17.691  -9.888  18.191  1.00  0.00     0.027 C 
BRANCH  35  36
HETATM   36  C5  UNL     1      18.146 -11.299  17.978  1.00  0.00    -0.030 C 
HETATM   37  C4  UNL     1      17.371 -12.313  17.756  1.00  0.00    -0.027 C 
BRANCH  37  38
HETATM   38  C3  UNL     1      15.906 -12.300  17.669  1.00  0.00     0.053 C 
BRANCH  38  39
HETATM   39  C2  UNL     1      15.313 -13.025  18.843  1.00  0.00    -0.033 C 
HETATM   40  C1  UNL     1      15.806 -12.869  20.051  1.00  0.00     0.007 C 
ENDBRANCH  38  39
ENDBRANCH  37  38
ENDBRANCH  35  36
ENDBRANCH  34  35
ENDBRANCH  33  34
ENDBRANCH   1  33
TORSDOF 11
ENDMDL
