MODEL 1
REMARK VINA RESULT: -6.481941289      0.000      0.000
REMARK  3 active torsions:
REMARK  status: ('A' for Active; 'I' for Inactive)
REMARK    1  A    between atoms: C2_2  and  C3_3 
REMARK    2  A    between atoms: C3_3  and  N1_4 
REMARK       I    between atoms: N1_4  and  C4_6 
REMARK       I    between atoms: C4_6  and  N2_8 
REMARK    3  A    between atoms: N3_14  and  C10_15 
ROOT
HETATM    1  C10 UNL     1      38.132  56.736  86.841  1.00  0.00     0.395 C 
HETATM    2  C11 UNL     1      38.591  55.598  87.607  1.00  0.00     0.089 C 
HETATM    3  N4  UNL     1      38.958  54.681  88.200  1.00  0.00    -0.195 NA
ENDROOT
BRANCH   1   4
HETATM    4  N3  UNL     1      37.605  56.362  85.545  1.00  0.00     0.102 N 
HETATM    5  C9  UNL     1      38.606  55.999  84.601  1.00  0.00     0.274 C 
HETATM    6  C8  UNL     1      38.418  56.796  83.355  1.00  0.00     0.041 C 
HETATM    7  C7  UNL     1      37.347  57.800  83.674  1.00  0.00    -0.009 C 
HETATM    8  C6  UNL     1      37.874  59.191  83.850  1.00  0.00     0.031 C 
HETATM    9  C12 UNL     1      36.740  57.335  84.965  1.00  0.00     0.283 C 
HETATM   10  C13 UNL     1      36.305  57.732  82.570  1.00  0.00     0.031 C 
HETATM   11  C5  UNL     1      37.525  60.137  82.764  1.00  0.00     0.128 C 
HETATM   12  N2  UNL     1      37.315  59.568  81.460  1.00  0.00    -0.334 N 
HETATM   13  C4  UNL     1      37.359  60.385  80.314  1.00  0.00     0.318 C 
HETATM   14  C14 UNL     1      37.053  58.159  81.300  1.00  0.00     0.128 C 
HETATM   15  N1  UNL     1      37.177  59.889  79.001  1.00  0.00    -0.340 N 
HETATM   16  O1  UNL     1      37.573  61.624  80.470  1.00  0.00    -0.247 OA
ATOM     17  H1  UNL     1      37.005  58.894  78.855  1.00  0.00     0.164 HD
BRANCH  15  18
HETATM   18  C3  UNL     1      37.234  60.796  77.849  1.00  0.00     0.150 C 
BRANCH  18  19
HETATM   19  C2  UNL     1      38.475  60.589  77.075  1.00  0.00    -0.018 C 
HETATM   20  C1  UNL     1      38.790  61.326  76.024  1.00  0.00     0.008 C 
ENDBRANCH  18  19
ENDBRANCH  15  18
ENDBRANCH   1   4
TORSDOF 3
ENDMDL
MODEL 2
REMARK VINA RESULT: -6.306842548      1.966      2.856
REMARK  3 active torsions:
REMARK  status: ('A' for Active; 'I' for Inactive)
REMARK    1  A    between atoms: C2_2  and  C3_3 
REMARK    2  A    between atoms: C3_3  and  N1_4 
REMARK       I    between atoms: N1_4  and  C4_6 
REMARK       I    between atoms: C4_6  and  N2_8 
REMARK    3  A    between atoms: N3_14  and  C10_15 
ROOT
HETATM    1  C10 UNL     1      36.908  57.746  85.399  1.00  0.00     0.395 C 
HETATM    2  C11 UNL     1      38.083  57.632  86.234  1.00  0.00     0.089 C 
HETATM    3  N4  UNL     1      39.021  57.560  86.900  1.00  0.00    -0.195 NA
ENDROOT
BRANCH   1   4
HETATM    4  N3  UNL     1      36.892  58.969  84.621  1.00  0.00     0.102 N 
HETATM    5  C9  UNL     1      35.731  59.118  83.811  1.00  0.00     0.274 C 
HETATM    6  C8  UNL     1      36.147  59.388  82.404  1.00  0.00     0.041 C 
HETATM    7  C7  UNL     1      37.638  59.210  82.381  1.00  0.00    -0.009 C 
HETATM    8  C6  UNL     1      38.072  57.947  81.705  1.00  0.00     0.031 C 
HETATM    9  C12 UNL     1      38.055  59.167  83.823  1.00  0.00     0.283 C 
HETATM   10  C13 UNL     1      38.240  60.437  81.716  1.00  0.00     0.031 C 
HETATM   11  C5  UNL     1      38.729  58.132  80.389  1.00  0.00     0.128 C 
HETATM   12  N2  UNL     1      38.345  59.298  79.639  1.00  0.00    -0.334 N 
HETATM   13  C4  UNL     1      38.605  59.370  78.257  1.00  0.00     0.318 C 
HETATM   14  C14 UNL     1      37.693  60.412  80.283  1.00  0.00     0.128 C 
HETATM   15  N1  UNL     1      38.241  60.478  77.456  1.00  0.00    -0.340 N 
HETATM   16  O1  UNL     1      39.194  58.392  77.707  1.00  0.00    -0.247 OA
ATOM     17  H1  UNL     1      37.765  61.275  77.880  1.00  0.00     0.164 HD
BRANCH  15  18
HETATM   18  C3  UNL     1      38.543  60.490  76.020  1.00  0.00     0.150 C 
BRANCH  18  19
HETATM   19  C2  UNL     1      38.945  61.840  75.576  1.00  0.00    -0.018 C 
HETATM   20  C1  UNL     1      39.353  62.092  74.344  1.00  0.00     0.008 C 
ENDBRANCH  18  19
ENDBRANCH  15  18
ENDBRANCH   1   4
TORSDOF 3
ENDMDL
MODEL 3
REMARK VINA RESULT: -6.298249456      2.584      3.362
REMARK  3 active torsions:
REMARK  status: ('A' for Active; 'I' for Inactive)
REMARK    1  A    between atoms: C2_2  and  C3_3 
REMARK    2  A    between atoms: C3_3  and  N1_4 
REMARK       I    between atoms: N1_4  and  C4_6 
REMARK       I    between atoms: C4_6  and  N2_8 
REMARK    3  A    between atoms: N3_14  and  C10_15 
ROOT
HETATM    1  C10 UNL     1      37.221  54.610  87.391  1.00  0.00     0.395 C 
HETATM    2  C11 UNL     1      37.271  53.186  87.147  1.00  0.00     0.089 C 
HETATM    3  N4  UNL     1      37.329  52.052  86.945  1.00  0.00    -0.195 NA
ENDROOT
BRANCH   1   4
HETATM    4  N3  UNL     1      38.121  55.356  86.535  1.00  0.00     0.102 N 
HETATM    5  C9  UNL     1      38.548  56.594  87.093  1.00  0.00     0.274 C 
HETATM    6  C8  UNL     1      38.285  57.689  86.113  1.00  0.00     0.041 C 
HETATM    7  C7  UNL     1      37.501  57.056  84.999  1.00  0.00    -0.009 C 
HETATM    8  C6  UNL     1      36.053  57.437  85.006  1.00  0.00     0.031 C 
HETATM    9  C12 UNL     1      37.625  55.576  85.218  1.00  0.00     0.283 C 
HETATM   10  C13 UNL     1      38.173  57.432  83.689  1.00  0.00     0.031 C 
HETATM   11  C5  UNL     1      35.636  58.341  83.909  1.00  0.00     0.128 C 
HETATM   12  N2  UNL     1      36.646  59.220  83.383  1.00  0.00    -0.334 N 
HETATM   13  C4  UNL     1      36.280  60.354  82.633  1.00  0.00     0.318 C 
HETATM   14  C14 UNL     1      38.047  58.960  83.610  1.00  0.00     0.128 C 
HETATM   15  N1  UNL     1      37.220  61.269  82.100  1.00  0.00    -0.340 N 
HETATM   16  O1  UNL     1      35.047  60.563  82.426  1.00  0.00    -0.247 OA
ATOM     17  H1  UNL     1      38.216  61.119  82.257  1.00  0.00     0.164 HD
BRANCH  15  18
HETATM   18  C3  UNL     1      36.770  62.431  81.325  1.00  0.00     0.150 C 
BRANCH  18  19
HETATM   19  C2  UNL     1      37.455  63.660  81.772  1.00  0.00    -0.018 C 
HETATM   20  C1  UNL     1      36.966  64.444  82.719  1.00  0.00     0.008 C 
ENDBRANCH  18  19
ENDBRANCH  15  18
ENDBRANCH   1   4
TORSDOF 3
ENDMDL
MODEL 4
REMARK VINA RESULT: -6.276384005      1.377      1.574
REMARK  3 active torsions:
REMARK  status: ('A' for Active; 'I' for Inactive)
REMARK    1  A    between atoms: C2_2  and  C3_3 
REMARK    2  A    between atoms: C3_3  and  N1_4 
REMARK       I    between atoms: N1_4  and  C4_6 
REMARK       I    between atoms: C4_6  and  N2_8 
REMARK    3  A    between atoms: N3_14  and  C10_15 
ROOT
HETATM    1  C10 UNL     1      38.007  54.803  87.092  1.00  0.00     0.395 C 
HETATM    2  C11 UNL     1      37.275  53.960  88.010  1.00  0.00     0.089 C 
HETATM    3  N4  UNL     1      36.683  53.278  88.727  1.00  0.00    -0.195 NA
ENDROOT
BRANCH   1   4
HETATM    4  N3  UNL     1      37.400  54.860  85.778  1.00  0.00     0.102 N 
HETATM    5  C9  UNL     1      38.295  54.542  84.718  1.00  0.00     0.274 C 
HETATM    6  C8  UNL     1      38.259  55.635  83.703  1.00  0.00     0.041 C 
HETATM    7  C7  UNL     1      37.420  56.724  84.309  1.00  0.00    -0.009 C 
HETATM    8  C6  UNL     1      38.222  57.901  84.769  1.00  0.00     0.031 C 
HETATM    9  C12 UNL     1      36.745  56.092  85.492  1.00  0.00     0.283 C 
HETATM   10  C13 UNL     1      36.373  57.126  83.284  1.00  0.00     0.031 C 
HETATM   11  C5  UNL     1      38.061  59.128  83.954  1.00  0.00     0.128 C 
HETATM   12  N2  UNL     1      37.723  58.939  82.569  1.00  0.00    -0.334 N 
HETATM   13  C4  UNL     1      37.920  59.980  81.642  1.00  0.00     0.318 C 
HETATM   14  C14 UNL     1      37.177  57.687  82.103  1.00  0.00     0.128 C 
HETATM   15  N1  UNL     1      37.625  59.857  80.263  1.00  0.00    -0.340 N 
HETATM   16  O1  UNL     1      38.385  61.080  82.066  1.00  0.00    -0.247 OA
ATOM     17  H1  UNL     1      37.252  58.979  79.902  1.00  0.00     0.164 HD
BRANCH  15  18
HETATM   18  C3  UNL     1      37.853  60.982  79.349  1.00  0.00     0.150 C 
BRANCH  18  19
HETATM   19  C2  UNL     1      37.598  60.586  77.950  1.00  0.00    -0.018 C 
HETATM   20  C1  UNL     1      38.355  60.995  76.945  1.00  0.00     0.008 C 
ENDBRANCH  18  19
ENDBRANCH  15  18
ENDBRANCH   1   4
TORSDOF 3
ENDMDL
MODEL 5
REMARK VINA RESULT: -6.269772240      2.964      7.394
REMARK  3 active torsions:
REMARK  status: ('A' for Active; 'I' for Inactive)
REMARK    1  A    between atoms: C2_2  and  C3_3 
REMARK    2  A    between atoms: C3_3  and  N1_4 
REMARK       I    between atoms: N1_4  and  C4_6 
REMARK       I    between atoms: C4_6  and  N2_8 
REMARK    3  A    between atoms: N3_14  and  C10_15 
ROOT
HETATM    1  C10 UNL     1      35.992  61.786  80.959  1.00  0.00     0.395 C 
HETATM    2  C11 UNL     1      36.190  62.534  82.180  1.00  0.00     0.089 C 
HETATM    3  N4  UNL     1      36.350  63.115  83.163  1.00  0.00    -0.195 NA
ENDROOT
BRANCH   1   4
HETATM    4  N3  UNL     1      35.560  60.424  81.202  1.00  0.00     0.102 N 
HETATM    5  C9  UNL     1      34.609  60.303  82.254  1.00  0.00     0.274 C 
HETATM    6  C8  UNL     1      35.089  59.284  83.232  1.00  0.00     0.041 C 
HETATM    7  C7  UNL     1      36.483  58.929  82.798  1.00  0.00    -0.009 C 
HETATM    8  C6  UNL     1      37.542  59.505  83.685  1.00  0.00     0.031 C 
HETATM    9  C12 UNL     1      36.626  59.505  81.419  1.00  0.00     0.283 C 
HETATM   10  C13 UNL     1      36.574  57.414  82.727  1.00  0.00     0.031 C 
HETATM   11  C5  UNL     1      38.257  58.520  84.531  1.00  0.00     0.128 C 
HETATM   12  N2  UNL     1      37.523  57.338  84.898  1.00  0.00    -0.334 N 
HETATM   13  C4  UNL     1      37.951  56.545  85.980  1.00  0.00     0.318 C 
HETATM   14  C14 UNL     1      36.344  56.941  84.168  1.00  0.00     0.128 C 
HETATM   15  N1  UNL     1      37.269  55.380  86.405  1.00  0.00    -0.340 N 
HETATM   16  O1  UNL     1      38.998  56.895  86.602  1.00  0.00    -0.247 OA
ATOM     17  H1  UNL     1      36.424  55.082  85.918  1.00  0.00     0.164 HD
BRANCH  15  18
HETATM   18  C3  UNL     1      37.769  54.597  87.541  1.00  0.00     0.150 C 
BRANCH  18  19
HETATM   19  C2  UNL     1      38.237  53.268  87.100  1.00  0.00    -0.018 C 
HETATM   20  C1  UNL     1      38.599  53.018  85.853  1.00  0.00     0.008 C 
ENDBRANCH  18  19
ENDBRANCH  15  18
ENDBRANCH   1   4
TORSDOF 3
ENDMDL
