MODEL 1
REMARK VINA RESULT: -8.178757221      0.000      0.000
REMARK  12 active torsions:
REMARK  status: ('A' for Active; 'I' for Inactive)
REMARK    1  A    between atoms: C2_2  and  C3_3 
REMARK    2  A    between atoms: C3_3  and  C4_4 
REMARK    3  A    between atoms: C4_4  and  N8_35 
REMARK    4  A    between atoms: N1_5  and  C5_7 
REMARK    5  A    between atoms: C5_7  and  C6_8 
REMARK    6  A    between atoms: C6_8  and  C7_9 
REMARK    7  A    between atoms: C7_9  and  C8_10 
REMARK       I    between atoms: C8_10  and  N2_12 
REMARK    8  A    between atoms: C12_22  and  N5_23 
REMARK    9  A    between atoms: C13_25  and  C14_26 
REMARK   10  A    between atoms: N8_35  and  N9_37 
REMARK   11  A    between atoms: N9_37  and  S1_39 
REMARK   12  A    between atoms: S1_39  and  N10_40 
ROOT
HETATM    1  C8  UNL     1      14.273  16.872  34.071  1.00  0.00     0.223 C 
HETATM    2  O1  UNL     1      15.504  17.000  34.279  1.00  0.00    -0.273 OA
HETATM    3  N2  UNL     1      13.459  17.702  33.402  1.00  0.00    -0.311 N 
ATOM      4  H2  UNL     1      12.515  17.363  33.585  1.00  0.00     0.170 HD
HETATM    5  C9  UNL     1      13.320  18.676  32.672  1.00  0.00     0.141 A 
HETATM    6  N3  UNL     1      12.018  19.007  32.339  1.00  0.00    -0.292 N 
ATOM      7  H3  UNL     1      11.238  18.457  32.699  1.00  0.00     0.172 HD
HETATM    8  C10 UNL     1      11.797  20.041  31.548  1.00  0.00     0.326 A 
HETATM    9  O2  UNL     1      10.587  20.326  31.256  1.00  0.00    -0.247 OA
HETATM   10  N4  UNL     1      12.785  20.823  31.029  1.00  0.00    -0.303 N 
ATOM     11  H4  UNL     1      12.555  21.611  30.425  1.00  0.00     0.171 HD
HETATM   12  C11 UNL     1      14.075  20.542  31.326  1.00  0.00     0.111 A 
HETATM   13  C12 UNL     1      15.110  21.356  30.800  1.00  0.00     0.135 A 
HETATM   14  N6  UNL     1      16.376  21.042  31.135  1.00  0.00    -0.337 N 
ATOM     15  H6  UNL     1      17.158  21.596  30.785  1.00  0.00     0.168 HD
HETATM   16  C17 UNL     1      16.591  19.981  31.943  1.00  0.00     0.182 A 
HETATM   17  N7  UNL     1      15.607  19.218  32.434  1.00  0.00    -0.347 N 
ATOM     18  H7  UNL     1      15.833  18.429  33.041  1.00  0.00     0.167 HD
HETATM   19  C18 UNL     1      14.336  19.480  32.137  1.00  0.00     0.108 A 
ENDROOT
BRANCH   1  20
HETATM   20  C7  UNL     1      13.679  15.611  34.668  1.00  0.00     0.105 C 
BRANCH  20  21
HETATM   21  C6  UNL     1      13.114  14.729  33.588  1.00  0.00     0.029 C 
BRANCH  21  22
HETATM   22  C5  UNL     1      13.969  13.534  33.297  1.00  0.00     0.121 C 
BRANCH  22  23
HETATM   23  N1  UNL     1      14.493  13.602  31.932  1.00  0.00    -0.379 N 
HETATM   24  C4  UNL     1      15.748  13.950  31.749  1.00  0.00     0.088 C 
ATOM     25  H1  UNL     1      13.895  13.384  31.136  1.00  0.00     0.160 HD
BRANCH  24  26
HETATM   26  C3  UNL     1      16.246  14.007  30.374  1.00  0.00     0.076 C 
BRANCH  26  27
HETATM   27  C2  UNL     1      15.408  14.957  29.509  1.00  0.00     0.003 C 
HETATM   28  C1  UNL     1      15.533  16.323  30.156  1.00  0.00     0.005 C 
ENDBRANCH  26  27
ENDBRANCH  24  26
BRANCH  24  29
HETATM   29  N8  UNL     1      16.586  14.250  32.876  1.00  0.00    -0.298 N 
ATOM     30  H8  UNL     1      16.172  14.276  33.807  1.00  0.00     0.183 HD
BRANCH  29  31
HETATM   31  N9  UNL     1      17.950  14.508  32.734  1.00  0.00    -0.159 NA
HETATM   32  C19 UNL     1      18.607  13.934  33.922  1.00  0.00     0.152 C 
BRANCH  31  33
HETATM   33  S1  UNL     1      18.303  16.198  32.744  1.00  0.00     0.029 SA
BRANCH  33  34
HETATM   34  N10 UNL     1      19.439  16.764  31.581  1.00  0.00    -0.252 NA
HETATM   35  C20 UNL     1      19.547  18.198  31.485  1.00  0.00     0.125 C 
HETATM   36  C21 UNL     1      19.234  16.165  30.268  1.00  0.00     0.125 C 
ENDBRANCH  33  34
ENDBRANCH  31  33
ENDBRANCH  29  31
ENDBRANCH  24  29
ENDBRANCH  22  23
ENDBRANCH  21  22
ENDBRANCH  20  21
ENDBRANCH   1  20
BRANCH  13  37
HETATM   37  N5  UNL     1      14.759  22.285  30.066  1.00  0.00    -0.354 N 
HETATM   38  C13 UNL     1      14.967  22.843  28.839  1.00  0.00     0.066 C 
ATOM     39  H5  UNL     1      14.055  22.837  30.557  1.00  0.00     0.166 HD
BRANCH  38  40
HETATM   40  C14 UNL     1      14.810  21.970  27.614  1.00  0.00     0.016 C 
HETATM   41  C15 UNL     1      15.014  22.799  26.346  1.00  0.00     0.015 C 
HETATM   42  C16 UNL     1      13.475  21.286  27.545  1.00  0.00     0.015 C 
ENDBRANCH  38  40
ENDBRANCH  13  37
TORSDOF 12
ENDMDL
MODEL 2
REMARK VINA RESULT: -8.108794476      2.522      4.944
REMARK  12 active torsions:
REMARK  status: ('A' for Active; 'I' for Inactive)
REMARK    1  A    between atoms: C2_2  and  C3_3 
REMARK    2  A    between atoms: C3_3  and  C4_4 
REMARK    3  A    between atoms: C4_4  and  N8_35 
REMARK    4  A    between atoms: N1_5  and  C5_7 
REMARK    5  A    between atoms: C5_7  and  C6_8 
REMARK    6  A    between atoms: C6_8  and  C7_9 
REMARK    7  A    between atoms: C7_9  and  C8_10 
REMARK       I    between atoms: C8_10  and  N2_12 
REMARK    8  A    between atoms: C12_22  and  N5_23 
REMARK    9  A    between atoms: C13_25  and  C14_26 
REMARK   10  A    between atoms: N8_35  and  N9_37 
REMARK   11  A    between atoms: N9_37  and  S1_39 
REMARK   12  A    between atoms: S1_39  and  N10_40 
ROOT
HETATM    1  C8  UNL     1      17.972  15.241  32.422  1.00  0.00     0.223 C 
HETATM    2  O1  UNL     1      17.373  14.645  31.494  1.00  0.00    -0.273 OA
HETATM    3  N2  UNL     1      18.051  16.562  32.638  1.00  0.00    -0.311 N 
ATOM      4  H2  UNL     1      18.751  16.676  33.372  1.00  0.00     0.170 HD
HETATM    5  C9  UNL     1      17.676  17.696  32.366  1.00  0.00     0.141 A 
HETATM    6  N3  UNL     1      18.270  18.722  33.081  1.00  0.00    -0.292 N 
ATOM      7  H3  UNL     1      18.981  18.518  33.783  1.00  0.00     0.172 HD
HETATM    8  C10 UNL     1      17.905  19.969  32.844  1.00  0.00     0.326 A 
HETATM    9  O2  UNL     1      18.468  20.898  33.515  1.00  0.00    -0.247 OA
HETATM   10  N4  UNL     1      16.965  20.321  31.923  1.00  0.00    -0.303 N 
ATOM     11  H4  UNL     1      16.724  21.302  31.781  1.00  0.00     0.171 HD
HETATM   12  C11 UNL     1      16.354  19.355  31.197  1.00  0.00     0.111 A 
HETATM   13  C12 UNL     1      15.383  19.712  30.229  1.00  0.00     0.135 A 
HETATM   14  N6  UNL     1      14.815  18.714  29.524  1.00  0.00    -0.337 N 
ATOM     15  H6  UNL     1      14.111  18.916  28.814  1.00  0.00     0.168 HD
HETATM   16  C17 UNL     1      15.194  17.443  29.775  1.00  0.00     0.182 A 
HETATM   17  N7  UNL     1      16.113  17.115  30.694  1.00  0.00    -0.347 N 
ATOM     18  H7  UNL     1      16.358  16.136  30.837  1.00  0.00     0.167 HD
HETATM   19  C18 UNL     1      16.708  18.059  31.420  1.00  0.00     0.108 A 
ENDROOT
BRANCH   1  20
HETATM   20  C7  UNL     1      18.675  14.311  33.392  1.00  0.00     0.105 C 
BRANCH  20  21
HETATM   21  C6  UNL     1      17.693  13.720  34.367  1.00  0.00     0.029 C 
BRANCH  21  22
HETATM   22  C5  UNL     1      16.878  14.755  35.081  1.00  0.00     0.121 C 
BRANCH  22  23
HETATM   23  N1  UNL     1      16.051  14.128  36.114  1.00  0.00    -0.379 N 
HETATM   24  C4  UNL     1      14.897  13.599  35.771  1.00  0.00     0.088 C 
ATOM     25  H1  UNL     1      16.365  14.103  37.084  1.00  0.00     0.160 HD
BRANCH  24  26
HETATM   26  C3  UNL     1      14.093  12.977  36.823  1.00  0.00     0.076 C 
BRANCH  26  27
HETATM   27  C2  UNL     1      14.338  13.636  38.186  1.00  0.00     0.003 C 
HETATM   28  C1  UNL     1      13.603  12.779  39.197  1.00  0.00     0.005 C 
ENDBRANCH  26  27
ENDBRANCH  24  26
BRANCH  24  29
HETATM   29  N8  UNL     1      14.465  13.635  34.402  1.00  0.00    -0.298 N 
ATOM     30  H8  UNL     1      15.028  13.165  33.693  1.00  0.00     0.183 HD
BRANCH  29  31
HETATM   31  N9  UNL     1      13.298  14.293  34.013  1.00  0.00    -0.159 NA
HETATM   32  C19 UNL     1      12.387  13.255  33.500  1.00  0.00     0.152 C 
BRANCH  31  33
HETATM   33  S1  UNL     1      13.570  15.396  32.713  1.00  0.00     0.029 SA
BRANCH  33  34
HETATM   34  N10 UNL     1      14.022  17.002  33.135  1.00  0.00    -0.252 NA
HETATM   35  C20 UNL     1      14.273  17.215  34.538  1.00  0.00     0.125 C 
HETATM   36  C21 UNL     1      13.092  17.997  32.612  1.00  0.00     0.125 C 
ENDBRANCH  33  34
ENDBRANCH  31  33
ENDBRANCH  29  31
ENDBRANCH  24  29
ENDBRANCH  22  23
ENDBRANCH  21  22
ENDBRANCH  20  21
ENDBRANCH   1  20
BRANCH  13  37
HETATM   37  N5  UNL     1      15.133  20.916  30.119  1.00  0.00    -0.354 N 
HETATM   38  C13 UNL     1      15.246  21.980  29.274  1.00  0.00     0.066 C 
ATOM     39  H5  UNL     1      14.674  21.230  30.975  1.00  0.00     0.166 HD
BRANCH  38  40
HETATM   40  C14 UNL     1      14.679  21.854  27.877  1.00  0.00     0.016 C 
HETATM   41  C15 UNL     1      15.027  23.094  27.052  1.00  0.00     0.015 C 
HETATM   42  C16 UNL     1      13.190  21.657  27.861  1.00  0.00     0.015 C 
ENDBRANCH  38  40
ENDBRANCH  13  37
TORSDOF 12
ENDMDL
MODEL 3
REMARK VINA RESULT: -8.019108078      2.634      5.161
REMARK  12 active torsions:
REMARK  status: ('A' for Active; 'I' for Inactive)
REMARK    1  A    between atoms: C2_2  and  C3_3 
REMARK    2  A    between atoms: C3_3  and  C4_4 
REMARK    3  A    between atoms: C4_4  and  N8_35 
REMARK    4  A    between atoms: N1_5  and  C5_7 
REMARK    5  A    between atoms: C5_7  and  C6_8 
REMARK    6  A    between atoms: C6_8  and  C7_9 
REMARK    7  A    between atoms: C7_9  and  C8_10 
REMARK       I    between atoms: C8_10  and  N2_12 
REMARK    8  A    between atoms: C12_22  and  N5_23 
REMARK    9  A    between atoms: C13_25  and  C14_26 
REMARK   10  A    between atoms: N8_35  and  N9_37 
REMARK   11  A    between atoms: N9_37  and  S1_39 
REMARK   12  A    between atoms: S1_39  and  N10_40 
ROOT
HETATM    1  C8  UNL     1      16.511  18.028  30.412  1.00  0.00     0.223 C 
HETATM    2  O1  UNL     1      15.864  16.971  30.608  1.00  0.00    -0.273 OA
HETATM    3  N2  UNL     1      16.041  19.225  30.031  1.00  0.00    -0.311 N 
ATOM      4  H2  UNL     1      16.866  19.784  29.812  1.00  0.00     0.170 HD
HETATM    5  C9  UNL     1      15.083  19.961  29.825  1.00  0.00     0.141 A 
HETATM    6  N3  UNL     1      15.381  21.239  29.385  1.00  0.00    -0.292 N 
ATOM      7  H3  UNL     1      16.351  21.523  29.242  1.00  0.00     0.172 HD
HETATM    8  C10 UNL     1      14.396  22.087  29.151  1.00  0.00     0.326 A 
HETATM    9  O2  UNL     1      14.697  23.259  28.745  1.00  0.00    -0.247 OA
HETATM   10  N4  UNL     1      13.079  21.782  29.316  1.00  0.00    -0.303 N 
ATOM     11  H4  UNL     1      12.360  22.477  29.118  1.00  0.00     0.171 HD
HETATM   12  C11 UNL     1      12.735  20.544  29.744  1.00  0.00     0.111 A 
HETATM   13  C12 UNL     1      11.366  20.214  29.907  1.00  0.00     0.135 A 
HETATM   14  N6  UNL     1      11.075  18.965  30.323  1.00  0.00    -0.337 N 
ATOM     15  H6  UNL     1      10.107  18.674  30.456  1.00  0.00     0.168 HD
HETATM   16  C17 UNL     1      12.091  18.107  30.561  1.00  0.00     0.182 A 
HETATM   17  N7  UNL     1      13.381  18.429  30.404  1.00  0.00    -0.347 N 
ATOM     18  H7  UNL     1      14.103  17.736  30.599  1.00  0.00     0.167 HD
HETATM   19  C18 UNL     1      13.728  19.648  29.995  1.00  0.00     0.108 A 
ENDROOT
BRANCH   1  20
HETATM   20  C7  UNL     1      18.002  17.885  30.647  1.00  0.00     0.105 C 
BRANCH  20  21
HETATM   21  C6  UNL     1      18.396  18.516  31.955  1.00  0.00     0.029 C 
BRANCH  21  22
HETATM   22  C5  UNL     1      18.047  17.674  33.144  1.00  0.00     0.121 C 
BRANCH  22  23
HETATM   23  N1  UNL     1      18.134  16.253  32.804  1.00  0.00    -0.379 N 
HETATM   24  C4  UNL     1      17.222  15.429  33.272  1.00  0.00     0.088 C 
ATOM     25  H1  UNL     1      18.890  15.907  32.213  1.00  0.00     0.160 HD
BRANCH  24  26
HETATM   26  C3  UNL     1      17.332  14.015  32.914  1.00  0.00     0.076 C 
BRANCH  26  27
HETATM   27  C2  UNL     1      17.488  13.826  31.400  1.00  0.00     0.003 C 
HETATM   28  C1  UNL     1      16.173  13.246  30.918  1.00  0.00     0.005 C 
ENDBRANCH  26  27
ENDBRANCH  24  26
BRANCH  24  29
HETATM   29  N8  UNL     1      16.158  15.925  34.099  1.00  0.00    -0.298 N 
ATOM     30  H8  UNL     1      16.360  16.183  35.064  1.00  0.00     0.183 HD
BRANCH  29  31
HETATM   31  N9  UNL     1      14.855  16.064  33.620  1.00  0.00    -0.159 NA
HETATM   32  C19 UNL     1      14.322  17.302  34.219  1.00  0.00     0.152 C 
BRANCH  31  33
HETATM   33  S1  UNL     1      13.824  14.782  34.142  1.00  0.00     0.029 SA
BRANCH  33  34
HETATM   34  N10 UNL     1      13.039  13.865  32.915  1.00  0.00    -0.252 NA
HETATM   35  C20 UNL     1      12.804  14.573  31.682  1.00  0.00     0.125 C 
HETATM   36  C21 UNL     1      11.818  13.227  33.393  1.00  0.00     0.125 C 
ENDBRANCH  33  34
ENDBRANCH  31  33
ENDBRANCH  29  31
ENDBRANCH  24  29
ENDBRANCH  22  23
ENDBRANCH  21  22
ENDBRANCH  20  21
ENDBRANCH   1  20
BRANCH  13  37
HETATM   37  N5  UNL     1      10.551  21.108  29.662  1.00  0.00    -0.354 N 
HETATM   38  C13 UNL     1       9.219  21.356  29.507  1.00  0.00     0.066 C 
ATOM     39  H5  UNL     1      11.061  21.981  29.523  1.00  0.00     0.166 HD
BRANCH  38  40
HETATM   40  C14 UNL     1       8.279  20.967  30.626  1.00  0.00     0.016 C 
HETATM   41  C15 UNL     1       7.298  19.897  30.144  1.00  0.00     0.015 C 
HETATM   42  C16 UNL     1       7.505  22.129  31.178  1.00  0.00     0.015 C 
ENDBRANCH  38  40
ENDBRANCH  13  37
TORSDOF 12
ENDMDL
MODEL 4
REMARK VINA RESULT: -8.004958161      2.383      4.970
REMARK  12 active torsions:
REMARK  status: ('A' for Active; 'I' for Inactive)
REMARK    1  A    between atoms: C2_2  and  C3_3 
REMARK    2  A    between atoms: C3_3  and  C4_4 
REMARK    3  A    between atoms: C4_4  and  N8_35 
REMARK    4  A    between atoms: N1_5  and  C5_7 
REMARK    5  A    between atoms: C5_7  and  C6_8 
REMARK    6  A    between atoms: C6_8  and  C7_9 
REMARK    7  A    between atoms: C7_9  and  C8_10 
REMARK       I    between atoms: C8_10  and  N2_12 
REMARK    8  A    between atoms: C12_22  and  N5_23 
REMARK    9  A    between atoms: C13_25  and  C14_26 
REMARK   10  A    between atoms: N8_35  and  N9_37 
REMARK   11  A    between atoms: N9_37  and  S1_39 
REMARK   12  A    between atoms: S1_39  and  N10_40 
ROOT
HETATM    1  C8  UNL     1      16.631  19.145  32.348  1.00  0.00     0.223 C 
HETATM    2  O1  UNL     1      16.026  18.117  32.739  1.00  0.00    -0.273 OA
HETATM    3  N2  UNL     1      16.190  20.091  31.506  1.00  0.00    -0.311 N 
ATOM      4  H2  UNL     1      17.005  20.668  31.294  1.00  0.00     0.170 HD
HETATM    5  C9  UNL     1      15.265  20.587  30.874  1.00  0.00     0.141 A 
HETATM    6  N3  UNL     1      15.577  21.700  30.111  1.00  0.00    -0.292 N 
ATOM      7  H3  UNL     1      16.531  22.061  30.091  1.00  0.00     0.172 HD
HETATM    8  C10 UNL     1      14.624  22.290  29.411  1.00  0.00     0.326 A 
HETATM    9  O2  UNL     1      14.937  23.314  28.716  1.00  0.00    -0.247 OA
HETATM   10  N4  UNL     1      13.330  21.867  29.387  1.00  0.00    -0.303 N 
ATOM     11  H4  UNL     1      12.637  22.361  28.826  1.00  0.00     0.171 HD
HETATM   12  C11 UNL     1      12.974  20.782  30.115  1.00  0.00     0.111 A 
HETATM   13  C12 UNL     1      11.632  20.328  30.086  1.00  0.00     0.135 A 
HETATM   14  N6  UNL     1      11.332  19.236  30.818  1.00  0.00    -0.337 N 
ATOM     15  H6  UNL     1      10.381  18.867  30.833  1.00  0.00     0.168 HD
HETATM   16  C17 UNL     1      12.313  18.642  31.531  1.00  0.00     0.182 A 
HETATM   17  N7  UNL     1      13.578  19.080  31.552  1.00  0.00    -0.347 N 
ATOM     18  H7  UNL     1      14.275  18.588  32.110  1.00  0.00     0.167 HD
HETATM   19  C18 UNL     1      13.933  20.153  30.849  1.00  0.00     0.108 A 
ENDROOT
BRANCH   1  20
HETATM   20  C7  UNL     1      18.026  19.291  32.925  1.00  0.00     0.105 C 
BRANCH  20  21
HETATM   21  C6  UNL     1      19.051  18.718  31.984  1.00  0.00     0.029 C 
BRANCH  21  22
HETATM   22  C5  UNL     1      18.622  17.424  31.363  1.00  0.00     0.121 C 
BRANCH  22  23
HETATM   23  N1  UNL     1      18.746  16.330  32.326  1.00  0.00    -0.379 N 
HETATM   24  C4  UNL     1      17.812  15.405  32.365  1.00  0.00     0.088 C 
ATOM     25  H1  UNL     1      19.546  16.285  32.958  1.00  0.00     0.160 HD
BRANCH  24  26
HETATM   26  C3  UNL     1      17.964  14.322  33.336  1.00  0.00     0.076 C 
BRANCH  26  27
HETATM   27  C2  UNL     1      17.364  14.695  34.697  1.00  0.00     0.003 C 
HETATM   28  C1  UNL     1      16.384  13.588  35.034  1.00  0.00     0.005 C 
ENDBRANCH  26  27
ENDBRANCH  24  26
BRANCH  24  29
HETATM   29  N8  UNL     1      16.692  15.473  31.468  1.00  0.00    -0.298 N 
ATOM     30  H8  UNL     1      16.633  16.248  30.807  1.00  0.00     0.183 HD
BRANCH  29  31
HETATM   31  N9  UNL     1      15.683  14.510  31.474  1.00  0.00    -0.159 NA
HETATM   32  C19 UNL     1      15.793  13.785  30.195  1.00  0.00     0.152 C 
BRANCH  31  33
HETATM   33  S1  UNL     1      14.106  15.213  31.506  1.00  0.00     0.029 SA
BRANCH  33  34
HETATM   34  N10 UNL     1      13.209  15.048  32.966  1.00  0.00    -0.252 NA
HETATM   35  C20 UNL     1      13.656  15.883  34.053  1.00  0.00     0.125 C 
HETATM   36  C21 UNL     1      13.088  13.657  33.389  1.00  0.00     0.125 C 
ENDBRANCH  33  34
ENDBRANCH  31  33
ENDBRANCH  29  31
ENDBRANCH  24  29
ENDBRANCH  22  23
ENDBRANCH  21  22
ENDBRANCH  20  21
ENDBRANCH   1  20
BRANCH  13  37
HETATM   37  N5  UNL     1      10.845  20.981  29.396  1.00  0.00    -0.354 N 
HETATM   38  C13 UNL     1       9.606  20.944  28.824  1.00  0.00     0.066 C 
ATOM     39  H5  UNL     1      11.279  21.876  29.170  1.00  0.00     0.166 HD
BRANCH  38  40
HETATM   40  C14 UNL     1       8.413  20.659  29.708  1.00  0.00     0.016 C 
HETATM   41  C15 UNL     1       7.136  20.603  28.869  1.00  0.00     0.015 C 
HETATM   42  C16 UNL     1       8.236  21.669  30.804  1.00  0.00     0.015 C 
ENDBRANCH  38  40
ENDBRANCH  13  37
TORSDOF 12
ENDMDL
MODEL 5
REMARK VINA RESULT: -7.999760274      2.448      4.095
REMARK  12 active torsions:
REMARK  status: ('A' for Active; 'I' for Inactive)
REMARK    1  A    between atoms: C2_2  and  C3_3 
REMARK    2  A    between atoms: C3_3  and  C4_4 
REMARK    3  A    between atoms: C4_4  and  N8_35 
REMARK    4  A    between atoms: N1_5  and  C5_7 
REMARK    5  A    between atoms: C5_7  and  C6_8 
REMARK    6  A    between atoms: C6_8  and  C7_9 
REMARK    7  A    between atoms: C7_9  and  C8_10 
REMARK       I    between atoms: C8_10  and  N2_12 
REMARK    8  A    between atoms: C12_22  and  N5_23 
REMARK    9  A    between atoms: C13_25  and  C14_26 
REMARK   10  A    between atoms: N8_35  and  N9_37 
REMARK   11  A    between atoms: N9_37  and  S1_39 
REMARK   12  A    between atoms: S1_39  and  N10_40 
ROOT
HETATM    1  C8  UNL     1      17.683  16.726  33.213  1.00  0.00     0.223 C 
HETATM    2  O1  UNL     1      18.626  17.489  33.536  1.00  0.00    -0.273 OA
HETATM    3  N2  UNL     1      16.509  17.055  32.655  1.00  0.00    -0.311 N 
ATOM      4  H2  UNL     1      15.941  16.209  32.697  1.00  0.00     0.170 HD
HETATM    5  C9  UNL     1      15.801  17.898  32.118  1.00  0.00     0.141 A 
HETATM    6  N3  UNL     1      14.530  17.485  31.755  1.00  0.00    -0.292 N 
ATOM      7  H3  UNL     1      14.226  16.529  31.942  1.00  0.00     0.172 HD
HETATM    8  C10 UNL     1      13.717  18.341  31.163  1.00  0.00     0.326 A 
HETATM    9  O2  UNL     1      12.551  17.935  30.839  1.00  0.00    -0.247 OA
HETATM   10  N4  UNL     1      14.051  19.631  30.882  1.00  0.00    -0.303 N 
ATOM     11  H4  UNL     1      13.381  20.249  30.424  1.00  0.00     0.171 HD
HETATM   12  C11 UNL     1      15.281  20.086  31.217  1.00  0.00     0.111 A 
HETATM   13  C12 UNL     1      15.633  21.430  30.939  1.00  0.00     0.135 A 
HETATM   14  N6  UNL     1      16.865  21.837  31.305  1.00  0.00    -0.337 N 
ATOM     15  H6  UNL     1      17.169  22.794  31.129  1.00  0.00     0.168 HD
HETATM   16  C17 UNL     1      17.689  20.952  31.907  1.00  0.00     0.182 A 
HETATM   17  N7  UNL     1      17.347  19.683  32.165  1.00  0.00    -0.347 N 
ATOM     18  H7  UNL     1      18.014  19.063  32.624  1.00  0.00     0.167 HD
HETATM   19  C18 UNL     1      16.143  19.226  31.827  1.00  0.00     0.108 A 
ENDROOT
BRANCH   1  20
HETATM   20  C7  UNL     1      17.951  15.263  33.509  1.00  0.00     0.105 C 
BRANCH  20  21
HETATM   21  C6  UNL     1      17.127  14.799  34.680  1.00  0.00     0.029 C 
BRANCH  21  22
HETATM   22  C5  UNL     1      16.157  13.714  34.323  1.00  0.00     0.121 C 
BRANCH  22  23
HETATM   23  N1  UNL     1      15.890  13.722  32.885  1.00  0.00    -0.379 N 
HETATM   24  C4  UNL     1      14.666  13.957  32.465  1.00  0.00     0.088 C 
ATOM     25  H1  UNL     1      16.641  13.549  32.217  1.00  0.00     0.160 HD
BRANCH  24  26
HETATM   26  C3  UNL     1      14.428  13.962  31.022  1.00  0.00     0.076 C 
BRANCH  26  27
HETATM   27  C2  UNL     1      15.732  13.780  30.234  1.00  0.00     0.003 C 
HETATM   28  C1  UNL     1      15.899  15.045  29.415  1.00  0.00     0.005 C 
ENDBRANCH  26  27
ENDBRANCH  24  26
BRANCH  24  29
HETATM   29  N8  UNL     1      13.614  14.205  33.412  1.00  0.00    -0.298 N 
ATOM     30  H8  UNL     1      13.438  15.163  33.715  1.00  0.00     0.183 HD
BRANCH  29  31
HETATM   31  N9  UNL     1      12.827  13.176  33.927  1.00  0.00    -0.159 NA
HETATM   32  C19 UNL     1      11.562  13.200  33.171  1.00  0.00     0.152 C 
BRANCH  31  33
HETATM   33  S1  UNL     1      12.414  13.433  35.584  1.00  0.00     0.029 SA
BRANCH  33  34
HETATM   34  N10 UNL     1      13.341  12.583  36.760  1.00  0.00    -0.252 NA
HETATM   35  C20 UNL     1      12.571  11.779  37.676  1.00  0.00     0.125 C 
HETATM   36  C21 UNL     1      14.264  13.456  37.476  1.00  0.00     0.125 C 
ENDBRANCH  33  34
ENDBRANCH  31  33
ENDBRANCH  29  31
ENDBRANCH  24  29
ENDBRANCH  22  23
ENDBRANCH  21  22
ENDBRANCH  20  21
ENDBRANCH   1  20
BRANCH  13  37
HETATM   37  N5  UNL     1      14.777  22.116  30.373  1.00  0.00    -0.354 N 
HETATM   38  C13 UNL     1      14.509  22.787  29.216  1.00  0.00     0.066 C 
ATOM     39  H5  UNL     1      13.979  22.220  31.000  1.00  0.00     0.166 HD
BRANCH  38  40
HETATM   40  C14 UNL     1      14.604  22.034  27.908  1.00  0.00     0.016 C 
HETATM   41  C15 UNL     1      14.776  23.014  26.746  1.00  0.00     0.015 C 
HETATM   42  C16 UNL     1      13.411  21.162  27.641  1.00  0.00     0.015 C 
ENDBRANCH  38  40
ENDBRANCH  13  37
TORSDOF 12
ENDMDL
