MODEL 1
REMARK VINA RESULT: -9.895974396      0.000      0.000
REMARK  12 active torsions:
REMARK  status: ('A' for Active; 'I' for Inactive)
REMARK    1  A    between atoms: O1_2  and  C2_3 
REMARK    2  A    between atoms: C2_3  and  C3_4 
REMARK    3  A    between atoms: C3_4  and  C4_5 
REMARK    4  A    between atoms: C4_5  and  C5_6 
REMARK       I    between atoms: C5_6  and  N1_8 
REMARK    5  A    between atoms: N1_8  and  C6_10 
REMARK    6  A    between atoms: C6_10  and  C7_11 
REMARK    7  A    between atoms: C7_11  and  C8_12 
REMARK    8  A    between atoms: C10_15  and  C11_16 
REMARK    9  A    between atoms: C11_16  and  C12_17 
REMARK   10  A    between atoms: C12_17  and  C13_18 
REMARK   11  A    between atoms: C13_18  and  N2_19 
REMARK   12  A    between atoms: N2_19  and  O4_21 
ROOT
HETATM    1  C8  UNL     1      15.957  19.355  32.501  1.00  0.00     0.102 C 
HETATM    2  C9  UNL     1      17.344  18.753  32.553  1.00  0.00     0.193 C 
HETATM    3  O3  UNL     1      17.246  17.509  33.096  1.00  0.00    -0.381 OA
HETATM    4  C10 UNL     1      16.463  16.592  32.324  1.00  0.00     0.149 C 
HETATM    5  C15 UNL     1      15.088  17.049  32.287  1.00  0.00     0.056 C 
HETATM    6  C16 UNL     1      14.254  16.815  31.060  1.00  0.00     0.034 C 
HETATM    7  C17 UNL     1      13.541  15.498  31.179  1.00  0.00     0.013 C 
HETATM    8  C18 UNL     1      14.041  14.948  32.490  1.00  0.00     0.043 C 
HETATM    9  C19 UNL     1      13.011  14.174  33.231  1.00  0.00     0.030 A 
HETATM   10  N3  UNL     1      11.978  13.551  32.606  1.00  0.00    -0.311 N 
ATOM     11  H3  UNL     1      11.898  13.608  31.591  1.00  0.00     0.170 HD
HETATM   12  C20 UNL     1      11.055  12.859  33.308  1.00  0.00     0.327 A 
HETATM   13  O5  UNL     1      10.083  12.268  32.772  1.00  0.00    -0.247 OA
HETATM   14  N4  UNL     1      11.172  12.791  34.653  1.00  0.00    -0.275 N 
ATOM     15  H4  UNL     1      10.479  12.271  35.191  1.00  0.00     0.173 HD
HETATM   16  C21 UNL     1      12.203  13.407  35.304  1.00  0.00     0.257 A 
HETATM   17  O6  UNL     1      12.270  13.316  36.562  1.00  0.00    -0.267 OA
HETATM   18  C22 UNL     1      13.153  14.119  34.598  1.00  0.00     0.033 A 
HETATM   19  C23 UNL     1      14.288  14.797  35.266  1.00  0.00     0.047 C 
HETATM   20  C24 UNL     1      14.671  16.115  34.632  1.00  0.00     0.013 C 
HETATM   21  C25 UNL     1      14.201  16.245  33.270  1.00  0.00     0.026 C 
HETATM   22  N5  UNL     1      14.914  18.455  32.584  1.00  0.00    -0.404 N 
ATOM     23  H5  UNL     1      13.992  18.790  32.863  1.00  0.00     0.154 HD
ENDROOT
BRANCH   4  24
HETATM   24  C11 UNL     1      17.312  16.269  31.178  1.00  0.00     0.036 C 
BRANCH  24  25
HETATM   25  C12 UNL     1      18.099  15.005  31.119  1.00  0.00     0.019 C 
BRANCH  25  26
HETATM   26  C13 UNL     1      19.535  15.345  31.645  1.00  0.00     0.120 C 
BRANCH  26  27
HETATM   27  N2  UNL     1      19.960  14.347  32.572  1.00  0.00    -0.204 NA
HETATM   28  C14 UNL     1      19.196  14.249  33.771  1.00  0.00     0.143 C 
BRANCH  27  29
HETATM   29  O4  UNL     1      21.296  14.420  32.763  1.00  0.00    -0.314 OA
ATOM     30  H4  UNL     1      21.499  15.047  33.448  1.00  0.00     0.237 HD
ENDBRANCH  27  29
ENDBRANCH  26  27
ENDBRANCH  25  26
ENDBRANCH  24  25
ENDBRANCH   4  24
BRANCH   1  31
HETATM   31  C7  UNL     1      15.901  20.171  31.203  1.00  0.00     0.046 C 
BRANCH  31  32
HETATM   32  C6  UNL     1      14.473  20.559  30.889  1.00  0.00     0.124 C 
BRANCH  32  33
HETATM   33  N1  UNL     1      14.305  21.000  29.542  1.00  0.00    -0.361 N 
HETATM   34  C5  UNL     1      14.361  22.333  29.083  1.00  0.00     0.217 C 
HETATM   35  O2  UNL     1      14.579  23.267  29.881  1.00  0.00    -0.274 OA
ATOM     36  H1  UNL     1      14.128  20.281  28.841  1.00  0.00     0.162 HD
BRANCH  34  37
HETATM   37  C4  UNL     1      14.159  22.616  27.654  1.00  0.00     0.105 C 
BRANCH  37  38
HETATM   38  C3  UNL     1      15.167  23.511  27.012  1.00  0.00     0.035 C 
BRANCH  38  39
HETATM   39  C2  UNL     1      14.673  24.275  25.821  1.00  0.00     0.167 C 
BRANCH  39  40
HETATM   40  O1  UNL     1      13.544  25.010  26.046  1.00  0.00    -0.396 OA
HETATM   41  C1  UNL     1      13.463  26.134  25.266  1.00  0.00     0.201 C 
ENDBRANCH  39  40
ENDBRANCH  38  39
ENDBRANCH  37  38
ENDBRANCH  34  37
ENDBRANCH  32  33
ENDBRANCH  31  32
ENDBRANCH   1  31
TORSDOF 12
ENDMDL
MODEL 2
REMARK VINA RESULT: -9.708567202      2.896      7.969
REMARK  12 active torsions:
REMARK  status: ('A' for Active; 'I' for Inactive)
REMARK    1  A    between atoms: O1_2  and  C2_3 
REMARK    2  A    between atoms: C2_3  and  C3_4 
REMARK    3  A    between atoms: C3_4  and  C4_5 
REMARK    4  A    between atoms: C4_5  and  C5_6 
REMARK       I    between atoms: C5_6  and  N1_8 
REMARK    5  A    between atoms: N1_8  and  C6_10 
REMARK    6  A    between atoms: C6_10  and  C7_11 
REMARK    7  A    between atoms: C7_11  and  C8_12 
REMARK    8  A    between atoms: C10_15  and  C11_16 
REMARK    9  A    between atoms: C11_16  and  C12_17 
REMARK   10  A    between atoms: C12_17  and  C13_18 
REMARK   11  A    between atoms: C13_18  and  N2_19 
REMARK   12  A    between atoms: N2_19  and  O4_21 
ROOT
HETATM    1  C8  UNL     1      16.636  15.315  29.804  1.00  0.00     0.102 C 
HETATM    2  C9  UNL     1      17.815  16.076  30.370  1.00  0.00     0.193 C 
HETATM    3  O3  UNL     1      17.496  17.398  30.392  1.00  0.00    -0.381 OA
HETATM    4  C10 UNL     1      16.391  17.720  31.244  1.00  0.00     0.149 C 
HETATM    5  C15 UNL     1      15.190  17.095  30.729  1.00  0.00     0.056 C 
HETATM    6  C16 UNL     1      14.135  16.602  31.677  1.00  0.00     0.034 C 
HETATM    7  C17 UNL     1      13.141  17.698  31.939  1.00  0.00     0.013 C 
HETATM    8  C18 UNL     1      13.693  18.863  31.158  1.00  0.00     0.043 C 
HETATM    9  C19 UNL     1      12.636  19.726  30.569  1.00  0.00     0.030 A 
HETATM   10  N3  UNL     1      11.391  19.822  31.105  1.00  0.00    -0.311 N 
ATOM     11  H3  UNL     1      11.163  19.289  31.944  1.00  0.00     0.170 HD
HETATM   12  C20 UNL     1      10.450  20.611  30.544  1.00  0.00     0.327 A 
HETATM   13  O5  UNL     1       9.286  20.729  31.005  1.00  0.00    -0.247 OA
HETATM   14  N4  UNL     1      10.763  21.313  29.432  1.00  0.00    -0.275 N 
ATOM     15  H4  UNL     1      10.058  21.911  29.001  1.00  0.00     0.173 HD
HETATM   16  C21 UNL     1      12.008  21.234  28.875  1.00  0.00     0.257 A 
HETATM   17  O6  UNL     1      12.254  21.909  27.836  1.00  0.00    -0.267 OA
HETATM   18  C22 UNL     1      12.979  20.430  29.439  1.00  0.00     0.033 A 
HETATM   19  C23 UNL     1      14.342  20.321  28.869  1.00  0.00     0.047 C 
HETATM   20  C24 UNL     1      14.938  18.936  28.969  1.00  0.00     0.013 C 
HETATM   21  C25 UNL     1      14.301  18.118  29.978  1.00  0.00     0.026 C 
HETATM   22  N5  UNL     1      15.428  15.980  29.837  1.00  0.00    -0.404 N 
ATOM     23  H5  UNL     1      14.679  15.677  29.214  1.00  0.00     0.154 HD
ENDROOT
BRANCH   4  24
HETATM   24  C11 UNL     1      16.932  17.599  32.598  1.00  0.00     0.036 C 
BRANCH  24  25
HETATM   25  C12 UNL     1      18.109  18.397  33.043  1.00  0.00     0.019 C 
BRANCH  25  26
HETATM   26  C13 UNL     1      17.564  19.805  33.464  1.00  0.00     0.120 C 
BRANCH  26  27
HETATM   27  N2  UNL     1      17.979  20.788  32.517  1.00  0.00    -0.204 NA
HETATM   28  C14 UNL     1      16.958  21.295  31.662  1.00  0.00     0.143 C 
BRANCH  27  29
HETATM   29  O4  UNL     1      19.097  20.381  31.875  1.00  0.00    -0.314 OA
ATOM     30  H4  UNL     1      19.285  20.956  31.142  1.00  0.00     0.237 HD
ENDBRANCH  27  29
ENDBRANCH  26  27
ENDBRANCH  25  26
ENDBRANCH  24  25
ENDBRANCH   4  24
BRANCH   1  31
HETATM   31  C7  UNL     1      16.578  13.991  30.578  1.00  0.00     0.046 C 
BRANCH  31  32
HETATM   32  C6  UNL     1      17.519  14.035  31.762  1.00  0.00     0.124 C 
BRANCH  32  33
HETATM   33  N1  UNL     1      16.831  14.038  33.012  1.00  0.00    -0.361 N 
HETATM   34  C5  UNL     1      17.341  14.489  34.248  1.00  0.00     0.217 C 
HETATM   35  O2  UNL     1      18.499  14.946  34.324  1.00  0.00    -0.274 OA
ATOM     36  H1  UNL     1      15.876  13.680  33.012  1.00  0.00     0.162 HD
BRANCH  34  37
HETATM   37  C4  UNL     1      16.496  14.416  35.449  1.00  0.00     0.105 C 
BRANCH  37  38
HETATM   38  C3  UNL     1      15.188  15.133  35.378  1.00  0.00     0.035 C 
BRANCH  38  39
HETATM   39  C2  UNL     1      13.990  14.255  35.180  1.00  0.00     0.167 C 
BRANCH  39  40
HETATM   40  O1  UNL     1      13.956  13.604  33.979  1.00  0.00    -0.396 OA
HETATM   41  C1  UNL     1      12.707  13.571  33.416  1.00  0.00     0.201 C 
ENDBRANCH  39  40
ENDBRANCH  38  39
ENDBRANCH  37  38
ENDBRANCH  34  37
ENDBRANCH  32  33
ENDBRANCH  31  32
ENDBRANCH   1  31
TORSDOF 12
ENDMDL
MODEL 3
REMARK VINA RESULT: -9.699518812      1.150      1.210
REMARK  12 active torsions:
REMARK  status: ('A' for Active; 'I' for Inactive)
REMARK    1  A    between atoms: O1_2  and  C2_3 
REMARK    2  A    between atoms: C2_3  and  C3_4 
REMARK    3  A    between atoms: C3_4  and  C4_5 
REMARK    4  A    between atoms: C4_5  and  C5_6 
REMARK       I    between atoms: C5_6  and  N1_8 
REMARK    5  A    between atoms: N1_8  and  C6_10 
REMARK    6  A    between atoms: C6_10  and  C7_11 
REMARK    7  A    between atoms: C7_11  and  C8_12 
REMARK    8  A    between atoms: C10_15  and  C11_16 
REMARK    9  A    between atoms: C11_16  and  C12_17 
REMARK   10  A    between atoms: C12_17  and  C13_18 
REMARK   11  A    between atoms: C13_18  and  N2_19 
REMARK   12  A    between atoms: N2_19  and  O4_21 
ROOT
HETATM    1  C8  UNL     1      14.726  19.207  32.025  1.00  0.00     0.102 C 
HETATM    2  C9  UNL     1      16.192  18.896  31.822  1.00  0.00     0.193 C 
HETATM    3  O3  UNL     1      16.474  17.735  32.472  1.00  0.00    -0.381 OA
HETATM    4  C10 UNL     1      15.770  16.594  31.967  1.00  0.00     0.149 C 
HETATM    5  C15 UNL     1      14.350  16.768  32.194  1.00  0.00     0.056 C 
HETATM    6  C16 UNL     1      13.361  16.226  31.203  1.00  0.00     0.034 C 
HETATM    7  C17 UNL     1      12.986  14.822  31.582  1.00  0.00     0.013 C 
HETATM    8  C18 UNL     1      13.841  14.547  32.791  1.00  0.00     0.043 C 
HETATM    9  C19 UNL     1      13.169  13.687  33.801  1.00  0.00     0.030 A 
HETATM   10  N3  UNL     1      12.192  12.803  33.469  1.00  0.00    -0.311 N 
ATOM     11  H3  UNL     1      11.903  12.715  32.495  1.00  0.00     0.170 HD
HETATM   12  C20 UNL     1      11.596  12.038  34.409  1.00  0.00     0.327 A 
HETATM   13  O5  UNL     1      10.688  11.208  34.149  1.00  0.00    -0.247 OA
HETATM   14  N4  UNL     1      11.988  12.162  35.697  1.00  0.00    -0.275 N 
ATOM     15  H4  UNL     1      11.543  11.589  36.414  1.00  0.00     0.173 HD
HETATM   16  C21 UNL     1      12.969  13.043  36.055  1.00  0.00     0.257 A 
HETATM   17  O6  UNL     1      13.301  13.124  37.271  1.00  0.00    -0.267 OA
HETATM   18  C22 UNL     1      13.585  13.831  35.103  1.00  0.00     0.033 A 
HETATM   19  C23 UNL     1      14.657  14.794  35.449  1.00  0.00     0.047 C 
HETATM   20  C24 UNL     1      14.614  16.071  34.642  1.00  0.00     0.013 C 
HETATM   21  C25 UNL     1      13.869  15.937  33.410  1.00  0.00     0.026 C 
HETATM   22  N5  UNL     1      13.939  18.140  32.407  1.00  0.00    -0.404 N 
ATOM     23  H5  UNL     1      13.040  18.323  32.853  1.00  0.00     0.154 HD
ENDROOT
BRANCH   4  24
HETATM   24  C11 UNL     1      16.426  16.301  30.693  1.00  0.00     0.036 C 
BRANCH  24  25
HETATM   25  C12 UNL     1      17.429  15.206  30.564  1.00  0.00     0.019 C 
BRANCH  25  26
HETATM   26  C13 UNL     1      18.818  15.895  30.336  1.00  0.00     0.120 C 
BRANCH  26  27
HETATM   27  N2  UNL     1      19.557  15.911  31.556  1.00  0.00    -0.204 NA
HETATM   28  C14 UNL     1      19.323  14.816  32.438  1.00  0.00     0.143 C 
BRANCH  27  29
HETATM   29  O4  UNL     1      19.476  17.128  32.139  1.00  0.00    -0.314 OA
ATOM     30  H4  UNL     1      20.243  17.648  31.927  1.00  0.00     0.237 HD
ENDBRANCH  27  29
ENDBRANCH  26  27
ENDBRANCH  25  26
ENDBRANCH  24  25
ENDBRANCH   4  24
BRANCH   1  31
HETATM   31  C7  UNL     1      14.241  19.829  30.709  1.00  0.00     0.046 C 
BRANCH  31  32
HETATM   32  C6  UNL     1      15.346  20.646  30.077  1.00  0.00     0.124 C 
BRANCH  32  33
HETATM   33  N1  UNL     1      15.010  21.108  28.769  1.00  0.00    -0.361 N 
HETATM   34  C5  UNL     1      14.652  22.425  28.411  1.00  0.00     0.217 C 
HETATM   35  O2  UNL     1      14.609  23.324  29.275  1.00  0.00    -0.274 OA
ATOM     36  H1  UNL     1      15.031  20.418  28.018  1.00  0.00     0.162 HD
BRANCH  34  37
HETATM   37  C4  UNL     1      14.327  22.732  27.011  1.00  0.00     0.105 C 
BRANCH  37  38
HETATM   38  C3  UNL     1      15.063  23.879  26.401  1.00  0.00     0.035 C 
BRANCH  38  39
HETATM   39  C2  UNL     1      14.281  24.680  25.406  1.00  0.00     0.167 C 
BRANCH  39  40
HETATM   40  O1  UNL     1      13.358  25.524  25.956  1.00  0.00    -0.396 OA
HETATM   41  C1  UNL     1      13.115  26.635  25.192  1.00  0.00     0.201 C 
ENDBRANCH  39  40
ENDBRANCH  38  39
ENDBRANCH  37  38
ENDBRANCH  34  37
ENDBRANCH  32  33
ENDBRANCH  31  32
ENDBRANCH   1  31
TORSDOF 12
ENDMDL
MODEL 4
REMARK VINA RESULT: -9.621473862      1.550      2.109
REMARK  12 active torsions:
REMARK  status: ('A' for Active; 'I' for Inactive)
REMARK    1  A    between atoms: O1_2  and  C2_3 
REMARK    2  A    between atoms: C2_3  and  C3_4 
REMARK    3  A    between atoms: C3_4  and  C4_5 
REMARK    4  A    between atoms: C4_5  and  C5_6 
REMARK       I    between atoms: C5_6  and  N1_8 
REMARK    5  A    between atoms: N1_8  and  C6_10 
REMARK    6  A    between atoms: C6_10  and  C7_11 
REMARK    7  A    between atoms: C7_11  and  C8_12 
REMARK    8  A    between atoms: C10_15  and  C11_16 
REMARK    9  A    between atoms: C11_16  and  C12_17 
REMARK   10  A    between atoms: C12_17  and  C13_18 
REMARK   11  A    between atoms: C13_18  and  N2_19 
REMARK   12  A    between atoms: N2_19  and  O4_21 
ROOT
HETATM    1  C8  UNL     1      17.078  19.592  32.740  1.00  0.00     0.102 C 
HETATM    2  C9  UNL     1      18.426  18.931  32.556  1.00  0.00     0.193 C 
HETATM    3  O3  UNL     1      18.311  17.624  32.911  1.00  0.00    -0.381 OA
HETATM    4  C10 UNL     1      17.404  16.872  32.096  1.00  0.00     0.149 C 
HETATM    5  C15 UNL     1      16.061  17.386  32.273  1.00  0.00     0.056 C 
HETATM    6  C16 UNL     1      15.100  17.382  31.119  1.00  0.00     0.034 C 
HETATM    7  C17 UNL     1      14.327  16.094  31.112  1.00  0.00     0.013 C 
HETATM    8  C18 UNL     1      14.920  15.326  32.265  1.00  0.00     0.043 C 
HETATM    9  C19 UNL     1      13.923  14.489  32.985  1.00  0.00     0.030 A 
HETATM   10  N3  UNL     1      12.800  14.016  32.386  1.00  0.00    -0.311 N 
ATOM     11  H3  UNL     1      12.625  14.233  31.405  1.00  0.00     0.170 HD
HETATM   12  C20 UNL     1      11.911  13.262  33.067  1.00  0.00     0.327 A 
HETATM   13  O5  UNL     1      10.859  12.804  32.553  1.00  0.00    -0.247 OA
HETATM   14  N4  UNL     1      12.154  12.980  34.367  1.00  0.00    -0.275 N 
ATOM     15  H4  UNL     1      11.488  12.413  34.890  1.00  0.00     0.173 HD
HETATM   16  C21 UNL     1      13.277  13.444  34.992  1.00  0.00     0.257 A 
HETATM   17  O6  UNL     1      13.461  13.154  36.208  1.00  0.00    -0.267 OA
HETATM   18  C22 UNL     1      14.194  14.216  34.306  1.00  0.00     0.033 A 
HETATM   19  C23 UNL     1      15.425  14.734  34.945  1.00  0.00     0.047 C 
HETATM   20  C24 UNL     1      15.820  16.117  34.481  1.00  0.00     0.013 C 
HETATM   21  C25 UNL     1      15.229  16.477  33.211  1.00  0.00     0.026 C 
HETATM   22  N5  UNL     1      15.998  18.735  32.795  1.00  0.00    -0.404 N 
ATOM     23  H5  UNL     1      15.129  19.061  33.217  1.00  0.00     0.154 HD
ENDROOT
BRANCH   4  24
HETATM   24  C11 UNL     1      18.118  16.696  30.832  1.00  0.00     0.036 C 
BRANCH  24  25
HETATM   25  C12 UNL     1      18.975  15.503  30.577  1.00  0.00     0.019 C 
BRANCH  25  26
HETATM   26  C13 UNL     1      18.447  14.363  31.513  1.00  0.00     0.120 C 
BRANCH  26  27
HETATM   27  N2  UNL     1      19.427  14.059  32.505  1.00  0.00    -0.204 NA
HETATM   28  C14 UNL     1      18.994  14.169  33.858  1.00  0.00     0.143 C 
BRANCH  27  29
HETATM   29  O4  UNL     1      20.587  14.697  32.233  1.00  0.00    -0.314 OA
ATOM     30  H4  UNL     1      21.263  14.431  32.846  1.00  0.00     0.237 HD
ENDBRANCH  27  29
ENDBRANCH  26  27
ENDBRANCH  25  26
ENDBRANCH  24  25
ENDBRANCH   4  24
BRANCH   1  31
HETATM   31  C7  UNL     1      16.944  20.603  31.593  1.00  0.00     0.046 C 
BRANCH  31  32
HETATM   32  C6  UNL     1      15.517  21.097  31.495  1.00  0.00     0.124 C 
BRANCH  32  33
HETATM   33  N1  UNL     1      15.047  21.160  30.148  1.00  0.00    -0.361 N 
HETATM   34  C5  UNL     1      14.590  22.311  29.473  1.00  0.00     0.217 C 
HETATM   35  O2  UNL     1      14.573  23.417  30.051  1.00  0.00    -0.274 OA
ATOM     36  H1  UNL     1      15.042  20.286  29.622  1.00  0.00     0.162 HD
BRANCH  34  37
HETATM   37  C4  UNL     1      14.132  22.199  28.081  1.00  0.00     0.105 C 
BRANCH  37  38
HETATM   38  C3  UNL     1      13.097  21.158  27.810  1.00  0.00     0.035 C 
BRANCH  38  39
HETATM   39  C2  UNL     1      11.701  21.529  28.210  1.00  0.00     0.167 C 
BRANCH  39  40
HETATM   40  O1  UNL     1      11.361  21.169  29.483  1.00  0.00    -0.396 OA
HETATM   41  C1  UNL     1      11.648  19.861  29.773  1.00  0.00     0.201 C 
ENDBRANCH  39  40
ENDBRANCH  38  39
ENDBRANCH  37  38
ENDBRANCH  34  37
ENDBRANCH  32  33
ENDBRANCH  31  32
ENDBRANCH   1  31
TORSDOF 12
ENDMDL
MODEL 5
REMARK VINA RESULT: -9.538152180      2.322      2.600
REMARK  12 active torsions:
REMARK  status: ('A' for Active; 'I' for Inactive)
REMARK    1  A    between atoms: O1_2  and  C2_3 
REMARK    2  A    between atoms: C2_3  and  C3_4 
REMARK    3  A    between atoms: C3_4  and  C4_5 
REMARK    4  A    between atoms: C4_5  and  C5_6 
REMARK       I    between atoms: C5_6  and  N1_8 
REMARK    5  A    between atoms: N1_8  and  C6_10 
REMARK    6  A    between atoms: C6_10  and  C7_11 
REMARK    7  A    between atoms: C7_11  and  C8_12 
REMARK    8  A    between atoms: C10_15  and  C11_16 
REMARK    9  A    between atoms: C11_16  and  C12_17 
REMARK   10  A    between atoms: C12_17  and  C13_18 
REMARK   11  A    between atoms: C13_18  and  N2_19 
REMARK   12  A    between atoms: N2_19  and  O4_21 
ROOT
HETATM    1  C8  UNL     1      15.542  19.295  32.308  1.00  0.00     0.102 C 
HETATM    2  C9  UNL     1      16.976  18.816  32.316  1.00  0.00     0.193 C 
HETATM    3  O3  UNL     1      17.013  17.596  32.917  1.00  0.00    -0.381 OA
HETATM    4  C10 UNL     1      16.276  16.580  32.228  1.00  0.00     0.149 C 
HETATM    5  C15 UNL     1      14.867  16.916  32.241  1.00  0.00     0.056 C 
HETATM    6  C16 UNL     1      13.999  16.554  31.071  1.00  0.00     0.034 C 
HETATM    7  C17 UNL     1      13.409  15.189  31.285  1.00  0.00     0.013 C 
HETATM    8  C18 UNL     1      14.017  14.748  32.591  1.00  0.00     0.043 C 
HETATM    9  C19 UNL     1      13.094  13.927  33.419  1.00  0.00     0.030 A 
HETATM   10  N3  UNL     1      12.090  13.189  32.876  1.00  0.00    -0.311 N 
ATOM     11  H3  UNL     1      11.958  13.189  31.865  1.00  0.00     0.170 HD
HETATM   12  C20 UNL     1      11.265  12.456  33.654  1.00  0.00     0.327 A 
HETATM   13  O5  UNL     1      10.324  11.760  33.195  1.00  0.00    -0.247 OA
HETATM   14  N4  UNL     1      11.451  12.464  34.993  1.00  0.00    -0.275 N 
ATOM     15  H4  UNL     1      10.832  11.915  35.588  1.00  0.00     0.173 HD
HETATM   16  C21 UNL     1      12.454  13.196  35.562  1.00  0.00     0.257 A 
HETATM   17  O6  UNL     1      12.589  13.172  36.818  1.00  0.00    -0.267 OA
HETATM   18  C22 UNL     1      13.305  13.950  34.777  1.00  0.00     0.033 A 
HETATM   19  C23 UNL     1      14.407  14.754  35.355  1.00  0.00     0.047 C 
HETATM   20  C24 UNL     1      14.644  16.067  34.644  1.00  0.00     0.013 C 
HETATM   21  C25 UNL     1      14.101  16.090  33.304  1.00  0.00     0.026 C 
HETATM   22  N5  UNL     1      14.586  18.316  32.484  1.00  0.00    -0.404 N 
ATOM     23  H5  UNL     1      13.653  18.585  32.795  1.00  0.00     0.154 HD
ENDROOT
BRANCH   4  24
HETATM   24  C11 UNL     1      17.095  16.273  31.056  1.00  0.00     0.036 C 
BRANCH  24  25
HETATM   25  C12 UNL     1      17.936  15.045  30.988  1.00  0.00     0.019 C 
BRANCH  25  26
HETATM   26  C13 UNL     1      19.337  15.427  31.577  1.00  0.00     0.120 C 
BRANCH  26  27
HETATM   27  N2  UNL     1      19.757  14.432  32.509  1.00  0.00    -0.204 NA
HETATM   28  C14 UNL     1      19.041  14.392  33.740  1.00  0.00     0.143 C 
BRANCH  27  29
HETATM   29  O4  UNL     1      21.102  14.450  32.643  1.00  0.00    -0.314 OA
ATOM     30  H4  UNL     1      21.386  15.278  33.015  1.00  0.00     0.237 HD
ENDBRANCH  27  29
ENDBRANCH  26  27
ENDBRANCH  25  26
ENDBRANCH  24  25
ENDBRANCH   4  24
BRANCH   1  31
HETATM   31  C7  UNL     1      15.354  20.040  30.979  1.00  0.00     0.046 C 
BRANCH  31  32
HETATM   32  C6  UNL     1      14.239  21.055  31.101  1.00  0.00     0.124 C 
BRANCH  32  33
HETATM   33  N1  UNL     1      13.094  20.712  30.320  1.00  0.00    -0.361 N 
HETATM   34  C5  UNL     1      11.970  19.979  30.756  1.00  0.00     0.217 C 
HETATM   35  O2  UNL     1      11.905  19.565  31.931  1.00  0.00    -0.274 OA
ATOM     36  H1  UNL     1      13.088  21.028  29.350  1.00  0.00     0.162 HD
BRANCH  34  37
HETATM   37  C4  UNL     1      10.874  19.706  29.816  1.00  0.00     0.105 C 
BRANCH  37  38
HETATM   38  C3  UNL     1      10.880  20.499  28.550  1.00  0.00     0.035 C 
BRANCH  38  39
HETATM   39  C2  UNL     1       9.661  21.338  28.319  1.00  0.00     0.167 C 
BRANCH  39  40
HETATM   40  O1  UNL     1       9.049  21.131  27.116  1.00  0.00    -0.396 OA
HETATM   41  C1  UNL     1       8.261  20.010  27.093  1.00  0.00     0.201 C 
ENDBRANCH  39  40
ENDBRANCH  38  39
ENDBRANCH  37  38
ENDBRANCH  34  37
ENDBRANCH  32  33
ENDBRANCH  31  32
ENDBRANCH   1  31
TORSDOF 12
ENDMDL
