MODEL 1
REMARK VINA RESULT: -4.530568436      0.000      0.000
REMARK  1 active torsions:
REMARK  status: ('A' for Active; 'I' for Inactive)
REMARK    1  A    between atoms: C3_3  and  N1_4 
ROOT
HETATM    1  C1  UNL     1      32.423   4.558  28.213  1.00  0.00     0.013 C 
HETATM    2  C2  UNL     1      31.779   5.522  27.876  1.00  0.00    -0.089 C 
HETATM    3  C3  UNL     1      31.006   6.684  27.445  1.00  0.00     0.332 C 
ENDROOT
BRANCH   3   4
HETATM    4  N1  UNL     1      30.147   7.167  28.415  1.00  0.00    -0.029 N 
HETATM    5  C4  UNL     1      29.461   6.255  29.304  1.00  0.00     0.469 C 
HETATM    6  N2  UNL     1      28.692   7.224  30.114  1.00  0.00    -0.043 N 
HETATM    7  C5  UNL     1      29.009   8.428  29.443  1.00  0.00     0.239 C 
ATOM      8  H22 UNL     1      27.698   7.023  30.215  1.00  0.00     0.279 HD
ATOM      9  H21 UNL     1      28.884   7.212  31.116  1.00  0.00     0.279 HD
HETATM   10  C6  UNL     1      30.526   8.293  29.238  1.00  0.00     0.275 C 
HETATM   11  C7  UNL     1      29.022   8.018  27.987  1.00  0.00     0.275 C 
ENDBRANCH   3   4
TORSDOF 1
ENDMDL
MODEL 2
REMARK VINA RESULT: -4.032190545      1.102      2.022
REMARK  1 active torsions:
REMARK  status: ('A' for Active; 'I' for Inactive)
REMARK    1  A    between atoms: C3_3  and  N1_4 
ROOT
HETATM    1  C1  UNL     1      32.597   4.352  28.176  1.00  0.00     0.013 C 
HETATM    2  C2  UNL     1      31.559   4.883  28.490  1.00  0.00    -0.089 C 
HETATM    3  C3  UNL     1      30.299   5.507  28.886  1.00  0.00     0.332 C 
ENDROOT
BRANCH   3   4
HETATM    4  N1  UNL     1      30.113   6.767  28.345  1.00  0.00    -0.029 N 
HETATM    5  C4  UNL     1      30.853   7.175  27.172  1.00  0.00     0.469 C 
HETATM    6  N2  UNL     1      30.322   8.544  27.004  1.00  0.00    -0.043 N 
HETATM    7  C5  UNL     1      29.513   8.650  28.159  1.00  0.00     0.239 C 
ATOM      8  H22 UNL     1      31.021   9.277  26.885  1.00  0.00     0.279 HD
ATOM      9  H21 UNL     1      29.853   8.731  26.117  1.00  0.00     0.279 HD
HETATM   10  C6  UNL     1      28.781   7.299  28.164  1.00  0.00     0.275 C 
HETATM   11  C7  UNL     1      30.327   7.937  29.216  1.00  0.00     0.275 C 
ENDBRANCH   3   4
TORSDOF 1
ENDMDL
MODEL 3
REMARK VINA RESULT: -3.993081031      0.662      1.410
REMARK  1 active torsions:
REMARK  status: ('A' for Active; 'I' for Inactive)
REMARK    1  A    between atoms: C3_3  and  N1_4 
ROOT
HETATM    1  C1  UNL     1      32.218   4.756  28.212  1.00  0.00     0.013 C 
HETATM    2  C2  UNL     1      31.630   5.739  27.833  1.00  0.00    -0.089 C 
HETATM    3  C3  UNL     1      30.927   6.925  27.351  1.00  0.00     0.332 C 
ENDROOT
BRANCH   3   4
HETATM    4  N1  UNL     1      30.002   7.423  28.252  1.00  0.00    -0.029 N 
HETATM    5  C4  UNL     1      28.848   8.159  27.785  1.00  0.00     0.469 C 
HETATM    6  N2  UNL     1      28.204   8.466  29.079  1.00  0.00    -0.043 N 
HETATM    7  C5  UNL     1      29.174   7.956  29.975  1.00  0.00     0.239 C 
ATOM      8  H22 UNL     1      27.941   9.441  29.221  1.00  0.00     0.279 HD
ATOM      9  H21 UNL     1      27.258   8.104  29.199  1.00  0.00     0.279 HD
HETATM   10  C6  UNL     1      29.519   6.601  29.339  1.00  0.00     0.275 C 
HETATM   11  C7  UNL     1      30.482   8.327  29.314  1.00  0.00     0.275 C 
ENDBRANCH   3   4
TORSDOF 1
ENDMDL
MODEL 4
REMARK VINA RESULT: -3.970665319      1.519      2.541
REMARK  1 active torsions:
REMARK  status: ('A' for Active; 'I' for Inactive)
REMARK    1  A    between atoms: C3_3  and  N1_4 
ROOT
HETATM    1  C1  UNL     1      30.500   4.371  29.347  1.00  0.00     0.013 C 
HETATM    2  C2  UNL     1      29.951   5.351  28.905  1.00  0.00    -0.089 C 
HETATM    3  C3  UNL     1      29.263   6.527  28.378  1.00  0.00     0.332 C 
ENDROOT
BRANCH   3   4
HETATM    4  N1  UNL     1      30.119   7.554  28.023  1.00  0.00    -0.029 N 
HETATM    5  C4  UNL     1      31.359   7.268  27.336  1.00  0.00     0.469 C 
HETATM    6  N2  UNL     1      31.891   8.640  27.195  1.00  0.00    -0.043 N 
HETATM    7  C5  UNL     1      30.920   9.368  27.922  1.00  0.00     0.239 C 
ATOM      8  H22 UNL     1      32.857   8.771  27.493  1.00  0.00     0.279 HD
ATOM      9  H21 UNL     1      32.054   8.954  26.238  1.00  0.00     0.279 HD
HETATM   10  C6  UNL     1      29.607   8.757  27.407  1.00  0.00     0.275 C 
HETATM   11  C7  UNL     1      30.605   8.454  29.085  1.00  0.00     0.275 C 
ENDBRANCH   3   4
TORSDOF 1
ENDMDL
MODEL 5
REMARK VINA RESULT: -3.958192597      1.720      3.251
REMARK  1 active torsions:
REMARK  status: ('A' for Active; 'I' for Inactive)
REMARK    1  A    between atoms: C3_3  and  N1_4 
ROOT
HETATM    1  C1  UNL     1      29.691   8.907  27.440  1.00  0.00     0.013 C 
HETATM    2  C2  UNL     1      30.354   7.905  27.321  1.00  0.00    -0.089 C 
HETATM    3  C3  UNL     1      31.171   6.704  27.161  1.00  0.00     0.332 C 
ENDROOT
BRANCH   3   4
HETATM    4  N1  UNL     1      30.939   5.745  28.131  1.00  0.00    -0.029 N 
HETATM    5  C4  UNL     1      31.960   4.776  28.458  1.00  0.00     0.469 C 
HETATM    6  N2  UNL     1      31.250   4.005  29.501  1.00  0.00    -0.043 N 
HETATM    7  C5  UNL     1      29.975   4.615  29.447  1.00  0.00     0.239 C 
ATOM      8  H22 UNL     1      31.260   2.992  29.385  1.00  0.00     0.279 HD
ATOM      9  H21 UNL     1      31.694   3.989  30.419  1.00  0.00     0.279 HD
HETATM   10  C6  UNL     1      30.335   6.108  29.393  1.00  0.00     0.275 C 
HETATM   11  C7  UNL     1      29.772   4.860  27.968  1.00  0.00     0.275 C 
ENDBRANCH   3   4
TORSDOF 1
ENDMDL
