MODEL 1
REMARK VINA RESULT: -6.276119589      0.000      0.000
REMARK  12 active torsions:
REMARK  status: ('A' for Active; 'I' for Inactive)
REMARK       I    between atoms: C1_4  and  N3_6 
REMARK    1  A    between atoms: N3_6  and  C2_8 
REMARK    2  A    between atoms: C2_8  and  C3_9 
REMARK    3  A    between atoms: C3_9  and  O1_10 
REMARK    4  A    between atoms: O1_10  and  C4_11 
REMARK    5  A    between atoms: C6_13  and  N4_14 
REMARK    6  A    between atoms: N4_14  and  C7_16 
REMARK    7  A    between atoms: C7_16  and  C8_17 
REMARK    8  A    between atoms: C8_17  and  N5_18 
REMARK    9  A    between atoms: C8_17  and  C9_22 
REMARK   10  A    between atoms: C9_22  and  N6_23 
REMARK   11  A    between atoms: C10_27  and  N7_28 
REMARK   12  A    between atoms: C12_33  and  N8_34 
ROOT
HETATM    1  C4  UNL     1      -4.769  45.689  50.259  1.00  0.00     0.153 C 
HETATM    2  C5  UNL     1      -4.879  47.100  49.704  1.00  0.00     0.060 C 
HETATM    3  C6  UNL     1      -6.289  47.431  49.305  1.00  0.00     0.109 C 
HETATM    4  C10 UNL     1      -7.294  47.045  50.371  1.00  0.00     0.207 C 
HETATM    5  C11 UNL     1      -6.583  46.677  51.623  1.00  0.00     0.070 C 
HETATM    6  C12 UNL     1      -5.696  45.464  51.405  1.00  0.00     0.214 C 
ENDROOT
BRANCH   3   7
HETATM    7  N4  UNL     1      -6.718  46.847  48.063  1.00  0.00    -0.413 N 
ATOM      8  H4  UNL     1      -7.310  46.017  48.037  1.00  0.00     0.153 HD
BRANCH   7   9
HETATM    9  C7  UNL     1      -6.276  47.483  46.872  1.00  0.00     0.148 C 
BRANCH   9  10
HETATM   10  C8  UNL     1      -5.494  46.477  46.051  1.00  0.00     0.226 C 
BRANCH  10  11
HETATM   11  N5  UNL     1      -6.416  45.883  45.067  1.00  0.00    -0.072 N 
ATOM     12  H53 UNL     1      -7.141  45.312  45.500  1.00  0.00     0.274 HD
ATOM     13  H52 UNL     1      -7.027  46.573  44.632  1.00  0.00     0.274 HD
ATOM     14  H51 UNL     1      -5.858  45.365  44.388  1.00  0.00     0.274 HD
ENDBRANCH  10  11
BRANCH  10  15
HETATM   15  C9  UNL     1      -4.382  47.092  45.260  1.00  0.00     0.263 C 
BRANCH  15  16
HETATM   16  N6  UNL     1      -4.659  48.519  45.055  1.00  0.00    -0.077 N 
ATOM     17  H63 UNL     1      -4.549  48.797  44.081  1.00  0.00     0.274 HD
ATOM     18  H62 UNL     1      -5.650  48.738  45.158  1.00  0.00     0.274 HD
ATOM     19  H61 UNL     1      -4.075  49.072  45.683  1.00  0.00     0.274 HD
ENDBRANCH  15  16
ENDBRANCH  10  15
ENDBRANCH   9  10
ENDBRANCH   7   9
ENDBRANCH   3   7
BRANCH   4  20
HETATM   20  N7  UNL     1      -8.178  46.081  49.850  1.00  0.00    -0.073 N 
ATOM     21  H73 UNL     1      -8.665  45.568  50.584  1.00  0.00     0.274 HD
ATOM     22  H72 UNL     1      -8.992  46.505  49.405  1.00  0.00     0.274 HD
ATOM     23  H71 UNL     1      -7.670  45.463  49.218  1.00  0.00     0.274 HD
ENDBRANCH   4  20
BRANCH   1  24
HETATM   24  O1  UNL     1      -3.458  45.405  50.464  1.00  0.00    -0.382 OA
BRANCH  24  25
HETATM   25  C3  UNL     1      -2.926  44.332  49.843  1.00  0.00     0.188 C 
BRANCH  25  26
HETATM   26  C2  UNL     1      -2.125  43.404  50.721  1.00  0.00     0.148 C 
BRANCH  26  27
HETATM   27  N3  UNL     1      -2.917  42.508  51.515  1.00  0.00    -0.363 N 
HETATM   28  C1  UNL     1      -2.654  42.269  52.889  1.00  0.00     0.181 C 
HETATM   29  N1  UNL     1      -1.643  41.582  53.273  1.00  0.00    -0.374 N 
HETATM   30  N2  UNL     1      -3.533  42.805  53.856  1.00  0.00    -0.064 NA
ATOM     31  H12 UNL     1      -1.454  41.410  54.261  1.00  0.00     0.158 HD
ATOM     32  H11 UNL     1      -1.008  41.195  52.575  1.00  0.00     0.158 HD
ATOM     33  H3  UNL     1      -3.700  42.025  51.074  1.00  0.00     0.162 HD
ENDBRANCH  26  27
ENDBRANCH  25  26
ENDBRANCH  24  25
ENDBRANCH   1  24
BRANCH   6  34
HETATM   34  N8  UNL     1      -4.999  45.251  52.683  1.00  0.00    -0.072 N 
ATOM     35  H83 UNL     1      -5.167  44.309  53.036  1.00  0.00     0.274 HD
ATOM     36  H82 UNL     1      -3.990  45.200  52.542  1.00  0.00     0.274 HD
ATOM     37  H81 UNL     1      -5.230  45.950  53.390  1.00  0.00     0.274 HD
ENDBRANCH   6  34
TORSDOF 12
ENDMDL
MODEL 2
REMARK VINA RESULT: -6.271457468      2.467      5.972
REMARK  12 active torsions:
REMARK  status: ('A' for Active; 'I' for Inactive)
REMARK       I    between atoms: C1_4  and  N3_6 
REMARK    1  A    between atoms: N3_6  and  C2_8 
REMARK    2  A    between atoms: C2_8  and  C3_9 
REMARK    3  A    between atoms: C3_9  and  O1_10 
REMARK    4  A    between atoms: O1_10  and  C4_11 
REMARK    5  A    between atoms: C6_13  and  N4_14 
REMARK    6  A    between atoms: N4_14  and  C7_16 
REMARK    7  A    between atoms: C7_16  and  C8_17 
REMARK    8  A    between atoms: C8_17  and  N5_18 
REMARK    9  A    between atoms: C8_17  and  C9_22 
REMARK   10  A    between atoms: C9_22  and  N6_23 
REMARK   11  A    between atoms: C10_27  and  N7_28 
REMARK   12  A    between atoms: C12_33  and  N8_34 
ROOT
HETATM    1  C4  UNL     1      -4.789  44.654  48.566  1.00  0.00     0.153 C 
HETATM    2  C5  UNL     1      -4.460  44.069  49.931  1.00  0.00     0.060 C 
HETATM    3  C6  UNL     1      -5.641  43.358  50.529  1.00  0.00     0.109 C 
HETATM    4  C10 UNL     1      -6.313  42.427  49.540  1.00  0.00     0.207 C 
HETATM    5  C11 UNL     1      -5.464  42.284  48.328  1.00  0.00     0.070 C 
HETATM    6  C12 UNL     1      -5.300  43.619  47.622  1.00  0.00     0.214 C 
ENDROOT
BRANCH   3   7
HETATM    7  N4  UNL     1      -6.652  44.221  51.077  1.00  0.00    -0.413 N 
ATOM      8  H4  UNL     1      -7.645  44.051  50.919  1.00  0.00     0.153 HD
BRANCH   7   9
HETATM    9  C7  UNL     1      -6.199  45.323  51.850  1.00  0.00     0.148 C 
BRANCH   9  10
HETATM   10  C8  UNL     1      -6.997  46.550  51.454  1.00  0.00     0.226 C 
BRANCH  10  11
HETATM   11  N5  UNL     1      -6.189  47.739  51.775  1.00  0.00    -0.072 N 
ATOM     12  H53 UNL     1      -6.268  48.018  52.753  1.00  0.00     0.274 HD
ATOM     13  H52 UNL     1      -5.187  47.549  51.768  1.00  0.00     0.274 HD
ATOM     14  H51 UNL     1      -6.455  48.482  51.130  1.00  0.00     0.274 HD
ENDBRANCH  10  11
BRANCH  10  15
HETATM   15  C9  UNL     1      -7.281  46.625  49.986  1.00  0.00     0.263 C 
BRANCH  15  16
HETATM   16  N6  UNL     1      -8.723  46.479  49.760  1.00  0.00    -0.077 N 
ATOM     17  H63 UNL     1      -8.949  45.628  49.246  1.00  0.00     0.274 HD
ATOM     18  H62 UNL     1      -9.230  46.268  50.620  1.00  0.00     0.274 HD
ATOM     19  H61 UNL     1      -9.081  47.315  49.298  1.00  0.00     0.274 HD
ENDBRANCH  15  16
ENDBRANCH  10  15
ENDBRANCH   9  10
ENDBRANCH   7   9
ENDBRANCH   3   7
BRANCH   4  20
HETATM   20  N7  UNL     1      -7.637  42.851  49.327  1.00  0.00    -0.073 N 
ATOM     21  H73 UNL     1      -8.278  42.484  50.030  1.00  0.00     0.274 HD
ATOM     22  H72 UNL     1      -7.761  43.844  49.522  1.00  0.00     0.274 HD
ATOM     23  H71 UNL     1      -7.922  42.605  48.379  1.00  0.00     0.274 HD
ENDBRANCH   4  20
BRANCH   1  24
HETATM   24  O1  UNL     1      -3.735  45.399  48.149  1.00  0.00    -0.382 OA
BRANCH  24  25
HETATM   25  C3  UNL     1      -3.937  46.703  47.870  1.00  0.00     0.188 C 
BRANCH  25  26
HETATM   26  C2  UNL     1      -3.845  47.079  46.412  1.00  0.00     0.148 C 
BRANCH  26  27
HETATM   27  N3  UNL     1      -5.042  47.656  45.872  1.00  0.00    -0.363 N 
HETATM   28  C1  UNL     1      -6.298  46.995  45.921  1.00  0.00     0.181 C 
HETATM   29  N1  UNL     1      -6.556  45.979  45.184  1.00  0.00    -0.374 N 
HETATM   30  N2  UNL     1      -7.288  47.475  46.807  1.00  0.00    -0.064 NA
ATOM     31  H12 UNL     1      -7.458  45.505  45.220  1.00  0.00     0.158 HD
ATOM     32  H11 UNL     1      -5.841  45.633  44.545  1.00  0.00     0.158 HD
ATOM     33  H3  UNL     1      -4.990  48.577  45.437  1.00  0.00     0.162 HD
ENDBRANCH  26  27
ENDBRANCH  25  26
ENDBRANCH  24  25
ENDBRANCH   1  24
BRANCH   6  34
HETATM   34  N8  UNL     1      -4.389  43.359  46.496  1.00  0.00    -0.072 N 
ATOM     35  H83 UNL     1      -3.426  43.272  46.821  1.00  0.00     0.274 HD
ATOM     36  H82 UNL     1      -4.528  42.419  46.127  1.00  0.00     0.274 HD
ATOM     37  H81 UNL     1      -4.459  44.054  45.752  1.00  0.00     0.274 HD
ENDBRANCH   6  34
TORSDOF 12
ENDMDL
MODEL 3
REMARK VINA RESULT: -6.233597271      2.292      6.202
REMARK  12 active torsions:
REMARK  status: ('A' for Active; 'I' for Inactive)
REMARK       I    between atoms: C1_4  and  N3_6 
REMARK    1  A    between atoms: N3_6  and  C2_8 
REMARK    2  A    between atoms: C2_8  and  C3_9 
REMARK    3  A    between atoms: C3_9  and  O1_10 
REMARK    4  A    between atoms: O1_10  and  C4_11 
REMARK    5  A    between atoms: C6_13  and  N4_14 
REMARK    6  A    between atoms: N4_14  and  C7_16 
REMARK    7  A    between atoms: C7_16  and  C8_17 
REMARK    8  A    between atoms: C8_17  and  N5_18 
REMARK    9  A    between atoms: C8_17  and  C9_22 
REMARK   10  A    between atoms: C9_22  and  N6_23 
REMARK   11  A    between atoms: C10_27  and  N7_28 
REMARK   12  A    between atoms: C12_33  and  N8_34 
ROOT
HETATM    1  C4  UNL     1      -5.945  45.609  49.165  1.00  0.00     0.153 C 
HETATM    2  C5  UNL     1      -6.598  44.904  50.344  1.00  0.00     0.060 C 
HETATM    3  C6  UNL     1      -6.542  45.740  51.591  1.00  0.00     0.109 C 
HETATM    4  C10 UNL     1      -6.965  47.174  51.342  1.00  0.00     0.207 C 
HETATM    5  C11 UNL     1      -7.562  47.293  49.986  1.00  0.00     0.070 C 
HETATM    6  C12 UNL     1      -6.543  46.951  48.914  1.00  0.00     0.214 C 
ENDROOT
BRANCH   3   7
HETATM    7  N4  UNL     1      -5.260  45.767  52.243  1.00  0.00    -0.413 N 
ATOM      8  H4  UNL     1      -4.747  46.638  52.380  1.00  0.00     0.153 HD
BRANCH   7   9
HETATM    9  C7  UNL     1      -4.744  44.521  52.686  1.00  0.00     0.148 C 
BRANCH   9  10
HETATM   10  C8  UNL     1      -3.385  44.308  52.049  1.00  0.00     0.226 C 
BRANCH  10  11
HETATM   11  N5  UNL     1      -2.358  44.618  53.059  1.00  0.00    -0.072 N 
ATOM     12  H53 UNL     1      -2.749  44.756  53.990  1.00  0.00     0.274 HD
ATOM     13  H52 UNL     1      -1.766  43.817  53.278  1.00  0.00     0.274 HD
ATOM     14  H51 UNL     1      -1.828  45.424  52.729  1.00  0.00     0.274 HD
ENDBRANCH  10  11
BRANCH  10  15
HETATM   15  C9  UNL     1      -3.141  42.892  51.629  1.00  0.00     0.263 C 
BRANCH  15  16
HETATM   16  N6  UNL     1      -4.030  41.999  52.382  1.00  0.00    -0.077 N 
ATOM     17  H63 UNL     1      -4.706  42.514  52.945  1.00  0.00     0.274 HD
ATOM     18  H62 UNL     1      -4.689  41.510  51.775  1.00  0.00     0.274 HD
ATOM     19  H61 UNL     1      -3.471  41.356  52.942  1.00  0.00     0.274 HD
ENDBRANCH  15  16
ENDBRANCH  10  15
ENDBRANCH   9  10
ENDBRANCH   7   9
ENDBRANCH   3   7
BRANCH   4  20
HETATM   20  N7  UNL     1      -5.889  48.034  51.627  1.00  0.00    -0.073 N 
ATOM     21  H73 UNL     1      -6.132  48.738  52.323  1.00  0.00     0.274 HD
ATOM     22  H72 UNL     1      -5.147  47.565  52.147  1.00  0.00     0.274 HD
ATOM     23  H71 UNL     1      -5.549  48.449  50.760  1.00  0.00     0.274 HD
ENDBRANCH   4  20
BRANCH   1  24
HETATM   24  O1  UNL     1      -5.901  44.749  48.116  1.00  0.00    -0.382 OA
BRANCH  24  25
HETATM   25  C3  UNL     1      -5.887  43.424  48.369  1.00  0.00     0.188 C 
BRANCH  25  26
HETATM   26  C2  UNL     1      -5.598  42.540  47.182  1.00  0.00     0.148 C 
BRANCH  26  27
HETATM   27  N3  UNL     1      -6.571  42.622  46.131  1.00  0.00    -0.363 N 
HETATM   28  C1  UNL     1      -6.358  43.381  44.950  1.00  0.00     0.181 C 
HETATM   29  N1  UNL     1      -6.381  44.662  44.958  1.00  0.00    -0.374 N 
HETATM   30  N2  UNL     1      -6.116  42.702  43.737  1.00  0.00    -0.064 NA
ATOM     31  H12 UNL     1      -6.227  45.207  44.109  1.00  0.00     0.158 HD
ATOM     32  H11 UNL     1      -6.555  45.153  45.834  1.00  0.00     0.158 HD
ATOM     33  H3  UNL     1      -7.450  42.116  46.236  1.00  0.00     0.162 HD
ENDBRANCH  26  27
ENDBRANCH  25  26
ENDBRANCH  24  25
ENDBRANCH   1  24
BRANCH   6  34
HETATM   34  N8  UNL     1      -7.270  47.033  47.637  1.00  0.00    -0.072 N 
ATOM     35  H83 UNL     1      -7.574  46.108  47.333  1.00  0.00     0.274 HD
ATOM     36  H82 UNL     1      -8.180  47.475  47.767  1.00  0.00     0.274 HD
ATOM     37  H81 UNL     1      -6.742  47.501  46.901  1.00  0.00     0.274 HD
ENDBRANCH   6  34
TORSDOF 12
ENDMDL
MODEL 4
REMARK VINA RESULT: -6.204234936      2.072      6.452
REMARK  12 active torsions:
REMARK  status: ('A' for Active; 'I' for Inactive)
REMARK       I    between atoms: C1_4  and  N3_6 
REMARK    1  A    between atoms: N3_6  and  C2_8 
REMARK    2  A    between atoms: C2_8  and  C3_9 
REMARK    3  A    between atoms: C3_9  and  O1_10 
REMARK    4  A    between atoms: O1_10  and  C4_11 
REMARK    5  A    between atoms: C6_13  and  N4_14 
REMARK    6  A    between atoms: N4_14  and  C7_16 
REMARK    7  A    between atoms: C7_16  and  C8_17 
REMARK    8  A    between atoms: C8_17  and  N5_18 
REMARK    9  A    between atoms: C8_17  and  C9_22 
REMARK   10  A    between atoms: C9_22  and  N6_23 
REMARK   11  A    between atoms: C10_27  and  N7_28 
REMARK   12  A    between atoms: C12_33  and  N8_34 
ROOT
HETATM    1  C4  UNL     1      -5.279  47.078  49.000  1.00  0.00     0.153 C 
HETATM    2  C5  UNL     1      -3.807  47.267  49.332  1.00  0.00     0.060 C 
HETATM    3  C6  UNL     1      -2.979  46.106  48.861  1.00  0.00     0.109 C 
HETATM    4  C10 UNL     1      -3.303  45.708  47.436  1.00  0.00     0.207 C 
HETATM    5  C11 UNL     1      -4.172  46.740  46.811  1.00  0.00     0.070 C 
HETATM    6  C12 UNL     1      -5.499  46.845  47.544  1.00  0.00     0.214 C 
ENDROOT
BRANCH   3   7
HETATM    7  N4  UNL     1      -3.072  44.926  49.679  1.00  0.00    -0.413 N 
ATOM      8  H4  UNL     1      -3.748  44.189  49.481  1.00  0.00     0.153 HD
BRANCH   7   9
HETATM    9  C7  UNL     1      -2.175  44.839  50.777  1.00  0.00     0.148 C 
BRANCH   9  10
HETATM   10  C8  UNL     1      -2.848  44.054  51.886  1.00  0.00     0.226 C 
BRANCH  10  11
HETATM   11  N5  UNL     1      -2.385  44.602  53.173  1.00  0.00    -0.072 N 
ATOM     12  H53 UNL     1      -2.846  44.171  53.974  1.00  0.00     0.274 HD
ATOM     13  H52 UNL     1      -1.430  44.324  53.399  1.00  0.00     0.274 HD
ATOM     14  H51 UNL     1      -2.505  45.614  53.144  1.00  0.00     0.274 HD
ENDBRANCH  10  11
BRANCH  10  15
HETATM   15  C9  UNL     1      -4.338  44.188  51.889  1.00  0.00     0.263 C 
BRANCH  15  16
HETATM   16  N6  UNL     1      -4.732  45.235  52.838  1.00  0.00    -0.077 N 
ATOM     17  H63 UNL     1      -3.929  45.657  53.303  1.00  0.00     0.274 HD
ATOM     18  H62 UNL     1      -5.083  46.070  52.368  1.00  0.00     0.274 HD
ATOM     19  H61 UNL     1      -5.407  44.856  53.503  1.00  0.00     0.274 HD
ENDBRANCH  15  16
ENDBRANCH  10  15
ENDBRANCH   9  10
ENDBRANCH   7   9
ENDBRANCH   3   7
BRANCH   4  20
HETATM   20  N7  UNL     1      -3.792  44.389  47.419  1.00  0.00    -0.073 N 
ATOM     21  H73 UNL     1      -3.229  43.762  47.993  1.00  0.00     0.274 HD
ATOM     22  H72 UNL     1      -4.673  44.297  47.925  1.00  0.00     0.274 HD
ATOM     23  H71 UNL     1      -3.866  44.068  46.454  1.00  0.00     0.274 HD
ENDBRANCH   4  20
BRANCH   1  24
HETATM   24  O1  UNL     1      -5.985  48.084  49.574  1.00  0.00    -0.382 OA
BRANCH  24  25
HETATM   25  C3  UNL     1      -6.186  48.052  50.907  1.00  0.00     0.188 C 
BRANCH  25  26
HETATM   26  C2  UNL     1      -7.431  47.332  51.361  1.00  0.00     0.148 C 
BRANCH  26  27
HETATM   27  N3  UNL     1      -8.058  46.537  50.345  1.00  0.00    -0.363 N 
HETATM   28  C1  UNL     1      -9.240  46.948  49.674  1.00  0.00     0.181 C 
HETATM   29  N1  UNL     1     -10.381  46.952  50.256  1.00  0.00    -0.374 N 
HETATM   30  N2  UNL     1      -9.151  47.361  48.327  1.00  0.00    -0.064 NA
ATOM     31  H12 UNL     1     -11.230  47.247  49.774  1.00  0.00     0.158 HD
ATOM     32  H11 UNL     1     -10.445  46.653  51.230  1.00  0.00     0.158 HD
ATOM     33  H3  UNL     1      -7.639  45.642  50.094  1.00  0.00     0.162 HD
ENDBRANCH  26  27
ENDBRANCH  25  26
ENDBRANCH  24  25
ENDBRANCH   1  24
BRANCH   6  34
HETATM   34  N8  UNL     1      -6.228  47.939  46.883  1.00  0.00    -0.072 N 
ATOM     35  H83 UNL     1      -6.114  48.813  47.397  1.00  0.00     0.274 HD
ATOM     36  H82 UNL     1      -5.776  48.198  46.007  1.00  0.00     0.274 HD
ATOM     37  H81 UNL     1      -7.216  47.732  46.733  1.00  0.00     0.274 HD
ENDBRANCH   6  34
TORSDOF 12
ENDMDL
MODEL 5
REMARK VINA RESULT: -6.193781102      2.282      3.749
REMARK  12 active torsions:
REMARK  status: ('A' for Active; 'I' for Inactive)
REMARK       I    between atoms: C1_4  and  N3_6 
REMARK    1  A    between atoms: N3_6  and  C2_8 
REMARK    2  A    between atoms: C2_8  and  C3_9 
REMARK    3  A    between atoms: C3_9  and  O1_10 
REMARK    4  A    between atoms: O1_10  and  C4_11 
REMARK    5  A    between atoms: C6_13  and  N4_14 
REMARK    6  A    between atoms: N4_14  and  C7_16 
REMARK    7  A    between atoms: C7_16  and  C8_17 
REMARK    8  A    between atoms: C8_17  and  N5_18 
REMARK    9  A    between atoms: C8_17  and  C9_22 
REMARK   10  A    between atoms: C9_22  and  N6_23 
REMARK   11  A    between atoms: C10_27  and  N7_28 
REMARK   12  A    between atoms: C12_33  and  N8_34 
ROOT
HETATM    1  C4  UNL     1      -5.307  45.462  48.091  1.00  0.00     0.153 C 
HETATM    2  C5  UNL     1      -4.519  45.797  46.834  1.00  0.00     0.060 C 
HETATM    3  C6  UNL     1      -5.388  46.440  45.790  1.00  0.00     0.109 C 
HETATM    4  C10 UNL     1      -6.250  47.547  46.361  1.00  0.00     0.207 C 
HETATM    5  C11 UNL     1      -5.813  47.861  47.746  1.00  0.00     0.070 C 
HETATM    6  C12 UNL     1      -5.994  46.658  48.657  1.00  0.00     0.214 C 
ENDROOT
BRANCH   3   7
HETATM    7  N4  UNL     1      -6.249  45.533  45.079  1.00  0.00    -0.413 N 
ATOM      8  H4  UNL     1      -7.259  45.531  45.222  1.00  0.00     0.153 HD
BRANCH   7   9
HETATM    9  C7  UNL     1      -5.623  44.640  44.169  1.00  0.00     0.148 C 
BRANCH   9  10
HETATM   10  C8  UNL     1      -6.238  43.266  44.344  1.00  0.00     0.226 C 
BRANCH  10  11
HETATM   11  N5  UNL     1      -5.830  42.438  43.195  1.00  0.00    -0.072 N 
ATOM     12  H53 UNL     1      -6.064  41.453  43.315  1.00  0.00     0.274 HD
ATOM     13  H52 UNL     1      -6.394  42.612  42.364  1.00  0.00     0.274 HD
ATOM     14  H51 UNL     1      -4.834  42.591  43.036  1.00  0.00     0.274 HD
ENDBRANCH  10  11
BRANCH  10  15
HETATM   15  C9  UNL     1      -5.753  42.549  45.565  1.00  0.00     0.263 C 
BRANCH  15  16
HETATM   16  N6  UNL     1      -6.851  42.433  46.532  1.00  0.00    -0.077 N 
ATOM     17  H63 UNL     1      -7.259  43.338  46.762  1.00  0.00     0.274 HD
ATOM     18  H62 UNL     1      -7.679  41.999  46.124  1.00  0.00     0.274 HD
ATOM     19  H61 UNL     1      -6.524  41.936  47.360  1.00  0.00     0.274 HD
ENDBRANCH  15  16
ENDBRANCH  10  15
ENDBRANCH   9  10
ENDBRANCH   7   9
ENDBRANCH   3   7
BRANCH   4  20
HETATM   20  N7  UNL     1      -7.607  47.212  46.197  1.00  0.00    -0.073 N 
ATOM     21  H73 UNL     1      -7.735  46.413  45.576  1.00  0.00     0.274 HD
ATOM     22  H72 UNL     1      -8.009  46.806  47.041  1.00  0.00     0.274 HD
ATOM     23  H71 UNL     1      -8.122  48.034  45.881  1.00  0.00     0.274 HD
ENDBRANCH   4  20
BRANCH   1  24
HETATM   24  O1  UNL     1      -4.505  44.760  48.931  1.00  0.00    -0.382 OA
BRANCH  24  25
HETATM   25  C3  UNL     1      -4.868  43.507  49.272  1.00  0.00     0.188 C 
BRANCH  25  26
HETATM   26  C2  UNL     1      -4.324  43.008  50.587  1.00  0.00     0.148 C 
BRANCH  26  27
HETATM   27  N3  UNL     1      -5.198  43.214  51.706  1.00  0.00    -0.363 N 
HETATM   28  C1  UNL     1      -5.485  44.505  52.224  1.00  0.00     0.181 C 
HETATM   29  N1  UNL     1      -4.616  45.176  52.884  1.00  0.00    -0.374 N 
HETATM   30  N2  UNL     1      -6.764  45.060  52.002  1.00  0.00    -0.064 NA
ATOM     31  H12 UNL     1      -4.823  46.104  53.256  1.00  0.00     0.158 HD
ATOM     32  H11 UNL     1      -3.692  44.775  53.045  1.00  0.00     0.158 HD
ATOM     33  H3  UNL     1      -5.629  42.402  52.148  1.00  0.00     0.162 HD
ENDBRANCH  26  27
ENDBRANCH  25  26
ENDBRANCH  24  25
ENDBRANCH   1  24
BRANCH   6  34
HETATM   34  N8  UNL     1      -5.460  47.070  49.965  1.00  0.00    -0.072 N 
ATOM     35  H83 UNL     1      -6.030  46.694  50.723  1.00  0.00     0.274 HD
ATOM     36  H82 UNL     1      -4.580  46.595  50.163  1.00  0.00     0.274 HD
ATOM     37  H81 UNL     1      -5.355  48.081  50.057  1.00  0.00     0.274 HD
ENDBRANCH   6  34
TORSDOF 12
ENDMDL
