MODEL 1
REMARK VINA RESULT: -6.023566379      0.000      0.000
REMARK  11 active torsions:
REMARK  status: ('A' for Active; 'I' for Inactive)
REMARK    1  A    between atoms: N1_1  and  C1_5 
REMARK    2  A    between atoms: C1_5  and  C2_6 
REMARK    3  A    between atoms: C2_6  and  N2_7 
REMARK    4  A    between atoms: N2_7  and  C3_10 
REMARK    5  A    between atoms: C3_10  and  O1_11 
REMARK    6  A    between atoms: O1_11  and  C4_12 
REMARK    7  A    between atoms: C4_12  and  N3_13 
REMARK    8  A    between atoms: C5_14  and  C6_15 
REMARK    9  A    between atoms: C6_15  and  C7_16 
REMARK   10  A    between atoms: C7_16  and  N4_17 
REMARK   11  A    between atoms: C10_28  and  O3_29 
ROOT
HETATM    1  N3  UNL     1      -0.534  15.056   9.979  1.00  0.00    -0.298 N 
HETATM    2  C5  UNL     1       0.029  15.621  11.063  1.00  0.00     0.089 A 
HETATM    3  N5  UNL     1       1.294  15.934  10.732  1.00  0.00    -0.338 N 
ATOM      4  H5  UNL     1       1.965  16.378  11.359  1.00  0.00     0.167 HD
HETATM    5  C8  UNL     1       1.550  15.583   9.467  1.00  0.00     0.147 A 
HETATM    6  C9  UNL     1       2.681  15.688   8.666  1.00  0.00     0.279 A 
HETATM    7  O2  UNL     1       3.714  16.199   9.135  1.00  0.00    -0.265 OA
HETATM    8  N6  UNL     1       2.589  15.220   7.401  1.00  0.00    -0.287 N 
ATOM      9  H6  UNL     1       3.406  15.286   6.793  1.00  0.00     0.172 HD
HETATM   10  C10 UNL     1       1.459  14.668   6.911  1.00  0.00     0.225 A 
HETATM   11  N7  UNL     1       0.362  14.577   7.717  1.00  0.00    -0.306 N 
ATOM     12  H7  UNL     1      -0.494  14.162   7.350  1.00  0.00     0.171 HD
HETATM   13  C11 UNL     1       0.387  15.022   8.979  1.00  0.00     0.146 A 
ENDROOT
BRANCH   1  14
HETATM   14  C4  UNL     1      -1.899  14.560   9.872  1.00  0.00     0.303 C 
BRANCH  14  15
HETATM   15  O1  UNL     1      -1.993  13.469   9.035  1.00  0.00    -0.345 OA
BRANCH  15  16
HETATM   16  C3  UNL     1      -1.911  12.281   9.754  1.00  0.00     0.401 C 
BRANCH  16  17
HETATM   17  N2  UNL     1      -2.688  11.276   9.011  1.00  0.00    -0.053 N 
ATOM     18  H22 UNL     1      -2.744  11.455   8.009  1.00  0.00     0.279 HD
ATOM     19  H21 UNL     1      -3.691  11.314   9.193  1.00  0.00     0.279 HD
BRANCH  17  20
HETATM   20  C2  UNL     1      -2.070   9.988   9.351  1.00  0.00     0.262 C 
BRANCH  20  21
HETATM   21  C1  UNL     1      -0.656  10.302   9.808  1.00  0.00     0.257 C 
BRANCH  21  22
HETATM   22  N1  UNL     1       0.204   9.291   9.224  1.00  0.00    -0.078 N 
ATOM     23  H13 UNL     1       0.801   8.825   9.907  1.00  0.00     0.274 HD
ATOM     24  H12 UNL     1      -0.302   8.462   8.911  1.00  0.00     0.274 HD
ATOM     25  H11 UNL     1       0.728   9.748   8.477  1.00  0.00     0.274 HD
ENDBRANCH  21  22
ENDBRANCH  20  21
ENDBRANCH  17  20
ENDBRANCH  16  17
ENDBRANCH  15  16
ENDBRANCH  14  15
ENDBRANCH   1  14
BRANCH   2  26
HETATM   26  C6  UNL     1      -0.657  15.842  12.372  1.00  0.00     0.104 C 
BRANCH  26  27
HETATM   27  C7  UNL     1      -0.616  17.303  12.698  1.00  0.00     0.237 C 
BRANCH  27  28
HETATM   28  N4  UNL     1      -1.322  18.019  11.647  1.00  0.00    -0.079 N 
ATOM     29  H43 UNL     1      -1.030  17.735  10.712  1.00  0.00     0.274 HD
ATOM     30  H42 UNL     1      -2.302  17.745  11.574  1.00  0.00     0.274 HD
ATOM     31  H41 UNL     1      -1.203  19.018  11.811  1.00  0.00     0.274 HD
ENDBRANCH  27  28
ENDBRANCH  26  27
ENDBRANCH   2  26
BRANCH  10  32
HETATM   32  O3  UNL     1       1.347  14.188   5.630  1.00  0.00    -0.332 OA
ATOM     33  H3  UNL     1       1.480  13.276   5.401  1.00  0.00     0.221 HD
ENDBRANCH  10  32
TORSDOF 11
ENDMDL
MODEL 2
REMARK VINA RESULT: -5.982587402      1.639      5.262
REMARK  11 active torsions:
REMARK  status: ('A' for Active; 'I' for Inactive)
REMARK    1  A    between atoms: N1_1  and  C1_5 
REMARK    2  A    between atoms: C1_5  and  C2_6 
REMARK    3  A    between atoms: C2_6  and  N2_7 
REMARK    4  A    between atoms: N2_7  and  C3_10 
REMARK    5  A    between atoms: C3_10  and  O1_11 
REMARK    6  A    between atoms: O1_11  and  C4_12 
REMARK    7  A    between atoms: C4_12  and  N3_13 
REMARK    8  A    between atoms: C5_14  and  C6_15 
REMARK    9  A    between atoms: C6_15  and  C7_16 
REMARK   10  A    between atoms: C7_16  and  N4_17 
REMARK   11  A    between atoms: C10_28  and  O3_29 
ROOT
HETATM    1  N3  UNL     1      -0.419  14.427  10.249  1.00  0.00    -0.298 N 
HETATM    2  C5  UNL     1      -1.303  13.823   9.434  1.00  0.00     0.089 A 
HETATM    3  N5  UNL     1      -0.769  13.830   8.200  1.00  0.00    -0.338 N 
ATOM      4  H5  UNL     1      -1.216  13.438   7.371  1.00  0.00     0.167 HD
HETATM    5  C8  UNL     1       0.430  14.422   8.210  1.00  0.00     0.147 A 
HETATM    6  C9  UNL     1       1.368  14.676   7.216  1.00  0.00     0.279 A 
HETATM    7  O2  UNL     1       1.131  14.318   6.048  1.00  0.00    -0.265 OA
HETATM    8  N6  UNL     1       2.504  15.310   7.584  1.00  0.00    -0.287 N 
ATOM      9  H6  UNL     1       3.209  15.509   6.873  1.00  0.00     0.172 HD
HETATM   10  C10 UNL     1       2.742  15.692   8.857  1.00  0.00     0.225 A 
HETATM   11  N7  UNL     1       1.807  15.430   9.814  1.00  0.00    -0.306 N 
ATOM     12  H7  UNL     1       1.984  15.716  10.777  1.00  0.00     0.171 HD
HETATM   13  C11 UNL     1       0.661  14.805   9.515  1.00  0.00     0.146 A 
ENDROOT
BRANCH   1  14
HETATM   14  C4  UNL     1      -0.572  14.647  11.681  1.00  0.00     0.303 C 
BRANCH  14  15
HETATM   15  O1  UNL     1      -0.296  15.947  12.041  1.00  0.00    -0.345 OA
BRANCH  15  16
HETATM   16  C3  UNL     1      -0.780  16.225  13.315  1.00  0.00     0.401 C 
BRANCH  16  17
HETATM   17  N2  UNL     1      -0.950  17.684  13.402  1.00  0.00    -0.053 N 
ATOM     18  H22 UNL     1      -0.120  18.213  13.136  1.00  0.00     0.279 HD
ATOM     19  H21 UNL     1      -1.013  18.036  14.356  1.00  0.00     0.279 HD
BRANCH  17  20
HETATM   20  C2  UNL     1      -2.131  17.979  12.580  1.00  0.00     0.262 C 
BRANCH  20  21
HETATM   21  C1  UNL     1      -3.286  17.218  13.205  1.00  0.00     0.257 C 
BRANCH  21  22
HETATM   22  N1  UNL     1      -3.943  18.135  14.118  1.00  0.00    -0.078 N 
ATOM     23  H13 UNL     1      -3.546  19.074  14.101  1.00  0.00     0.274 HD
ATOM     24  H12 UNL     1      -4.886  18.390  13.823  1.00  0.00     0.274 HD
ATOM     25  H11 UNL     1      -3.913  17.702  15.041  1.00  0.00     0.274 HD
ENDBRANCH  21  22
ENDBRANCH  20  21
ENDBRANCH  17  20
ENDBRANCH  16  17
ENDBRANCH  15  16
ENDBRANCH  14  15
ENDBRANCH   1  14
BRANCH   2  26
HETATM   26  C6  UNL     1      -2.622  13.263   9.858  1.00  0.00     0.104 C 
BRANCH  26  27
HETATM   27  C7  UNL     1      -2.461  11.798  10.124  1.00  0.00     0.237 C 
BRANCH  27  28
HETATM   28  N4  UNL     1      -2.926  11.073   8.953  1.00  0.00    -0.079 N 
ATOM     29  H43 UNL     1      -3.813  10.597   9.111  1.00  0.00     0.274 HD
ATOM     30  H42 UNL     1      -3.235  11.693   8.203  1.00  0.00     0.274 HD
ATOM     31  H41 UNL     1      -2.185  10.438   8.659  1.00  0.00     0.274 HD
ENDBRANCH  27  28
ENDBRANCH  26  27
ENDBRANCH   2  26
BRANCH  10  32
HETATM   32  O3  UNL     1       3.889  16.336   9.250  1.00  0.00    -0.332 OA
ATOM     33  H3  UNL     1       4.751  15.940   9.208  1.00  0.00     0.221 HD
ENDBRANCH  10  32
TORSDOF 11
ENDMDL
MODEL 3
REMARK VINA RESULT: -5.954783407      1.087      1.218
REMARK  11 active torsions:
REMARK  status: ('A' for Active; 'I' for Inactive)
REMARK    1  A    between atoms: N1_1  and  C1_5 
REMARK    2  A    between atoms: C1_5  and  C2_6 
REMARK    3  A    between atoms: C2_6  and  N2_7 
REMARK    4  A    between atoms: N2_7  and  C3_10 
REMARK    5  A    between atoms: C3_10  and  O1_11 
REMARK    6  A    between atoms: O1_11  and  C4_12 
REMARK    7  A    between atoms: C4_12  and  N3_13 
REMARK    8  A    between atoms: C5_14  and  C6_15 
REMARK    9  A    between atoms: C6_15  and  C7_16 
REMARK   10  A    between atoms: C7_16  and  N4_17 
REMARK   11  A    between atoms: C10_28  and  O3_29 
ROOT
HETATM    1  N3  UNL     1      -0.561  15.120  10.015  1.00  0.00    -0.298 N 
HETATM    2  C5  UNL     1       0.009  15.671  11.103  1.00  0.00     0.089 A 
HETATM    3  N5  UNL     1       1.282  15.954  10.780  1.00  0.00    -0.338 N 
ATOM      4  H5  UNL     1       1.960  16.382  11.411  1.00  0.00     0.167 HD
HETATM    5  C8  UNL     1       1.538  15.597   9.517  1.00  0.00     0.147 A 
HETATM    6  C9  UNL     1       2.676  15.676   8.724  1.00  0.00     0.279 A 
HETATM    7  O2  UNL     1       3.719  16.161   9.198  1.00  0.00    -0.265 OA
HETATM    8  N6  UNL     1       2.582  15.210   7.457  1.00  0.00    -0.287 N 
ATOM      9  H6  UNL     1       3.404  15.257   6.854  1.00  0.00     0.172 HD
HETATM   10  C10 UNL     1       1.442  14.685   6.960  1.00  0.00     0.225 A 
HETATM   11  N7  UNL     1       0.339  14.619   7.759  1.00  0.00    -0.306 N 
ATOM     12  H7  UNL     1      -0.525  14.224   7.387  1.00  0.00     0.171 HD
HETATM   13  C11 UNL     1       0.366  15.064   9.022  1.00  0.00     0.146 A 
ENDROOT
BRANCH   1  14
HETATM   14  C4  UNL     1      -1.936  14.655   9.900  1.00  0.00     0.303 C 
BRANCH  14  15
HETATM   15  O1  UNL     1      -2.025  13.445   9.248  1.00  0.00    -0.345 OA
BRANCH  15  16
HETATM   16  C3  UNL     1      -1.938  12.387  10.148  1.00  0.00     0.401 C 
BRANCH  16  17
HETATM   17  N2  UNL     1      -0.715  11.640   9.814  1.00  0.00    -0.053 N 
ATOM     18  H22 UNL     1      -0.217  12.005   9.002  1.00  0.00     0.279 HD
ATOM     19  H21 UNL     1      -0.891  10.709   9.435  1.00  0.00     0.279 HD
BRANCH  17  20
HETATM   20  C2  UNL     1       0.080  11.639  11.049  1.00  0.00     0.262 C 
BRANCH  20  21
HETATM   21  C1  UNL     1       1.494  12.015  10.645  1.00  0.00     0.257 C 
BRANCH  21  22
HETATM   22  N1  UNL     1       1.630  11.676   9.241  1.00  0.00    -0.078 N 
ATOM     23  H13 UNL     1       2.005  12.438   8.676  1.00  0.00     0.274 HD
ATOM     24  H12 UNL     1       2.376  11.004   9.059  1.00  0.00     0.274 HD
ATOM     25  H11 UNL     1       0.714  11.355   8.927  1.00  0.00     0.274 HD
ENDBRANCH  21  22
ENDBRANCH  20  21
ENDBRANCH  17  20
ENDBRANCH  16  17
ENDBRANCH  15  16
ENDBRANCH  14  15
ENDBRANCH   1  14
BRANCH   2  26
HETATM   26  C6  UNL     1      -0.680  15.908  12.408  1.00  0.00     0.104 C 
BRANCH  26  27
HETATM   27  C7  UNL     1      -0.651  17.374  12.709  1.00  0.00     0.237 C 
BRANCH  27  28
HETATM   28  N4  UNL     1      -1.368  18.066  11.651  1.00  0.00    -0.079 N 
ATOM     29  H43 UNL     1      -2.325  17.733  11.539  1.00  0.00     0.274 HD
ATOM     30  H42 UNL     1      -1.588  19.033  11.890  1.00  0.00     0.274 HD
ATOM     31  H41 UNL     1      -0.821  17.987  10.794  1.00  0.00     0.274 HD
ENDBRANCH  27  28
ENDBRANCH  26  27
ENDBRANCH   2  26
BRANCH  10  32
HETATM   32  O3  UNL     1       1.327  14.208   5.678  1.00  0.00    -0.332 OA
ATOM     33  H3  UNL     1       0.777  14.613   5.018  1.00  0.00     0.221 HD
ENDBRANCH  10  32
TORSDOF 11
ENDMDL
MODEL 4
REMARK VINA RESULT: -5.893185197      2.248      2.799
REMARK  11 active torsions:
REMARK  status: ('A' for Active; 'I' for Inactive)
REMARK    1  A    between atoms: N1_1  and  C1_5 
REMARK    2  A    between atoms: C1_5  and  C2_6 
REMARK    3  A    between atoms: C2_6  and  N2_7 
REMARK    4  A    between atoms: N2_7  and  C3_10 
REMARK    5  A    between atoms: C3_10  and  O1_11 
REMARK    6  A    between atoms: O1_11  and  C4_12 
REMARK    7  A    between atoms: C4_12  and  N3_13 
REMARK    8  A    between atoms: C5_14  and  C6_15 
REMARK    9  A    between atoms: C6_15  and  C7_16 
REMARK   10  A    between atoms: C7_16  and  N4_17 
REMARK   11  A    between atoms: C10_28  and  O3_29 
ROOT
HETATM    1  N3  UNL     1       0.484  13.096  10.286  1.00  0.00    -0.298 N 
HETATM    2  C5  UNL     1       1.112  13.540  11.391  1.00  0.00     0.089 A 
HETATM    3  N5  UNL     1       2.021  14.445  10.989  1.00  0.00    -0.338 N 
ATOM      4  H5  UNL     1       2.649  14.953  11.612  1.00  0.00     0.167 HD
HETATM    5  C8  UNL     1       1.988  14.588   9.660  1.00  0.00     0.147 A 
HETATM    6  C9  UNL     1       2.709  15.381   8.775  1.00  0.00     0.279 A 
HETATM    7  O2  UNL     1       3.586  16.145   9.216  1.00  0.00    -0.265 OA
HETATM    8  N6  UNL     1       2.409  15.272   7.460  1.00  0.00    -0.287 N 
ATOM      9  H6  UNL     1       2.924  15.844   6.791  1.00  0.00     0.172 HD
HETATM   10  C10 UNL     1       1.454  14.436   7.001  1.00  0.00     0.225 A 
HETATM   11  N7  UNL     1       0.760  13.669   7.889  1.00  0.00    -0.306 N 
ATOM     12  H7  UNL     1       0.038  13.037   7.546  1.00  0.00     0.171 HD
HETATM   13  C11 UNL     1       1.008  13.730   9.204  1.00  0.00     0.146 A 
ENDROOT
BRANCH   1  14
HETATM   14  C4  UNL     1      -0.582  12.104  10.237  1.00  0.00     0.303 C 
BRANCH  14  15
HETATM   15  O1  UNL     1      -0.268  11.042   9.417  1.00  0.00    -0.345 OA
BRANCH  15  16
HETATM   16  C3  UNL     1       0.389  10.042  10.127  1.00  0.00     0.401 C 
BRANCH  16  17
HETATM   17  N2  UNL     1       1.426   9.496   9.238  1.00  0.00    -0.053 N 
ATOM     18  H22 UNL     1       1.183   9.533   8.248  1.00  0.00     0.279 HD
ATOM     19  H21 UNL     1       1.528   8.483   9.296  1.00  0.00     0.279 HD
BRANCH  17  20
HETATM   20  C2  UNL     1       2.649  10.237   9.578  1.00  0.00     0.262 C 
BRANCH  20  21
HETATM   21  C1  UNL     1       3.640   9.209  10.093  1.00  0.00     0.257 C 
BRANCH  21  22
HETATM   22  N1  UNL     1       3.589   8.086   9.176  1.00  0.00    -0.078 N 
ATOM     23  H13 UNL     1       4.216   7.325   9.436  1.00  0.00     0.274 HD
ATOM     24  H12 UNL     1       2.718   7.558   9.234  1.00  0.00     0.274 HD
ATOM     25  H11 UNL     1       3.772   8.459   8.244  1.00  0.00     0.274 HD
ENDBRANCH  21  22
ENDBRANCH  20  21
ENDBRANCH  17  20
ENDBRANCH  16  17
ENDBRANCH  15  16
ENDBRANCH  14  15
ENDBRANCH   1  14
BRANCH   2  26
HETATM   26  C6  UNL     1       0.824  13.087  12.785  1.00  0.00     0.104 C 
BRANCH  26  27
HETATM   27  C7  UNL     1      -0.086  14.081  13.437  1.00  0.00     0.237 C 
BRANCH  27  28
HETATM   28  N4  UNL     1       0.650  14.733  14.507  1.00  0.00    -0.079 N 
ATOM     29  H43 UNL     1       0.683  14.175  15.360  1.00  0.00     0.274 HD
ATOM     30  H42 UNL     1       1.654  14.770  14.330  1.00  0.00     0.274 HD
ATOM     31  H41 UNL     1       0.242  15.656  14.656  1.00  0.00     0.274 HD
ENDBRANCH  27  28
ENDBRANCH  26  27
ENDBRANCH   2  26
BRANCH  10  32
HETATM   32  O3  UNL     1       1.136  14.312   5.671  1.00  0.00    -0.332 OA
ATOM     33  H3  UNL     1       1.564  13.698   5.087  1.00  0.00     0.221 HD
ENDBRANCH  10  32
TORSDOF 11
ENDMDL
MODEL 5
REMARK VINA RESULT: -5.871980388      2.255      5.402
REMARK  11 active torsions:
REMARK  status: ('A' for Active; 'I' for Inactive)
REMARK    1  A    between atoms: N1_1  and  C1_5 
REMARK    2  A    between atoms: C1_5  and  C2_6 
REMARK    3  A    between atoms: C2_6  and  N2_7 
REMARK    4  A    between atoms: N2_7  and  C3_10 
REMARK    5  A    between atoms: C3_10  and  O1_11 
REMARK    6  A    between atoms: O1_11  and  C4_12 
REMARK    7  A    between atoms: C4_12  and  N3_13 
REMARK    8  A    between atoms: C5_14  and  C6_15 
REMARK    9  A    between atoms: C6_15  and  C7_16 
REMARK   10  A    between atoms: C7_16  and  N4_17 
REMARK   11  A    between atoms: C10_28  and  O3_29 
ROOT
HETATM    1  N3  UNL     1       0.857  13.069  10.773  1.00  0.00    -0.298 N 
HETATM    2  C5  UNL     1       1.080  12.150   9.815  1.00  0.00     0.089 A 
HETATM    3  N5  UNL     1       1.590  12.801   8.756  1.00  0.00    -0.338 N 
ATOM      4  H5  UNL     1       1.859  12.359   7.876  1.00  0.00     0.167 HD
HETATM    5  C8  UNL     1       1.695  14.109   9.013  1.00  0.00     0.147 A 
HETATM    6  C9  UNL     1       2.152  15.187   8.264  1.00  0.00     0.279 A 
HETATM    7  O2  UNL     1       2.565  14.994   7.106  1.00  0.00    -0.265 OA
HETATM    8  N6  UNL     1       2.118  16.406   8.848  1.00  0.00    -0.287 N 
ATOM      9  H6  UNL     1       2.447  17.214   8.319  1.00  0.00     0.172 HD
HETATM   10  C10 UNL     1       1.664  16.596  10.106  1.00  0.00     0.225 A 
HETATM   11  N7  UNL     1       1.222  15.521  10.820  1.00  0.00    -0.306 N 
ATOM     12  H7  UNL     1       0.879  15.661  11.771  1.00  0.00     0.171 HD
HETATM   13  C11 UNL     1       1.230  14.288  10.299  1.00  0.00     0.146 A 
ENDROOT
BRANCH   1  14
HETATM   14  C4  UNL     1       0.310  12.821  12.099  1.00  0.00     0.303 C 
BRANCH  14  15
HETATM   15  O1  UNL     1      -0.526  13.834  12.516  1.00  0.00    -0.345 OA
BRANCH  15  16
HETATM   16  C3  UNL     1      -0.289  14.160  13.848  1.00  0.00     0.401 C 
BRANCH  16  17
HETATM   17  N2  UNL     1      -0.172  15.625  13.916  1.00  0.00    -0.053 N 
ATOM     18  H22 UNL     1       0.748  15.978  13.656  1.00  0.00     0.279 HD
ATOM     19  H21 UNL     1      -0.176  15.995  14.867  1.00  0.00     0.279 HD
BRANCH  17  20
HETATM   20  C2  UNL     1      -1.264  16.134  13.075  1.00  0.00     0.262 C 
BRANCH  20  21
HETATM   21  C1  UNL     1      -1.052  17.633  12.965  1.00  0.00     0.257 C 
BRANCH  21  22
HETATM   22  N1  UNL     1      -1.336  17.993  11.588  1.00  0.00    -0.078 N 
ATOM     23  H13 UNL     1      -0.762  17.489  10.913  1.00  0.00     0.274 HD
ATOM     24  H12 UNL     1      -2.242  17.655  11.262  1.00  0.00     0.274 HD
ATOM     25  H11 UNL     1      -1.238  19.007  11.525  1.00  0.00     0.274 HD
ENDBRANCH  21  22
ENDBRANCH  20  21
ENDBRANCH  17  20
ENDBRANCH  16  17
ENDBRANCH  15  16
ENDBRANCH  14  15
ENDBRANCH   1  14
BRANCH   2  26
HETATM   26  C6  UNL     1       0.802  10.687   9.945  1.00  0.00     0.104 C 
BRANCH  26  27
HETATM   27  C7  UNL     1       2.097   9.968  10.168  1.00  0.00     0.237 C 
BRANCH  27  28
HETATM   28  N4  UNL     1       2.589   9.515   8.877  1.00  0.00    -0.079 N 
ATOM     29  H43 UNL     1       1.880   9.017   8.337  1.00  0.00     0.274 HD
ATOM     30  H42 UNL     1       2.744  10.282   8.223  1.00  0.00     0.274 HD
ATOM     31  H41 UNL     1       3.427   8.956   9.036  1.00  0.00     0.274 HD
ENDBRANCH  27  28
ENDBRANCH  26  27
ENDBRANCH   2  26
BRANCH  10  32
HETATM   32  O3  UNL     1       1.622  17.825  10.716  1.00  0.00    -0.332 OA
ATOM     33  H3  UNL     1       0.933  18.086  11.316  1.00  0.00     0.221 HD
ENDBRANCH  10  32
TORSDOF 11
ENDMDL
