MODEL 1
REMARK VINA RESULT: -6.287350627      0.000      0.000
REMARK  16 active torsions:
REMARK  status: ('A' for Active; 'I' for Inactive)
REMARK    1  A    between atoms: N1_1  and  C1_4 
REMARK    2  A    between atoms: C2_7  and  O1_8 
REMARK    3  A    between atoms: C3_10  and  C4_11 
REMARK    4  A    between atoms: N7_23  and  C7_24 
REMARK    5  A    between atoms: C7_24  and  C8_25 
REMARK    6  A    between atoms: C7_24  and  C14_47 
REMARK    7  A    between atoms: C9_28  and  N9_29 
REMARK    8  A    between atoms: N9_29  and  C10_31 
REMARK    9  A    between atoms: C10_31  and  C11_32 
REMARK   10  A    between atoms: C10_31  and  C12_35 
REMARK   11  A    between atoms: C12_35  and  N10_36 
REMARK   12  A    between atoms: C12_35  and  O5_40 
REMARK   13  A    between atoms: C13_44  and  O6_45 
REMARK   14  A    between atoms: C14_47  and  O7_48 
REMARK   15  A    between atoms: C14_47  and  O8_50 
REMARK   16  A    between atoms: N12_52  and  N13_53 
ROOT
HETATM    1  C7  UNL     1      22.763   5.681  10.663  1.00  0.00     0.220 C 
ENDROOT
BRANCH   1   2
HETATM    2  N7  UNL     1      22.411   4.316  10.404  1.00  0.00    -0.243 N 
HETATM    3  C5  UNL     1      22.538   3.219  11.171  1.00  0.00     0.177 A 
HETATM    4  N4  UNL     1      23.059   3.050  12.481  1.00  0.00    -0.222 N 
HETATM    5  C6  UNL     1      22.043   2.096  10.468  1.00  0.00     0.128 A 
HETATM    6  O2  UNL     1      23.044   1.777  12.985  1.00  0.00    -0.155 OA
ATOM      7  H4  UNL     1      23.425   3.836  13.018  1.00  0.00     0.198 HD
HETATM    8  N3  UNL     1      22.560   0.720  12.280  1.00  0.00    -0.237 N 
HETATM    9  C4  UNL     1      22.071   0.794  11.085  1.00  0.00     0.122 A 
ATOM     10  H3  UNL     1      22.584  -0.197  12.726  1.00  0.00     0.197 HD
HETATM   11  N5  UNL     1      21.646   2.612   9.306  1.00  0.00    -0.280 N 
HETATM   12  N6  UNL     1      21.854   3.881   9.262  1.00  0.00    -0.237 N 
ATOM     13  H5  UNL     1      21.232   2.070   8.548  1.00  0.00     0.188 HD
ATOM     14  H6  UNL     1      21.625   4.477   8.466  1.00  0.00     0.208 HD
BRANCH   9  15
HETATM   15  C3  UNL     1      21.586  -0.413  10.442  1.00  0.00     0.156 A 
HETATM   16  C2  UNL     1      20.450  -1.143  10.637  1.00  0.00     0.187 A 
HETATM   17  N2  UNL     1      20.444  -2.206   9.780  1.00  0.00    -0.167 N 
HETATM   18  C1  UNL     1      21.567  -2.120   9.072  1.00  0.00     0.699 A 
ATOM     19  H2  UNL     1      19.723  -2.923   9.699  1.00  0.00     0.186 HD
HETATM   20  N12 UNL     1      22.285  -1.059   9.435  1.00  0.00    -0.087 N 
BRANCH  16  21
HETATM   21  O1  UNL     1      19.413  -0.934  11.526  1.00  0.00    -0.344 OA
ATOM     22  H1  UNL     1      19.575  -0.616  12.407  1.00  0.00     0.219 HD
ENDBRANCH  16  21
BRANCH  18  23
HETATM   23  N1  UNL     1      21.971  -2.941   8.126  1.00  0.00    -0.233 N 
ATOM     24  H12 UNL     1      21.675  -3.917   8.098  1.00  0.00     0.174 HD
ATOM     25  H11 UNL     1      22.593  -2.721   7.347  1.00  0.00     0.174 HD
ENDBRANCH  18  23
BRANCH  20  26
HETATM   26  N13 UNL     1      23.512  -0.625   8.935  1.00  0.00    -0.324 N 
ATOM     27 2H13 UNL     1      23.761  -0.632   7.946  1.00  0.00     0.178 HD
ATOM     28 1H13 UNL     1      24.313  -0.253   9.447  1.00  0.00     0.178 HD
ENDBRANCH  20  26
ENDBRANCH   9  15
ENDBRANCH   1   2
BRANCH   1  29
HETATM   29  C8  UNL     1      24.149   6.041  10.256  1.00  0.00     0.107 A 
HETATM   30  N8  UNL     1      24.855   5.333   9.369  1.00  0.00    -0.189 N 
HETATM   31  C9  UNL     1      26.047   5.930   9.224  1.00  0.00     0.681 A 
ATOM     32  H8  UNL     1      24.542   4.489   8.888  1.00  0.00     0.184 HD
HETATM   33  N11 UNL     1      26.096   7.010  10.017  1.00  0.00    -0.169 N 
HETATM   34  C13 UNL     1      24.926   7.088  10.659  1.00  0.00     0.181 A 
ATOM     35  H11 UNL     1      26.880   7.654  10.112  1.00  0.00     0.186 HD
BRANCH  31  36
HETATM   36  N9  UNL     1      27.095   5.458   8.357  1.00  0.00    -0.207 N 
ATOM     37  H9  UNL     1      27.754   6.136   7.975  1.00  0.00     0.178 HD
BRANCH  36  38
HETATM   38  C10 UNL     1      27.253   4.073   8.005  1.00  0.00     0.256 C 
BRANCH  38  39
HETATM   39  C11 UNL     1      28.245   3.387   8.838  1.00  0.00     0.201 C 
HETATM   40  O3  UNL     1      29.054   2.562   8.372  1.00  0.00    -0.646 OA
HETATM   41  O4  UNL     1      28.275   3.677  10.203  1.00  0.00    -0.646 OA
ENDBRANCH  38  39
BRANCH  38  42
HETATM   42  C12 UNL     1      27.699   3.955   6.564  1.00  0.00     0.350 C 
BRANCH  42  43
HETATM   43  N10 UNL     1      27.227   5.113   5.840  1.00  0.00    -0.051 N 
ATOM     44 3H10 UNL     1      26.230   5.280   5.975  1.00  0.00     0.277 HD
ATOM     45 2H10 UNL     1      27.570   5.989   6.236  1.00  0.00     0.277 HD
ATOM     46 1H10 UNL     1      27.475   5.006   4.856  1.00  0.00     0.277 HD
ENDBRANCH  42  43
BRANCH  42  47
HETATM   47  O5  UNL     1      27.175   2.805   5.984  1.00  0.00    -0.368 OA
ATOM     48  H5  UNL     1      27.399   2.766   5.062  1.00  0.00     0.212 HD
ENDBRANCH  42  47
ENDBRANCH  38  42
ENDBRANCH  36  38
ENDBRANCH  31  36
BRANCH  34  49
HETATM   49  O6  UNL     1      24.517   8.052  11.593  1.00  0.00    -0.344 OA
ATOM     50  H6  UNL     1      24.916   8.910  11.677  1.00  0.00     0.219 HD
ENDBRANCH  34  49
ENDBRANCH   1  29
BRANCH   1  51
HETATM   51  C14 UNL     1      21.753   6.685  10.153  1.00  0.00     0.284 C 
BRANCH  51  52
HETATM   52  O7  UNL     1      21.791   7.772  11.034  1.00  0.00    -0.369 OA
ATOM     53  H7  UNL     1      21.726   8.555  10.500  1.00  0.00     0.212 HD
ENDBRANCH  51  52
BRANCH  51  54
HETATM   54  O8  UNL     1      22.237   7.118   8.895  1.00  0.00    -0.369 OA
ATOM     55  H8  UNL     1      21.469   7.253   8.352  1.00  0.00     0.212 HD
ENDBRANCH  51  54
ENDBRANCH   1  51
TORSDOF 16
ENDMDL
MODEL 2
REMARK VINA RESULT: -6.225635656      1.711      2.214
REMARK  16 active torsions:
REMARK  status: ('A' for Active; 'I' for Inactive)
REMARK    1  A    between atoms: N1_1  and  C1_4 
REMARK    2  A    between atoms: C2_7  and  O1_8 
REMARK    3  A    between atoms: C3_10  and  C4_11 
REMARK    4  A    between atoms: N7_23  and  C7_24 
REMARK    5  A    between atoms: C7_24  and  C8_25 
REMARK    6  A    between atoms: C7_24  and  C14_47 
REMARK    7  A    between atoms: C9_28  and  N9_29 
REMARK    8  A    between atoms: N9_29  and  C10_31 
REMARK    9  A    between atoms: C10_31  and  C11_32 
REMARK   10  A    between atoms: C10_31  and  C12_35 
REMARK   11  A    between atoms: C12_35  and  N10_36 
REMARK   12  A    between atoms: C12_35  and  O5_40 
REMARK   13  A    between atoms: C13_44  and  O6_45 
REMARK   14  A    between atoms: C14_47  and  O7_48 
REMARK   15  A    between atoms: C14_47  and  O8_50 
REMARK   16  A    between atoms: N12_52  and  N13_53 
ROOT
HETATM    1  C7  UNL     1      22.846   6.134  10.395  1.00  0.00     0.220 C 
ENDROOT
BRANCH   1   2
HETATM    2  N7  UNL     1      22.547   4.742  10.236  1.00  0.00    -0.243 N 
HETATM    3  C5  UNL     1      22.663   3.717  11.099  1.00  0.00     0.177 A 
HETATM    4  N4  UNL     1      23.117   3.676  12.444  1.00  0.00    -0.222 N 
HETATM    5  C6  UNL     1      22.238   2.524  10.470  1.00  0.00     0.128 A 
HETATM    6  O2  UNL     1      23.110   2.450  13.054  1.00  0.00    -0.155 OA
ATOM      7  H4  UNL     1      23.431   4.516  12.930  1.00  0.00     0.198 HD
HETATM    8  N3  UNL     1      22.695   1.323  12.417  1.00  0.00    -0.237 N 
HETATM    9  C4  UNL     1      22.269   1.280  11.197  1.00  0.00     0.122 A 
ATOM     10  H3  UNL     1      22.720   0.447  12.941  1.00  0.00     0.197 HD
HETATM   11  N5  UNL     1      21.891   2.928   9.250  1.00  0.00    -0.280 N 
HETATM   12  N6  UNL     1      22.065   4.194   9.108  1.00  0.00    -0.237 N 
ATOM     13  H5  UNL     1      21.533   2.311   8.521  1.00  0.00     0.188 HD
ATOM     14  H6  UNL     1      21.863   4.713   8.253  1.00  0.00     0.208 HD
BRANCH   9  15
HETATM   15  C3  UNL     1      21.854   0.008  10.636  1.00  0.00     0.156 A 
HETATM   16  C2  UNL     1      20.690  -0.694  10.759  1.00  0.00     0.187 A 
HETATM   17  N2  UNL     1      20.781  -1.847  10.034  1.00  0.00    -0.167 N 
HETATM   18  C1  UNL     1      21.988  -1.843   9.476  1.00  0.00     0.699 A 
ATOM     19  H2  UNL     1      20.065  -2.569   9.940  1.00  0.00     0.186 HD
HETATM   20  N12 UNL     1      22.668  -0.748   9.809  1.00  0.00    -0.087 N 
BRANCH  16  21
HETATM   21  O1  UNL     1      19.549  -0.384  11.474  1.00  0.00    -0.344 OA
ATOM     22  H1  UNL     1      19.536   0.335  12.095  1.00  0.00     0.219 HD
ENDBRANCH  16  21
BRANCH  18  23
HETATM   23  N1  UNL     1      22.499  -2.767   8.690  1.00  0.00    -0.233 N 
ATOM     24  H12 UNL     1      22.155  -2.918   7.742  1.00  0.00     0.174 HD
ATOM     25  H11 UNL     1      23.259  -3.410   8.914  1.00  0.00     0.174 HD
ENDBRANCH  18  23
BRANCH  20  26
HETATM   26  N13 UNL     1      23.958  -0.375   9.431  1.00  0.00    -0.324 N 
ATOM     27 2H13 UNL     1      24.500   0.356   9.893  1.00  0.00     0.178 HD
ATOM     28 1H13 UNL     1      24.534  -0.750   8.677  1.00  0.00     0.178 HD
ENDBRANCH  20  26
ENDBRANCH   9  15
ENDBRANCH   1   2
BRANCH   1  29
HETATM   29  C8  UNL     1      24.251   6.498  10.064  1.00  0.00     0.107 A 
HETATM   30  N8  UNL     1      24.903   5.999   9.009  1.00  0.00    -0.189 N 
HETATM   31  C9  UNL     1      26.133   6.535   8.997  1.00  0.00     0.681 A 
ATOM     32  H8  UNL     1      24.532   5.330   8.334  1.00  0.00     0.184 HD
HETATM   33  N11 UNL     1      26.258   7.369  10.040  1.00  0.00    -0.169 N 
HETATM   34  C13 UNL     1      25.099   7.353  10.706  1.00  0.00     0.181 A 
ATOM     35  H11 UNL     1      27.085   7.915  10.280  1.00  0.00     0.186 HD
BRANCH  31  36
HETATM   36  N9  UNL     1      27.142   6.237   8.014  1.00  0.00    -0.207 N 
ATOM     37  H9  UNL     1      27.857   5.547   8.244  1.00  0.00     0.178 HD
BRANCH  36  38
HETATM   38  C10 UNL     1      27.186   6.869   6.723  1.00  0.00     0.256 C 
BRANCH  38  39
HETATM   39  C11 UNL     1      26.262   8.000   6.614  1.00  0.00     0.201 C 
HETATM   40  O3  UNL     1      26.653   9.182   6.572  1.00  0.00    -0.646 OA
HETATM   41  O4  UNL     1      24.893   7.731   6.558  1.00  0.00    -0.646 OA
ENDBRANCH  38  39
BRANCH  38  42
HETATM   42  C12 UNL     1      26.820   5.868   5.648  1.00  0.00     0.350 C 
BRANCH  42  43
HETATM   43  N10 UNL     1      26.491   6.590   4.440  1.00  0.00    -0.051 N 
ATOM     44 3H10 UNL     1      27.239   6.555   3.748  1.00  0.00     0.277 HD
ATOM     45 2H10 UNL     1      25.770   6.123   3.890  1.00  0.00     0.277 HD
ATOM     46 1H10 UNL     1      26.235   7.544   4.691  1.00  0.00     0.277 HD
ENDBRANCH  42  43
BRANCH  42  47
HETATM   47  O5  UNL     1      25.726   5.107   6.043  1.00  0.00    -0.368 OA
ATOM     48  H5  UNL     1      25.725   4.270   5.594  1.00  0.00     0.212 HD
ENDBRANCH  42  47
ENDBRANCH  38  42
ENDBRANCH  36  38
ENDBRANCH  31  36
BRANCH  34  49
HETATM   49  O6  UNL     1      24.761   8.068  11.865  1.00  0.00    -0.344 OA
ATOM     50  H6  UNL     1      25.370   8.253  12.570  1.00  0.00     0.219 HD
ENDBRANCH  34  49
ENDBRANCH   1  29
BRANCH   1  51
HETATM   51  C14 UNL     1      21.857   7.058   9.720  1.00  0.00     0.284 C 
BRANCH  51  52
HETATM   52  O7  UNL     1      22.177   7.058   8.358  1.00  0.00    -0.369 OA
ATOM     53  H7  UNL     1      22.864   6.412   8.241  1.00  0.00     0.212 HD
ENDBRANCH  51  52
BRANCH  51  54
HETATM   54  O8  UNL     1      20.588   6.451   9.876  1.00  0.00    -0.369 OA
ATOM     55  H8  UNL     1      20.218   6.391   9.003  1.00  0.00     0.212 HD
ENDBRANCH  51  54
ENDBRANCH   1  51
TORSDOF 16
ENDMDL
MODEL 3
REMARK VINA RESULT: -6.193219547      4.137      8.012
REMARK  16 active torsions:
REMARK  status: ('A' for Active; 'I' for Inactive)
REMARK    1  A    between atoms: N1_1  and  C1_4 
REMARK    2  A    between atoms: C2_7  and  O1_8 
REMARK    3  A    between atoms: C3_10  and  C4_11 
REMARK    4  A    between atoms: N7_23  and  C7_24 
REMARK    5  A    between atoms: C7_24  and  C8_25 
REMARK    6  A    between atoms: C7_24  and  C14_47 
REMARK    7  A    between atoms: C9_28  and  N9_29 
REMARK    8  A    between atoms: N9_29  and  C10_31 
REMARK    9  A    between atoms: C10_31  and  C11_32 
REMARK   10  A    between atoms: C10_31  and  C12_35 
REMARK   11  A    between atoms: C12_35  and  N10_36 
REMARK   12  A    between atoms: C12_35  and  O5_40 
REMARK   13  A    between atoms: C13_44  and  O6_45 
REMARK   14  A    between atoms: C14_47  and  O7_48 
REMARK   15  A    between atoms: C14_47  and  O8_50 
REMARK   16  A    between atoms: N12_52  and  N13_53 
ROOT
HETATM    1  C7  UNL     1      24.552   0.596  10.517  1.00  0.00     0.220 C 
ENDROOT
BRANCH   1   2
HETATM    2  N7  UNL     1      24.544   1.896   9.913  1.00  0.00    -0.243 N 
HETATM    3  C5  UNL     1      24.469   3.118  10.468  1.00  0.00     0.177 A 
HETATM    4  N4  UNL     1      24.373   3.523  11.826  1.00  0.00    -0.222 N 
HETATM    5  C6  UNL     1      24.497   4.099   9.450  1.00  0.00     0.128 A 
HETATM    6  O2  UNL     1      24.314   4.871  12.059  1.00  0.00    -0.155 OA
ATOM      7  H4  UNL     1      24.350   2.845  12.588  1.00  0.00     0.198 HD
HETATM    8  N3  UNL     1      24.344   5.786  11.053  1.00  0.00    -0.237 N 
HETATM    9  C4  UNL     1      24.429   5.496   9.796  1.00  0.00     0.122 A 
ATOM     10  H3  UNL     1      24.295   6.772  11.309  1.00  0.00     0.197 HD
HETATM   11  N5  UNL     1      24.590   3.378   8.334  1.00  0.00    -0.280 N 
HETATM   12  N6  UNL     1      24.616   2.118   8.590  1.00  0.00    -0.237 N 
ATOM     13  H5  UNL     1      24.633   3.775   7.395  1.00  0.00     0.188 HD
ATOM     14  H6  UNL     1      24.684   1.385   7.884  1.00  0.00     0.208 HD
BRANCH   9  15
HETATM   15  C3  UNL     1      24.452   6.570   8.821  1.00  0.00     0.156 A 
HETATM   16  C2  UNL     1      23.442   7.223   8.177  1.00  0.00     0.187 A 
HETATM   17  N2  UNL     1      23.973   8.167   7.346  1.00  0.00    -0.167 N 
HETATM   18  C1  UNL     1      25.294   8.086   7.485  1.00  0.00     0.699 A 
ATOM     19  H2  UNL     1      23.460   8.806   6.738  1.00  0.00     0.186 HD
HETATM   20  N12 UNL     1      25.627   7.140   8.361  1.00  0.00    -0.087 N 
BRANCH  16  21
HETATM   21  O1  UNL     1      22.075   7.041   8.273  1.00  0.00    -0.344 OA
ATOM     22  H1  UNL     1      21.607   6.492   7.656  1.00  0.00     0.219 HD
ENDBRANCH  16  21
BRANCH  18  23
HETATM   23  N1  UNL     1      26.201   8.814   6.870  1.00  0.00    -0.233 N 
ATOM     24  H12 UNL     1      26.036   9.208   5.943  1.00  0.00     0.174 HD
ATOM     25  H11 UNL     1      27.128   9.062   7.217  1.00  0.00     0.174 HD
ENDBRANCH  18  23
BRANCH  20  26
HETATM   26  N13 UNL     1      26.900   6.750   8.780  1.00  0.00    -0.324 N 
ATOM     27 2H13 UNL     1      27.394   5.934   8.419  1.00  0.00     0.178 HD
ATOM     28 1H13 UNL     1      27.505   7.190   9.473  1.00  0.00     0.178 HD
ENDBRANCH  20  26
ENDBRANCH   9  15
ENDBRANCH   1   2
BRANCH   1  29
HETATM   29  C8  UNL     1      25.806   0.273  11.251  1.00  0.00     0.107 A 
HETATM   30  N8  UNL     1      25.830  -0.477  12.357  1.00  0.00    -0.189 N 
HETATM   31  C9  UNL     1      27.107  -0.579  12.755  1.00  0.00     0.681 A 
ATOM     32  H8  UNL     1      25.022  -0.897  12.817  1.00  0.00     0.184 HD
HETATM   33  N11 UNL     1      27.887   0.104  11.904  1.00  0.00    -0.169 N 
HETATM   34  C13 UNL     1      27.092   0.634  10.970  1.00  0.00     0.181 A 
ATOM     35  H11 UNL     1      28.901   0.200  11.960  1.00  0.00     0.186 HD
BRANCH  31  36
HETATM   36  N9  UNL     1      27.542  -1.305  13.919  1.00  0.00    -0.207 N 
ATOM     37  H9  UNL     1      28.088  -0.810  14.626  1.00  0.00     0.178 HD
BRANCH  36  38
HETATM   38  C10 UNL     1      27.242  -2.695  14.131  1.00  0.00     0.256 C 
BRANCH  38  39
HETATM   39  C11 UNL     1      25.894  -2.909  14.664  1.00  0.00     0.201 C 
HETATM   40  O3  UNL     1      25.026  -3.555  14.048  1.00  0.00    -0.646 OA
HETATM   41  O4  UNL     1      25.583  -2.361  15.910  1.00  0.00    -0.646 OA
ENDBRANCH  38  39
BRANCH  38  42
HETATM   42  C12 UNL     1      28.227  -3.290  15.114  1.00  0.00     0.350 C 
BRANCH  42  43
HETATM   43  N10 UNL     1      27.612  -4.434  15.748  1.00  0.00    -0.051 N 
ATOM     44 3H10 UNL     1      27.474  -4.298  16.749  1.00  0.00     0.277 HD
ATOM     45 2H10 UNL     1      26.632  -4.546  15.486  1.00  0.00     0.277 HD
ATOM     46 1H10 UNL     1      28.170  -5.261  15.540  1.00  0.00     0.277 HD
ENDBRANCH  42  43
BRANCH  42  47
HETATM   47  O5  UNL     1      28.573  -2.356  16.084  1.00  0.00    -0.368 OA
ATOM     48  H5  UNL     1      27.950  -2.375  16.800  1.00  0.00     0.212 HD
ENDBRANCH  42  47
ENDBRANCH  38  42
ENDBRANCH  36  38
ENDBRANCH  31  36
BRANCH  34  49
HETATM   49  O6  UNL     1      27.460   1.430   9.875  1.00  0.00    -0.344 OA
ATOM     50  H6  UNL     1      27.626   2.363   9.930  1.00  0.00     0.219 HD
ENDBRANCH  34  49
ENDBRANCH   1  29
BRANCH   1  51
HETATM   51  C14 UNL     1      23.325   0.296  11.350  1.00  0.00     0.284 C 
BRANCH  51  52
HETATM   52  O7  UNL     1      23.281  -1.093  11.508  1.00  0.00    -0.369 OA
ATOM     53  H7  UNL     1      22.479  -1.388  11.093  1.00  0.00     0.212 HD
ENDBRANCH  51  52
BRANCH  51  54
HETATM   54  O8  UNL     1      23.564   0.878  12.618  1.00  0.00    -0.369 OA
ATOM     55  H8  UNL     1      24.094   0.252  13.098  1.00  0.00     0.212 HD
ENDBRANCH  51  54
ENDBRANCH   1  51
TORSDOF 16
ENDMDL
MODEL 4
REMARK VINA RESULT: -6.180951413      2.880      4.754
REMARK  16 active torsions:
REMARK  status: ('A' for Active; 'I' for Inactive)
REMARK    1  A    between atoms: N1_1  and  C1_4 
REMARK    2  A    between atoms: C2_7  and  O1_8 
REMARK    3  A    between atoms: C3_10  and  C4_11 
REMARK    4  A    between atoms: N7_23  and  C7_24 
REMARK    5  A    between atoms: C7_24  and  C8_25 
REMARK    6  A    between atoms: C7_24  and  C14_47 
REMARK    7  A    between atoms: C9_28  and  N9_29 
REMARK    8  A    between atoms: N9_29  and  C10_31 
REMARK    9  A    between atoms: C10_31  and  C11_32 
REMARK   10  A    between atoms: C10_31  and  C12_35 
REMARK   11  A    between atoms: C12_35  and  N10_36 
REMARK   12  A    between atoms: C12_35  and  O5_40 
REMARK   13  A    between atoms: C13_44  and  O6_45 
REMARK   14  A    between atoms: C14_47  and  O7_48 
REMARK   15  A    between atoms: C14_47  and  O8_50 
REMARK   16  A    between atoms: N12_52  and  N13_53 
ROOT
HETATM    1  C7  UNL     1      25.264   2.968  10.197  1.00  0.00     0.220 C 
ENDROOT
BRANCH   1   2
HETATM    2  N7  UNL     1      23.911   2.739   9.784  1.00  0.00    -0.243 N 
HETATM    3  C5  UNL     1      23.418   2.262   8.628  1.00  0.00     0.177 A 
HETATM    4  N4  UNL     1      24.068   1.831   7.442  1.00  0.00    -0.222 N 
HETATM    5  C6  UNL     1      22.006   2.221   8.703  1.00  0.00     0.128 A 
HETATM    6  O2  UNL     1      23.261   1.392   6.427  1.00  0.00    -0.155 OA
ATOM      7  H4  UNL     1      25.085   1.846   7.351  1.00  0.00     0.198 HD
HETATM    8  N3  UNL     1      21.906   1.366   6.534  1.00  0.00    -0.237 N 
HETATM    9  C4  UNL     1      21.242   1.742   7.578  1.00  0.00     0.122 A 
ATOM     10  H3  UNL     1      21.374   1.026   5.732  1.00  0.00     0.197 HD
HETATM   11  N5  UNL     1      21.750   2.686   9.924  1.00  0.00    -0.280 N 
HETATM   12  N6  UNL     1      22.834   2.985  10.548  1.00  0.00    -0.237 N 
ATOM     13  H5  UNL     1      20.814   2.791  10.314  1.00  0.00     0.188 HD
ATOM     14  H6  UNL     1      22.870   3.358  11.497  1.00  0.00     0.208 HD
BRANCH   9  15
HETATM   15  C3  UNL     1      19.793   1.664   7.563  1.00  0.00     0.156 A 
HETATM   16  C2  UNL     1      18.849   2.536   7.106  1.00  0.00     0.187 A 
HETATM   17  N2  UNL     1      17.608   2.007   7.317  1.00  0.00    -0.167 N 
HETATM   18  C1  UNL     1      17.799   0.825   7.896  1.00  0.00     0.699 A 
ATOM     19  H2  UNL     1      16.712   2.434   7.078  1.00  0.00     0.186 HD
HETATM   20  N12 UNL     1      19.097   0.577   8.064  1.00  0.00    -0.087 N 
BRANCH  16  21
HETATM   21  O1  UNL     1      19.009   3.773   6.513  1.00  0.00    -0.344 OA
ATOM     22  H1  UNL     1      19.809   4.274   6.624  1.00  0.00     0.219 HD
ENDBRANCH  16  21
BRANCH  18  23
HETATM   23  N1  UNL     1      16.873  -0.030   8.276  1.00  0.00    -0.233 N 
ATOM     24  H12 UNL     1      16.118   0.240   8.906  1.00  0.00     0.174 HD
ATOM     25  H11 UNL     1      16.796  -1.011   8.006  1.00  0.00     0.174 HD
ENDBRANCH  18  23
BRANCH  20  26
HETATM   26  N13 UNL     1      19.703  -0.546   8.629  1.00  0.00    -0.324 N 
ATOM     27 2H13 UNL     1      19.419  -0.962   9.517  1.00  0.00     0.178 HD
ATOM     28 1H13 UNL     1      20.481  -1.099   8.270  1.00  0.00     0.178 HD
ENDBRANCH  20  26
ENDBRANCH   9  15
ENDBRANCH   1   2
BRANCH   1  29
HETATM   29  C8  UNL     1      25.779   4.327   9.870  1.00  0.00     0.107 A 
HETATM   30  N8  UNL     1      24.980   5.362   9.595  1.00  0.00    -0.189 N 
HETATM   31  C9  UNL     1      25.758   6.428   9.357  1.00  0.00     0.681 A 
ATOM     32  H8  UNL     1      23.960   5.345   9.571  1.00  0.00     0.184 HD
HETATM   33  N11 UNL     1      27.044   6.068   9.480  1.00  0.00    -0.169 N 
HETATM   34  C13 UNL     1      27.068   4.771   9.797  1.00  0.00     0.181 A 
ATOM     35  H11 UNL     1      27.855   6.674   9.355  1.00  0.00     0.186 HD
BRANCH  31  36
HETATM   36  N9  UNL     1      25.265   7.737   9.015  1.00  0.00    -0.207 N 
ATOM     37  H9  UNL     1      25.498   8.520   9.625  1.00  0.00     0.178 HD
BRANCH  36  38
HETATM   38  C10 UNL     1      24.460   7.989   7.851  1.00  0.00     0.256 C 
BRANCH  38  39
HETATM   39  C11 UNL     1      23.027   7.820   8.106  1.00  0.00     0.201 C 
HETATM   40  O3  UNL     1      22.585   7.421   9.200  1.00  0.00    -0.646 OA
HETATM   41  O4  UNL     1      22.133   8.121   7.077  1.00  0.00    -0.646 OA
ENDBRANCH  38  39
BRANCH  38  42
HETATM   42  C12 UNL     1      24.846   7.035   6.741  1.00  0.00     0.350 C 
BRANCH  42  43
HETATM   43  N10 UNL     1      24.798   7.747   5.484  1.00  0.00    -0.051 N 
ATOM     44 3H10 UNL     1      24.705   7.122   4.684  1.00  0.00     0.277 HD
ATOM     45 2H10 UNL     1      23.927   8.264   5.360  1.00  0.00     0.277 HD
ATOM     46 1H10 UNL     1      25.620   8.347   5.418  1.00  0.00     0.277 HD
ENDBRANCH  42  43
BRANCH  42  47
HETATM   47  O5  UNL     1      23.967   5.960   6.694  1.00  0.00    -0.368 OA
ATOM     48  H5  UNL     1      24.233   5.342   6.024  1.00  0.00     0.212 HD
ENDBRANCH  42  47
ENDBRANCH  38  42
ENDBRANCH  36  38
ENDBRANCH  31  36
BRANCH  34  49
HETATM   49  O6  UNL     1      28.189   3.959  10.026  1.00  0.00    -0.344 OA
ATOM     50  H6  UNL     1      29.007   4.276  10.389  1.00  0.00     0.219 HD
ENDBRANCH  34  49
ENDBRANCH   1  29
BRANCH   1  51
HETATM   51  C14 UNL     1      25.541   2.599  11.637  1.00  0.00     0.284 C 
BRANCH  51  52
HETATM   52  O7  UNL     1      25.043   3.647  12.420  1.00  0.00    -0.369 OA
ATOM     53  H7  UNL     1      24.822   3.272  13.265  1.00  0.00     0.212 HD
ENDBRANCH  51  52
BRANCH  51  54
HETATM   54  O8  UNL     1      24.764   1.445  11.899  1.00  0.00    -0.369 OA
ATOM     55  H8  UNL     1      24.568   1.467  12.828  1.00  0.00     0.212 HD
ENDBRANCH  51  54
ENDBRANCH   1  51
TORSDOF 16
ENDMDL
MODEL 5
REMARK VINA RESULT: -6.169616882      1.540      2.211
REMARK  16 active torsions:
REMARK  status: ('A' for Active; 'I' for Inactive)
REMARK    1  A    between atoms: N1_1  and  C1_4 
REMARK    2  A    between atoms: C2_7  and  O1_8 
REMARK    3  A    between atoms: C3_10  and  C4_11 
REMARK    4  A    between atoms: N7_23  and  C7_24 
REMARK    5  A    between atoms: C7_24  and  C8_25 
REMARK    6  A    between atoms: C7_24  and  C14_47 
REMARK    7  A    between atoms: C9_28  and  N9_29 
REMARK    8  A    between atoms: N9_29  and  C10_31 
REMARK    9  A    between atoms: C10_31  and  C11_32 
REMARK   10  A    between atoms: C10_31  and  C12_35 
REMARK   11  A    between atoms: C12_35  and  N10_36 
REMARK   12  A    between atoms: C12_35  and  O5_40 
REMARK   13  A    between atoms: C13_44  and  O6_45 
REMARK   14  A    between atoms: C14_47  and  O7_48 
REMARK   15  A    between atoms: C14_47  and  O8_50 
REMARK   16  A    between atoms: N12_52  and  N13_53 
ROOT
HETATM    1  C7  UNL     1      22.772   5.465  11.006  1.00  0.00     0.220 C 
ENDROOT
BRANCH   1   2
HETATM    2  N7  UNL     1      22.660   4.048  11.189  1.00  0.00    -0.243 N 
HETATM    3  C5  UNL     1      22.277   3.083  10.334  1.00  0.00     0.177 A 
HETATM    4  N4  UNL     1      21.859   3.148   8.979  1.00  0.00    -0.222 N 
HETATM    5  C6  UNL     1      22.333   1.830  10.987  1.00  0.00     0.128 A 
HETATM    6  O2  UNL     1      21.531   1.960   8.383  1.00  0.00    -0.155 OA
ATOM      7  H4  UNL     1      21.806   4.034   8.475  1.00  0.00     0.198 HD
HETATM    8  N3  UNL     1      21.597   0.772   9.042  1.00  0.00    -0.237 N 
HETATM    9  C4  UNL     1      21.966   0.633  10.273  1.00  0.00     0.122 A 
ATOM     10  H3  UNL     1      21.335  -0.069   8.527  1.00  0.00     0.197 HD
HETATM   11  N5  UNL     1      22.755   2.140  12.211  1.00  0.00    -0.280 N 
HETATM   12  N6  UNL     1      22.944   3.406  12.334  1.00  0.00    -0.237 N 
ATOM     13  H5  UNL     1      22.908   1.461  12.955  1.00  0.00     0.188 HD
ATOM     14  H6  UNL     1      23.266   3.862  13.188  1.00  0.00     0.208 HD
BRANCH   9  15
HETATM   15  C3  UNL     1      21.992  -0.695  10.858  1.00  0.00     0.156 A 
HETATM   16  C2  UNL     1      23.016  -1.578  11.041  1.00  0.00     0.187 A 
HETATM   17  N2  UNL     1      22.535  -2.706  11.641  1.00  0.00    -0.167 N 
HETATM   18  C1  UNL     1      21.233  -2.507  11.822  1.00  0.00     0.699 A 
ATOM     19  H2  UNL     1      23.069  -3.537  11.900  1.00  0.00     0.186 HD
HETATM   20  N12 UNL     1      20.861  -1.312  11.366  1.00  0.00    -0.087 N 
BRANCH  16  21
HETATM   21  O1  UNL     1      24.352  -1.456  10.710  1.00  0.00    -0.344 OA
ATOM     22  H1  UNL     1      24.626  -1.312   9.812  1.00  0.00     0.219 HD
ENDBRANCH  16  21
BRANCH  18  23
HETATM   23  N1  UNL     1      20.373  -3.339  12.370  1.00  0.00    -0.233 N 
ATOM     24  H12 UNL     1      19.712  -3.877  11.809  1.00  0.00     0.174 HD
ATOM     25  H11 UNL     1      20.263  -3.541  13.364  1.00  0.00     0.174 HD
ENDBRANCH  18  23
BRANCH  20  26
HETATM   26  N13 UNL     1      19.592  -0.734  11.371  1.00  0.00    -0.324 N 
ATOM     27 2H13 UNL     1      19.088  -0.470  12.219  1.00  0.00     0.178 HD
ATOM     28 1H13 UNL     1      18.997  -0.495  10.578  1.00  0.00     0.178 HD
ENDBRANCH  20  26
ENDBRANCH   9  15
ENDBRANCH   1   2
BRANCH   1  29
HETATM   29  C8  UNL     1      24.071   5.904  10.427  1.00  0.00     0.107 A 
HETATM   30  N8  UNL     1      24.771   5.162   9.563  1.00  0.00    -0.189 N 
HETATM   31  C9  UNL     1      25.875   5.850   9.234  1.00  0.00     0.681 A 
ATOM     32  H8  UNL     1      24.512   4.239   9.215  1.00  0.00     0.184 HD
HETATM   33  N11 UNL     1      25.874   7.020   9.888  1.00  0.00    -0.169 N 
HETATM   34  C13 UNL     1      24.762   7.064  10.628  1.00  0.00     0.181 A 
ATOM     35  H11 UNL     1      26.589   7.744   9.830  1.00  0.00     0.186 HD
BRANCH  31  36
HETATM   36  N9  UNL     1      26.890   5.377   8.329  1.00  0.00    -0.207 N 
ATOM     37  H9  UNL     1      27.485   6.062   7.863  1.00  0.00     0.178 HD
BRANCH  36  38
HETATM   38  C10 UNL     1      27.101   3.982   8.052  1.00  0.00     0.256 C 
BRANCH  38  39
HETATM   39  C11 UNL     1      28.158   3.394   8.880  1.00  0.00     0.201 C 
HETATM   40  O3  UNL     1      29.026   2.632   8.415  1.00  0.00    -0.646 OA
HETATM   41  O4  UNL     1      28.181   3.707  10.240  1.00  0.00    -0.646 OA
ENDBRANCH  38  39
BRANCH  38  42
HETATM   42  C12 UNL     1      27.494   3.799   6.602  1.00  0.00     0.350 C 
BRANCH  42  43
HETATM   43  N10 UNL     1      26.825   4.807   5.812  1.00  0.00    -0.051 N 
ATOM     44 3H10 UNL     1      26.626   5.653   6.346  1.00  0.00     0.277 HD
ATOM     45 2H10 UNL     1      27.438   5.225   5.111  1.00  0.00     0.277 HD
ATOM     46 1H10 UNL     1      25.986   4.397   5.404  1.00  0.00     0.277 HD
ENDBRANCH  42  43
BRANCH  42  47
HETATM   47  O5  UNL     1      27.120   2.538   6.152  1.00  0.00    -0.368 OA
ATOM     48  H5  UNL     1      27.416   2.403   5.259  1.00  0.00     0.212 HD
ENDBRANCH  42  47
ENDBRANCH  38  42
ENDBRANCH  36  38
ENDBRANCH  31  36
BRANCH  34  49
HETATM   49  O6  UNL     1      24.332   8.093  11.479  1.00  0.00    -0.344 OA
ATOM     50  H6  UNL     1      23.592   8.659  11.294  1.00  0.00     0.219 HD
ENDBRANCH  34  49
ENDBRANCH   1  29
BRANCH   1  51
HETATM   51  C14 UNL     1      21.599   6.088  10.282  1.00  0.00     0.284 C 
BRANCH  51  52
HETATM   52  O7  UNL     1      21.414   7.358  10.839  1.00  0.00    -0.369 OA
ATOM     53  H7  UNL     1      20.574   7.671  10.525  1.00  0.00     0.212 HD
ENDBRANCH  51  52
BRANCH  51  54
HETATM   54  O8  UNL     1      22.015   6.251   8.938  1.00  0.00    -0.369 OA
ATOM     55  H8  UNL     1      22.320   7.147   8.866  1.00  0.00     0.212 HD
ENDBRANCH  51  54
ENDBRANCH   1  51
TORSDOF 16
ENDMDL
