MODEL 1
REMARK VINA RESULT: -8.869601616      0.000      0.000
REMARK  6 active torsions:
REMARK  status: ('A' for Active; 'I' for Inactive)
REMARK       I    between atoms: C1_2  and  N1_3 
REMARK    1  A    between atoms: C1_2  and  C7_10 
REMARK    2  A    between atoms: N1_3  and  C2_5 
REMARK    3  A    between atoms: N2_14  and  C11_15 
REMARK    4  A    between atoms: C11_15  and  O2_16 
REMARK    5  A    between atoms: C11_15  and  C12_18 
REMARK    6  A    between atoms: C12_18  and  C13_19 
ROOT
HETATM    1  C11 UNL     1      42.091  15.144  82.734  1.00  0.00     0.128 C 
ENDROOT
BRANCH   1   2
HETATM    2  N2  UNL     1      41.269  14.189  83.382  1.00  0.00    -0.351 N 
HETATM    3  C7  UNL     1      41.157  14.141  84.824  1.00  0.00     0.178 C 
HETATM    4  C8  UNL     1      40.207  13.013  85.109  1.00  0.00     0.037 C 
HETATM    5  C9  UNL     1      39.381  12.897  83.842  1.00  0.00     0.022 C 
HETATM    6  C10 UNL     1      40.518  13.129  82.822  1.00  0.00     0.126 C 
BRANCH   3   7
HETATM    7  C1  UNL     1      40.557  15.351  85.400  1.00  0.00     0.240 C 
HETATM    8  O1  UNL     1      41.234  16.357  85.659  1.00  0.00    -0.271 OA
HETATM    9  N1  UNL     1      39.172  15.363  85.662  1.00  0.00    -0.355 N 
ATOM     10  H1  UNL     1      38.621  14.533  85.447  1.00  0.00     0.162 HD
BRANCH   9  11
HETATM   11  C2  UNL     1      38.505  16.526  86.232  1.00  0.00     0.084 C 
HETATM   12  C3  UNL     1      37.790  17.248  85.133  1.00  0.00     0.025 C 
HETATM   13  C4  UNL     1      36.727  18.028  85.865  1.00  0.00     0.002 C 
HETATM   14  C5  UNL     1      36.204  16.987  86.836  1.00  0.00     0.002 C 
HETATM   15  C6  UNL     1      37.377  16.117  87.155  1.00  0.00     0.025 C 
ENDBRANCH   9  11
ENDBRANCH   3   7
ENDBRANCH   1   2
BRANCH   1  16
HETATM   16  O2  UNL     1      41.738  16.370  83.009  1.00  0.00    -0.349 OA
ATOM     17  H2  UNL     1      42.484  16.953  83.084  1.00  0.00     0.219 HD
ENDBRANCH   1  16
BRANCH   1  18
HETATM   18  C12 UNL     1      43.225  15.034  81.850  1.00  0.00     0.056 C 
HETATM   19  C17 UNL     1      43.735  16.184  81.108  1.00  0.00     0.028 C 
HETATM   20  C18 UNL     1      45.057  16.599  81.709  1.00  0.00    -0.013 C 
HETATM   21  C19 UNL     1      46.093  15.601  81.163  1.00  0.00     0.005 C 
HETATM   22  C22 UNL     1      44.968  16.032  83.118  1.00  0.00     0.011 C 
HETATM   23  C20 UNL     1      45.627  14.278  81.800  1.00  0.00     0.006 C 
HETATM   24  C21 UNL     1      44.464  14.674  82.718  1.00  0.00     0.007 C 
BRANCH  18  25
HETATM   25  C13 UNL     1      43.102  13.757  80.991  1.00  0.00    -0.034 A 
HETATM   26  C14 UNL     1      42.582  13.794  79.760  1.00  0.00     0.016 A 
HETATM   27  C15 UNL     1      42.556  12.620  79.052  1.00  0.00     0.050 A 
HETATM   28  S1  UNL     1      43.256  11.501  80.125  1.00  0.00    -0.113 SA
HETATM   29  C16 UNL     1      43.564  12.570  81.454  1.00  0.00     0.058 A 
ENDBRANCH  18  25
ENDBRANCH   1  18
TORSDOF 6
ENDMDL
MODEL 2
REMARK VINA RESULT: -8.260116245      1.079      1.293
REMARK  6 active torsions:
REMARK  status: ('A' for Active; 'I' for Inactive)
REMARK       I    between atoms: C1_2  and  N1_3 
REMARK    1  A    between atoms: C1_2  and  C7_10 
REMARK    2  A    between atoms: N1_3  and  C2_5 
REMARK    3  A    between atoms: N2_14  and  C11_15 
REMARK    4  A    between atoms: C11_15  and  O2_16 
REMARK    5  A    between atoms: C11_15  and  C12_18 
REMARK    6  A    between atoms: C12_18  and  C13_19 
ROOT
HETATM    1  C11 UNL     1      42.013  14.947  83.722  1.00  0.00     0.128 C 
ENDROOT
BRANCH   1   2
HETATM    2  N2  UNL     1      41.065  13.949  84.062  1.00  0.00    -0.351 N 
HETATM    3  C7  UNL     1      40.172  14.106  85.190  1.00  0.00     0.178 C 
HETATM    4  C8  UNL     1      39.340  12.856  85.211  1.00  0.00     0.037 C 
HETATM    5  C9  UNL     1      39.380  12.362  83.777  1.00  0.00     0.022 C 
HETATM    6  C10 UNL     1      40.863  12.675  83.482  1.00  0.00     0.126 C 
BRANCH   3   7
HETATM    7  C1  UNL     1      39.239  15.230  85.038  1.00  0.00     0.240 C 
HETATM    8  O1  UNL     1      39.396  16.097  84.166  1.00  0.00    -0.271 OA
HETATM    9  N1  UNL     1      38.137  15.320  85.912  1.00  0.00    -0.355 N 
ATOM     10  H1  UNL     1      38.013  14.604  86.628  1.00  0.00     0.162 HD
BRANCH   9  11
HETATM   11  C2  UNL     1      37.169  16.404  85.823  1.00  0.00     0.084 C 
HETATM   12  C3  UNL     1      35.968  16.038  86.639  1.00  0.00     0.025 C 
HETATM   13  C4  UNL     1      35.336  17.372  86.945  1.00  0.00     0.002 C 
HETATM   14  C5  UNL     1      36.547  18.200  87.327  1.00  0.00     0.002 C 
HETATM   15  C6  UNL     1      37.676  17.653  86.512  1.00  0.00     0.025 C 
ENDBRANCH   9  11
ENDBRANCH   3   7
ENDBRANCH   1   2
BRANCH   1  16
HETATM   16  O2  UNL     1      42.201  15.802  84.690  1.00  0.00    -0.349 OA
ATOM     17  H2  UNL     1      42.963  15.588  85.217  1.00  0.00     0.219 HD
ENDBRANCH   1  16
BRANCH   1  18
HETATM   18  C12 UNL     1      42.801  15.199  82.542  1.00  0.00     0.056 C 
HETATM   19  C17 UNL     1      42.685  16.448  81.792  1.00  0.00     0.028 C 
HETATM   20  C18 UNL     1      43.934  17.265  82.020  1.00  0.00    -0.013 C 
HETATM   21  C19 UNL     1      45.008  16.646  81.108  1.00  0.00     0.005 C 
HETATM   22  C22 UNL     1      44.456  16.707  83.335  1.00  0.00     0.011 C 
HETATM   23  C20 UNL     1      45.185  15.247  81.728  1.00  0.00     0.006 C 
HETATM   24  C21 UNL     1      44.293  15.257  82.976  1.00  0.00     0.007 C 
BRANCH  18  25
HETATM   25  C13 UNL     1      42.818  13.945  81.641  1.00  0.00    -0.034 A 
HETATM   26  C14 UNL     1      42.145  13.908  80.487  1.00  0.00     0.016 A 
HETATM   27  C15 UNL     1      42.257  12.770  79.729  1.00  0.00     0.050 A 
HETATM   28  S1  UNL     1      43.294  11.787  80.652  1.00  0.00    -0.113 SA
HETATM   29  C16 UNL     1      43.559  12.863  81.984  1.00  0.00     0.058 A 
ENDBRANCH  18  25
ENDBRANCH   1  18
TORSDOF 6
ENDMDL
MODEL 3
REMARK VINA RESULT: -8.228932289      2.538      6.807
REMARK  6 active torsions:
REMARK  status: ('A' for Active; 'I' for Inactive)
REMARK       I    between atoms: C1_2  and  N1_3 
REMARK    1  A    between atoms: C1_2  and  C7_10 
REMARK    2  A    between atoms: N1_3  and  C2_5 
REMARK    3  A    between atoms: N2_14  and  C11_15 
REMARK    4  A    between atoms: C11_15  and  O2_16 
REMARK    5  A    between atoms: C11_15  and  C12_18 
REMARK    6  A    between atoms: C12_18  and  C13_19 
ROOT
HETATM    1  C11 UNL     1      41.980  15.647  84.290  1.00  0.00     0.128 C 
ENDROOT
BRANCH   1   2
HETATM    2  N2  UNL     1      42.755  16.438  83.405  1.00  0.00    -0.351 N 
HETATM    3  C7  UNL     1      44.154  16.155  83.166  1.00  0.00     0.178 C 
HETATM    4  C8  UNL     1      44.605  17.200  82.185  1.00  0.00     0.037 C 
HETATM    5  C9  UNL     1      43.330  17.612  81.473  1.00  0.00     0.022 C 
HETATM    6  C10 UNL     1      42.388  17.607  82.698  1.00  0.00     0.126 C 
BRANCH   3   7
HETATM    7  C1  UNL     1      44.381  14.853  82.528  1.00  0.00     0.240 C 
HETATM    8  O1  UNL     1      45.167  14.020  83.003  1.00  0.00    -0.271 OA
HETATM    9  N1  UNL     1      43.683  14.547  81.342  1.00  0.00    -0.355 N 
ATOM     10  H1  UNL     1      43.039  15.236  80.956  1.00  0.00     0.162 HD
BRANCH   9  11
HETATM   11  C2  UNL     1      43.856  13.276  80.652  1.00  0.00     0.084 C 
HETATM   12  C3  UNL     1      42.973  12.258  81.304  1.00  0.00     0.025 C 
HETATM   13  C4  UNL     1      42.788  11.218  80.228  1.00  0.00     0.002 C 
HETATM   14  C5  UNL     1      42.526  12.085  79.012  1.00  0.00     0.002 C 
HETATM   15  C6  UNL     1      43.312  13.337  79.240  1.00  0.00     0.025 C 
ENDBRANCH   9  11
ENDBRANCH   3   7
ENDBRANCH   1   2
BRANCH   1  16
HETATM   16  O2  UNL     1      42.566  15.474  85.443  1.00  0.00    -0.349 OA
ATOM     17  H2  UNL     1      43.132  16.202  85.673  1.00  0.00     0.219 HD
ENDBRANCH   1  16
BRANCH   1  18
HETATM   18  C12 UNL     1      40.691  15.011  84.175  1.00  0.00     0.056 C 
HETATM   19  C17 UNL     1      40.313  14.249  82.986  1.00  0.00     0.028 C 
HETATM   20  C18 UNL     1      40.290  12.782  83.342  1.00  0.00    -0.013 C 
HETATM   21  C19 UNL     1      38.963  12.556  84.088  1.00  0.00     0.005 C 
HETATM   22  C22 UNL     1      41.205  12.723  84.556  1.00  0.00     0.011 C 
HETATM   23  C20 UNL     1      39.169  13.394  85.364  1.00  0.00     0.006 C 
HETATM   24  C21 UNL     1      40.611  13.907  85.266  1.00  0.00     0.007 C 
BRANCH  18  25
HETATM   25  C13 UNL     1      39.584  15.971  84.663  1.00  0.00    -0.034 A 
HETATM   26  C14 UNL     1      38.857  16.689  83.802  1.00  0.00     0.016 A 
HETATM   27  C15 UNL     1      37.863  17.479  84.323  1.00  0.00     0.050 A 
HETATM   28  S1  UNL     1      37.977  17.196  85.996  1.00  0.00    -0.113 SA
HETATM   29  C16 UNL     1      39.295  16.071  85.983  1.00  0.00     0.058 A 
ENDBRANCH  18  25
ENDBRANCH   1  18
TORSDOF 6
ENDMDL
MODEL 4
REMARK VINA RESULT: -7.426129551      1.331      2.744
REMARK  6 active torsions:
REMARK  status: ('A' for Active; 'I' for Inactive)
REMARK       I    between atoms: C1_2  and  N1_3 
REMARK    1  A    between atoms: C1_2  and  C7_10 
REMARK    2  A    between atoms: N1_3  and  C2_5 
REMARK    3  A    between atoms: N2_14  and  C11_15 
REMARK    4  A    between atoms: C11_15  and  O2_16 
REMARK    5  A    between atoms: C11_15  and  C12_18 
REMARK    6  A    between atoms: C12_18  and  C13_19 
ROOT
HETATM    1  C11 UNL     1      41.950  14.268  82.722  1.00  0.00     0.128 C 
ENDROOT
BRANCH   1   2
HETATM    2  N2  UNL     1      41.009  13.570  83.520  1.00  0.00    -0.351 N 
HETATM    3  C7  UNL     1      40.908  13.801  84.945  1.00  0.00     0.178 C 
HETATM    4  C8  UNL     1      39.813  12.886  85.416  1.00  0.00     0.037 C 
HETATM    5  C9  UNL     1      38.966  12.657  84.178  1.00  0.00     0.022 C 
HETATM    6  C10 UNL     1      40.113  12.540  83.150  1.00  0.00     0.126 C 
BRANCH   3   7
HETATM    7  C1  UNL     1      40.488  15.167  85.282  1.00  0.00     0.240 C 
HETATM    8  O1  UNL     1      41.291  16.111  85.307  1.00  0.00    -0.271 OA
HETATM    9  N1  UNL     1      39.131  15.405  85.585  1.00  0.00    -0.355 N 
ATOM     10  H1  UNL     1      38.476  14.625  85.564  1.00  0.00     0.162 HD
BRANCH   9  11
HETATM   11  C2  UNL     1      38.640  16.732  85.928  1.00  0.00     0.084 C 
HETATM   12  C3  UNL     1      37.809  17.239  84.791  1.00  0.00     0.025 C 
HETATM   13  C4  UNL     1      36.927  18.276  85.440  1.00  0.00     0.002 C 
HETATM   14  C5  UNL     1      36.497  17.557  86.704  1.00  0.00     0.002 C 
HETATM   15  C6  UNL     1      37.647  16.674  87.070  1.00  0.00     0.025 C 
ENDBRANCH   9  11
ENDBRANCH   3   7
ENDBRANCH   1   2
BRANCH   1  16
HETATM   16  O2  UNL     1      41.909  15.557  82.921  1.00  0.00    -0.349 OA
ATOM     17  H2  UNL     1      42.754  15.909  83.178  1.00  0.00     0.219 HD
ENDBRANCH   1  16
BRANCH   1  18
HETATM   18  C12 UNL     1      42.931  13.845  81.753  1.00  0.00     0.056 C 
HETATM   19  C17 UNL     1      43.270  12.436  81.570  1.00  0.00     0.028 C 
HETATM   20  C18 UNL     1      42.706  11.972  80.248  1.00  0.00    -0.013 C 
HETATM   21  C19 UNL     1      43.676  12.498  79.174  1.00  0.00     0.005 C 
HETATM   22  C22 UNL     1      41.587  12.972  80.001  1.00  0.00     0.011 C 
HETATM   23  C20 UNL     1      43.500  14.023  79.306  1.00  0.00     0.006 C 
HETATM   24  C21 UNL     1      42.383  14.199  80.343  1.00  0.00     0.007 C 
BRANCH  18  25
HETATM   25  C13 UNL     1      44.167  14.769  81.817  1.00  0.00    -0.034 A 
HETATM   26  C14 UNL     1      44.128  16.016  81.339  1.00  0.00     0.016 A 
HETATM   27  C15 UNL     1      45.258  16.780  81.482  1.00  0.00     0.050 A 
HETATM   28  S1  UNL     1      46.339  15.734  82.275  1.00  0.00    -0.113 SA
HETATM   29  C16 UNL     1      45.312  14.344  82.404  1.00  0.00     0.058 A 
ENDBRANCH  18  25
ENDBRANCH   1  18
TORSDOF 6
ENDMDL
MODEL 5
REMARK VINA RESULT: -6.999399917      1.926      3.463
REMARK  6 active torsions:
REMARK  status: ('A' for Active; 'I' for Inactive)
REMARK       I    between atoms: C1_2  and  N1_3 
REMARK    1  A    between atoms: C1_2  and  C7_10 
REMARK    2  A    between atoms: N1_3  and  C2_5 
REMARK    3  A    between atoms: N2_14  and  C11_15 
REMARK    4  A    between atoms: C11_15  and  O2_16 
REMARK    5  A    between atoms: C11_15  and  C12_18 
REMARK    6  A    between atoms: C12_18  and  C13_19 
ROOT
HETATM    1  C11 UNL     1      42.524  13.717  82.864  1.00  0.00     0.128 C 
ENDROOT
BRANCH   1   2
HETATM    2  N2  UNL     1      42.456  14.861  83.698  1.00  0.00    -0.351 N 
HETATM    3  C7  UNL     1      41.312  15.747  83.675  1.00  0.00     0.178 C 
HETATM    4  C8  UNL     1      41.620  16.816  84.684  1.00  0.00     0.037 C 
HETATM    5  C9  UNL     1      42.601  16.155  85.634  1.00  0.00     0.022 C 
HETATM    6  C10 UNL     1      43.429  15.380  84.584  1.00  0.00     0.126 C 
BRANCH   3   7
HETATM    7  C1  UNL     1      40.069  15.100  84.114  1.00  0.00     0.240 C 
HETATM    8  O1  UNL     1      39.604  14.111  83.529  1.00  0.00    -0.271 OA
HETATM    9  N1  UNL     1      39.390  15.623  85.234  1.00  0.00    -0.355 N 
ATOM     10  H1  UNL     1      39.777  16.437  85.711  1.00  0.00     0.162 HD
BRANCH   9  11
HETATM   11  C2  UNL     1      38.153  15.035  85.729  1.00  0.00     0.084 C 
HETATM   12  C3  UNL     1      38.068  15.282  87.203  1.00  0.00     0.025 C 
HETATM   13  C4  UNL     1      36.591  15.172  87.488  1.00  0.00     0.002 C 
HETATM   14  C5  UNL     1      36.003  15.969  86.340  1.00  0.00     0.002 C 
HETATM   15  C6  UNL     1      36.942  15.769  85.194  1.00  0.00     0.025 C 
ENDBRANCH   9  11
ENDBRANCH   3   7
ENDBRANCH   1   2
BRANCH   1  16
HETATM   16  O2  UNL     1      41.841  12.714  83.343  1.00  0.00    -0.349 OA
ATOM     17  H2  UNL     1      42.329  11.899  83.315  1.00  0.00     0.219 HD
ENDBRANCH   1  16
BRANCH   1  18
HETATM   18  C12 UNL     1      43.181  13.447  81.609  1.00  0.00     0.056 C 
HETATM   19  C17 UNL     1      43.445  12.082  81.159  1.00  0.00     0.028 C 
HETATM   20  C18 UNL     1      42.521  11.768  80.007  1.00  0.00    -0.013 C 
HETATM   21  C19 UNL     1      43.142  12.452  78.776  1.00  0.00     0.005 C 
HETATM   22  C22 UNL     1      41.383  12.755  80.220  1.00  0.00     0.011 C 
HETATM   23  C20 UNL     1      43.021  13.943  79.145  1.00  0.00     0.006 C 
HETATM   24  C21 UNL     1      42.252  13.955  80.472  1.00  0.00     0.007 C 
BRANCH  18  25
HETATM   25  C13 UNL     1      44.389  14.394  81.431  1.00  0.00    -0.034 A 
HETATM   26  C14 UNL     1      44.232  15.645  80.989  1.00  0.00     0.016 A 
HETATM   27  C15 UNL     1      45.355  16.429  80.908  1.00  0.00     0.050 A 
HETATM   28  S1  UNL     1      46.592  15.396  81.450  1.00  0.00    -0.113 SA
HETATM   29  C16 UNL     1      45.637  13.985  81.767  1.00  0.00     0.058 A 
ENDBRANCH  18  25
ENDBRANCH   1  18
TORSDOF 6
ENDMDL
