MODEL 1
REMARK VINA RESULT: -5.491338796      0.000      0.000
REMARK  4 active torsions:
REMARK  status: ('A' for Active; 'I' for Inactive)
REMARK    1  A    between atoms: C11_13  and  O1_14 
REMARK    2  A    between atoms: C12_16  and  C13_17 
REMARK    3  A    between atoms: N2_24  and  C19_25 
REMARK    4  A    between atoms: C19_25  and  C20_26 
ROOT
HETATM    1  C1  UNL     1      38.723  17.713  86.820  1.00  0.00     0.045 C 
HETATM    2  C2  UNL     1      39.544  16.506  86.542  1.00  0.00     0.151 C 
HETATM    3  C3  UNL     1      40.887  16.839  86.157  1.00  0.00    -0.158 C 
HETATM    4  C4  UNL     1      42.134  16.947  85.593  1.00  0.00     0.087 C 
HETATM    5  C5  UNL     1      42.206  15.982  84.368  1.00  0.00     0.053 C 
HETATM    6  C6  UNL     1      41.225  14.910  84.263  1.00  0.00    -0.017 A 
HETATM    7  C7  UNL     1      39.980  14.663  84.787  1.00  0.00     0.042 A 
HETATM    8  C8  UNL     1      39.343  13.453  84.620  1.00  0.00     0.032 A 
HETATM    9  C9  UNL     1      39.923  12.436  83.920  1.00  0.00     0.033 A 
HETATM   10  C10 UNL     1      41.150  12.649  83.383  1.00  0.00     0.046 A 
HETATM   11  N1  UNL     1      41.870  11.758  82.668  1.00  0.00    -0.336 N 
ATOM     12  H1  UNL     1      41.589  10.805  82.437  1.00  0.00     0.168 HD
HETATM   13  C11 UNL     1      42.995  12.336  82.323  1.00  0.00     0.154 A 
HETATM   14  C12 UNL     1      43.009  13.688  82.845  1.00  0.00     0.061 A 
HETATM   15  C18 UNL     1      41.832  13.865  83.526  1.00  0.00     0.017 A 
HETATM   16  N2  UNL     1      39.052  15.555  85.534  1.00  0.00    -0.345 N 
ENDROOT
BRANCH  16  17
HETATM   17  C19 UNL     1      37.722  15.445  85.127  1.00  0.00     0.070 C 
BRANCH  17  18
HETATM   18  C20 UNL     1      36.575  15.304  86.037  1.00  0.00     0.024 C 
HETATM   19  C21 UNL     1      35.898  16.461  86.660  1.00  0.00     0.010 C 
HETATM   20  C22 UNL     1      34.899  15.968  87.747  1.00  0.00     0.001 C 
HETATM   21  C23 UNL     1      35.728  15.595  88.944  1.00  0.00     0.000 C 
HETATM   22  C24 UNL     1      37.101  15.144  88.496  1.00  0.00     0.001 C 
HETATM   23  C25 UNL     1      36.963  14.382  87.221  1.00  0.00     0.010 C 
ENDBRANCH  17  18
ENDBRANCH  16  17
BRANCH  14  24
HETATM   24  C13 UNL     1      44.160  14.488  82.569  1.00  0.00     0.080 C 
HETATM   25  C14 UNL     1      45.229  14.740  83.254  1.00  0.00     0.011 C 
HETATM   26  C15 UNL     1      46.366  15.600  82.835  1.00  0.00     0.032 C 
HETATM   27  C16 UNL     1      46.138  16.327  81.553  1.00  0.00     0.030 C 
HETATM   28  C17 UNL     1      45.359  15.383  80.635  1.00  0.00     0.176 C 
HETATM   29  O2  UNL     1      44.133  15.137  81.293  1.00  0.00    -0.350 OA
ENDBRANCH  14  24
BRANCH  13  30
HETATM   30  O1  UNL     1      44.055  11.838  81.591  1.00  0.00    -0.345 OA
ATOM     31  H1  UNL     1      44.970  12.094  81.595  1.00  0.00     0.219 HD
ENDBRANCH  13  30
TORSDOF 4
ENDMDL
MODEL 2
REMARK VINA RESULT: -4.009332493      1.866      3.298
REMARK  4 active torsions:
REMARK  status: ('A' for Active; 'I' for Inactive)
REMARK    1  A    between atoms: C11_13  and  O1_14 
REMARK    2  A    between atoms: C12_16  and  C13_17 
REMARK    3  A    between atoms: N2_24  and  C19_25 
REMARK    4  A    between atoms: C19_25  and  C20_26 
ROOT
HETATM    1  C1  UNL     1      38.143  12.974  86.038  1.00  0.00     0.045 C 
HETATM    2  C2  UNL     1      38.762  13.742  84.928  1.00  0.00     0.151 C 
HETATM    3  C3  UNL     1      39.909  13.073  84.378  1.00  0.00    -0.158 C 
HETATM    4  C4  UNL     1      41.120  12.700  83.851  1.00  0.00     0.087 C 
HETATM    5  C5  UNL     1      42.054  13.950  83.828  1.00  0.00     0.053 C 
HETATM    6  C6  UNL     1      41.455  15.273  83.943  1.00  0.00    -0.017 A 
HETATM    7  C7  UNL     1      40.265  15.776  84.409  1.00  0.00     0.042 A 
HETATM    8  C8  UNL     1      39.912  17.097  84.239  1.00  0.00     0.032 A 
HETATM    9  C9  UNL     1      40.735  17.975  83.597  1.00  0.00     0.033 A 
HETATM   10  C10 UNL     1      41.921  17.512  83.129  1.00  0.00     0.046 A 
HETATM   11  N1  UNL     1      42.852  18.235  82.468  1.00  0.00    -0.336 N 
ATOM     12  H1  UNL     1      42.786  19.225  82.231  1.00  0.00     0.168 HD
HETATM   13  C11 UNL     1      43.854  17.439  82.187  1.00  0.00     0.154 A 
HETATM   14  C12 UNL     1      43.559  16.114  82.697  1.00  0.00     0.061 A 
HETATM   15  C18 UNL     1      42.321  16.178  83.283  1.00  0.00     0.017 A 
HETATM   16  N2  UNL     1      39.184  15.125  85.197  1.00  0.00    -0.345 N 
ENDROOT
BRANCH  16  17
HETATM   17  C19 UNL     1      38.690  15.919  86.231  1.00  0.00     0.070 C 
BRANCH  17  18
HETATM   18  C20 UNL     1      37.428  16.673  86.182  1.00  0.00     0.024 C 
HETATM   19  C21 UNL     1      37.227  17.949  86.901  1.00  0.00     0.010 C 
HETATM   20  C22 UNL     1      35.725  18.355  86.847  1.00  0.00     0.001 C 
HETATM   21  C23 UNL     1      35.017  17.486  87.849  1.00  0.00     0.000 C 
HETATM   22  C24 UNL     1      35.743  16.167  87.988  1.00  0.00     0.001 C 
HETATM   23  C25 UNL     1      36.263  15.762  86.649  1.00  0.00     0.010 C 
ENDBRANCH  17  18
ENDBRANCH  16  17
BRANCH  14  24
HETATM   24  C13 UNL     1      44.541  15.096  82.490  1.00  0.00     0.080 C 
HETATM   25  C14 UNL     1      45.353  14.493  83.297  1.00  0.00     0.011 C 
HETATM   26  C15 UNL     1      46.332  13.434  82.940  1.00  0.00     0.032 C 
HETATM   27  C16 UNL     1      46.442  13.177  81.475  1.00  0.00     0.030 C 
HETATM   28  C17 UNL     1      45.036  13.315  80.888  1.00  0.00     0.176 C 
HETATM   29  O2  UNL     1      44.651  14.652  81.133  1.00  0.00    -0.350 OA
ENDBRANCH  14  24
BRANCH  13  30
HETATM   30  O1  UNL     1      45.035  17.707  81.524  1.00  0.00    -0.345 OA
ATOM     31  H1  UNL     1      45.820  17.177  81.443  1.00  0.00     0.219 HD
ENDBRANCH  13  30
TORSDOF 4
ENDMDL
MODEL 3
REMARK VINA RESULT: -2.898851136      2.966      7.604
REMARK  4 active torsions:
REMARK  status: ('A' for Active; 'I' for Inactive)
REMARK    1  A    between atoms: C11_13  and  O1_14 
REMARK    2  A    between atoms: C12_16  and  C13_17 
REMARK    3  A    between atoms: N2_24  and  C19_25 
REMARK    4  A    between atoms: C19_25  and  C20_26 
ROOT
HETATM    1  C1  UNL     1      44.212  17.622  82.004  1.00  0.00     0.045 C 
HETATM    2  C2  UNL     1      42.956  16.840  82.139  1.00  0.00     0.151 C 
HETATM    3  C3  UNL     1      41.888  17.620  82.699  1.00  0.00    -0.158 C 
HETATM    4  C4  UNL     1      40.812  18.125  83.386  1.00  0.00     0.087 C 
HETATM    5  C5  UNL     1      40.343  17.057  84.423  1.00  0.00     0.053 C 
HETATM    6  C6  UNL     1      40.772  15.676  84.247  1.00  0.00    -0.017 A 
HETATM    7  C7  UNL     1      41.787  15.040  83.575  1.00  0.00     0.042 A 
HETATM    8  C8  UNL     1      41.846  13.668  83.467  1.00  0.00     0.032 A 
HETATM    9  C9  UNL     1      40.893  12.870  84.028  1.00  0.00     0.033 A 
HETATM   10  C10 UNL     1      39.879  13.466  84.704  1.00  0.00     0.046 A 
HETATM   11  N1  UNL     1      38.852  12.835  85.315  1.00  0.00    -0.336 N 
ATOM     12  H1  UNL     1      38.701  11.827  85.347  1.00  0.00     0.168 HD
HETATM   13  C11 UNL     1      38.086  13.748  85.858  1.00  0.00     0.154 A 
HETATM   14  C12 UNL     1      38.648  15.056  85.586  1.00  0.00     0.061 A 
HETATM   15  C18 UNL     1      39.782  14.857  84.841  1.00  0.00     0.017 A 
HETATM   16  N2  UNL     1      43.001  15.591  82.915  1.00  0.00    -0.345 N 
ENDROOT
BRANCH  16  17
HETATM   17  C19 UNL     1      44.159  14.857  83.172  1.00  0.00     0.070 C 
BRANCH  17  18
HETATM   18  C20 UNL     1      44.817  13.962  82.208  1.00  0.00     0.024 C 
HETATM   19  C21 UNL     1      44.713  14.142  80.744  1.00  0.00     0.010 C 
HETATM   20  C22 UNL     1      45.306  12.902  80.014  1.00  0.00     0.001 C 
HETATM   21  C23 UNL     1      44.274  11.815  80.122  1.00  0.00     0.000 C 
HETATM   22  C24 UNL     1      43.463  12.002  81.385  1.00  0.00     0.001 C 
HETATM   23  C25 UNL     1      44.364  12.502  82.464  1.00  0.00     0.010 C 
ENDBRANCH  17  18
ENDBRANCH  16  17
BRANCH  14  24
HETATM   24  C13 UNL     1      37.952  16.193  86.103  1.00  0.00     0.080 C 
HETATM   25  C14 UNL     1      37.629  17.329  85.576  1.00  0.00     0.011 C 
HETATM   26  C15 UNL     1      36.889  18.434  86.239  1.00  0.00     0.032 C 
HETATM   27  C16 UNL     1      36.641  18.212  87.693  1.00  0.00     0.030 C 
HETATM   28  C17 UNL     1      36.352  16.721  87.876  1.00  0.00     0.176 C 
HETATM   29  O2  UNL     1      37.527  16.052  87.463  1.00  0.00    -0.350 OA
ENDBRANCH  14  24
BRANCH  13  30
HETATM   30  O1  UNL     1      36.921  13.605  86.585  1.00  0.00    -0.345 OA
ATOM     31  H1  UNL     1      36.211  14.221  86.724  1.00  0.00     0.219 HD
ENDBRANCH  13  30
TORSDOF 4
ENDMDL
MODEL 4
REMARK VINA RESULT: -2.776135353      0.936      1.385
REMARK  4 active torsions:
REMARK  status: ('A' for Active; 'I' for Inactive)
REMARK    1  A    between atoms: C11_13  and  O1_14 
REMARK    2  A    between atoms: C12_16  and  C13_17 
REMARK    3  A    between atoms: N2_24  and  C19_25 
REMARK    4  A    between atoms: C19_25  and  C20_26 
ROOT
HETATM    1  C1  UNL     1      39.354  17.374  87.050  1.00  0.00     0.045 C 
HETATM    2  C2  UNL     1      40.204  16.245  86.591  1.00  0.00     0.151 C 
HETATM    3  C3  UNL     1      41.418  16.697  85.971  1.00  0.00    -0.158 C 
HETATM    4  C4  UNL     1      42.523  16.917  85.187  1.00  0.00     0.087 C 
HETATM    5  C5  UNL     1      42.442  15.976  83.945  1.00  0.00     0.053 C 
HETATM    6  C6  UNL     1      41.550  14.825  83.996  1.00  0.00    -0.017 A 
HETATM    7  C7  UNL     1      40.451  14.466  84.736  1.00  0.00     0.042 A 
HETATM    8  C8  UNL     1      39.896  13.208  84.658  1.00  0.00     0.032 A 
HETATM    9  C9  UNL     1      40.414  12.252  83.835  1.00  0.00     0.033 A 
HETATM   10  C10 UNL     1      41.497  12.576  83.084  1.00  0.00     0.046 A 
HETATM   11  N1  UNL     1      42.140  11.758  82.223  1.00  0.00    -0.336 N 
ATOM     12  H1  UNL     1      41.900  10.787  82.023  1.00  0.00     0.168 HD
HETATM   13  C11 UNL     1      43.128  12.434  81.690  1.00  0.00     0.154 A 
HETATM   14  C12 UNL     1      43.129  13.776  82.236  1.00  0.00     0.061 A 
HETATM   15  C18 UNL     1      42.091  13.844  83.130  1.00  0.00     0.017 A 
HETATM   16  N2  UNL     1      39.610  15.266  85.667  1.00  0.00    -0.345 N 
ENDROOT
BRANCH  16  17
HETATM   17  C19 UNL     1      38.242  15.048  85.513  1.00  0.00     0.070 C 
BRANCH  17  18
HETATM   18  C20 UNL     1      37.205  16.083  85.647  1.00  0.00     0.024 C 
HETATM   19  C21 UNL     1      37.508  17.475  86.040  1.00  0.00     0.010 C 
HETATM   20  C22 UNL     1      36.185  18.243  86.330  1.00  0.00     0.001 C 
HETATM   21  C23 UNL     1      35.720  17.785  87.684  1.00  0.00     0.000 C 
HETATM   22  C24 UNL     1      36.189  16.370  87.936  1.00  0.00     0.001 C 
HETATM   23  C25 UNL     1      36.126  15.608  86.654  1.00  0.00     0.010 C 
ENDBRANCH  17  18
ENDBRANCH  16  17
BRANCH  14  24
HETATM   24  C13 UNL     1      44.138  14.676  81.772  1.00  0.00     0.080 C 
HETATM   25  C14 UNL     1      44.115  15.640  80.910  1.00  0.00     0.011 C 
HETATM   26  C15 UNL     1      45.257  16.509  80.523  1.00  0.00     0.032 C 
HETATM   27  C16 UNL     1      46.562  16.096  81.115  1.00  0.00     0.030 C 
HETATM   28  C17 UNL     1      46.274  15.595  82.532  1.00  0.00     0.176 C 
HETATM   29  O2  UNL     1      45.423  14.478  82.374  1.00  0.00    -0.350 OA
ENDBRANCH  14  24
BRANCH  13  30
HETATM   30  O1  UNL     1      44.068  12.037  80.759  1.00  0.00    -0.345 OA
ATOM     31  H1  UNL     1      44.625  11.267  80.748  1.00  0.00     0.219 HD
ENDBRANCH  13  30
TORSDOF 4
ENDMDL
MODEL 5
REMARK VINA RESULT: -2.749869725      2.557      7.666
REMARK  4 active torsions:
REMARK  status: ('A' for Active; 'I' for Inactive)
REMARK    1  A    between atoms: C11_13  and  O1_14 
REMARK    2  A    between atoms: C12_16  and  C13_17 
REMARK    3  A    between atoms: N2_24  and  C19_25 
REMARK    4  A    between atoms: C19_25  and  C20_26 
ROOT
HETATM    1  C1  UNL     1      43.597  11.441  80.088  1.00  0.00     0.045 C 
HETATM    2  C2  UNL     1      43.593  11.971  81.476  1.00  0.00     0.151 C 
HETATM    3  C3  UNL     1      42.272  12.019  82.036  1.00  0.00    -0.158 C 
HETATM    4  C4  UNL     1      41.094  12.321  82.674  1.00  0.00     0.087 C 
HETATM    5  C5  UNL     1      41.203  13.769  83.249  1.00  0.00     0.053 C 
HETATM    6  C6  UNL     1      42.523  14.365  83.397  1.00  0.00    -0.017 A 
HETATM    7  C7  UNL     1      43.767  14.146  82.859  1.00  0.00     0.042 A 
HETATM    8  C8  UNL     1      44.891  14.793  83.323  1.00  0.00     0.032 A 
HETATM    9  C9  UNL     1      44.820  15.691  84.347  1.00  0.00     0.033 A 
HETATM   10  C10 UNL     1      43.605  15.936  84.898  1.00  0.00     0.046 A 
HETATM   11  N1  UNL     1      43.352  16.786  85.917  1.00  0.00    -0.336 N 
ATOM     12  H1  UNL     1      44.040  17.356  86.410  1.00  0.00     0.168 HD
HETATM   13  C11 UNL     1      42.065  16.750  86.159  1.00  0.00     0.154 A 
HETATM   14  C12 UNL     1      41.439  15.819  85.241  1.00  0.00     0.061 A 
HETATM   15  C18 UNL     1      42.437  15.303  84.454  1.00  0.00     0.017 A 
HETATM   16  N2  UNL     1      44.186  13.297  81.710  1.00  0.00    -0.345 N 
ENDROOT
BRANCH  16  17
HETATM   17  C19 UNL     1      45.111  13.913  80.868  1.00  0.00     0.070 C 
BRANCH  17  18
HETATM   18  C20 UNL     1      45.144  15.353  80.567  1.00  0.00     0.024 C 
HETATM   19  C21 UNL     1      45.668  16.359  81.514  1.00  0.00     0.010 C 
HETATM   20  C22 UNL     1      45.335  17.791  81.003  1.00  0.00     0.001 C 
HETATM   21  C23 UNL     1      43.881  18.020  81.305  1.00  0.00     0.000 C 
HETATM   22  C24 UNL     1      43.141  16.701  81.289  1.00  0.00     0.001 C 
HETATM   23  C25 UNL     1      43.716  15.841  80.213  1.00  0.00     0.010 C 
ENDBRANCH  17  18
ENDBRANCH  16  17
BRANCH  14  24
HETATM   24  C13 UNL     1      40.025  15.640  85.346  1.00  0.00     0.080 C 
HETATM   25  C14 UNL     1      39.303  14.699  85.862  1.00  0.00     0.011 C 
HETATM   26  C15 UNL     1      37.818  14.645  85.905  1.00  0.00     0.032 C 
HETATM   27  C16 UNL     1      37.148  15.739  85.144  1.00  0.00     0.030 C 
HETATM   28  C17 UNL     1      37.993  17.000  85.336  1.00  0.00     0.176 C 
HETATM   29  O2  UNL     1      39.255  16.703  84.774  1.00  0.00    -0.350 OA
ENDBRANCH  14  24
BRANCH  13  30
HETATM   30  O1  UNL     1      41.324  17.435  87.102  1.00  0.00    -0.345 OA
ATOM     31  H1  UNL     1      40.668  18.113  86.984  1.00  0.00     0.219 HD
ENDBRANCH  13  30
TORSDOF 4
ENDMDL
