MODEL 1
REMARK VINA RESULT: -6.364182374      0.000      0.000
REMARK  4 active torsions:
REMARK  status: ('A' for Active; 'I' for Inactive)
REMARK    1  A    between atoms: N1_1  and  C1_4 
REMARK    2  A    between atoms: C4_9  and  C5_10 
REMARK    3  A    between atoms: N3_21  and  C16_22 
REMARK    4  A    between atoms: N4_25  and  C19_26 
ROOT
HETATM    1  C1  UNL     1      34.222  16.460  88.278  1.00  0.00     0.679 A 
HETATM    2  N2  UNL     1      34.828  15.468  87.593  1.00  0.00    -0.190 N 
ATOM      3  H2  UNL     1      34.494  14.508  87.506  1.00  0.00     0.184 HD
HETATM    4  C2  UNL     1      35.935  15.964  87.051  1.00  0.00     0.077 A 
HETATM    5  C3  UNL     1      36.911  15.372  86.255  1.00  0.00     0.040 A 
HETATM    6  C4  UNL     1      37.971  16.112  85.815  1.00  0.00    -0.052 A 
HETATM    7  C13 UNL     1      38.040  17.444  86.183  1.00  0.00     0.010 A 
HETATM    8  C14 UNL     1      37.068  18.023  86.974  1.00  0.00     0.033 A 
HETATM    9  C15 UNL     1      35.991  17.288  87.424  1.00  0.00     0.079 A 
HETATM   10  N3  UNL     1      34.909  17.610  88.202  1.00  0.00    -0.176 N 
ENDROOT
BRANCH  10  11
HETATM   11  C16 UNL     1      34.687  18.899  88.736  1.00  0.00     0.111 C 
HETATM   12  C17 UNL     1      34.604  20.049  87.814  1.00  0.00     0.045 C 
HETATM   13  C18 UNL     1      35.522  21.209  88.158  1.00  0.00     0.119 C 
HETATM   14  N4  UNL     1      35.364  21.599  89.507  1.00  0.00    -0.408 N 
HETATM   15  C25 UNL     1      35.128  20.552  90.429  1.00  0.00     0.119 C 
HETATM   16  C26 UNL     1      35.722  19.270  89.817  1.00  0.00     0.045 C 
BRANCH  14  17
HETATM   17  C19 UNL     1      34.821  22.871  89.784  1.00  0.00     0.079 C 
HETATM   18  C20 UNL     1      33.513  23.134  89.077  1.00  0.00     0.025 C 
HETATM   19  C21 UNL     1      33.272  24.638  89.085  1.00  0.00     0.002 C 
HETATM   20  C22 UNL     1      34.100  25.329  90.145  1.00  0.00     0.000 C 
HETATM   21  C23 UNL     1      34.124  24.554  91.431  1.00  0.00     0.002 C 
HETATM   22  C24 UNL     1      34.605  23.140  91.261  1.00  0.00     0.025 C 
ENDBRANCH  14  17
ENDBRANCH  10  11
BRANCH   1  23
HETATM   23  N1  UNL     1      33.140  16.296  88.903  1.00  0.00    -0.234 N 
ATOM     24  H12 UNL     1      32.318  15.811  88.544  1.00  0.00     0.174 HD
ATOM     25  H11 UNL     1      32.991  16.645  89.850  1.00  0.00     0.174 HD
ENDBRANCH   1  23
BRANCH   6  26
HETATM   26  C5  UNL     1      39.030  15.482  84.948  1.00  0.00     0.018 C 
HETATM   27  C6  UNL     1      38.832  13.981  85.061  1.00  0.00     0.009 C 
HETATM   28  C7  UNL     1      39.540  13.199  84.006  1.00  0.00     0.001 C 
HETATM   29  C8  UNL     1      40.973  12.869  84.360  1.00  0.00     0.000 C 
HETATM   30  C9  UNL     1      41.949  13.669  83.487  1.00  0.00     0.000 C 
HETATM   31  C10 UNL     1      42.379  14.919  84.213  1.00  0.00     0.000 C 
HETATM   32  C11 UNL     1      41.349  16.008  84.163  1.00  0.00     0.001 C 
HETATM   33  C12 UNL     1      40.396  15.931  85.351  1.00  0.00     0.009 C 
ENDBRANCH   6  26
TORSDOF 4
ENDMDL
MODEL 2
REMARK VINA RESULT: -6.287852604      2.461      4.882
REMARK  4 active torsions:
REMARK  status: ('A' for Active; 'I' for Inactive)
REMARK    1  A    between atoms: N1_1  and  C1_4 
REMARK    2  A    between atoms: C4_9  and  C5_10 
REMARK    3  A    between atoms: N3_21  and  C16_22 
REMARK    4  A    between atoms: N4_25  and  C19_26 
ROOT
HETATM    1  C1  UNL     1      38.179  13.984  86.009  1.00  0.00     0.679 A 
HETATM    2  N2  UNL     1      38.998  13.182  85.297  1.00  0.00    -0.190 N 
ATOM      3  H2  UNL     1      38.916  12.170  85.206  1.00  0.00     0.184 HD
HETATM    4  C2  UNL     1      39.930  13.946  84.736  1.00  0.00     0.077 A 
HETATM    5  C3  UNL     1      41.003  13.625  83.910  1.00  0.00     0.040 A 
HETATM    6  C4  UNL     1      41.830  14.612  83.456  1.00  0.00    -0.052 A 
HETATM    7  C13 UNL     1      41.569  15.916  83.839  1.00  0.00     0.010 A 
HETATM    8  C14 UNL     1      40.503  16.225  84.659  1.00  0.00     0.033 A 
HETATM    9  C15 UNL     1      39.658  15.239  85.125  1.00  0.00     0.079 A 
HETATM   10  N3  UNL     1      38.550  15.271  85.931  1.00  0.00    -0.176 N 
ENDROOT
BRANCH  10  11
HETATM   11  C16 UNL     1      38.024  16.459  86.487  1.00  0.00     0.111 C 
HETATM   12  C17 UNL     1      37.279  16.383  87.759  1.00  0.00     0.045 C 
HETATM   13  C18 UNL     1      35.905  17.029  87.732  1.00  0.00     0.119 C 
HETATM   14  N4  UNL     1      35.974  18.350  87.237  1.00  0.00    -0.408 N 
HETATM   15  C25 UNL     1      36.908  18.572  86.198  1.00  0.00     0.119 C 
HETATM   16  C26 UNL     1      37.126  17.222  85.492  1.00  0.00     0.045 C 
BRANCH  14  17
HETATM   17  C19 UNL     1      35.677  19.416  88.111  1.00  0.00     0.079 C 
HETATM   18  C20 UNL     1      34.594  20.334  87.596  1.00  0.00     0.025 C 
HETATM   19  C21 UNL     1      34.683  21.642  88.371  1.00  0.00     0.002 C 
HETATM   20  C22 UNL     1      35.449  21.473  89.663  1.00  0.00     0.000 C 
HETATM   21  C23 UNL     1      35.088  20.195  90.365  1.00  0.00     0.002 C 
HETATM   22  C24 UNL     1      35.277  18.975  89.507  1.00  0.00     0.025 C 
ENDBRANCH  14  17
ENDBRANCH  10  11
BRANCH   1  23
HETATM   23  N1  UNL     1      37.189  13.548  86.657  1.00  0.00    -0.234 N 
ATOM     24  H12 UNL     1      36.673  12.695  86.442  1.00  0.00     0.174 HD
ATOM     25  H11 UNL     1      36.812  14.025  87.475  1.00  0.00     0.174 HD
ENDBRANCH   1  23
BRANCH   6  26
HETATM   26  C5  UNL     1      42.991  14.277  82.557  1.00  0.00     0.018 C 
HETATM   27  C6  UNL     1      43.769  15.568  82.370  1.00  0.00     0.009 C 
HETATM   28  C7  UNL     1      45.139  15.371  81.815  1.00  0.00     0.001 C 
HETATM   29  C8  UNL     1      45.178  15.324  80.304  1.00  0.00     0.000 C 
HETATM   30  C9  UNL     1      45.493  13.905  79.811  1.00  0.00     0.000 C 
HETATM   31  C10 UNL     1      44.212  13.175  79.496  1.00  0.00     0.000 C 
HETATM   32  C11 UNL     1      43.518  12.658  80.720  1.00  0.00     0.001 C 
HETATM   33  C12 UNL     1      42.525  13.675  81.273  1.00  0.00     0.009 C 
ENDBRANCH   6  26
TORSDOF 4
ENDMDL
MODEL 3
REMARK VINA RESULT: -5.834147555      1.565      2.989
REMARK  4 active torsions:
REMARK  status: ('A' for Active; 'I' for Inactive)
REMARK    1  A    between atoms: N1_1  and  C1_4 
REMARK    2  A    between atoms: C4_9  and  C5_10 
REMARK    3  A    between atoms: N3_21  and  C16_22 
REMARK    4  A    between atoms: N4_25  and  C19_26 
ROOT
HETATM    1  C1  UNL     1      36.807  14.983  87.346  1.00  0.00     0.679 A 
HETATM    2  N2  UNL     1      37.538  14.066  86.679  1.00  0.00    -0.190 N 
ATOM      3  H2  UNL     1      37.407  13.055  86.711  1.00  0.00     0.184 HD
HETATM    4  C2  UNL     1      38.459  14.714  85.973  1.00  0.00     0.077 A 
HETATM    5  C3  UNL     1      39.456  14.250  85.120  1.00  0.00     0.040 A 
HETATM    6  C4  UNL     1      40.288  15.137  84.501  1.00  0.00    -0.052 A 
HETATM    7  C13 UNL     1      40.111  16.487  84.749  1.00  0.00     0.010 A 
HETATM    8  C14 UNL     1      39.121  16.939  85.597  1.00  0.00     0.033 A 
HETATM    9  C15 UNL     1      38.271  16.055  86.228  1.00  0.00     0.079 A 
HETATM   10  N3  UNL     1      37.226  16.232  87.097  1.00  0.00    -0.176 N 
ENDROOT
BRANCH  10  11
HETATM   11  C16 UNL     1      36.791  17.500  87.546  1.00  0.00     0.111 C 
HETATM   12  C17 UNL     1      36.197  17.615  88.892  1.00  0.00     0.045 C 
HETATM   13  C18 UNL     1      34.843  18.300  88.934  1.00  0.00     0.119 C 
HETATM   14  N4  UNL     1      34.881  19.543  88.264  1.00  0.00    -0.408 N 
HETATM   15  C25 UNL     1      35.693  19.596  87.107  1.00  0.00     0.119 C 
HETATM   16  C26 UNL     1      35.800  18.159  86.565  1.00  0.00     0.045 C 
BRANCH  14  17
HETATM   17  C19 UNL     1      34.709  20.723  89.017  1.00  0.00     0.079 C 
HETATM   18  C20 UNL     1      35.688  20.857  90.159  1.00  0.00     0.025 C 
HETATM   19  C21 UNL     1      35.132  21.888  91.132  1.00  0.00     0.002 C 
HETATM   20  C22 UNL     1      34.091  22.767  90.477  1.00  0.00     0.000 C 
HETATM   21  C23 UNL     1      34.491  23.168  89.086  1.00  0.00     0.002 C 
HETATM   22  C24 UNL     1      34.790  21.996  88.195  1.00  0.00     0.025 C 
ENDBRANCH  14  17
ENDBRANCH  10  11
BRANCH   1  23
HETATM   23  N1  UNL     1      35.849  14.672  88.105  1.00  0.00    -0.234 N 
ATOM     24  H12 UNL     1      35.098  14.022  87.872  1.00  0.00     0.174 HD
ATOM     25  H11 UNL     1      35.742  15.054  89.044  1.00  0.00     0.174 HD
ENDBRANCH   1  23
BRANCH   6  26
HETATM   26  C5  UNL     1      41.367  14.645  83.571  1.00  0.00     0.018 C 
HETATM   27  C6  UNL     1      41.186  13.141  83.471  1.00  0.00     0.009 C 
HETATM   28  C7  UNL     1      41.918  12.521  82.329  1.00  0.00     0.001 C 
HETATM   29  C8  UNL     1      43.350  12.160  82.655  1.00  0.00     0.000 C 
HETATM   30  C9  UNL     1      44.327  13.084  81.916  1.00  0.00     0.000 C 
HETATM   31  C10 UNL     1      44.732  14.225  82.815  1.00  0.00     0.000 C 
HETATM   32  C11 UNL     1      43.690  15.300  82.902  1.00  0.00     0.001 C 
HETATM   33  C12 UNL     1      42.721  15.049  84.053  1.00  0.00     0.009 C 
ENDBRANCH   6  26
TORSDOF 4
ENDMDL
MODEL 4
REMARK VINA RESULT: -5.804489070      1.487      3.004
REMARK  4 active torsions:
REMARK  status: ('A' for Active; 'I' for Inactive)
REMARK    1  A    between atoms: N1_1  and  C1_4 
REMARK    2  A    between atoms: C4_9  and  C5_10 
REMARK    3  A    between atoms: N3_21  and  C16_22 
REMARK    4  A    between atoms: N4_25  and  C19_26 
ROOT
HETATM    1  C1  UNL     1      36.428  15.154  87.494  1.00  0.00     0.679 A 
HETATM    2  N2  UNL     1      37.156  14.189  86.894  1.00  0.00    -0.190 N 
ATOM      3  H2  UNL     1      36.944  13.192  86.891  1.00  0.00     0.184 HD
HETATM    4  C2  UNL     1      38.197  14.770  86.307  1.00  0.00     0.077 A 
HETATM    5  C3  UNL     1      39.244  14.237  85.561  1.00  0.00     0.040 A 
HETATM    6  C4  UNL     1      40.207  15.063  85.056  1.00  0.00    -0.052 A 
HETATM    7  C13 UNL     1      40.108  16.420  85.308  1.00  0.00     0.010 A 
HETATM    8  C14 UNL     1      39.067  16.940  86.050  1.00  0.00     0.033 A 
HETATM    9  C15 UNL     1      38.086  16.119  86.566  1.00  0.00     0.079 A 
HETATM   10  N3  UNL     1      36.968  16.369  87.318  1.00  0.00    -0.176 N 
ENDROOT
BRANCH  10  11
HETATM   11  C16 UNL     1      36.585  17.662  87.740  1.00  0.00     0.111 C 
HETATM   12  C17 UNL     1      35.852  17.809  89.013  1.00  0.00     0.045 C 
HETATM   13  C18 UNL     1      34.559  18.600  88.915  1.00  0.00     0.119 C 
HETATM   14  N4  UNL     1      34.771  19.844  88.279  1.00  0.00    -0.408 N 
HETATM   15  C25 UNL     1      35.712  19.844  87.223  1.00  0.00     0.119 C 
HETATM   16  C26 UNL     1      35.768  18.410  86.668  1.00  0.00     0.045 C 
BRANCH  14  17
HETATM   17  C19 UNL     1      34.607  21.025  89.032  1.00  0.00     0.079 C 
HETATM   18  C20 UNL     1      35.663  21.213  90.095  1.00  0.00     0.025 C 
HETATM   19  C21 UNL     1      35.139  22.232  91.098  1.00  0.00     0.002 C 
HETATM   20  C22 UNL     1      34.015  23.059  90.516  1.00  0.00     0.000 C 
HETATM   21  C23 UNL     1      34.292  23.459  89.095  1.00  0.00     0.002 C 
HETATM   22  C24 UNL     1      34.572  22.289  88.195  1.00  0.00     0.025 C 
ENDBRANCH  14  17
ENDBRANCH  10  11
BRANCH   1  23
HETATM   23  N1  UNL     1      35.370  14.911  88.136  1.00  0.00    -0.234 N 
ATOM     24  H12 UNL     1      34.583  14.360  87.792  1.00  0.00     0.174 HD
ATOM     25  H11 UNL     1      35.207  15.255  89.082  1.00  0.00     0.174 HD
ENDBRANCH   1  23
BRANCH   6  26
HETATM   26  C5  UNL     1      41.342  14.497  84.241  1.00  0.00     0.018 C 
HETATM   27  C6  UNL     1      42.093  15.690  83.676  1.00  0.00     0.009 C 
HETATM   28  C7  UNL     1      43.446  15.353  83.146  1.00  0.00     0.001 C 
HETATM   29  C8  UNL     1      43.433  14.890  81.707  1.00  0.00     0.000 C 
HETATM   30  C9  UNL     1      43.752  13.392  81.613  1.00  0.00     0.000 C 
HETATM   31  C10 UNL     1      42.472  12.598  81.560  1.00  0.00     0.000 C 
HETATM   32  C11 UNL     1      41.828  12.436  82.905  1.00  0.00     0.001 C 
HETATM   33  C12 UNL     1      40.840  13.561  83.192  1.00  0.00     0.009 C 
ENDBRANCH   6  26
TORSDOF 4
ENDMDL
MODEL 5
REMARK VINA RESULT: -5.702316047      3.168      6.246
REMARK  4 active torsions:
REMARK  status: ('A' for Active; 'I' for Inactive)
REMARK    1  A    between atoms: N1_1  and  C1_4 
REMARK    2  A    between atoms: C4_9  and  C5_10 
REMARK    3  A    between atoms: N3_21  and  C16_22 
REMARK    4  A    between atoms: N4_25  and  C19_26 
ROOT
HETATM    1  C1  UNL     1      39.213  12.671  85.200  1.00  0.00     0.679 A 
HETATM    2  N2  UNL     1      40.148  12.189  84.355  1.00  0.00    -0.190 N 
ATOM      3  H2  UNL     1      40.248  11.217  84.063  1.00  0.00     0.184 HD
HETATM    4  C2  UNL     1      40.915  13.204  83.972  1.00  0.00     0.077 A 
HETATM    5  C3  UNL     1      42.010  13.254  83.115  1.00  0.00     0.040 A 
HETATM    6  C4  UNL     1      42.635  14.445  82.880  1.00  0.00    -0.052 A 
HETATM    7  C13 UNL     1      42.152  15.577  83.512  1.00  0.00     0.010 A 
HETATM    8  C14 UNL     1      41.066  15.519  84.361  1.00  0.00     0.033 A 
HETATM    9  C15 UNL     1      40.423  14.323  84.608  1.00  0.00     0.079 A 
HETATM   10  N3  UNL     1      39.345  13.993  85.387  1.00  0.00    -0.176 N 
ENDROOT
BRANCH  10  11
HETATM   11  C16 UNL     1      38.625  14.931  86.161  1.00  0.00     0.111 C 
HETATM   12  C17 UNL     1      37.161  14.788  86.276  1.00  0.00     0.045 C 
HETATM   13  C18 UNL     1      36.369  16.037  85.931  1.00  0.00     0.119 C 
HETATM   14  N4  UNL     1      36.849  17.156  86.647  1.00  0.00    -0.408 N 
HETATM   15  C25 UNL     1      38.249  17.207  86.847  1.00  0.00     0.119 C 
HETATM   16  C26 UNL     1      38.895  16.384  85.719  1.00  0.00     0.045 C 
BRANCH  14  17
HETATM   17  C19 UNL     1      36.011  17.750  87.614  1.00  0.00     0.079 C 
HETATM   18  C20 UNL     1      35.423  19.069  87.172  1.00  0.00     0.025 C 
HETATM   19  C21 UNL     1      34.935  19.802  88.415  1.00  0.00     0.002 C 
HETATM   20  C22 UNL     1      34.748  18.858  89.581  1.00  0.00     0.000 C 
HETATM   21  C23 UNL     1      34.111  17.566  89.158  1.00  0.00     0.002 C 
HETATM   22  C24 UNL     1      34.863  16.865  88.062  1.00  0.00     0.025 C 
ENDBRANCH  14  17
ENDBRANCH  10  11
BRANCH   1  23
HETATM   23  N1  UNL     1      38.333  11.943  85.733  1.00  0.00    -0.234 N 
ATOM     24  H12 UNL     1      38.444  10.955  85.964  1.00  0.00     0.174 HD
ATOM     25  H11 UNL     1      37.408  12.290  85.987  1.00  0.00     0.174 HD
ENDBRANCH   1  23
BRANCH   6  26
HETATM   26  C5  UNL     1      43.819  14.511  81.950  1.00  0.00     0.018 C 
HETATM   27  C6  UNL     1      44.227  15.972  81.887  1.00  0.00     0.009 C 
HETATM   28  C7  UNL     1      45.586  16.194  81.312  1.00  0.00     0.001 C 
HETATM   29  C8  UNL     1      45.593  16.299  79.804  1.00  0.00     0.000 C 
HETATM   30  C9  UNL     1      46.254  15.066  79.174  1.00  0.00     0.000 C 
HETATM   31  C10 UNL     1      45.199  14.058  78.793  1.00  0.00     0.000 C 
HETATM   32  C11 UNL     1      44.698  13.265  79.963  1.00  0.00     0.001 C 
HETATM   33  C12 UNL     1      43.490  13.930  80.614  1.00  0.00     0.009 C 
ENDBRANCH   6  26
TORSDOF 4
ENDMDL
