MODEL 1
REMARK VINA RESULT: -6.978532814      0.000      0.000
REMARK  5 active torsions:
REMARK  status: ('A' for Active; 'I' for Inactive)
REMARK    1  A    between atoms: C2_2  and  C3_3 
REMARK    2  A    between atoms: C3_3  and  C4_4 
REMARK    3  A    between atoms: C5_6  and  C7_8 
REMARK    4  A    between atoms: C16_20  and  C17_21 
REMARK    5  A    between atoms: C26_30  and  O2_31 
ROOT
HETATM    1  C7  UNL     1      41.449  14.683  84.650  1.00  0.00     0.026 C 
HETATM    2  C8  UNL     1      41.083  13.203  84.715  1.00  0.00     0.009 C 
HETATM    3  C9  UNL     1      41.611  12.568  83.498  1.00  0.00     0.017 C 
HETATM    4  C10 UNL     1      42.343  13.652  82.704  1.00  0.00     0.016 A 
HETATM    5  C11 UNL     1      41.858  13.635  81.243  1.00  0.00    -0.000 A 
HETATM    6  N1  UNL     1      40.993  13.830  80.348  1.00  0.00    -0.404 N 
ATOM      7  H11 UNL     1      40.672  13.819  79.380  1.00  0.00     0.155 HD
ATOM      8  H12 UNL     1      40.075  14.120  80.011  1.00  0.00     0.155 HD
HETATM    9  C12 UNL     1      43.228  13.203  81.745  1.00  0.00     0.008 A 
HETATM   10  C13 UNL     1      43.503  11.699  81.587  1.00  0.00     0.023 C 
HETATM   11  C14 UNL     1      44.283  14.032  81.102  1.00  0.00     0.017 C 
HETATM   12  C15 UNL     1      43.958  15.444  81.319  1.00  0.00     0.007 C 
HETATM   13  C16 UNL     1      44.432  16.023  82.644  1.00  0.00    -0.003 C 
HETATM   14  C20 UNL     1      43.670  15.510  83.816  1.00  0.00    -0.039 C 
HETATM   15  C21 UNL     1      43.407  16.744  84.681  1.00  0.00     0.015 C 
HETATM   16  C22 UNL     1      44.388  14.474  84.636  1.00  0.00     0.015 C 
HETATM   17  C23 UNL     1      42.328  14.894  83.446  1.00  0.00     0.016 C 
ENDROOT
BRANCH   1  18
HETATM   18  C5  UNL     1      40.144  15.402  84.649  1.00  0.00     0.062 C 
HETATM   19  O1  UNL     1      39.695  15.825  85.875  1.00  0.00    -0.372 OA
HETATM   20  C4  UNL     1      38.389  16.199  85.880  1.00  0.00     0.151 C 
HETATM   21  C26 UNL     1      37.416  15.040  85.755  1.00  0.00     0.147 C 
HETATM   22  C25 UNL     1      38.274  13.852  85.300  1.00  0.00     0.037 C 
HETATM   23  C24 UNL     1      39.110  14.387  84.140  1.00  0.00     0.040 C 
HETATM   24  C6  UNL     1      40.066  16.580  83.708  1.00  0.00     0.046 C 
BRANCH  20  25
HETATM   25  C3  UNL     1      38.017  17.004  87.102  1.00  0.00     0.034 C 
BRANCH  25  26
HETATM   26  C2  UNL     1      36.899  17.977  86.844  1.00  0.00    -0.002 C 
HETATM   27  C1  UNL     1      35.728  17.552  87.715  1.00  0.00     0.005 C 
ENDBRANCH  25  26
ENDBRANCH  20  25
BRANCH  21  28
HETATM   28  O2  UNL     1      36.468  15.268  84.746  1.00  0.00    -0.393 OA
ATOM     29  H2  UNL     1      35.668  15.642  85.097  1.00  0.00     0.210 HD
ENDBRANCH  21  28
ENDBRANCH   1  18
BRANCH  13  30
HETATM   30  C17 UNL     1      45.886  16.006  82.654  1.00  0.00    -0.018 C 
HETATM   31  C18 UNL     1      46.683  16.372  81.465  1.00  0.00     0.010 C 
HETATM   32  C19 UNL     1      46.386  14.654  83.128  1.00  0.00     0.010 C 
ENDBRANCH  13  30
TORSDOF 5
ENDMDL
MODEL 2
REMARK VINA RESULT: -6.181072701      1.164      1.409
REMARK  5 active torsions:
REMARK  status: ('A' for Active; 'I' for Inactive)
REMARK    1  A    between atoms: C2_2  and  C3_3 
REMARK    2  A    between atoms: C3_3  and  C4_4 
REMARK    3  A    between atoms: C5_6  and  C7_8 
REMARK    4  A    between atoms: C16_20  and  C17_21 
REMARK    5  A    between atoms: C26_30  and  O2_31 
ROOT
HETATM    1  C7  UNL     1      41.681  14.094  83.944  1.00  0.00     0.026 C 
HETATM    2  C8  UNL     1      41.811  12.582  83.782  1.00  0.00     0.009 C 
HETATM    3  C9  UNL     1      42.404  12.333  82.460  1.00  0.00     0.017 C 
HETATM    4  C10 UNL     1      42.682  13.697  81.826  1.00  0.00     0.016 A 
HETATM    5  C11 UNL     1      42.102  13.728  80.399  1.00  0.00    -0.000 A 
HETATM    6  N1  UNL     1      41.146  13.754  79.580  1.00  0.00    -0.404 N 
ATOM      7  H11 UNL     1      40.762  13.774  78.636  1.00  0.00     0.155 HD
ATOM      8  H12 UNL     1      40.157  13.772  79.328  1.00  0.00     0.155 HD
HETATM    9  C12 UNL     1      43.577  13.702  80.775  1.00  0.00     0.008 A 
HETATM   10  C13 UNL     1      44.301  12.409  80.366  1.00  0.00     0.023 C 
HETATM   11  C14 UNL     1      44.254  14.912  80.235  1.00  0.00     0.017 C 
HETATM   12  C15 UNL     1      43.518  16.095  80.690  1.00  0.00     0.007 C 
HETATM   13  C16 UNL     1      43.897  16.604  82.072  1.00  0.00    -0.003 C 
HETATM   14  C20 UNL     1      43.443  15.711  83.173  1.00  0.00    -0.039 C 
HETATM   15  C21 UNL     1      42.878  16.656  84.235  1.00  0.00     0.015 C 
HETATM   16  C22 UNL     1      44.521  14.862  83.788  1.00  0.00     0.015 C 
HETATM   17  C23 UNL     1      42.338  14.749  82.759  1.00  0.00     0.016 C 
ENDROOT
BRANCH   1  18
HETATM   18  C5  UNL     1      40.220  14.339  84.108  1.00  0.00     0.062 C 
HETATM   19  O1  UNL     1      39.872  15.580  84.577  1.00  0.00    -0.372 OA
HETATM   20  C4  UNL     1      38.582  15.665  84.995  1.00  0.00     0.151 C 
HETATM   21  C26 UNL     1      38.305  14.929  86.294  1.00  0.00     0.147 C 
HETATM   22  C25 UNL     1      39.529  14.028  86.505  1.00  0.00     0.037 C 
HETATM   23  C24 UNL     1      39.744  13.331  85.164  1.00  0.00     0.040 C 
HETATM   24  C6  UNL     1      39.388  14.072  82.877  1.00  0.00     0.046 C 
BRANCH  20  25
HETATM   25  C3  UNL     1      38.110  17.092  85.145  1.00  0.00     0.034 C 
BRANCH  25  26
HETATM   26  C2  UNL     1      37.899  17.491  86.580  1.00  0.00    -0.002 C 
HETATM   27  C1  UNL     1      36.542  18.169  86.660  1.00  0.00     0.005 C 
ENDBRANCH  25  26
ENDBRANCH  20  25
BRANCH  21  28
HETATM   28  O2  UNL     1      37.191  14.084  86.182  1.00  0.00    -0.393 OA
ATOM     29  H2  UNL     1      36.647  14.119  86.960  1.00  0.00     0.210 HD
ENDBRANCH  21  28
ENDBRANCH   1  18
BRANCH  13  30
HETATM   30  C17 UNL     1      45.277  17.063  82.025  1.00  0.00    -0.018 C 
HETATM   31  C18 UNL     1      45.662  18.323  81.358  1.00  0.00     0.010 C 
HETATM   32  C19 UNL     1      46.168  15.970  81.466  1.00  0.00     0.010 C 
ENDBRANCH  13  30
TORSDOF 5
ENDMDL
MODEL 3
REMARK VINA RESULT: -5.944331385      2.034      4.107
REMARK  5 active torsions:
REMARK  status: ('A' for Active; 'I' for Inactive)
REMARK    1  A    between atoms: C2_2  and  C3_3 
REMARK    2  A    between atoms: C3_3  and  C4_4 
REMARK    3  A    between atoms: C5_6  and  C7_8 
REMARK    4  A    between atoms: C16_20  and  C17_21 
REMARK    5  A    between atoms: C26_30  and  O2_31 
ROOT
HETATM    1  C7  UNL     1      41.967  15.826  82.994  1.00  0.00     0.026 C 
HETATM    2  C8  UNL     1      42.676  17.177  83.052  1.00  0.00     0.009 C 
HETATM    3  C9  UNL     1      44.119  16.919  82.931  1.00  0.00     0.017 C 
HETATM    4  C10 UNL     1      44.294  15.410  82.751  1.00  0.00     0.016 A 
HETATM    5  C11 UNL     1      45.350  14.893  83.746  1.00  0.00    -0.000 A 
HETATM    6  N1  UNL     1      45.750  14.609  84.906  1.00  0.00    -0.404 N 
ATOM      7  H11 UNL     1      46.449  14.267  85.565  1.00  0.00     0.155 HD
ATOM      8  H12 UNL     1      45.643  14.536  85.918  1.00  0.00     0.155 HD
HETATM    9  C12 UNL     1      45.508  15.002  82.236  1.00  0.00     0.008 A 
HETATM   10  C13 UNL     1      46.552  16.040  81.793  1.00  0.00     0.023 C 
HETATM   11  C14 UNL     1      45.784  13.657  81.663  1.00  0.00     0.017 C 
HETATM   12  C15 UNL     1      44.735  12.738  82.112  1.00  0.00     0.007 C 
HETATM   13  C16 UNL     1      43.465  12.742  81.274  1.00  0.00    -0.003 C 
HETATM   14  C20 UNL     1      42.659  13.983  81.432  1.00  0.00    -0.039 C 
HETATM   15  C21 UNL     1      41.213  13.497  81.549  1.00  0.00     0.015 C 
HETATM   16  C22 UNL     1      42.763  14.958  80.293  1.00  0.00     0.015 C 
HETATM   17  C23 UNL     1      42.997  14.771  82.690  1.00  0.00     0.016 C 
ENDROOT
BRANCH   1  18
HETATM   18  C5  UNL     1      41.263  15.704  84.302  1.00  0.00     0.062 C 
HETATM   19  O1  UNL     1      40.273  14.756  84.360  1.00  0.00    -0.372 OA
HETATM   20  C4  UNL     1      39.464  14.876  85.444  1.00  0.00     0.151 C 
HETATM   21  C26 UNL     1      38.527  16.068  85.384  1.00  0.00     0.147 C 
HETATM   22  C25 UNL     1      39.078  16.947  84.254  1.00  0.00     0.037 C 
HETATM   23  C24 UNL     1      40.575  17.058  84.531  1.00  0.00     0.040 C 
HETATM   24  C6  UNL     1      42.165  15.490  85.493  1.00  0.00     0.046 C 
BRANCH  20  25
HETATM   25  C3  UNL     1      38.641  13.635  85.699  1.00  0.00     0.034 C 
BRANCH  25  26
HETATM   26  C2  UNL     1      39.140  12.436  84.939  1.00  0.00    -0.002 C 
HETATM   27  C1  UNL     1      40.562  12.172  85.405  1.00  0.00     0.005 C 
ENDBRANCH  25  26
ENDBRANCH  20  25
BRANCH  21  28
HETATM   28  O2  UNL     1      38.585  16.832  86.560  1.00  0.00    -0.393 OA
ATOM     29  H2  UNL     1      38.171  16.384  87.288  1.00  0.00     0.210 HD
ENDBRANCH  21  28
ENDBRANCH   1  18
BRANCH  13  30
HETATM   30  C17 UNL     1      43.797  12.250  79.945  1.00  0.00    -0.018 C 
HETATM   31  C18 UNL     1      44.192  13.158  78.849  1.00  0.00     0.010 C 
HETATM   32  C19 UNL     1      42.671  11.379  79.419  1.00  0.00     0.010 C 
ENDBRANCH  13  30
TORSDOF 5
ENDMDL
MODEL 4
REMARK VINA RESULT: -5.251188769      1.442      2.120
REMARK  5 active torsions:
REMARK  status: ('A' for Active; 'I' for Inactive)
REMARK    1  A    between atoms: C2_2  and  C3_3 
REMARK    2  A    between atoms: C3_3  and  C4_4 
REMARK    3  A    between atoms: C5_6  and  C7_8 
REMARK    4  A    between atoms: C16_20  and  C17_21 
REMARK    5  A    between atoms: C26_30  and  O2_31 
ROOT
HETATM    1  C7  UNL     1      42.413  13.801  83.522  1.00  0.00     0.026 C 
HETATM    2  C8  UNL     1      42.747  12.377  83.087  1.00  0.00     0.009 C 
HETATM    3  C9  UNL     1      43.299  12.453  81.726  1.00  0.00     0.017 C 
HETATM    4  C10 UNL     1      43.348  13.933  81.340  1.00  0.00     0.016 A 
HETATM    5  C11 UNL     1      42.695  14.125  79.959  1.00  0.00    -0.000 A 
HETATM    6  N1  UNL     1      41.703  14.151  79.183  1.00  0.00    -0.404 N 
ATOM      7  H11 UNL     1      41.271  14.278  78.268  1.00  0.00     0.155 HD
ATOM      8  H12 UNL     1      40.710  14.065  78.965  1.00  0.00     0.155 HD
HETATM    9  C12 UNL     1      44.176  14.254  80.284  1.00  0.00     0.008 A 
HETATM   10  C13 UNL     1      45.053  13.174  79.630  1.00  0.00     0.023 C 
HETATM   11  C14 UNL     1      44.645  15.627  79.954  1.00  0.00     0.017 C 
HETATM   12  C15 UNL     1      43.774  16.589  80.633  1.00  0.00     0.007 C 
HETATM   13  C16 UNL     1      44.149  16.900  82.074  1.00  0.00    -0.003 C 
HETATM   14  C20 UNL     1      43.885  15.772  83.008  1.00  0.00    -0.039 C 
HETATM   15  C21 UNL     1      43.248  16.423  84.237  1.00  0.00     0.015 C 
HETATM   16  C22 UNL     1      45.103  14.999  83.431  1.00  0.00     0.015 C 
HETATM   17  C23 UNL     1      42.908  14.743  82.456  1.00  0.00     0.016 C 
ENDROOT
BRANCH   1  18
HETATM   18  C5  UNL     1      40.942  13.794  83.765  1.00  0.00     0.062 C 
HETATM   19  O1  UNL     1      40.494  14.657  84.732  1.00  0.00    -0.372 OA
HETATM   20  C4  UNL     1      39.219  14.413  85.135  1.00  0.00     0.151 C 
HETATM   21  C26 UNL     1      39.067  13.156  85.971  1.00  0.00     0.147 C 
HETATM   22  C25 UNL     1      40.380  12.387  85.772  1.00  0.00     0.037 C 
HETATM   23  C24 UNL     1      40.610  12.379  84.263  1.00  0.00     0.040 C 
HETATM   24  C6  UNL     1      40.093  14.011  82.537  1.00  0.00     0.046 C 
BRANCH  20  25
HETATM   25  C3  UNL     1      38.616  15.569  85.897  1.00  0.00     0.034 C 
BRANCH  25  26
HETATM   26  C2  UNL     1      38.287  16.743  85.016  1.00  0.00    -0.002 C 
HETATM   27  C1  UNL     1      37.435  17.693  85.839  1.00  0.00     0.005 C 
ENDBRANCH  25  26
ENDBRANCH  20  25
BRANCH  21  28
HETATM   28  O2  UNL     1      38.038  12.334  85.489  1.00  0.00    -0.393 OA
ATOM     29  H2  UNL     1      37.186  12.624  85.795  1.00  0.00     0.210 HD
ENDBRANCH  21  28
ENDBRANCH   1  18
BRANCH  13  30
HETATM   30  C17 UNL     1      45.446  17.561  82.074  1.00  0.00    -0.018 C 
HETATM   31  C18 UNL     1      45.695  18.801  81.311  1.00  0.00     0.010 C 
HETATM   32  C19 UNL     1      46.530  16.573  81.687  1.00  0.00     0.010 C 
ENDBRANCH  13  30
TORSDOF 5
ENDMDL
MODEL 5
REMARK VINA RESULT: -4.323865405      2.482      6.907
REMARK  5 active torsions:
REMARK  status: ('A' for Active; 'I' for Inactive)
REMARK    1  A    between atoms: C2_2  and  C3_3 
REMARK    2  A    between atoms: C3_3  and  C4_4 
REMARK    3  A    between atoms: C5_6  and  C7_8 
REMARK    4  A    between atoms: C16_20  and  C17_21 
REMARK    5  A    between atoms: C26_30  and  O2_31 
ROOT
HETATM    1  C7  UNL     1      42.642  15.226  84.128  1.00  0.00     0.026 C 
HETATM    2  C8  UNL     1      42.964  16.307  85.157  1.00  0.00     0.009 C 
HETATM    3  C9  UNL     1      41.685  16.785  85.705  1.00  0.00     0.017 C 
HETATM    4  C10 UNL     1      40.576  15.962  85.045  1.00  0.00     0.016 A 
HETATM    5  C11 UNL     1      39.493  16.908  84.495  1.00  0.00    -0.000 A 
HETATM    6  N1  UNL     1      39.071  17.775  83.684  1.00  0.00    -0.404 N 
ATOM      7  H11 UNL     1      38.354  18.402  83.320  1.00  0.00     0.155 HD
ATOM      8  H12 UNL     1      39.164  18.402  82.885  1.00  0.00     0.155 HD
HETATM    9  C12 UNL     1      39.355  15.973  85.688  1.00  0.00     0.008 A 
HETATM   10  C13 UNL     1      39.192  16.700  87.033  1.00  0.00     0.023 C 
HETATM   11  C14 UNL     1      38.251  15.006  85.441  1.00  0.00     0.017 C 
HETATM   12  C15 UNL     1      38.495  14.343  84.158  1.00  0.00     0.007 C 
HETATM   13  C16 UNL     1      39.424  13.139  84.215  1.00  0.00    -0.003 C 
HETATM   14  C20 UNL     1      40.844  13.503  84.470  1.00  0.00    -0.039 C 
HETATM   15  C21 UNL     1      41.650  12.637  83.500  1.00  0.00     0.015 C 
HETATM   16  C22 UNL     1      41.323  13.251  85.873  1.00  0.00     0.015 C 
HETATM   17  C23 UNL     1      41.160  14.963  84.176  1.00  0.00     0.016 C 
ENDROOT
BRANCH   1  18
HETATM   18  C5  UNL     1      43.179  15.747  82.840  1.00  0.00     0.062 C 
HETATM   19  O1  UNL     1      42.838  15.034  81.719  1.00  0.00    -0.372 OA
HETATM   20  C4  UNL     1      43.576  15.351  80.624  1.00  0.00     0.151 C 
HETATM   21  C26 UNL     1      45.011  14.860  80.685  1.00  0.00     0.147 C 
HETATM   22  C25 UNL     1      45.234  14.473  82.152  1.00  0.00     0.037 C 
HETATM   23  C24 UNL     1      44.707  15.657  82.959  1.00  0.00     0.040 C 
HETATM   24  C6  UNL     1      42.870  17.198  82.563  1.00  0.00     0.046 C 
BRANCH  20  25
HETATM   25  C3  UNL     1      42.957  14.855  79.339  1.00  0.00     0.034 C 
BRANCH  25  26
HETATM   26  C2  UNL     1      41.884  13.824  79.565  1.00  0.00    -0.002 C 
HETATM   27  C1  UNL     1      42.549  12.461  79.474  1.00  0.00     0.005 C 
ENDBRANCH  25  26
ENDBRANCH  20  25
BRANCH  21  28
HETATM   28  O2  UNL     1      45.922  15.886  80.391  1.00  0.00    -0.393 OA
ATOM     29  H2  UNL     1      46.710  15.548  79.983  1.00  0.00     0.210 HD
ENDBRANCH  21  28
ENDBRANCH   1  18
BRANCH  13  30
HETATM   30  C17 UNL     1      38.780  12.105  85.011  1.00  0.00    -0.018 C 
HETATM   31  C18 UNL     1      38.092  10.954  84.393  1.00  0.00     0.010 C 
HETATM   32  C19 UNL     1      37.806  12.736  85.989  1.00  0.00     0.010 C 
ENDBRANCH  13  30
TORSDOF 5
ENDMDL
