MODEL 1
REMARK VINA RESULT: -7.079585865      0.000      0.000
REMARK  5 active torsions:
REMARK  status: ('A' for Active; 'I' for Inactive)
REMARK    1  A    between atoms: N1_1  and  N2_4 
REMARK    2  A    between atoms: N2_4  and  C1_6 
REMARK    3  A    between atoms: C2_9  and  C3_10 
REMARK       I    between atoms: C3_10  and  N4_12 
REMARK    4  A    between atoms: N4_12  and  C4_14 
REMARK    5  A    between atoms: C5_21  and  C6_22 
ROOT
HETATM    1  C1  UNL     1      19.091  67.749  35.066  1.00  0.00     0.190 A 
HETATM    2  N3  UNL     1      18.877  67.990  33.753  1.00  0.00    -0.330 N 
ATOM      3  H3  UNL     1      19.677  68.165  33.144  1.00  0.00     0.168 HD
HETATM    4  C2  UNL     1      17.611  68.007  33.213  1.00  0.00     0.135 A 
HETATM    5  C5  UNL     1      16.531  67.774  34.000  1.00  0.00     0.133 A 
HETATM    6  N10 UNL     1      16.802  67.535  35.327  1.00  0.00    -0.314 N 
ATOM      7  H10 UNL     1      16.007  67.360  35.942  1.00  0.00     0.169 HD
HETATM    8  C7  UNL     1      18.006  67.514  35.875  1.00  0.00     0.291 A 
HETATM    9  O3  UNL     1      18.194  67.285  37.113  1.00  0.00    -0.264 OA
ENDROOT
BRANCH   4  10
HETATM   10  C3  UNL     1      17.551  68.324  31.812  1.00  0.00     0.289 C 
HETATM   11  O1  UNL     1      17.362  67.533  30.885  1.00  0.00    -0.265 OA
HETATM   12  N4  UNL     1      17.720  69.696  31.364  1.00  0.00    -0.152 N 
ATOM     13  H4  UNL     1      18.651  70.054  31.145  1.00  0.00     0.187 HD
BRANCH  12  14
HETATM   14  C4  UNL     1      16.688  70.459  31.245  1.00  0.00     0.710 A 
HETATM   15  N5  UNL     1      15.877  70.912  32.209  1.00  0.00    -0.117 N 
HETATM   16  N6  UNL     1      14.924  71.677  31.658  1.00  0.00     0.006 NA
ATOM     17  H5  UNL     1      15.969  70.708  33.204  1.00  0.00     0.202 HD
HETATM   18  N7  UNL     1      15.148  71.698  30.340  1.00  0.00     0.006 NA
HETATM   19  N8  UNL     1      16.226  70.952  30.095  1.00  0.00    -0.117 N 
ATOM     20  H8  UNL     1      16.633  70.785  29.175  1.00  0.00     0.202 HD
ENDBRANCH  12  14
ENDBRANCH   4  10
BRANCH   5  21
HETATM   21  C6  UNL     1      15.166  67.686  33.543  1.00  0.00     0.284 C 
HETATM   22  N9  UNL     1      14.311  68.837  33.884  1.00  0.00    -0.056 NA
HETATM   23  O2  UNL     1      14.618  66.780  32.905  1.00  0.00    -0.269 OA
ENDBRANCH   5  21
BRANCH   1  24
HETATM   24  N2  UNL     1      20.277  67.740  35.559  1.00  0.00    -0.287 N 
ATOM     25  H2  UNL     1      20.893  66.966  35.312  1.00  0.00     0.188 HD
BRANCH  24  26
HETATM   26  N1  UNL     1      20.764  68.710  36.398  1.00  0.00    -0.343 N 
ATOM     27  H12 UNL     1      20.263  68.859  37.273  1.00  0.00     0.176 HD
ATOM     28  H11 UNL     1      21.586  69.279  36.194  1.00  0.00     0.176 HD
ENDBRANCH  24  26
ENDBRANCH   1  24
TORSDOF 5
ENDMDL
MODEL 2
REMARK VINA RESULT: -6.928872933      0.600      1.029
REMARK  5 active torsions:
REMARK  status: ('A' for Active; 'I' for Inactive)
REMARK    1  A    between atoms: N1_1  and  N2_4 
REMARK    2  A    between atoms: N2_4  and  C1_6 
REMARK    3  A    between atoms: C2_9  and  C3_10 
REMARK       I    between atoms: C3_10  and  N4_12 
REMARK    4  A    between atoms: N4_12  and  C4_14 
REMARK    5  A    between atoms: C5_21  and  C6_22 
ROOT
HETATM    1  C1  UNL     1      19.040  67.759  35.203  1.00  0.00     0.190 A 
HETATM    2  N3  UNL     1      18.695  68.091  33.938  1.00  0.00    -0.330 N 
ATOM      3  H3  UNL     1      19.428  68.330  33.271  1.00  0.00     0.168 HD
HETATM    4  C2  UNL     1      17.381  68.117  33.526  1.00  0.00     0.135 A 
HETATM    5  C5  UNL     1      16.388  67.801  34.392  1.00  0.00     0.133 A 
HETATM    6  N10 UNL     1      16.791  67.472  35.666  1.00  0.00    -0.314 N 
ATOM      7  H10 UNL     1      16.062  67.232  36.338  1.00  0.00     0.169 HD
HETATM    8  C7  UNL     1      18.042  67.439  36.092  1.00  0.00     0.291 A 
HETATM    9  O3  UNL     1      18.354  67.124  37.286  1.00  0.00    -0.264 OA
ENDROOT
BRANCH   4  10
HETATM   10  C3  UNL     1      17.180  68.536  32.164  1.00  0.00     0.289 C 
HETATM   11  O1  UNL     1      16.994  67.805  31.189  1.00  0.00    -0.265 OA
HETATM   12  N4  UNL     1      17.181  69.949  31.825  1.00  0.00    -0.152 N 
ATOM     13  H4  UNL     1      18.053  70.416  31.572  1.00  0.00     0.187 HD
BRANCH  12  14
HETATM   14  C4  UNL     1      16.075  70.610  31.847  1.00  0.00     0.710 A 
HETATM   15  N5  UNL     1      15.323  71.002  30.810  1.00  0.00    -0.117 N 
HETATM   16  N6  UNL     1      14.253  71.664  31.270  1.00  0.00     0.006 NA
ATOM     17  H5  UNL     1      15.532  70.825  29.828  1.00  0.00     0.202 HD
HETATM   18  N7  UNL     1      14.342  71.683  32.603  1.00  0.00     0.006 NA
HETATM   19  N8  UNL     1      15.457  71.036  32.949  1.00  0.00    -0.117 N 
ATOM     20  H8  UNL     1      15.785  70.892  33.904  1.00  0.00     0.202 HD
ENDBRANCH  12  14
ENDBRANCH   4  10
BRANCH   5  21
HETATM   21  C6  UNL     1      14.986  67.715  34.063  1.00  0.00     0.284 C 
HETATM   22  N9  UNL     1      14.138  68.777  34.632  1.00  0.00    -0.056 NA
HETATM   23  O2  UNL     1      14.402  66.874  33.370  1.00  0.00    -0.269 OA
ENDBRANCH   5  21
BRANCH   1  24
HETATM   24  N2  UNL     1      20.268  67.742  35.578  1.00  0.00    -0.287 N 
ATOM     25  H2  UNL     1      20.864  66.991  35.231  1.00  0.00     0.188 HD
BRANCH  24  26
HETATM   26  N1  UNL     1      20.825  68.674  36.416  1.00  0.00    -0.343 N 
ATOM     27  H12 UNL     1      20.530  68.654  37.392  1.00  0.00     0.176 HD
ATOM     28  H11 UNL     1      21.506  69.373  36.119  1.00  0.00     0.176 HD
ENDBRANCH  24  26
ENDBRANCH   1  24
TORSDOF 5
ENDMDL
MODEL 3
REMARK VINA RESULT: -6.631946229      1.471      1.544
REMARK  5 active torsions:
REMARK  status: ('A' for Active; 'I' for Inactive)
REMARK    1  A    between atoms: N1_1  and  N2_4 
REMARK    2  A    between atoms: N2_4  and  C1_6 
REMARK    3  A    between atoms: C2_9  and  C3_10 
REMARK       I    between atoms: C3_10  and  N4_12 
REMARK    4  A    between atoms: N4_12  and  C4_14 
REMARK    5  A    between atoms: C5_21  and  C6_22 
ROOT
HETATM    1  C1  UNL     1      18.576  67.199  36.415  1.00  0.00     0.190 A 
HETATM    2  N3  UNL     1      18.446  67.559  35.118  1.00  0.00    -0.330 N 
ATOM      3  H3  UNL     1      19.285  67.723  34.562  1.00  0.00     0.168 HD
HETATM    4  C2  UNL     1      17.212  67.710  34.525  1.00  0.00     0.135 A 
HETATM    5  C5  UNL     1      16.081  67.494  35.240  1.00  0.00     0.133 A 
HETATM    6  N10 UNL     1      16.267  67.131  36.554  1.00  0.00    -0.314 N 
ATOM      7  H10 UNL     1      15.431  66.965  37.115  1.00  0.00     0.169 HD
HETATM    8  C7  UNL     1      17.437  66.979  37.152  1.00  0.00     0.291 A 
HETATM    9  O3  UNL     1      17.546  66.639  38.374  1.00  0.00    -0.264 OA
ENDROOT
BRANCH   4  10
HETATM   10  C3  UNL     1      17.245  68.141  33.153  1.00  0.00     0.289 C 
HETATM   11  O1  UNL     1      17.324  67.421  32.156  1.00  0.00    -0.265 OA
HETATM   12  N4  UNL     1      17.184  69.557  32.830  1.00  0.00    -0.152 N 
ATOM     13  H4  UNL     1      18.041  70.105  32.757  1.00  0.00     0.187 HD
BRANCH  12  14
HETATM   14  C4  UNL     1      16.039  70.116  32.635  1.00  0.00     0.710 A 
HETATM   15  N5  UNL     1      15.551  71.226  33.203  1.00  0.00    -0.117 N 
HETATM   16  N6  UNL     1      14.322  71.462  32.722  1.00  0.00     0.006 NA
ATOM     17  H5  UNL     1      16.037  71.801  33.891  1.00  0.00     0.202 HD
HETATM   18  N7  UNL     1      14.046  70.488  31.848  1.00  0.00     0.006 NA
HETATM   19  N8  UNL     1      15.099  69.670  31.800  1.00  0.00    -0.117 N 
ATOM     20  H8  UNL     1      15.174  68.836  31.218  1.00  0.00     0.202 HD
ENDBRANCH  12  14
ENDBRANCH   4  10
BRANCH   5  21
HETATM   21  C6  UNL     1      14.737  67.542  34.716  1.00  0.00     0.284 C 
HETATM   22  N9  UNL     1      14.008  68.797  34.966  1.00  0.00    -0.056 NA
HETATM   23  O2  UNL     1      14.119  66.676  34.088  1.00  0.00    -0.269 OA
ENDBRANCH   5  21
BRANCH   1  24
HETATM   24  N2  UNL     1      19.731  67.065  36.958  1.00  0.00    -0.287 N 
ATOM     25  H2  UNL     1      20.334  66.313  36.623  1.00  0.00     0.188 HD
BRANCH  24  26
HETATM   26  N1  UNL     1      20.204  67.872  37.962  1.00  0.00    -0.343 N 
ATOM     27  H12 UNL     1      19.520  68.231  38.628  1.00  0.00     0.176 HD
ATOM     28  H11 UNL     1      21.185  68.127  38.073  1.00  0.00     0.176 HD
ENDBRANCH  24  26
ENDBRANCH   1  24
TORSDOF 5
ENDMDL
MODEL 4
REMARK VINA RESULT: -6.521552443      1.863      5.357
REMARK  5 active torsions:
REMARK  status: ('A' for Active; 'I' for Inactive)
REMARK    1  A    between atoms: N1_1  and  N2_4 
REMARK    2  A    between atoms: N2_4  and  C1_6 
REMARK    3  A    between atoms: C2_9  and  C3_10 
REMARK       I    between atoms: C3_10  and  N4_12 
REMARK    4  A    between atoms: N4_12  and  C4_14 
REMARK    5  A    between atoms: C5_21  and  C6_22 
ROOT
HETATM    1  C1  UNL     1      15.907  70.430  32.580  1.00  0.00     0.190 A 
HETATM    2  N3  UNL     1      16.943  69.620  32.894  1.00  0.00    -0.330 N 
ATOM      3  H3  UNL     1      17.836  69.750  32.419  1.00  0.00     0.168 HD
HETATM    4  C2  UNL     1      16.826  68.622  33.836  1.00  0.00     0.135 A 
HETATM    5  C5  UNL     1      15.651  68.431  34.484  1.00  0.00     0.133 A 
HETATM    6  N10 UNL     1      14.629  69.280  34.128  1.00  0.00    -0.314 N 
ATOM      7  H10 UNL     1      13.733  69.155  34.599  1.00  0.00     0.169 HD
HETATM    8  C7  UNL     1      14.710  70.245  33.228  1.00  0.00     0.291 A 
HETATM    9  O3  UNL     1      13.727  71.003  32.942  1.00  0.00    -0.264 OA
ENDROOT
BRANCH   4  10
HETATM   10  C3  UNL     1      18.005  67.819  34.020  1.00  0.00     0.289 C 
HETATM   11  O1  UNL     1      18.781  67.437  33.141  1.00  0.00    -0.265 OA
HETATM   12  N4  UNL     1      18.386  67.372  35.349  1.00  0.00    -0.152 N 
ATOM     13  H4  UNL     1      18.034  66.486  35.714  1.00  0.00     0.187 HD
BRANCH  12  14
HETATM   14  C4  UNL     1      19.171  68.102  36.065  1.00  0.00     0.710 A 
HETATM   15  N5  UNL     1      19.198  68.230  37.398  1.00  0.00    -0.117 N 
HETATM   16  N6  UNL     1      20.169  69.089  37.737  1.00  0.00     0.006 NA
ATOM     17  H5  UNL     1      18.578  67.750  38.050  1.00  0.00     0.202 HD
HETATM   18  N7  UNL     1      20.749  69.497  36.604  1.00  0.00     0.006 NA
HETATM   19  N8  UNL     1      20.134  68.890  35.587  1.00  0.00    -0.117 N 
ATOM     20  H8  UNL     1      20.365  69.009  34.600  1.00  0.00     0.202 HD
ENDBRANCH  12  14
ENDBRANCH   4  10
BRANCH   5  21
HETATM   21  C6  UNL     1      15.425  67.477  35.543  1.00  0.00     0.284 C 
HETATM   22  N9  UNL     1      14.474  66.397  35.226  1.00  0.00    -0.056 NA
HETATM   23  O2  UNL     1      15.920  67.443  36.675  1.00  0.00    -0.269 OA
ENDBRANCH   5  21
BRANCH   1  24
HETATM   24  N2  UNL     1      16.027  71.355  31.697  1.00  0.00    -0.287 N 
ATOM     25  H2  UNL     1      16.547  72.195  31.949  1.00  0.00     0.188 HD
BRANCH  24  26
HETATM   26  N1  UNL     1      15.496  71.279  30.433  1.00  0.00    -0.343 N 
ATOM     27  H12 UNL     1      15.774  72.003  29.771  1.00  0.00     0.176 HD
ATOM     28  H11 UNL     1      14.850  70.551  30.130  1.00  0.00     0.176 HD
ENDBRANCH  24  26
ENDBRANCH   1  24
TORSDOF 5
ENDMDL
MODEL 5
REMARK VINA RESULT: -6.478090198      2.077      3.835
REMARK  5 active torsions:
REMARK  status: ('A' for Active; 'I' for Inactive)
REMARK    1  A    between atoms: N1_1  and  N2_4 
REMARK    2  A    between atoms: N2_4  and  C1_6 
REMARK    3  A    between atoms: C2_9  and  C3_10 
REMARK       I    between atoms: C3_10  and  N4_12 
REMARK    4  A    between atoms: N4_12  and  C4_14 
REMARK    5  A    between atoms: C5_21  and  C6_22 
ROOT
HETATM    1  C1  UNL     1      15.338  67.039  36.580  1.00  0.00     0.190 A 
HETATM    2  N3  UNL     1      15.695  67.501  35.360  1.00  0.00    -0.330 N 
ATOM      3  H3  UNL     1      14.966  67.730  34.684  1.00  0.00     0.168 HD
HETATM    4  C2  UNL     1      17.014  67.670  35.005  1.00  0.00     0.135 A 
HETATM    5  C5  UNL     1      18.001  67.376  35.886  1.00  0.00     0.133 A 
HETATM    6  N10 UNL     1      17.586  66.909  37.111  1.00  0.00    -0.314 N 
ATOM      7  H10 UNL     1      18.309  66.678  37.792  1.00  0.00     0.169 HD
HETATM    8  C7  UNL     1      16.328  66.734  37.482  1.00  0.00     0.291 A 
HETATM    9  O3  UNL     1      16.005  66.299  38.634  1.00  0.00    -0.264 OA
ENDROOT
BRANCH   4  10
HETATM   10  C3  UNL     1      17.227  68.125  33.656  1.00  0.00     0.289 C 
HETATM   11  O1  UNL     1      17.520  67.429  32.682  1.00  0.00    -0.265 OA
HETATM   12  N4  UNL     1      17.100  69.536  33.332  1.00  0.00    -0.152 N 
ATOM     13  H4  UNL     1      17.911  70.153  33.398  1.00  0.00     0.187 HD
BRANCH  12  14
HETATM   14  C4  UNL     1      15.958  70.004  32.960  1.00  0.00     0.710 A 
HETATM   15  N5  UNL     1      14.956  69.357  32.352  1.00  0.00    -0.117 N 
HETATM   16  N6  UNL     1      13.946  70.213  32.142  1.00  0.00     0.006 NA
ATOM     17  H5  UNL     1      14.960  68.372  32.091  1.00  0.00     0.202 HD
HETATM   18  N7  UNL     1      14.326  71.400  32.624  1.00  0.00     0.006 NA
HETATM   19  N8  UNL     1      15.557  71.265  33.123  1.00  0.00    -0.117 N 
ATOM     20  H8  UNL     1      16.103  72.008  33.558  1.00  0.00     0.202 HD
ENDBRANCH  12  14
ENDBRANCH   4  10
BRANCH   5  21
HETATM   21  C6  UNL     1      19.411  67.584  35.663  1.00  0.00     0.284 C 
HETATM   22  N9  UNL     1      19.988  68.763  36.332  1.00  0.00    -0.056 NA
HETATM   23  O2  UNL     1      20.198  66.908  34.991  1.00  0.00    -0.269 OA
ENDBRANCH   5  21
BRANCH   1  24
HETATM   24  N2  UNL     1      14.104  66.881  36.899  1.00  0.00    -0.287 N 
ATOM     25  H2  UNL     1      13.544  67.715  37.075  1.00  0.00     0.188 HD
BRANCH  24  26
HETATM   26  N1  UNL     1      13.494  65.657  37.017  1.00  0.00    -0.343 N 
ATOM     27  H12 UNL     1      14.028  64.916  37.470  1.00  0.00     0.176 HD
ATOM     28  H11 UNL     1      12.553  65.456  36.681  1.00  0.00     0.176 HD
ENDBRANCH  24  26
ENDBRANCH   1  24
TORSDOF 5
ENDMDL
