MODEL 1
REMARK VINA RESULT: -7.944733528      0.000      0.000
REMARK  4 active torsions:
REMARK  status: ('A' for Active; 'I' for Inactive)
REMARK    1  A    between atoms: C2_5  and  N2_6 
REMARK    2  A    between atoms: N2_6  and  N3_8 
REMARK    3  A    between atoms: N3_8  and  C3_10 
REMARK    4  A    between atoms: C3_10  and  C4_11 
ROOT
HETATM    1  O1  UNL     1     -66.999  20.385  56.257  1.00  0.00    -0.246 OA
HETATM    2  C1  UNL     1     -65.909  19.864  55.895  1.00  0.00     0.341 C 
HETATM    3  N1  UNL     1     -65.524  20.227  54.649  1.00  0.00    -0.140 N 
ATOM      4  H1  UNL     1     -66.198  20.758  54.097  1.00  0.00     0.189 HD
HETATM    5  C2  UNL     1     -64.337  19.957  54.062  1.00  0.00     0.703 C 
HETATM    6  N6  UNL     1     -63.221  19.529  54.679  1.00  0.00    -0.150 N 
ATOM      7  H6  UNL     1     -62.354  19.711  54.174  1.00  0.00     0.188 HD
HETATM    8  C7  UNL     1     -63.069  18.894  55.867  1.00  0.00     0.328 C 
HETATM    9  O3  UNL     1     -61.886  18.610  56.190  1.00  0.00    -0.261 OA
HETATM   10  C8  UNL     1     -64.073  18.529  56.753  1.00  0.00     0.318 C 
HETATM   11  O4  UNL     1     -63.760  17.632  57.581  1.00  0.00    -0.262 OA
HETATM   12  N7  UNL     1     -65.319  19.044  56.797  1.00  0.00    -0.270 N 
ATOM     13  H7  UNL     1     -65.884  18.784  57.605  1.00  0.00     0.174 HD
ENDROOT
BRANCH   5  14
HETATM   14  N2  UNL     1     -64.301  20.136  52.786  1.00  0.00    -0.132 N 
ATOM     15  H2  UNL     1     -63.641  20.786  52.358  1.00  0.00     0.205 HD
BRANCH  14  16
HETATM   16  N3  UNL     1     -65.204  19.402  52.015  1.00  0.00    -0.297 N 
ATOM     17  H3  UNL     1     -66.167  19.725  51.929  1.00  0.00     0.186 HD
BRANCH  16  18
HETATM   18  C3  UNL     1     -64.842  18.326  51.412  1.00  0.00     0.126 C 
BRANCH  18  19
HETATM   19  C4  UNL     1     -64.494  18.374  49.998  1.00  0.00     0.067 A 
HETATM   20  C5  UNL     1     -64.746  17.375  49.061  1.00  0.00     0.125 A 
HETATM   21  N4  UNL     1     -64.263  17.830  47.888  1.00  0.00    -0.308 N 
HETATM   22  N5  UNL     1     -63.734  19.046  48.067  1.00  0.00    -0.266 N 
ATOM     23  H4  UNL     1     -64.295  17.326  47.002  1.00  0.00     0.186 HD
HETATM   24  C6  UNL     1     -63.859  19.411  49.353  1.00  0.00     0.272 A 
ATOM     25  H5  UNL     1     -63.302  19.611  47.336  1.00  0.00     0.190 HD
HETATM   26  O2  UNL     1     -63.483  20.483  49.894  1.00  0.00    -0.266 OA
ENDBRANCH  18  19
ENDBRANCH  16  18
ENDBRANCH  14  16
ENDBRANCH   5  14
TORSDOF 4
ENDMDL
MODEL 2
REMARK VINA RESULT: -7.654542492      2.032      2.462
REMARK  4 active torsions:
REMARK  status: ('A' for Active; 'I' for Inactive)
REMARK    1  A    between atoms: C2_5  and  N2_6 
REMARK    2  A    between atoms: N2_6  and  N3_8 
REMARK    3  A    between atoms: N3_8  and  C3_10 
REMARK    4  A    between atoms: C3_10  and  C4_11 
ROOT
HETATM    1  O1  UNL     1     -66.921  20.432  56.106  1.00  0.00    -0.246 OA
HETATM    2  C1  UNL     1     -65.833  19.867  55.808  1.00  0.00     0.341 C 
HETATM    3  N1  UNL     1     -65.370  20.200  54.580  1.00  0.00    -0.140 N 
ATOM      4  H1  UNL     1     -65.994  20.748  53.988  1.00  0.00     0.189 HD
HETATM    5  C2  UNL     1     -64.165  19.881  54.061  1.00  0.00     0.703 C 
HETATM    6  N6  UNL     1     -63.099  19.422  54.740  1.00  0.00    -0.150 N 
ATOM      7  H6  UNL     1     -62.200  19.566  54.280  1.00  0.00     0.188 HD
HETATM    8  C7  UNL     1     -63.032  18.797  55.942  1.00  0.00     0.328 C 
HETATM    9  O3  UNL     1     -61.879  18.475  56.331  1.00  0.00    -0.261 OA
HETATM   10  C8  UNL     1     -64.094  18.479  56.777  1.00  0.00     0.318 C 
HETATM   11  O4  UNL     1     -63.858  17.582  57.630  1.00  0.00    -0.262 OA
HETATM   12  N7  UNL     1     -65.321  19.038  56.749  1.00  0.00    -0.270 N 
ATOM     13  H7  UNL     1     -65.937  18.810  57.529  1.00  0.00     0.174 HD
ENDROOT
BRANCH   5  14
HETATM   14  N2  UNL     1     -64.054  20.042  52.787  1.00  0.00    -0.132 N 
ATOM     15  H2  UNL     1     -63.212  20.438  52.371  1.00  0.00     0.205 HD
BRANCH  14  16
HETATM   16  N3  UNL     1     -65.139  19.649  52.000  1.00  0.00    -0.297 N 
ATOM     17  H3  UNL     1     -66.043  20.105  52.130  1.00  0.00     0.186 HD
BRANCH  16  18
HETATM   18  C3  UNL     1     -65.019  18.724  51.116  1.00  0.00     0.126 C 
BRANCH  18  19
HETATM   19  C4  UNL     1     -65.633  17.422  51.346  1.00  0.00     0.067 A 
HETATM   20  C5  UNL     1     -66.392  16.704  50.425  1.00  0.00     0.125 A 
HETATM   21  N4  UNL     1     -66.759  15.567  51.048  1.00  0.00    -0.308 N 
HETATM   22  N5  UNL     1     -66.264  15.560  52.291  1.00  0.00    -0.266 N 
ATOM     23  H4  UNL     1     -67.327  14.826  50.636  1.00  0.00     0.186 HD
HETATM   24  C6  UNL     1     -65.566  16.687  52.508  1.00  0.00     0.272 A 
ATOM     25  H5  UNL     1     -66.396  14.812  52.972  1.00  0.00     0.190 HD
HETATM   26  O2  UNL     1     -64.958  17.033  53.553  1.00  0.00    -0.266 OA
ENDBRANCH  18  19
ENDBRANCH  16  18
ENDBRANCH  14  16
ENDBRANCH   5  14
TORSDOF 4
ENDMDL
MODEL 3
REMARK VINA RESULT: -7.470446789      2.071      2.533
REMARK  4 active torsions:
REMARK  status: ('A' for Active; 'I' for Inactive)
REMARK    1  A    between atoms: C2_5  and  N2_6 
REMARK    2  A    between atoms: N2_6  and  N3_8 
REMARK    3  A    between atoms: N3_8  and  C3_10 
REMARK    4  A    between atoms: C3_10  and  C4_11 
ROOT
HETATM    1  O1  UNL     1     -64.911  15.613  53.255  1.00  0.00    -0.246 OA
HETATM    2  C1  UNL     1     -64.573  16.561  54.015  1.00  0.00     0.341 C 
HETATM    3  N1  UNL     1     -64.762  17.785  53.469  1.00  0.00    -0.140 N 
ATOM      4  H1  UNL     1     -65.021  17.813  52.483  1.00  0.00     0.189 HD
HETATM    5  C2  UNL     1     -64.642  18.975  54.099  1.00  0.00     0.703 C 
HETATM    6  N6  UNL     1     -64.588  19.172  55.428  1.00  0.00    -0.150 N 
ATOM      7  H6  UNL     1     -64.848  20.109  55.735  1.00  0.00     0.188 HD
HETATM    8  C7  UNL     1     -64.241  18.320  56.425  1.00  0.00     0.328 C 
HETATM    9  O3  UNL     1     -64.282  18.792  57.591  1.00  0.00    -0.261 OA
HETATM   10  C8  UNL     1     -63.849  16.996  56.291  1.00  0.00     0.318 C 
HETATM   11  O4  UNL     1     -63.216  16.520  57.271  1.00  0.00    -0.262 OA
HETATM   12  N7  UNL     1     -64.086  16.200  55.227  1.00  0.00    -0.270 N 
ATOM     13  H7  UNL     1     -63.874  15.211  55.349  1.00  0.00     0.174 HD
ENDROOT
BRANCH   5  14
HETATM   14  N2  UNL     1     -64.575  20.003  53.325  1.00  0.00    -0.132 N 
ATOM     15  H2  UNL     1     -64.253  20.908  53.668  1.00  0.00     0.205 HD
BRANCH  14  16
HETATM   16  N3  UNL     1     -64.963  19.824  51.995  1.00  0.00    -0.297 N 
ATOM     17  H3  UNL     1     -65.926  19.564  51.785  1.00  0.00     0.186 HD
BRANCH  16  18
HETATM   18  C3  UNL     1     -64.126  19.981  51.032  1.00  0.00     0.126 C 
BRANCH  18  19
HETATM   19  C4  UNL     1     -64.193  19.107  49.868  1.00  0.00     0.067 A 
HETATM   20  C5  UNL     1     -63.534  19.307  48.658  1.00  0.00     0.125 A 
HETATM   21  N4  UNL     1     -63.873  18.268  47.870  1.00  0.00    -0.308 N 
HETATM   22  N5  UNL     1     -64.699  17.454  48.538  1.00  0.00    -0.266 N 
ATOM     23  H4  UNL     1     -63.551  18.124  46.913  1.00  0.00     0.186 HD
HETATM   24  C6  UNL     1     -64.917  17.940  49.770  1.00  0.00     0.272 A 
ATOM     25  H5  UNL     1     -65.102  16.593  48.167  1.00  0.00     0.190 HD
HETATM   26  O2  UNL     1     -65.634  17.450  50.681  1.00  0.00    -0.266 OA
ENDBRANCH  18  19
ENDBRANCH  16  18
ENDBRANCH  14  16
ENDBRANCH   5  14
TORSDOF 4
ENDMDL
MODEL 4
REMARK VINA RESULT: -7.425044147      2.040      2.664
REMARK  4 active torsions:
REMARK  status: ('A' for Active; 'I' for Inactive)
REMARK    1  A    between atoms: C2_5  and  N2_6 
REMARK    2  A    between atoms: N2_6  and  N3_8 
REMARK    3  A    between atoms: N3_8  and  C3_10 
REMARK    4  A    between atoms: C3_10  and  C4_11 
ROOT
HETATM    1  O1  UNL     1     -62.686  19.953  55.528  1.00  0.00    -0.246 OA
HETATM    2  C1  UNL     1     -63.335  18.881  55.391  1.00  0.00     0.341 C 
HETATM    3  N1  UNL     1     -64.090  18.845  54.267  1.00  0.00    -0.140 N 
ATOM      4  H1  UNL     1     -64.161  19.712  53.735  1.00  0.00     0.189 HD
HETATM    5  C2  UNL     1     -64.758  17.777  53.780  1.00  0.00     0.703 C 
HETATM    6  N6  UNL     1     -64.588  16.494  54.145  1.00  0.00    -0.150 N 
ATOM      7  H6  UNL     1     -64.898  15.806  53.459  1.00  0.00     0.188 HD
HETATM    8  C7  UNL     1     -64.069  15.972  55.284  1.00  0.00     0.328 C 
HETATM    9  O3  UNL     1     -64.038  14.715  55.348  1.00  0.00    -0.261 OA
HETATM   10  C8  UNL     1     -63.572  16.674  56.373  1.00  0.00     0.318 C 
HETATM   11  O4  UNL     1     -63.503  16.020  57.449  1.00  0.00    -0.262 OA
HETATM   12  N7  UNL     1     -63.170  17.962  56.372  1.00  0.00    -0.270 N 
ATOM     13  H7  UNL     1     -62.684  18.281  57.209  1.00  0.00     0.174 HD
ENDROOT
BRANCH   5  14
HETATM   14  N2  UNL     1     -65.639  18.044  52.878  1.00  0.00    -0.132 N 
ATOM     15  H2  UNL     1     -66.594  17.691  52.945  1.00  0.00     0.205 HD
BRANCH  14  16
HETATM   16  N3  UNL     1     -65.230  18.837  51.804  1.00  0.00    -0.297 N 
ATOM     17  H3  UNL     1     -65.179  19.849  51.920  1.00  0.00     0.186 HD
BRANCH  16  18
HETATM   18  C3  UNL     1     -64.915  18.314  50.673  1.00  0.00     0.126 C 
BRANCH  18  19
HETATM   19  C4  UNL     1     -64.134  19.084  49.714  1.00  0.00     0.067 A 
HETATM   20  C5  UNL     1     -63.533  20.318  49.954  1.00  0.00     0.125 A 
HETATM   21  N4  UNL     1     -62.918  20.665  48.807  1.00  0.00    -0.308 N 
HETATM   22  N5  UNL     1     -63.115  19.711  47.889  1.00  0.00    -0.266 N 
ATOM     23  H4  UNL     1     -62.386  21.523  48.659  1.00  0.00     0.186 HD
HETATM   24  C6  UNL     1     -63.859  18.724  48.414  1.00  0.00     0.272 A 
ATOM     25  H5  UNL     1     -62.755  19.730  46.935  1.00  0.00     0.190 HD
HETATM   26  O2  UNL     1     -64.245  17.664  47.856  1.00  0.00    -0.266 OA
ENDBRANCH  18  19
ENDBRANCH  16  18
ENDBRANCH  14  16
ENDBRANCH   5  14
TORSDOF 4
ENDMDL
MODEL 5
REMARK VINA RESULT: -7.396792741      2.191      6.494
REMARK  4 active torsions:
REMARK  status: ('A' for Active; 'I' for Inactive)
REMARK    1  A    between atoms: C2_5  and  N2_6 
REMARK    2  A    between atoms: N2_6  and  N3_8 
REMARK    3  A    between atoms: N3_8  and  C3_10 
REMARK    4  A    between atoms: C3_10  and  C4_11 
ROOT
HETATM    1  O1  UNL     1     -63.125  20.894  49.081  1.00  0.00    -0.246 OA
HETATM    2  C1  UNL     1     -63.715  19.945  49.665  1.00  0.00     0.341 C 
HETATM    3  N1  UNL     1     -64.006  20.207  50.962  1.00  0.00    -0.140 N 
ATOM      4  H1  UNL     1     -63.612  21.060  51.357  1.00  0.00     0.189 HD
HETATM    5  C2  UNL     1     -64.767  19.452  51.784  1.00  0.00     0.703 C 
HETATM    6  N6  UNL     1     -65.598  18.460  51.416  1.00  0.00    -0.150 N 
ATOM      7  H6  UNL     1     -66.333  18.243  52.089  1.00  0.00     0.188 HD
HETATM    8  C7  UNL     1     -65.612  17.704  50.291  1.00  0.00     0.328 C 
HETATM    9  O3  UNL     1     -66.521  16.836  50.222  1.00  0.00    -0.261 OA
HETATM   10  C8  UNL     1     -64.735  17.789  49.218  1.00  0.00     0.318 C 
HETATM   11  O4  UNL     1     -64.687  16.768  48.480  1.00  0.00    -0.262 OA
HETATM   12  N7  UNL     1     -63.954  18.845  48.912  1.00  0.00    -0.270 N 
ATOM     13  H7  UNL     1     -63.487  18.812  48.006  1.00  0.00     0.174 HD
ENDROOT
BRANCH   5  14
HETATM   14  N2  UNL     1     -64.665  19.730  53.038  1.00  0.00    -0.132 N 
ATOM     15  H2  UNL     1     -64.234  20.599  53.357  1.00  0.00     0.205 HD
BRANCH  14  16
HETATM   16  N3  UNL     1     -65.169  18.792  53.941  1.00  0.00    -0.297 N 
ATOM     17  H3  UNL     1     -66.020  19.006  54.462  1.00  0.00     0.186 HD
BRANCH  16  18
HETATM   18  C3  UNL     1     -64.580  17.665  54.126  1.00  0.00     0.126 C 
BRANCH  18  19
HETATM   19  C4  UNL     1     -63.819  17.441  55.348  1.00  0.00     0.067 A 
HETATM   20  C5  UNL     1     -63.760  16.249  56.067  1.00  0.00     0.125 A 
HETATM   21  N4  UNL     1     -62.949  16.484  57.117  1.00  0.00    -0.308 N 
HETATM   22  N5  UNL     1     -62.516  17.749  57.071  1.00  0.00    -0.266 N 
ATOM     23  H4  UNL     1     -62.703  15.803  57.836  1.00  0.00     0.186 HD
HETATM   24  C6  UNL     1     -63.032  18.367  55.996  1.00  0.00     0.272 A 
ATOM     25  H5  UNL     1     -61.889  18.181  57.750  1.00  0.00     0.190 HD
HETATM   26  O2  UNL     1     -62.851  19.555  55.624  1.00  0.00    -0.266 OA
ENDBRANCH  18  19
ENDBRANCH  16  18
ENDBRANCH  14  16
ENDBRANCH   5  14
TORSDOF 4
ENDMDL
