MODEL 1
REMARK VINA RESULT: -6.997679935      0.000      0.000
REMARK  6 active torsions:
REMARK  status: ('A' for Active; 'I' for Inactive)
REMARK       I    between atoms: C2_2  and  N1_4 
REMARK    1  A    between atoms: N1_4  and  N2_6 
REMARK    2  A    between atoms: N2_6  and  C3_8 
REMARK    3  A    between atoms: C3_8  and  N3_10 
REMARK    4  A    between atoms: N3_10  and  C5_12 
REMARK    5  A    between atoms: C6_15  and  C7_16 
REMARK       I    between atoms: C7_16  and  N5_18 
REMARK    6  A    between atoms: N5_18  and  N6_20 
ROOT
HETATM    1  C5  UNL     1     -64.576  17.974  54.294  1.00  0.00     0.179 A 
HETATM    2  N4  UNL     1     -64.308  16.944  55.123  1.00  0.00    -0.318 N 
ATOM      3  H4  UNL     1     -64.812  16.067  54.988  1.00  0.00     0.169 HD
HETATM    4  C6  UNL     1     -63.411  17.018  56.116  1.00  0.00     0.192 A 
HETATM    5  N7  UNL     1     -62.753  18.177  56.283  1.00  0.00    -0.278 N 
ATOM      6  H7  UNL     1     -62.064  18.264  57.030  1.00  0.00     0.189 HD
HETATM    7  N8  UNL     1     -62.995  19.220  55.480  1.00  0.00    -0.262 N 
ATOM      8  H8  UNL     1     -62.483  20.089  55.630  1.00  0.00     0.190 HD
HETATM    9  C8  UNL     1     -63.896  19.155  54.477  1.00  0.00     0.304 A 
HETATM   10  O3  UNL     1     -64.085  20.164  53.751  1.00  0.00    -0.263 OA
ENDROOT
BRANCH   1  11
HETATM   11  N3  UNL     1     -65.451  17.822  53.365  1.00  0.00    -0.327 N 
ATOM     12  H3  UNL     1     -66.431  17.855  53.646  1.00  0.00     0.169 HD
BRANCH  11  13
HETATM   13  C3  UNL     1     -65.191  17.615  52.002  1.00  0.00     0.093 C 
HETATM   14  C4  UNL     1     -64.627  16.350  51.453  1.00  0.00     0.090 C 
BRANCH  13  15
HETATM   15  N2  UNL     1     -65.457  18.579  51.189  1.00  0.00    -0.287 N 
ATOM     16  H2  UNL     1     -66.392  18.658  50.790  1.00  0.00     0.188 HD
BRANCH  15  17
HETATM   17  N1  UNL     1     -64.483  19.516  50.847  1.00  0.00    -0.269 N 
HETATM   18  C2  UNL     1     -63.923  19.449  49.543  1.00  0.00     0.232 C 
HETATM   19  C1  UNL     1     -62.876  20.479  49.220  1.00  0.00     0.119 C 
HETATM   20  O1  UNL     1     -64.277  18.588  48.714  1.00  0.00    -0.272 OA
ATOM     21  H1  UNL     1     -64.181  20.227  51.514  1.00  0.00     0.190 HD
ENDBRANCH  15  17
ENDBRANCH  13  15
ENDBRANCH  11  13
ENDBRANCH   1  11
BRANCH   4  22
HETATM   22  C7  UNL     1     -63.157  15.857  56.993  1.00  0.00     0.304 C 
HETATM   23  O2  UNL     1     -63.736  14.766  56.750  1.00  0.00    -0.263 OA
HETATM   24  N5  UNL     1     -62.289  15.926  58.095  1.00  0.00    -0.270 N 
ATOM     25  H5  UNL     1     -61.815  16.806  58.299  1.00  0.00     0.189 HD
BRANCH  24  26
HETATM   26  N6  UNL     1     -62.058  14.823  58.917  1.00  0.00    -0.342 N 
ATOM     27  H62 UNL     1     -62.629  13.990  58.775  1.00  0.00     0.176 HD
ATOM     28  H61 UNL     1     -61.343  14.837  59.644  1.00  0.00     0.176 HD
ENDBRANCH  24  26
ENDBRANCH   4  22
TORSDOF 6
ENDMDL
MODEL 2
REMARK VINA RESULT: -6.843002123      1.823      1.971
REMARK  6 active torsions:
REMARK  status: ('A' for Active; 'I' for Inactive)
REMARK       I    between atoms: C2_2  and  N1_4 
REMARK    1  A    between atoms: N1_4  and  N2_6 
REMARK    2  A    between atoms: N2_6  and  C3_8 
REMARK    3  A    between atoms: C3_8  and  N3_10 
REMARK    4  A    between atoms: N3_10  and  C5_12 
REMARK    5  A    between atoms: C6_15  and  C7_16 
REMARK       I    between atoms: C7_16  and  N5_18 
REMARK    6  A    between atoms: N5_18  and  N6_20 
ROOT
HETATM    1  C5  UNL     1     -64.586  19.495  54.929  1.00  0.00     0.179 A 
HETATM    2  N4  UNL     1     -63.587  18.680  55.329  1.00  0.00    -0.318 N 
ATOM      3  H4  UNL     1     -62.860  18.437  54.655  1.00  0.00     0.169 HD
HETATM    4  C6  UNL     1     -63.506  18.175  56.567  1.00  0.00     0.192 A 
HETATM    5  N7  UNL     1     -64.469  18.503  57.444  1.00  0.00    -0.278 N 
ATOM      6  H7  UNL     1     -64.434  18.135  58.394  1.00  0.00     0.189 HD
HETATM    7  N8  UNL     1     -65.475  19.308  57.082  1.00  0.00    -0.262 N 
ATOM      8  H8  UNL     1     -66.195  19.540  57.767  1.00  0.00     0.190 HD
HETATM    9  C8  UNL     1     -65.566  19.822  55.837  1.00  0.00     0.304 A 
HETATM   10  O3  UNL     1     -66.532  20.574  55.548  1.00  0.00    -0.263 OA
ENDROOT
BRANCH   1  11
HETATM   11  N3  UNL     1     -64.592  19.938  53.723  1.00  0.00    -0.327 N 
ATOM     12  H3  UNL     1     -64.388  20.930  53.596  1.00  0.00     0.169 HD
BRANCH  11  13
HETATM   13  C3  UNL     1     -64.851  19.192  52.564  1.00  0.00     0.093 C 
HETATM   14  C4  UNL     1     -64.914  17.704  52.537  1.00  0.00     0.090 C 
BRANCH  13  15
HETATM   15  N2  UNL     1     -65.042  19.841  51.465  1.00  0.00    -0.287 N 
ATOM     16  H2  UNL     1     -65.992  19.987  51.126  1.00  0.00     0.188 HD
BRANCH  15  17
HETATM   17  N1  UNL     1     -63.966  20.343  50.736  1.00  0.00    -0.269 N 
HETATM   18  C2  UNL     1     -63.672  19.741  49.483  1.00  0.00     0.232 C 
HETATM   19  C1  UNL     1     -62.503  20.316  48.732  1.00  0.00     0.119 C 
HETATM   20  O1  UNL     1     -64.341  18.792  49.031  1.00  0.00    -0.272 OA
ATOM     21  H1  UNL     1     -63.408  21.119  51.091  1.00  0.00     0.190 HD
ENDBRANCH  15  17
ENDBRANCH  13  15
ENDBRANCH  11  13
ENDBRANCH   1  11
BRANCH   4  22
HETATM   22  C7  UNL     1     -62.389  17.288  56.949  1.00  0.00     0.304 C 
HETATM   23  O2  UNL     1     -61.353  17.789  57.459  1.00  0.00    -0.263 OA
HETATM   24  N5  UNL     1     -62.440  15.896  56.764  1.00  0.00    -0.270 N 
ATOM     25  H5  UNL     1     -63.276  15.481  56.352  1.00  0.00     0.189 HD
BRANCH  24  26
HETATM   26  N6  UNL     1     -61.378  15.068  57.128  1.00  0.00    -0.342 N 
ATOM     27  H62 UNL     1     -60.433  15.446  57.071  1.00  0.00     0.176 HD
ATOM     28  H61 UNL     1     -61.530  14.110  57.445  1.00  0.00     0.176 HD
ENDBRANCH  24  26
ENDBRANCH   4  22
TORSDOF 6
ENDMDL
MODEL 3
REMARK VINA RESULT: -6.771416503      2.256      4.495
REMARK  6 active torsions:
REMARK  status: ('A' for Active; 'I' for Inactive)
REMARK       I    between atoms: C2_2  and  N1_4 
REMARK    1  A    between atoms: N1_4  and  N2_6 
REMARK    2  A    between atoms: N2_6  and  C3_8 
REMARK    3  A    between atoms: C3_8  and  N3_10 
REMARK    4  A    between atoms: N3_10  and  C5_12 
REMARK    5  A    between atoms: C6_15  and  C7_16 
REMARK       I    between atoms: C7_16  and  N5_18 
REMARK    6  A    between atoms: N5_18  and  N6_20 
ROOT
HETATM    1  C5  UNL     1     -65.688  17.251  51.669  1.00  0.00     0.179 A 
HETATM    2  N4  UNL     1     -65.336  16.653  52.827  1.00  0.00    -0.318 N 
ATOM      3  H4  UNL     1     -65.104  17.241  53.627  1.00  0.00     0.169 HD
HETATM    4  C6  UNL     1     -65.278  15.322  52.974  1.00  0.00     0.192 A 
HETATM    5  N7  UNL     1     -65.587  14.559  51.913  1.00  0.00    -0.278 N 
ATOM      6  H7  UNL     1     -65.553  13.543  51.995  1.00  0.00     0.189 HD
HETATM    7  N8  UNL     1     -65.939  15.118  50.749  1.00  0.00    -0.262 N 
ATOM      8  H8  UNL     1     -66.167  14.516  49.958  1.00  0.00     0.190 HD
HETATM    9  C8  UNL     1     -66.000  16.458  50.591  1.00  0.00     0.304 A 
HETATM   10  O3  UNL     1     -66.337  16.933  49.476  1.00  0.00    -0.263 OA
ENDROOT
BRANCH   1  11
HETATM   11  N3  UNL     1     -65.719  18.535  51.609  1.00  0.00    -0.327 N 
ATOM     12  H3  UNL     1     -66.641  18.971  51.584  1.00  0.00     0.169 HD
BRANCH  11  13
HETATM   13  C3  UNL     1     -64.611  19.394  51.575  1.00  0.00     0.093 C 
HETATM   14  C4  UNL     1     -63.967  19.859  50.316  1.00  0.00     0.090 C 
BRANCH  13  15
HETATM   15  N2  UNL     1     -64.132  19.797  52.703  1.00  0.00    -0.287 N 
ATOM     16  H2  UNL     1     -63.121  19.873  52.822  1.00  0.00     0.188 HD
BRANCH  15  17
HETATM   17  N1  UNL     1     -64.975  20.129  53.761  1.00  0.00    -0.269 N 
HETATM   18  C2  UNL     1     -64.906  19.339  54.940  1.00  0.00     0.232 C 
HETATM   19  C1  UNL     1     -65.835  19.734  56.056  1.00  0.00     0.119 C 
HETATM   20  O1  UNL     1     -64.122  18.375  55.047  1.00  0.00    -0.272 OA
ATOM     21  H1  UNL     1     -65.622  20.914  53.691  1.00  0.00     0.190 HD
ENDBRANCH  15  17
ENDBRANCH  13  15
ENDBRANCH  11  13
ENDBRANCH   1  11
BRANCH   4  22
HETATM   22  C7  UNL     1     -64.888  14.721  54.265  1.00  0.00     0.304 C 
HETATM   23  O2  UNL     1     -65.502  13.705  54.680  1.00  0.00    -0.263 OA
HETATM   24  N5  UNL     1     -63.848  15.246  55.051  1.00  0.00    -0.270 N 
ATOM     25  H5  UNL     1     -63.344  16.069  54.723  1.00  0.00     0.189 HD
BRANCH  24  26
HETATM   26  N6  UNL     1     -63.489  14.670  56.270  1.00  0.00    -0.342 N 
ATOM     27  H62 UNL     1     -64.175  14.673  57.024  1.00  0.00     0.176 HD
ATOM     28  H61 UNL     1     -62.568  14.255  56.415  1.00  0.00     0.176 HD
ENDBRANCH  24  26
ENDBRANCH   4  22
TORSDOF 6
ENDMDL
MODEL 4
REMARK VINA RESULT: -6.759733716      2.307      4.107
REMARK  6 active torsions:
REMARK  status: ('A' for Active; 'I' for Inactive)
REMARK       I    between atoms: C2_2  and  N1_4 
REMARK    1  A    between atoms: N1_4  and  N2_6 
REMARK    2  A    between atoms: N2_6  and  C3_8 
REMARK    3  A    between atoms: C3_8  and  N3_10 
REMARK    4  A    between atoms: N3_10  and  C5_12 
REMARK    5  A    between atoms: C6_15  and  C7_16 
REMARK       I    between atoms: C7_16  and  N5_18 
REMARK    6  A    between atoms: N5_18  and  N6_20 
ROOT
HETATM    1  C5  UNL     1     -66.061  16.550  52.013  1.00  0.00     0.179 A 
HETATM    2  N4  UNL     1     -65.106  16.397  52.955  1.00  0.00    -0.318 N 
ATOM      3  H4  UNL     1     -64.437  17.154  53.096  1.00  0.00     0.169 HD
HETATM    4  C6  UNL     1     -64.996  15.298  53.713  1.00  0.00     0.192 A 
HETATM    5  N7  UNL     1     -65.884  14.309  53.518  1.00  0.00    -0.278 N 
ATOM      6  H7  UNL     1     -65.826  13.460  54.080  1.00  0.00     0.189 HD
HETATM    7  N8  UNL     1     -66.843  14.426  52.592  1.00  0.00    -0.262 N 
ATOM      8  H8  UNL     1     -67.503  13.660  52.463  1.00  0.00     0.190 HD
HETATM    9  C8  UNL     1     -66.962  15.530  51.823  1.00  0.00     0.304 A 
HETATM   10  O3  UNL     1     -67.882  15.590  50.968  1.00  0.00    -0.263 OA
ENDROOT
BRANCH   1  11
HETATM   11  N3  UNL     1     -66.099  17.637  51.328  1.00  0.00    -0.327 N 
ATOM     12  H3  UNL     1     -66.939  17.802  50.773  1.00  0.00     0.169 HD
BRANCH  11  13
HETATM   13  C3  UNL     1     -65.099  18.618  51.267  1.00  0.00     0.093 C 
HETATM   14  C4  UNL     1     -63.997  18.612  50.265  1.00  0.00     0.090 C 
BRANCH  13  15
HETATM   15  N2  UNL     1     -65.144  19.573  52.133  1.00  0.00    -0.287 N 
ATOM     16  H2  UNL     1     -65.969  20.171  52.181  1.00  0.00     0.188 HD
BRANCH  15  17
HETATM   17  N1  UNL     1     -64.080  19.799  53.004  1.00  0.00    -0.269 N 
HETATM   18  C2  UNL     1     -64.206  19.336  54.342  1.00  0.00     0.232 C 
HETATM   19  C1  UNL     1     -63.033  19.602  55.246  1.00  0.00     0.119 C 
HETATM   20  O1  UNL     1     -65.226  18.744  54.745  1.00  0.00    -0.272 OA
ATOM     21  H1  UNL     1     -63.238  20.281  52.692  1.00  0.00     0.190 HD
ENDBRANCH  15  17
ENDBRANCH  13  15
ENDBRANCH  11  13
ENDBRANCH   1  11
BRANCH   4  22
HETATM   22  C7  UNL     1     -63.931  15.185  54.730  1.00  0.00     0.304 C 
HETATM   23  O2  UNL     1     -63.082  14.261  54.629  1.00  0.00    -0.263 OA
HETATM   24  N5  UNL     1     -63.830  16.076  55.811  1.00  0.00    -0.270 N 
ATOM     25  H5  UNL     1     -64.513  16.828  55.900  1.00  0.00     0.189 HD
BRANCH  24  26
HETATM   26  N6  UNL     1     -62.819  15.959  56.765  1.00  0.00    -0.342 N 
ATOM     27  H62 UNL     1     -62.677  15.050  57.206  1.00  0.00     0.176 HD
ATOM     28  H61 UNL     1     -62.232  16.751  57.024  1.00  0.00     0.176 HD
ENDBRANCH  24  26
ENDBRANCH   4  22
TORSDOF 6
ENDMDL
MODEL 5
REMARK VINA RESULT: -6.734809013      2.278      3.197
REMARK  6 active torsions:
REMARK  status: ('A' for Active; 'I' for Inactive)
REMARK       I    between atoms: C2_2  and  N1_4 
REMARK    1  A    between atoms: N1_4  and  N2_6 
REMARK    2  A    between atoms: N2_6  and  C3_8 
REMARK    3  A    between atoms: C3_8  and  N3_10 
REMARK    4  A    between atoms: N3_10  and  C5_12 
REMARK    5  A    between atoms: C6_15  and  C7_16 
REMARK       I    between atoms: C7_16  and  N5_18 
REMARK    6  A    between atoms: N5_18  and  N6_20 
ROOT
HETATM    1  C5  UNL     1     -64.643  19.541  54.831  1.00  0.00     0.179 A 
HETATM    2  N4  UNL     1     -63.649  18.718  55.225  1.00  0.00    -0.318 N 
ATOM      3  H4  UNL     1     -62.928  18.468  54.548  1.00  0.00     0.169 HD
HETATM    4  C6  UNL     1     -63.565  18.214  56.464  1.00  0.00     0.192 A 
HETATM    5  N7  UNL     1     -64.520  18.550  57.346  1.00  0.00    -0.278 N 
ATOM      6  H7  UNL     1     -64.482  18.183  58.296  1.00  0.00     0.189 HD
HETATM    7  N8  UNL     1     -65.522  19.363  56.989  1.00  0.00    -0.262 N 
ATOM      8  H8  UNL     1     -66.235  19.602  57.677  1.00  0.00     0.190 HD
HETATM    9  C8  UNL     1     -65.615  19.877  55.744  1.00  0.00     0.304 A 
HETATM   10  O3  UNL     1     -66.576  20.637  55.460  1.00  0.00    -0.263 OA
ENDROOT
BRANCH   1  11
HETATM   11  N3  UNL     1     -64.652  19.983  53.624  1.00  0.00    -0.327 N 
ATOM     12  H3  UNL     1     -64.502  20.985  53.500  1.00  0.00     0.169 HD
BRANCH  11  13
HETATM   13  C3  UNL     1     -64.848  19.224  52.461  1.00  0.00     0.093 C 
HETATM   14  C4  UNL     1     -64.336  19.622  51.120  1.00  0.00     0.090 C 
BRANCH  13  15
HETATM   15  N2  UNL     1     -65.511  18.123  52.570  1.00  0.00    -0.287 N 
ATOM     16  H2  UNL     1     -66.406  18.121  53.060  1.00  0.00     0.188 HD
BRANCH  15  17
HETATM   17  N1  UNL     1     -65.021  16.937  52.027  1.00  0.00    -0.269 N 
HETATM   18  C2  UNL     1     -64.592  15.922  52.924  1.00  0.00     0.232 C 
HETATM   19  C1  UNL     1     -64.071  14.660  52.294  1.00  0.00     0.119 C 
HETATM   20  O1  UNL     1     -64.643  16.067  54.162  1.00  0.00    -0.272 OA
ATOM     21  H1  UNL     1     -64.972  16.802  51.018  1.00  0.00     0.190 HD
ENDBRANCH  15  17
ENDBRANCH  13  15
ENDBRANCH  11  13
ENDBRANCH   1  11
BRANCH   4  22
HETATM   22  C7  UNL     1     -62.453  17.317  56.840  1.00  0.00     0.304 C 
HETATM   23  O2  UNL     1     -61.415  17.809  57.356  1.00  0.00    -0.263 OA
HETATM   24  N5  UNL     1     -62.511  15.928  56.643  1.00  0.00    -0.270 N 
ATOM     25  H5  UNL     1     -63.348  15.520  56.226  1.00  0.00     0.189 HD
BRANCH  24  26
HETATM   26  N6  UNL     1     -61.454  15.091  57.002  1.00  0.00    -0.342 N 
ATOM     27  H62 UNL     1     -61.197  15.037  57.987  1.00  0.00     0.176 HD
ATOM     28  H61 UNL     1     -60.945  14.544  56.309  1.00  0.00     0.176 HD
ENDBRANCH  24  26
ENDBRANCH   4  22
TORSDOF 6
ENDMDL
