MODEL 1
REMARK VINA RESULT: -7.813738295      0.000      0.000
REMARK  3 active torsions:
REMARK  status: ('A' for Active; 'I' for Inactive)
REMARK    1  A    between atoms: C4_7  and  C5_8 
REMARK       I    between atoms: C5_8  and  N3_10 
REMARK    2  A    between atoms: N3_10  and  C6_12 
REMARK    3  A    between atoms: C9_21  and  N8_22 
ROOT
HETATM    1  C6  UNL     1     -65.127  17.286  50.659  1.00  0.00     0.158 A 
HETATM    2  N4  UNL     1     -66.185  17.004  51.434  1.00  0.00    -0.282 N 
ATOM      3  H4  UNL     1     -66.147  17.226  52.429  1.00  0.00     0.188 HD
HETATM    4  N5  UNL     1     -67.281  16.444  50.937  1.00  0.00    -0.285 N 
ATOM      5  H5  UNL     1     -68.055  16.253  51.573  1.00  0.00     0.188 HD
HETATM    6  C7  UNL     1     -67.425  16.116  49.647  1.00  0.00     0.157 A 
HETATM    7  N6  UNL     1     -68.615  15.524  49.138  1.00  0.00    -0.079 NA
HETATM    8  C8  UNL     1     -66.349  16.395  48.816  1.00  0.00     0.125 A 
HETATM    9  N7  UNL     1     -66.451  16.069  47.433  1.00  0.00    -0.096 NA
HETATM   10  C9  UNL     1     -65.213  16.975  49.331  1.00  0.00     0.175 A 
ENDROOT
BRANCH   1  11
HETATM   11  N3  UNL     1     -64.038  17.825  51.098  1.00  0.00    -0.308 N 
HETATM   12  C5  UNL     1     -64.133  19.155  51.642  1.00  0.00     0.246 C 
HETATM   13  O1  UNL     1     -64.291  20.092  50.821  1.00  0.00    -0.271 OA
ATOM     14  H3  UNL     1     -63.148  17.329  51.061  1.00  0.00     0.170 HD
BRANCH  12  15
HETATM   15  C4  UNL     1     -64.059  19.444  53.072  1.00  0.00     0.178 C 
HETATM   16  C3  UNL     1     -63.244  18.478  53.864  1.00  0.00     0.054 C 
HETATM   17  C2  UNL     1     -63.321  18.774  55.329  1.00  0.00     0.125 C 
HETATM   18  N2  UNL     1     -64.572  19.301  55.758  1.00  0.00    -0.365 N 
HETATM   19  C1  UNL     1     -65.529  19.669  54.996  1.00  0.00     0.184 C 
ATOM     20  H2  UNL     1     -64.717  19.394  56.763  1.00  0.00     0.162 HD
HETATM   21  N1  UNL     1     -66.758  20.194  55.513  1.00  0.00    -0.064 NA
HETATM   22  N9  UNL     1     -65.415  19.563  53.584  1.00  0.00    -0.351 N 
ATOM     23  H9  UNL     1     -66.229  19.571  52.970  1.00  0.00     0.163 HD
ENDBRANCH  12  15
ENDBRANCH   1  11
BRANCH  10  24
HETATM   24  N8  UNL     1     -64.098  17.246  48.476  1.00  0.00    -0.110 N 
HETATM   25  O2  UNL     1     -64.063  18.343  47.906  1.00  0.00    -0.532 OA
HETATM   26  O3  UNL     1     -63.086  16.358  48.270  1.00  0.00    -0.532 OA
ENDBRANCH  10  24
TORSDOF 3
ENDMDL
MODEL 2
REMARK VINA RESULT: -7.742449897      2.074      2.681
REMARK  3 active torsions:
REMARK  status: ('A' for Active; 'I' for Inactive)
REMARK    1  A    between atoms: C4_7  and  C5_8 
REMARK       I    between atoms: C5_8  and  N3_10 
REMARK    2  A    between atoms: N3_10  and  C6_12 
REMARK    3  A    between atoms: C9_21  and  N8_22 
ROOT
HETATM    1  C6  UNL     1     -64.980  16.862  51.076  1.00  0.00     0.158 A 
HETATM    2  N4  UNL     1     -65.846  17.041  50.067  1.00  0.00    -0.282 N 
ATOM      3  H4  UNL     1     -65.720  17.833  49.437  1.00  0.00     0.188 HD
HETATM    4  N5  UNL     1     -66.862  16.210  49.868  1.00  0.00    -0.285 N 
ATOM      5  H5  UNL     1     -67.488  16.394  49.085  1.00  0.00     0.188 HD
HETATM    6  C7  UNL     1     -67.108  15.144  50.640  1.00  0.00     0.157 A 
HETATM    7  N6  UNL     1     -68.201  14.263  50.400  1.00  0.00    -0.079 NA
HETATM    8  C8  UNL     1     -66.230  14.929  51.693  1.00  0.00     0.125 A 
HETATM    9  N7  UNL     1     -66.445  13.807  52.544  1.00  0.00    -0.096 NA
HETATM   10  C9  UNL     1     -65.177  15.790  51.900  1.00  0.00     0.175 A 
ENDROOT
BRANCH   1  11
HETATM   11  N3  UNL     1     -63.980  17.647  51.311  1.00  0.00    -0.308 N 
HETATM   12  C5  UNL     1     -64.280  19.000  51.700  1.00  0.00     0.246 C 
HETATM   13  O1  UNL     1     -64.697  19.768  50.798  1.00  0.00    -0.271 OA
ATOM     14  H3  UNL     1     -63.018  17.320  51.226  1.00  0.00     0.170 HD
BRANCH  12  15
HETATM   15  C4  UNL     1     -64.125  19.496  53.065  1.00  0.00     0.178 C 
HETATM   16  C3  UNL     1     -62.980  18.908  53.818  1.00  0.00     0.054 C 
HETATM   17  C2  UNL     1     -62.967  19.375  55.240  1.00  0.00     0.125 C 
HETATM   18  N2  UNL     1     -64.258  19.597  55.799  1.00  0.00    -0.365 N 
HETATM   19  C1  UNL     1     -65.362  19.581  55.157  1.00  0.00     0.184 C 
ATOM     20  H2  UNL     1     -64.304  19.787  56.799  1.00  0.00     0.162 HD
HETATM   21  N1  UNL     1     -66.621  19.819  55.799  1.00  0.00    -0.064 NA
HETATM   22  N9  UNL     1     -65.389  19.313  53.762  1.00  0.00    -0.351 N 
ATOM     23  H9  UNL     1     -66.237  19.012  53.282  1.00  0.00     0.163 HD
ENDBRANCH  12  15
ENDBRANCH   1  11
BRANCH  10  24
HETATM   24  N8  UNL     1     -64.283  15.577  52.996  1.00  0.00    -0.110 N 
HETATM   25  O2  UNL     1     -64.558  16.113  54.076  1.00  0.00    -0.532 OA
HETATM   26  O3  UNL     1     -63.160  14.812  52.901  1.00  0.00    -0.532 OA
ENDBRANCH  10  24
TORSDOF 3
ENDMDL
MODEL 3
REMARK VINA RESULT: -7.553517758      2.152      6.638
REMARK  3 active torsions:
REMARK  status: ('A' for Active; 'I' for Inactive)
REMARK    1  A    between atoms: C4_7  and  C5_8 
REMARK       I    between atoms: C5_8  and  N3_10 
REMARK    2  A    between atoms: N3_10  and  C6_12 
REMARK    3  A    between atoms: C9_21  and  N8_22 
ROOT
HETATM    1  C6  UNL     1     -64.629  18.599  53.888  1.00  0.00     0.158 A 
HETATM    2  N4  UNL     1     -63.499  17.884  53.789  1.00  0.00    -0.282 N 
ATOM      3  H4  UNL     1     -63.209  17.533  52.876  1.00  0.00     0.188 HD
HETATM    4  N5  UNL     1     -62.748  17.620  54.852  1.00  0.00    -0.285 N 
ATOM      5  H5  UNL     1     -61.899  17.072  54.717  1.00  0.00     0.188 HD
HETATM    6  C7  UNL     1     -63.045  18.036  56.089  1.00  0.00     0.157 A 
HETATM    7  N6  UNL     1     -62.218  17.747  57.211  1.00  0.00    -0.079 NA
HETATM    8  C8  UNL     1     -64.208  18.780  56.227  1.00  0.00     0.125 A 
HETATM    9  N7  UNL     1     -64.569  19.250  57.523  1.00  0.00    -0.096 NA
HETATM   10  C9  UNL     1     -64.987  19.053  55.126  1.00  0.00     0.175 A 
ENDROOT
BRANCH   1  11
HETATM   11  N3  UNL     1     -65.394  18.876  52.884  1.00  0.00    -0.308 N 
HETATM   12  C5  UNL     1     -64.792  18.878  51.576  1.00  0.00     0.246 C 
HETATM   13  O1  UNL     1     -64.044  19.848  51.300  1.00  0.00    -0.271 OA
ATOM     14  H3  UNL     1     -66.384  19.084  53.012  1.00  0.00     0.170 HD
BRANCH  12  15
HETATM   15  C4  UNL     1     -65.011  17.822  50.590  1.00  0.00     0.178 C 
HETATM   16  C3  UNL     1     -64.548  18.148  49.210  1.00  0.00     0.054 C 
HETATM   17  C2  UNL     1     -64.919  17.069  48.243  1.00  0.00     0.125 C 
HETATM   18  N2  UNL     1     -66.147  16.411  48.537  1.00  0.00    -0.365 N 
HETATM   19  C1  UNL     1     -66.839  16.561  49.600  1.00  0.00     0.184 C 
ATOM     20  H2  UNL     1     -66.506  15.763  47.837  1.00  0.00     0.162 HD
HETATM   21  N1  UNL     1     -68.067  15.855  49.818  1.00  0.00    -0.064 NA
HETATM   22  N9  UNL     1     -66.417  17.454  50.622  1.00  0.00    -0.351 N 
ATOM     23  H9  UNL     1     -67.058  17.812  51.330  1.00  0.00     0.163 HD
ENDBRANCH  12  15
ENDBRANCH   1  11
BRANCH  10  24
HETATM   24  N8  UNL     1     -66.195  19.806  55.273  1.00  0.00    -0.110 N 
HETATM   25  O2  UNL     1     -66.408  20.716  54.463  1.00  0.00    -0.532 OA
HETATM   26  O3  UNL     1     -67.108  19.562  56.254  1.00  0.00    -0.532 OA
ENDBRANCH  10  24
TORSDOF 3
ENDMDL
MODEL 4
REMARK VINA RESULT: -7.544251243      1.252      1.805
REMARK  3 active torsions:
REMARK  status: ('A' for Active; 'I' for Inactive)
REMARK    1  A    between atoms: C4_7  and  C5_8 
REMARK       I    between atoms: C5_8  and  N3_10 
REMARK    2  A    between atoms: N3_10  and  C6_12 
REMARK    3  A    between atoms: C9_21  and  N8_22 
ROOT
HETATM    1  C6  UNL     1     -65.293  16.874  51.155  1.00  0.00     0.158 A 
HETATM    2  N4  UNL     1     -66.570  16.650  51.501  1.00  0.00    -0.282 N 
ATOM      3  H4  UNL     1     -66.837  16.707  52.483  1.00  0.00     0.188 HD
HETATM    4  N5  UNL     1     -67.493  16.355  50.594  1.00  0.00    -0.285 N 
ATOM      5  H5  UNL     1     -68.448  16.194  50.914  1.00  0.00     0.188 HD
HETATM    6  C7  UNL     1     -67.240  16.257  49.283  1.00  0.00     0.157 A 
HETATM    7  N6  UNL     1     -68.251  15.947  48.331  1.00  0.00    -0.079 NA
HETATM    8  C8  UNL     1     -65.928  16.484  48.891  1.00  0.00     0.125 A 
HETATM    9  N7  UNL     1     -65.604  16.395  47.506  1.00  0.00    -0.096 NA
HETATM   10  C9  UNL     1     -64.970  16.789  49.830  1.00  0.00     0.175 A 
ENDROOT
BRANCH   1  11
HETATM   11  N3  UNL     1     -64.359  17.159  52.001  1.00  0.00    -0.308 N 
HETATM   12  C5  UNL     1     -64.479  18.398  52.725  1.00  0.00     0.246 C 
HETATM   13  O1  UNL     1     -64.247  19.452  52.083  1.00  0.00    -0.271 OA
ATOM     14  H3  UNL     1     -63.569  16.531  52.151  1.00  0.00     0.170 HD
BRANCH  12  15
HETATM   15  C4  UNL     1     -64.853  18.470  54.135  1.00  0.00     0.178 C 
HETATM   16  C3  UNL     1     -65.645  19.677  54.512  1.00  0.00     0.054 C 
HETATM   17  C2  UNL     1     -65.879  19.734  55.988  1.00  0.00     0.125 C 
HETATM   18  N2  UNL     1     -64.820  19.199  56.775  1.00  0.00    -0.365 N 
HETATM   19  C1  UNL     1     -63.806  18.563  56.328  1.00  0.00     0.184 C 
ATOM     20  H2  UNL     1     -64.875  19.336  57.783  1.00  0.00     0.162 HD
HETATM   21  N1  UNL     1     -62.783  18.053  57.193  1.00  0.00    -0.064 NA
HETATM   22  N9  UNL     1     -63.645  18.338  54.934  1.00  0.00    -0.351 N 
ATOM     23  H9  UNL     1     -62.744  18.100  54.522  1.00  0.00     0.163 HD
ENDBRANCH  12  15
ENDBRANCH   1  11
BRANCH  10  24
HETATM   24  N8  UNL     1     -63.615  17.007  49.424  1.00  0.00    -0.110 N 
HETATM   25  O2  UNL     1     -63.279  18.161  49.137  1.00  0.00    -0.532 OA
HETATM   26  O3  UNL     1     -62.693  16.007  49.348  1.00  0.00    -0.532 OA
ENDBRANCH  10  24
TORSDOF 3
ENDMDL
MODEL 5
REMARK VINA RESULT: -7.509813667      2.074      3.116
REMARK  3 active torsions:
REMARK  status: ('A' for Active; 'I' for Inactive)
REMARK    1  A    between atoms: C4_7  and  C5_8 
REMARK       I    between atoms: C5_8  and  N3_10 
REMARK    2  A    between atoms: N3_10  and  C6_12 
REMARK    3  A    between atoms: C9_21  and  N8_22 
ROOT
HETATM    1  C6  UNL     1     -64.611  18.812  49.927  1.00  0.00     0.158 A 
HETATM    2  N4  UNL     1     -63.981  19.990  49.809  1.00  0.00    -0.282 N 
ATOM      3  H4  UNL     1     -63.967  20.630  50.603  1.00  0.00     0.188 HD
HETATM    4  N5  UNL     1     -63.375  20.343  48.682  1.00  0.00    -0.285 N 
ATOM      5  H5  UNL     1     -62.911  21.251  48.648  1.00  0.00     0.188 HD
HETATM    6  C7  UNL     1     -63.339  19.573  47.588  1.00  0.00     0.157 A 
HETATM    7  N6  UNL     1     -62.674  19.971  46.394  1.00  0.00    -0.079 NA
HETATM    8  C8  UNL     1     -63.981  18.345  47.677  1.00  0.00     0.125 A 
HETATM    9  N7  UNL     1     -63.971  17.485  46.541  1.00  0.00    -0.096 NA
HETATM   10  C9  UNL     1     -64.610  17.979  48.844  1.00  0.00     0.175 A 
ENDROOT
BRANCH   1  11
HETATM   11  N3  UNL     1     -65.219  18.428  51.001  1.00  0.00    -0.308 N 
HETATM   12  C5  UNL     1     -64.401  18.031  52.117  1.00  0.00     0.246 C 
HETATM   13  O1  UNL     1     -63.819  16.922  52.025  1.00  0.00    -0.271 OA
ATOM     14  H3  UNL     1     -66.238  18.407  51.056  1.00  0.00     0.170 HD
BRANCH  12  15
HETATM   15  C4  UNL     1     -64.225  18.849  53.315  1.00  0.00     0.178 C 
HETATM   16  C3  UNL     1     -63.142  18.391  54.232  1.00  0.00     0.054 C 
HETATM   17  C2  UNL     1     -63.111  19.206  55.486  1.00  0.00     0.125 C 
HETATM   18  N2  UNL     1     -64.387  19.662  55.925  1.00  0.00    -0.365 N 
HETATM   19  C1  UNL     1     -65.480  19.563  55.271  1.00  0.00     0.184 C 
ATOM     20  H2  UNL     1     -64.431  20.106  56.841  1.00  0.00     0.162 HD
HETATM   21  N1  UNL     1     -66.724  20.052  55.787  1.00  0.00    -0.064 NA
HETATM   22  N9  UNL     1     -65.509  18.947  53.992  1.00  0.00    -0.351 N 
ATOM     23  H9  UNL     1     -66.371  18.597  53.576  1.00  0.00     0.163 HD
ENDBRANCH  12  15
ENDBRANCH   1  11
BRANCH  10  24
HETATM   24  N8  UNL     1     -65.286  16.721  48.928  1.00  0.00    -0.110 N 
HETATM   25  O2  UNL     1     -66.501  16.703  48.700  1.00  0.00    -0.532 OA
HETATM   26  O3  UNL     1     -64.652  15.556  49.241  1.00  0.00    -0.532 OA
ENDBRANCH  10  24
TORSDOF 3
ENDMDL
