MODEL 1
REMARK VINA RESULT: -6.756052610      0.000      0.000
REMARK  12 active torsions:
REMARK  status: ('A' for Active; 'I' for Inactive)
REMARK    1  A    between atoms: N1_1  and  C1_4 
REMARK    2  A    between atoms: N3_8  and  C3_10 
REMARK    3  A    between atoms: C3_10  and  C4_11 
REMARK    4  A    between atoms: C7_14  and  C8_15 
REMARK       I    between atoms: C8_15  and  N4_17 
REMARK    5  A    between atoms: N4_17  and  C9_19 
REMARK    6  A    between atoms: C9_19  and  C10_20 
REMARK       I    between atoms: C10_20  and  N5_22 
REMARK    7  A    between atoms: N5_22  and  C11_24 
REMARK    8  A    between atoms: C12_25  and  O3_26 
REMARK    9  A    between atoms: C12_25  and  N6_28 
REMARK   10  A    between atoms: N6_28  and  C13_30 
REMARK   11  A    between atoms: C15_32  and  C16_33 
REMARK   12  A    between atoms: C16_33  and  N7_34 
ROOT
HETATM    1  C4  UNL     1      56.407  -2.762  17.185  1.00  0.00     0.030 A 
HETATM    2  C5  UNL     1      55.225  -2.101  17.012  1.00  0.00     0.028 A 
HETATM    3  C6  UNL     1      55.090  -0.758  16.960  1.00  0.00     0.025 A 
HETATM    4  C7  UNL     1      56.242   0.048  17.092  1.00  0.00     0.100 A 
HETATM    5  C17 UNL     1      57.417  -0.640  17.265  1.00  0.00     0.261 A 
HETATM    6  O4  UNL     1      58.503   0.017  17.391  1.00  0.00    -0.267 OA
HETATM    7  N10 UNL     1      57.503  -2.004  17.310  1.00  0.00    -0.325 N 
ATOM      8  H10 UNL     1      58.411  -2.449  17.441  1.00  0.00     0.169 HD
ENDROOT
BRANCH   4   9
HETATM    9  C8  UNL     1      56.101   1.485  17.052  1.00  0.00     0.257 C 
HETATM   10  O1  UNL     1      55.786   2.004  15.927  1.00  0.00    -0.267 OA
HETATM   11  N4  UNL     1      56.268   2.385  18.113  1.00  0.00    -0.348 N 
ATOM     12  H4  UNL     1      56.523   2.020  19.031  1.00  0.00     0.163 HD
BRANCH  11  13
HETATM   13  C9  UNL     1      56.092   3.826  17.954  1.00  0.00     0.226 C 
BRANCH  13  14
HETATM   14  C10 UNL     1      55.079   4.408  18.832  1.00  0.00     0.239 C 
HETATM   15  O2  UNL     1      55.342   4.842  19.982  1.00  0.00    -0.271 OA
HETATM   16  N5  UNL     1      53.726   4.517  18.430  1.00  0.00    -0.332 N 
ATOM     17  H5  UNL     1      53.064   4.962  19.065  1.00  0.00     0.168 HD
BRANCH  16  18
HETATM   18  C11 UNL     1      53.282   4.069  17.269  1.00  0.00     0.146 C 
HETATM   19  C12 UNL     1      52.359   2.993  17.287  1.00  0.00     0.157 C 
BRANCH  19  20
HETATM   20  O3  UNL     1      52.043   2.555  18.483  1.00  0.00    -0.345 OA
ATOM     21  H3  UNL     1      51.122   2.620  18.703  1.00  0.00     0.219 HD
ENDBRANCH  19  20
BRANCH  19  22
HETATM   22  N6  UNL     1      51.737   2.329  16.257  1.00  0.00    -0.321 N 
ATOM     23  H6  UNL     1      51.142   2.905  15.661  1.00  0.00     0.169 HD
BRANCH  22  24
HETATM   24  C13 UNL     1      51.807   0.972  15.910  1.00  0.00     0.123 A 
HETATM   25  C14 UNL     1      52.234   0.313  14.803  1.00  0.00     0.078 A 
HETATM   26  C15 UNL     1      52.068  -1.076  14.988  1.00  0.00     0.054 A 
HETATM   27  N8  UNL     1      51.550  -1.190  16.196  1.00  0.00    -0.302 N 
HETATM   28  N9  UNL     1      51.381  -0.028  16.767  1.00  0.00    -0.285 N 
ATOM     29  H8  UNL     1      51.309  -2.080  16.631  1.00  0.00     0.186 HD
ATOM     30  H9  UNL     1      50.995   0.120  17.701  1.00  0.00     0.188 HD
BRANCH  26  31
HETATM   31  C16 UNL     1      52.435  -2.087  13.978  1.00  0.00     0.288 C 
BRANCH  31  32
HETATM   32  N7  UNL     1      53.823  -1.962  13.597  1.00  0.00    -0.074 N 
ATOM     33  H73 UNL     1      54.280  -1.195  14.090  1.00  0.00     0.274 HD
ATOM     34  H72 UNL     1      54.383  -2.734  13.960  1.00  0.00     0.274 HD
ATOM     35  H71 UNL     1      53.920  -1.870  12.586  1.00  0.00     0.274 HD
ENDBRANCH  31  32
ENDBRANCH  26  31
ENDBRANCH  22  24
ENDBRANCH  19  22
ENDBRANCH  16  18
ENDBRANCH  13  14
ENDBRANCH  11  13
ENDBRANCH   4   9
BRANCH   1  36
HETATM   36  C3  UNL     1      56.537  -4.234  17.240  1.00  0.00     0.178 C 
BRANCH  36  37
HETATM   37  N3  UNL     1      56.264  -4.776  18.528  1.00  0.00    -0.368 N 
HETATM   38  C2  UNL     1      55.136  -5.278  18.916  1.00  0.00     0.148 A 
HETATM   39  N2  UNL     1      54.052  -5.350  18.128  1.00  0.00    -0.175 N 
HETATM   40  C18 UNL     1      54.994  -5.782  20.209  1.00  0.00     0.123 A 
HETATM   41  C1  UNL     1      52.888  -5.890  18.583  1.00  0.00     0.679 A 
ATOM     42  H2  UNL     1      54.101  -4.995  17.173  1.00  0.00     0.186 HD
HETATM   43  N13 UNL     1      52.760  -6.375  19.838  1.00  0.00    -0.174 N 
HETATM   44  C20 UNL     1      53.817  -6.326  20.668  1.00  0.00     0.152 A 
ATOM     45  H13 UNL     1      51.875  -6.773  20.150  1.00  0.00     0.186 HD
HETATM   46  N12 UNL     1      53.944  -6.733  21.934  1.00  0.00    -0.336 N 
HETATM   47  C19 UNL     1      55.225  -6.448  22.300  1.00  0.00     0.182 A 
ATOM     48  H12 UNL     1      53.226  -7.171  22.510  1.00  0.00     0.168 HD
HETATM   49  N11 UNL     1      55.850  -5.871  21.245  1.00  0.00    -0.346 N 
ATOM     50  H11 UNL     1      56.820  -5.552  21.236  1.00  0.00     0.167 HD
ATOM     51  H3  UNL     1      57.027  -4.769  19.205  1.00  0.00     0.161 HD
BRANCH  41  52
HETATM   52  N1  UNL     1      51.870  -5.940  17.797  1.00  0.00    -0.234 N 
ATOM     53  H12 UNL     1      51.381  -6.830  17.688  1.00  0.00     0.174 HD
ATOM     54  H11 UNL     1      51.577  -5.095  17.306  1.00  0.00     0.174 HD
ENDBRANCH  41  52
ENDBRANCH  36  37
ENDBRANCH   1  36
TORSDOF 12
ENDMDL
MODEL 2
REMARK VINA RESULT: -6.691473356      0.731      1.852
REMARK  12 active torsions:
REMARK  status: ('A' for Active; 'I' for Inactive)
REMARK    1  A    between atoms: N1_1  and  C1_4 
REMARK    2  A    between atoms: N3_8  and  C3_10 
REMARK    3  A    between atoms: C3_10  and  C4_11 
REMARK    4  A    between atoms: C7_14  and  C8_15 
REMARK       I    between atoms: C8_15  and  N4_17 
REMARK    5  A    between atoms: N4_17  and  C9_19 
REMARK    6  A    between atoms: C9_19  and  C10_20 
REMARK       I    between atoms: C10_20  and  N5_22 
REMARK    7  A    between atoms: N5_22  and  C11_24 
REMARK    8  A    between atoms: C12_25  and  O3_26 
REMARK    9  A    between atoms: C12_25  and  N6_28 
REMARK   10  A    between atoms: N6_28  and  C13_30 
REMARK   11  A    between atoms: C15_32  and  C16_33 
REMARK   12  A    between atoms: C16_33  and  N7_34 
ROOT
HETATM    1  C4  UNL     1      56.528  -2.816  16.981  1.00  0.00     0.030 A 
HETATM    2  C5  UNL     1      55.324  -2.188  16.841  1.00  0.00     0.028 A 
HETATM    3  C6  UNL     1      55.143  -0.849  16.859  1.00  0.00     0.025 A 
HETATM    4  C7  UNL     1      56.268  -0.012  17.034  1.00  0.00     0.100 A 
HETATM    5  C17 UNL     1      57.465  -0.667  17.172  1.00  0.00     0.261 A 
HETATM    6  O4  UNL     1      58.528   0.019  17.332  1.00  0.00    -0.267 OA
HETATM    7  N10 UNL     1      57.598  -2.029  17.146  1.00  0.00    -0.325 N 
ATOM      8  H10 UNL     1      58.521  -2.448  17.255  1.00  0.00     0.169 HD
ENDROOT
BRANCH   4   9
HETATM    9  C8  UNL     1      56.077   1.420  17.068  1.00  0.00     0.257 C 
HETATM   10  O1  UNL     1      55.558   1.959  16.031  1.00  0.00    -0.267 OA
HETATM   11  N4  UNL     1      56.396   2.294  18.115  1.00  0.00    -0.348 N 
ATOM     12  H4  UNL     1      56.816   1.912  18.963  1.00  0.00     0.163 HD
BRANCH  11  13
HETATM   13  C9  UNL     1      56.150   3.732  18.039  1.00  0.00     0.226 C 
BRANCH  13  14
HETATM   14  C10 UNL     1      55.255   4.244  19.072  1.00  0.00     0.239 C 
HETATM   15  O2  UNL     1      55.646   4.538  20.229  1.00  0.00    -0.271 OA
HETATM   16  N5  UNL     1      53.874   4.441  18.824  1.00  0.00    -0.332 N 
ATOM     17  H5  UNL     1      53.297   4.834  19.568  1.00  0.00     0.168 HD
BRANCH  16  18
HETATM   18  C11 UNL     1      53.300   4.141  17.673  1.00  0.00     0.146 C 
HETATM   19  C12 UNL     1      52.536   2.949  17.608  1.00  0.00     0.157 C 
BRANCH  19  20
HETATM   20  O3  UNL     1      52.484   2.264  18.727  1.00  0.00    -0.345 OA
ATOM     21  H3  UNL     1      53.320   1.933  19.032  1.00  0.00     0.219 HD
ENDBRANCH  19  20
BRANCH  19  22
HETATM   22  N6  UNL     1      51.837   2.389  16.566  1.00  0.00    -0.321 N 
ATOM     23  H6  UNL     1      51.199   3.017  16.078  1.00  0.00     0.169 HD
BRANCH  22  24
HETATM   24  C13 UNL     1      51.878   1.074  16.080  1.00  0.00     0.123 A 
HETATM   25  C14 UNL     1      52.290   0.524  14.910  1.00  0.00     0.078 A 
HETATM   26  C15 UNL     1      52.096  -0.873  14.951  1.00  0.00     0.054 A 
HETATM   27  N8  UNL     1      51.576  -1.100  16.142  1.00  0.00    -0.302 N 
HETATM   28  N9  UNL     1      51.432  -0.001  16.831  1.00  0.00    -0.285 N 
ATOM     29  H8  UNL     1      51.317  -2.026  16.483  1.00  0.00     0.186 HD
ATOM     30  H9  UNL     1      51.050   0.057  17.776  1.00  0.00     0.188 HD
BRANCH  26  31
HETATM   31  C16 UNL     1      52.441  -1.781  13.840  1.00  0.00     0.288 C 
BRANCH  31  32
HETATM   32  N7  UNL     1      53.842  -1.682  13.503  1.00  0.00    -0.074 N 
ATOM     33  H73 UNL     1      54.228  -0.775  13.764  1.00  0.00     0.274 HD
ATOM     34  H72 UNL     1      54.415  -2.274  14.104  1.00  0.00     0.274 HD
ATOM     35  H71 UNL     1      53.998  -1.886  12.516  1.00  0.00     0.274 HD
ENDBRANCH  31  32
ENDBRANCH  26  31
ENDBRANCH  22  24
ENDBRANCH  19  22
ENDBRANCH  16  18
ENDBRANCH  13  14
ENDBRANCH  11  13
ENDBRANCH   4   9
BRANCH   1  36
HETATM   36  C3  UNL     1      56.709  -4.284  16.959  1.00  0.00     0.178 C 
BRANCH  36  37
HETATM   37  N3  UNL     1      55.490  -5.003  17.112  1.00  0.00    -0.368 N 
HETATM   38  C2  UNL     1      55.050  -5.525  18.211  1.00  0.00     0.148 A 
HETATM   39  N2  UNL     1      55.710  -5.450  19.378  1.00  0.00    -0.175 N 
HETATM   40  C18 UNL     1      53.834  -6.208  18.233  1.00  0.00     0.123 A 
HETATM   41  C1  UNL     1      55.203  -6.014  20.509  1.00  0.00     0.679 A 
ATOM     42  H2  UNL     1      56.605  -4.962  19.418  1.00  0.00     0.186 HD
HETATM   43  N13 UNL     1      54.024  -6.673  20.519  1.00  0.00    -0.174 N 
HETATM   44  C20 UNL     1      53.324  -6.778  19.376  1.00  0.00     0.152 A 
ATOM     45  H13 UNL     1      53.670  -7.086  21.383  1.00  0.00     0.186 HD
HETATM   46  N12 UNL     1      52.151  -7.369  19.129  1.00  0.00    -0.336 N 
HETATM   47  C19 UNL     1      51.899  -7.178  17.804  1.00  0.00     0.182 A 
ATOM     48  H12 UNL     1      51.563  -7.864  19.799  1.00  0.00     0.168 HD
HETATM   49  N11 UNL     1      52.928  -6.473  17.273  1.00  0.00    -0.346 N 
ATOM     50  H11 UNL     1      53.004  -6.187  16.296  1.00  0.00     0.167 HD
ATOM     51  H3  UNL     1      54.911  -5.118  16.279  1.00  0.00     0.161 HD
BRANCH  41  52
HETATM   52  N1  UNL     1      55.866  -5.920  21.608  1.00  0.00    -0.234 N 
ATOM     53  H12 UNL     1      55.448  -5.413  22.389  1.00  0.00     0.174 HD
ATOM     54  H11 UNL     1      56.787  -6.355  21.672  1.00  0.00     0.174 HD
ENDBRANCH  41  52
ENDBRANCH  36  37
ENDBRANCH   1  36
TORSDOF 12
ENDMDL
MODEL 3
REMARK VINA RESULT: -6.670290399      1.334      2.445
REMARK  12 active torsions:
REMARK  status: ('A' for Active; 'I' for Inactive)
REMARK    1  A    between atoms: N1_1  and  C1_4 
REMARK    2  A    between atoms: N3_8  and  C3_10 
REMARK    3  A    between atoms: C3_10  and  C4_11 
REMARK    4  A    between atoms: C7_14  and  C8_15 
REMARK       I    between atoms: C8_15  and  N4_17 
REMARK    5  A    between atoms: N4_17  and  C9_19 
REMARK    6  A    between atoms: C9_19  and  C10_20 
REMARK       I    between atoms: C10_20  and  N5_22 
REMARK    7  A    between atoms: N5_22  and  C11_24 
REMARK    8  A    between atoms: C12_25  and  O3_26 
REMARK    9  A    between atoms: C12_25  and  N6_28 
REMARK   10  A    between atoms: N6_28  and  C13_30 
REMARK   11  A    between atoms: C15_32  and  C16_33 
REMARK   12  A    between atoms: C16_33  and  N7_34 
ROOT
HETATM    1  C4  UNL     1      56.925  -2.719  17.047  1.00  0.00     0.030 A 
HETATM    2  C5  UNL     1      57.593  -2.125  18.079  1.00  0.00     0.028 A 
HETATM    3  C6  UNL     1      57.573  -0.803  18.355  1.00  0.00     0.025 A 
HETATM    4  C7  UNL     1      56.810   0.053  17.530  1.00  0.00     0.100 A 
HETATM    5  C17 UNL     1      56.149  -0.568  16.501  1.00  0.00     0.261 A 
HETATM    6  O4  UNL     1      55.437   0.138  15.711  1.00  0.00    -0.267 OA
HETATM    7  N10 UNL     1      56.200  -1.914  16.262  1.00  0.00    -0.325 N 
ATOM      8  H10 UNL     1      55.681  -2.307  15.477  1.00  0.00     0.169 HD
ENDROOT
BRANCH   4   9
HETATM    9  C8  UNL     1      56.797   1.470  17.812  1.00  0.00     0.257 C 
HETATM   10  O1  UNL     1      57.793   1.939  18.463  1.00  0.00    -0.267 OA
HETATM   11  N4  UNL     1      55.812   2.399  17.451  1.00  0.00    -0.348 N 
ATOM     12  H4  UNL     1      54.996   2.073  16.933  1.00  0.00     0.163 HD
BRANCH  11  13
HETATM   13  C9  UNL     1      55.910   3.816  17.788  1.00  0.00     0.226 C 
BRANCH  13  14
HETATM   14  C10 UNL     1      55.016   4.241  18.862  1.00  0.00     0.239 C 
HETATM   15  O2  UNL     1      55.434   4.670  19.967  1.00  0.00    -0.271 OA
HETATM   16  N5  UNL     1      53.608   4.194  18.715  1.00  0.00    -0.332 N 
ATOM     17  H5  UNL     1      53.027   4.535  19.481  1.00  0.00     0.168 HD
BRANCH  16  18
HETATM   18  C11 UNL     1      53.013   3.729  17.631  1.00  0.00     0.146 C 
HETATM   19  C12 UNL     1      52.320   2.497  17.736  1.00  0.00     0.157 C 
BRANCH  19  20
HETATM   20  O3  UNL     1      52.349   1.946  18.927  1.00  0.00    -0.345 OA
ATOM     21  H3  UNL     1      51.497   1.736  19.291  1.00  0.00     0.219 HD
ENDBRANCH  19  20
BRANCH  19  22
HETATM   22  N6  UNL     1      51.620   1.781  16.796  1.00  0.00    -0.321 N 
ATOM     23  H6  UNL     1      50.970   2.323  16.226  1.00  0.00     0.169 HD
BRANCH  22  24
HETATM   24  C13 UNL     1      51.673   0.409  16.510  1.00  0.00     0.123 A 
HETATM   25  C14 UNL     1      50.752  -0.491  16.080  1.00  0.00     0.078 A 
HETATM   26  C15 UNL     1      51.354  -1.762  15.964  1.00  0.00     0.054 A 
HETATM   27  N8  UNL     1      52.607  -1.570  16.329  1.00  0.00    -0.302 N 
HETATM   28  N9  UNL     1      52.838  -0.327  16.653  1.00  0.00    -0.285 N 
ATOM     29  H8  UNL     1      53.312  -2.306  16.354  1.00  0.00     0.186 HD
ATOM     30  H9  UNL     1      53.736   0.045  16.964  1.00  0.00     0.188 HD
BRANCH  26  31
HETATM   31  C16 UNL     1      50.635  -2.971  15.518  1.00  0.00     0.288 C 
BRANCH  31  32
HETATM   32  N7  UNL     1      50.163  -3.741  16.645  1.00  0.00    -0.074 N 
ATOM     33  H73 UNL     1      50.005  -3.151  17.463  1.00  0.00     0.274 HD
ATOM     34  H72 UNL     1      49.207  -4.068  16.503  1.00  0.00     0.274 HD
ATOM     35  H71 UNL     1      50.796  -4.512  16.855  1.00  0.00     0.274 HD
ENDBRANCH  31  32
ENDBRANCH  26  31
ENDBRANCH  22  24
ENDBRANCH  19  22
ENDBRANCH  16  18
ENDBRANCH  13  14
ENDBRANCH  11  13
ENDBRANCH   4   9
BRANCH   1  36
HETATM   36  C3  UNL     1      56.958  -4.170  16.759  1.00  0.00     0.178 C 
BRANCH  36  37
HETATM   37  N3  UNL     1      55.685  -4.796  16.875  1.00  0.00    -0.368 N 
HETATM   38  C2  UNL     1      55.186  -5.306  17.955  1.00  0.00     0.148 A 
HETATM   39  N2  UNL     1      55.828  -5.305  19.134  1.00  0.00    -0.175 N 
HETATM   40  C18 UNL     1      53.921  -5.893  17.941  1.00  0.00     0.123 A 
HETATM   41  C1  UNL     1      55.258  -5.852  20.244  1.00  0.00     0.679 A 
ATOM     42  H2  UNL     1      56.757  -4.889  19.200  1.00  0.00     0.186 HD
HETATM   43  N13 UNL     1      54.032  -6.419  20.220  1.00  0.00    -0.174 N 
HETATM   44  C20 UNL     1      53.348  -6.446  19.063  1.00  0.00     0.152 A 
ATOM     45  H13 UNL     1      53.632  -6.821  21.067  1.00  0.00     0.186 HD
HETATM   46  N12 UNL     1      52.138  -6.940  18.783  1.00  0.00    -0.336 N 
HETATM   47  C19 UNL     1      51.926  -6.702  17.458  1.00  0.00     0.182 A 
ATOM     48  H12 UNL     1      51.501  -7.402  19.431  1.00  0.00     0.168 HD
HETATM   49  N11 UNL     1      53.015  -6.068  16.960  1.00  0.00    -0.346 N 
ATOM     50  H11 UNL     1      53.131  -5.769  15.992  1.00  0.00     0.167 HD
ATOM     51  H3  UNL     1      55.115  -4.849  16.031  1.00  0.00     0.161 HD
BRANCH  41  52
HETATM   52  N1  UNL     1      55.906  -5.832  21.356  1.00  0.00    -0.234 N 
ATOM     53  H12 UNL     1      56.883  -6.128  21.357  1.00  0.00     0.174 HD
ATOM     54  H11 UNL     1      55.430  -5.521  22.203  1.00  0.00     0.174 HD
ENDBRANCH  41  52
ENDBRANCH  36  37
ENDBRANCH   1  36
TORSDOF 12
ENDMDL
MODEL 4
REMARK VINA RESULT: -6.599283220      2.991      8.644
REMARK  12 active torsions:
REMARK  status: ('A' for Active; 'I' for Inactive)
REMARK    1  A    between atoms: N1_1  and  C1_4 
REMARK    2  A    between atoms: N3_8  and  C3_10 
REMARK    3  A    between atoms: C3_10  and  C4_11 
REMARK    4  A    between atoms: C7_14  and  C8_15 
REMARK       I    between atoms: C8_15  and  N4_17 
REMARK    5  A    between atoms: N4_17  and  C9_19 
REMARK    6  A    between atoms: C9_19  and  C10_20 
REMARK       I    between atoms: C10_20  and  N5_22 
REMARK    7  A    between atoms: N5_22  and  C11_24 
REMARK    8  A    between atoms: C12_25  and  O3_26 
REMARK    9  A    between atoms: C12_25  and  N6_28 
REMARK   10  A    between atoms: N6_28  and  C13_30 
REMARK   11  A    between atoms: C15_32  and  C16_33 
REMARK   12  A    between atoms: C16_33  and  N7_34 
ROOT
HETATM    1  C4  UNL     1      51.808   0.187  15.967  1.00  0.00     0.030 A 
HETATM    2  C5  UNL     1      53.015  -0.447  15.901  1.00  0.00     0.028 A 
HETATM    3  C6  UNL     1      53.193  -1.783  15.985  1.00  0.00     0.025 A 
HETATM    4  C7  UNL     1      52.061  -2.611  16.154  1.00  0.00     0.100 A 
HETATM    5  C17 UNL     1      50.861  -1.950  16.218  1.00  0.00     0.261 A 
HETATM    6  O4  UNL     1      49.791  -2.628  16.369  1.00  0.00    -0.267 OA
HETATM    7  N10 UNL     1      50.732  -0.591  16.127  1.00  0.00    -0.325 N 
ATOM      8  H10 UNL     1      49.806  -0.167  16.182  1.00  0.00     0.169 HD
ENDROOT
BRANCH   4   9
HETATM    9  C8  UNL     1      52.247  -4.040  16.259  1.00  0.00     0.257 C 
HETATM   10  O1  UNL     1      52.959  -4.598  15.356  1.00  0.00    -0.267 OA
HETATM   11  N4  UNL     1      51.736  -4.893  17.246  1.00  0.00    -0.348 N 
ATOM     12  H4  UNL     1      51.159  -4.495  17.988  1.00  0.00     0.163 HD
BRANCH  11  13
HETATM   13  C9  UNL     1      51.997  -6.330  17.253  1.00  0.00     0.226 C 
BRANCH  13  14
HETATM   14  C10 UNL     1      52.522  -6.838  18.518  1.00  0.00     0.239 C 
HETATM   15  O2  UNL     1      51.784  -7.276  19.436  1.00  0.00    -0.271 OA
HETATM   16  N5  UNL     1      53.913  -6.868  18.783  1.00  0.00    -0.332 N 
ATOM     17  H5  UNL     1      54.232  -7.265  19.667  1.00  0.00     0.168 HD
BRANCH  16  18
HETATM   18  C11 UNL     1      54.816  -6.404  17.938  1.00  0.00     0.146 C 
HETATM   19  C12 UNL     1      55.160  -5.032  18.027  1.00  0.00     0.157 C 
BRANCH  19  20
HETATM   20  O3  UNL     1      54.526  -4.363  18.961  1.00  0.00    -0.345 OA
ATOM     21  H3  UNL     1      53.765  -3.880  18.661  1.00  0.00     0.219 HD
ENDBRANCH  19  20
BRANCH  19  22
HETATM   22  N6  UNL     1      56.049  -4.283  17.295  1.00  0.00    -0.321 N 
ATOM     23  H6  UNL     1      56.359  -4.702  16.418  1.00  0.00     0.169 HD
BRANCH  22  24
HETATM   24  C13 UNL     1      56.592  -3.022  17.585  1.00  0.00     0.123 A 
HETATM   25  C14 UNL     1      56.825  -1.913  16.839  1.00  0.00     0.078 A 
HETATM   26  C15 UNL     1      57.406  -0.913  17.648  1.00  0.00     0.054 A 
HETATM   27  N8  UNL     1      57.495  -1.466  18.843  1.00  0.00    -0.302 N 
HETATM   28  N9  UNL     1      57.034  -2.687  18.854  1.00  0.00    -0.285 N 
ATOM     29  H8  UNL     1      57.878  -0.994  19.662  1.00  0.00     0.186 HD
ATOM     30  H9  UNL     1      57.006  -3.300  19.669  1.00  0.00     0.188 HD
BRANCH  26  31
HETATM   31  C16 UNL     1      57.786   0.423  17.153  1.00  0.00     0.288 C 
BRANCH  31  32
HETATM   32  N7  UNL     1      57.409   1.453  18.093  1.00  0.00    -0.074 N 
ATOM     33  H73 UNL     1      57.126   2.310  17.617  1.00  0.00     0.274 HD
ATOM     34  H72 UNL     1      56.528   1.234  18.557  1.00  0.00     0.274 HD
ATOM     35  H71 UNL     1      58.155   1.627  18.767  1.00  0.00     0.274 HD
ENDBRANCH  31  32
ENDBRANCH  26  31
ENDBRANCH  22  24
ENDBRANCH  19  22
ENDBRANCH  16  18
ENDBRANCH  13  14
ENDBRANCH  11  13
ENDBRANCH   4   9
BRANCH   1  36
HETATM   36  C3  UNL     1      51.632   1.653  15.874  1.00  0.00     0.178 C 
BRANCH  36  37
HETATM   37  N3  UNL     1      52.090   2.350  17.027  1.00  0.00    -0.368 N 
HETATM   38  C2  UNL     1      53.218   2.976  17.137  1.00  0.00     0.148 A 
HETATM   39  N2  UNL     1      54.121   3.045  16.147  1.00  0.00    -0.175 N 
HETATM   40  C18 UNL     1      53.553   3.626  18.325  1.00  0.00     0.123 A 
HETATM   41  C1  UNL     1      55.293   3.718  16.311  1.00  0.00     0.679 A 
ATOM     42  H2  UNL     1      53.926   2.586  15.257  1.00  0.00     0.186 HD
HETATM   43  N13 UNL     1      55.609   4.344  17.466  1.00  0.00    -0.174 N 
HETATM   44  C20 UNL     1      54.738   4.305  18.490  1.00  0.00     0.152 A 
ATOM     45  H13 UNL     1      56.495   4.840  17.560  1.00  0.00     0.186 HD
HETATM   46  N12 UNL     1      54.814   4.835  19.714  1.00  0.00    -0.336 N 
HETATM   47  C19 UNL     1      53.659   4.494  20.351  1.00  0.00     0.182 A 
ATOM     48  H12 UNL     1      55.583   5.386  20.094  1.00  0.00     0.168 HD
HETATM   49  N11 UNL     1      52.904   3.760  19.497  1.00  0.00    -0.346 N 
ATOM     50  H11 UNL     1      51.986   3.370  19.710  1.00  0.00     0.167 HD
ATOM     51  H3  UNL     1      51.474   2.358  17.840  1.00  0.00     0.161 HD
BRANCH  41  52
HETATM   52  N1  UNL     1      56.134   3.761  15.338  1.00  0.00    -0.234 N 
ATOM     53  H12 UNL     1      57.001   3.228  15.418  1.00  0.00     0.174 HD
ATOM     54  H11 UNL     1      55.914   4.322  14.514  1.00  0.00     0.174 HD
ENDBRANCH  41  52
ENDBRANCH  36  37
ENDBRANCH   1  36
TORSDOF 12
ENDMDL
MODEL 5
REMARK VINA RESULT: -6.568399466      2.958      4.480
REMARK  12 active torsions:
REMARK  status: ('A' for Active; 'I' for Inactive)
REMARK    1  A    between atoms: N1_1  and  C1_4 
REMARK    2  A    between atoms: N3_8  and  C3_10 
REMARK    3  A    between atoms: C3_10  and  C4_11 
REMARK    4  A    between atoms: C7_14  and  C8_15 
REMARK       I    between atoms: C8_15  and  N4_17 
REMARK    5  A    between atoms: N4_17  and  C9_19 
REMARK    6  A    between atoms: C9_19  and  C10_20 
REMARK       I    between atoms: C10_20  and  N5_22 
REMARK    7  A    between atoms: N5_22  and  C11_24 
REMARK    8  A    between atoms: C12_25  and  O3_26 
REMARK    9  A    between atoms: C12_25  and  N6_28 
REMARK   10  A    between atoms: N6_28  and  C13_30 
REMARK   11  A    between atoms: C15_32  and  C16_33 
REMARK   12  A    between atoms: C16_33  and  N7_34 
ROOT
HETATM    1  C4  UNL     1      54.148  -1.498  15.597  1.00  0.00     0.030 A 
HETATM    2  C5  UNL     1      55.478  -1.306  15.354  1.00  0.00     0.028 A 
HETATM    3  C6  UNL     1      56.222  -0.306  15.874  1.00  0.00     0.025 A 
HETATM    4  C7  UNL     1      55.604   0.625  16.737  1.00  0.00     0.100 A 
HETATM    5  C17 UNL     1      54.269   0.410  16.965  1.00  0.00     0.261 A 
HETATM    6  O4  UNL     1      53.638   1.208  17.736  1.00  0.00    -0.267 OA
HETATM    7  N10 UNL     1      53.556  -0.620  16.414  1.00  0.00    -0.325 N 
ATOM      8  H10 UNL     1      52.564  -0.719  16.629  1.00  0.00     0.169 HD
ENDROOT
BRANCH   4   9
HETATM    9  C8  UNL     1      56.393   1.705  17.284  1.00  0.00     0.257 C 
HETATM   10  O1  UNL     1      57.142   2.345  16.469  1.00  0.00    -0.267 OA
HETATM   11  N4  UNL     1      56.433   2.138  18.616  1.00  0.00    -0.348 N 
ATOM     12  H4  UNL     1      55.855   1.657  19.306  1.00  0.00     0.163 HD
BRANCH  11  13
HETATM   13  C9  UNL     1      57.269   3.251  19.054  1.00  0.00     0.226 C 
BRANCH  13  14
HETATM   14  C10 UNL     1      56.713   4.021  20.164  1.00  0.00     0.239 C 
HETATM   15  O2  UNL     1      57.403   4.403  21.142  1.00  0.00    -0.271 OA
HETATM   16  N5  UNL     1      55.345   4.385  20.199  1.00  0.00    -0.332 N 
ATOM     17  H5  UNL     1      55.012   4.952  20.979  1.00  0.00     0.168 HD
BRANCH  16  18
HETATM   18  C11 UNL     1      54.480   4.024  19.268  1.00  0.00     0.146 C 
HETATM   19  C12 UNL     1      54.133   4.982  18.283  1.00  0.00     0.157 C 
BRANCH  19  20
HETATM   20  O3  UNL     1      54.726   6.146  18.411  1.00  0.00    -0.345 OA
ATOM     21  H3  UNL     1      54.137   6.888  18.485  1.00  0.00     0.219 HD
ENDBRANCH  19  20
BRANCH  19  22
HETATM   22  N6  UNL     1      53.278   4.895  17.211  1.00  0.00    -0.321 N 
ATOM     23  H6  UNL     1      52.504   5.560  17.213  1.00  0.00     0.169 HD
BRANCH  22  24
HETATM   24  C13 UNL     1      53.319   4.020  16.116  1.00  0.00     0.123 A 
HETATM   25  C14 UNL     1      54.252   3.757  15.166  1.00  0.00     0.078 A 
HETATM   26  C15 UNL     1      53.760   2.773  14.281  1.00  0.00     0.054 A 
HETATM   27  N8  UNL     1      52.556   2.489  14.739  1.00  0.00    -0.302 N 
HETATM   28  N9  UNL     1      52.258   3.188  15.801  1.00  0.00    -0.285 N 
ATOM     29  H8  UNL     1      51.931   1.805  14.312  1.00  0.00     0.186 HD
ATOM     30  H9  UNL     1      51.380   3.129  16.318  1.00  0.00     0.188 HD
BRANCH  26  31
HETATM   31  C16 UNL     1      54.522   2.252  13.131  1.00  0.00     0.288 C 
BRANCH  31  32
HETATM   32  N7  UNL     1      55.941   2.258  13.401  1.00  0.00    -0.074 N 
ATOM     33  H73 UNL     1      56.375   3.135  13.110  1.00  0.00     0.274 HD
ATOM     34  H72 UNL     1      56.133   2.314  14.401  1.00  0.00     0.274 HD
ATOM     35  H71 UNL     1      56.400   1.453  12.975  1.00  0.00     0.274 HD
ENDBRANCH  31  32
ENDBRANCH  26  31
ENDBRANCH  22  24
ENDBRANCH  19  22
ENDBRANCH  16  18
ENDBRANCH  13  14
ENDBRANCH  11  13
ENDBRANCH   4   9
BRANCH   1  36
HETATM   36  C3  UNL     1      53.347  -2.599  15.018  1.00  0.00     0.178 C 
BRANCH  36  37
HETATM   37  N3  UNL     1      51.950  -2.463  15.255  1.00  0.00    -0.368 N 
HETATM   38  C2  UNL     1      51.222  -3.254  15.976  1.00  0.00     0.148 A 
HETATM   39  N2  UNL     1      51.711  -4.333  16.607  1.00  0.00    -0.175 N 
HETATM   40  C18 UNL     1      49.858  -3.012  16.133  1.00  0.00     0.123 A 
HETATM   41  C1  UNL     1      50.904  -5.134  17.357  1.00  0.00     0.679 A 
ATOM     42  H2  UNL     1      52.703  -4.557  16.525  1.00  0.00     0.186 HD
HETATM   43  N13 UNL     1      49.583  -4.891  17.503  1.00  0.00    -0.174 N 
HETATM   44  C20 UNL     1      49.043  -3.823  16.890  1.00  0.00     0.152 A 
ATOM     45  H13 UNL     1      49.003  -5.509  18.071  1.00  0.00     0.186 HD
HETATM   46  N12 UNL     1      47.785  -3.374  16.879  1.00  0.00    -0.336 N 
HETATM   47  C19 UNL     1      47.785  -2.254  16.102  1.00  0.00     0.182 A 
ATOM     48  H12 UNL     1      46.984  -3.787  17.357  1.00  0.00     0.168 HD
HETATM   49  N11 UNL     1      49.048  -2.048  15.656  1.00  0.00    -0.346 N 
ATOM     50  H11 UNL     1      49.341  -1.279  15.052  1.00  0.00     0.167 HD
ATOM     51  H3  UNL     1      51.479  -1.671  14.816  1.00  0.00     0.161 HD
BRANCH  41  52
HETATM   52  N1  UNL     1      51.410  -6.160  17.947  1.00  0.00    -0.234 N 
ATOM     53  H12 UNL     1      51.126  -7.090  17.638  1.00  0.00     0.174 HD
ATOM     54  H11 UNL     1      52.081  -6.018  18.703  1.00  0.00     0.174 HD
ENDBRANCH  41  52
ENDBRANCH  36  37
ENDBRANCH   1  36
TORSDOF 12
ENDMDL
