MODEL 1
REMARK VINA RESULT: -7.018823619      0.000      0.000
REMARK  14 active torsions:
REMARK  status: ('A' for Active; 'I' for Inactive)
REMARK    1  A    between atoms: O1_2  and  C2_3 
REMARK    2  A    between atoms: C4_5  and  N1_6 
REMARK    3  A    between atoms: N1_6  and  C5_8 
REMARK    4  A    between atoms: C6_11  and  N3_12 
REMARK    5  A    between atoms: N3_12  and  N4_14 
REMARK       I    between atoms: N4_14  and  C7_15 
REMARK    6  A    between atoms: C7_15  and  C8_17 
REMARK    7  A    between atoms: C8_17  and  C9_18 
REMARK    8  A    between atoms: C9_18  and  N5_19 
REMARK    9  A    between atoms: C10_25  and  N7_26 
REMARK       I    between atoms: N7_26  and  C11_28 
REMARK   10  A    between atoms: C14_37  and  C15_38 
REMARK   11  A    between atoms: C15_38  and  N11_39 
REMARK   12  A    between atoms: N11_39  and  N12_40 
REMARK       I    between atoms: N12_40  and  C16_42 
REMARK   13  A    between atoms: C16_42  and  C17_44 
REMARK   14  A    between atoms: C18_50  and  N15_51 
ROOT
HETATM    1  C5  UNL     1      55.155  -5.112  18.882  1.00  0.00     0.712 A 
HETATM    2  N2  UNL     1      54.039  -5.306  18.175  1.00  0.00    -0.019 N 
ATOM      3  H2  UNL     1      54.018  -5.064  17.184  1.00  0.00     0.203 HD
HETATM    4  C6  UNL     1      52.930  -5.823  18.767  1.00  0.00     0.736 A 
HETATM    5  N6  UNL     1      52.988  -6.129  20.059  1.00  0.00    -0.019 N 
ATOM      6  H6  UNL     1      52.154  -6.515  20.500  1.00  0.00     0.203 HD
HETATM    7  C10 UNL     1      54.114  -5.952  20.838  1.00  0.00     0.713 A 
HETATM    8  N10 UNL     1      55.176  -5.446  20.228  1.00  0.00    -0.021 N 
ATOM      9  H10 UNL     1      56.032  -5.297  20.762  1.00  0.00     0.203 HD
ENDROOT
BRANCH   1  10
HETATM   10  N1  UNL     1      56.215  -4.599  18.453  1.00  0.00    -0.191 N 
ATOM     11  H1  UNL     1      57.005  -5.243  18.478  1.00  0.00     0.184 HD
BRANCH  10  12
HETATM   12  C4  UNL     1      56.556  -3.352  17.951  1.00  0.00     0.051 A 
HETATM   13  C3  UNL     1      57.375  -2.490  18.707  1.00  0.00     0.067 A 
HETATM   14  C2  UNL     1      57.752  -1.243  18.328  1.00  0.00     0.083 A 
HETATM   15  C14 UNL     1      57.309  -0.756  17.101  1.00  0.00     0.028 A 
HETATM   16  C13 UNL     1      56.504  -1.590  16.341  1.00  0.00     0.019 A 
HETATM   17  C12 UNL     1      56.130  -2.852  16.744  1.00  0.00     0.031 A 
BRANCH  14  18
HETATM   18  O1  UNL     1      58.562  -0.429  19.116  1.00  0.00    -0.355 OA
HETATM   19  C1  UNL     1      58.290  -0.060  20.425  1.00  0.00     0.210 C 
ENDBRANCH  14  18
BRANCH  15  20
HETATM   20  C15 UNL     1      57.638   0.600  16.640  1.00  0.00     0.223 C 
BRANCH  20  21
HETATM   21  N11 UNL     1      57.147   1.659  16.840  1.00  0.00    -0.335 NA
BRANCH  21  22
HETATM   22  N12 UNL     1      56.295   2.667  16.877  1.00  0.00    -0.198 N 
HETATM   23  C16 UNL     1      56.011   3.331  18.100  1.00  0.00     0.302 C 
HETATM   24  O3  UNL     1      56.629   2.902  19.144  1.00  0.00    -0.263 OA
ATOM     25  H12 UNL     1      55.836   2.973  16.019  1.00  0.00     0.205 HD
BRANCH  23  26
HETATM   26  C17 UNL     1      55.108   4.436  18.296  1.00  0.00     0.171 A 
HETATM   27  N13 UNL     1      54.721   5.300  17.279  1.00  0.00    -0.232 N 
HETATM   28  O4  UNL     1      53.927   6.179  17.755  1.00  0.00    -0.155 OA
ATOM     29  H13 UNL     1      55.024   5.242  16.307  1.00  0.00     0.197 HD
HETATM   30  N14 UNL     1      53.717   6.023  19.000  1.00  0.00    -0.224 N 
HETATM   31  C18 UNL     1      54.450   4.915  19.409  1.00  0.00     0.155 A 
ATOM     32  H14 UNL     1      53.121   6.603  19.590  1.00  0.00     0.198 HD
BRANCH  31  33
HETATM   33  N15 UNL     1      54.448   4.525  20.585  1.00  0.00    -0.382 N 
ATOM     34 2H15 UNL     1      53.836   3.773  20.904  1.00  0.00     0.157 HD
ATOM     35 1H15 UNL     1      54.984   4.836  21.394  1.00  0.00     0.157 HD
ENDBRANCH  31  33
ENDBRANCH  23  26
ENDBRANCH  21  22
ENDBRANCH  20  21
ENDBRANCH  15  20
ENDBRANCH  10  12
ENDBRANCH   1  10
BRANCH   4  36
HETATM   36  N3  UNL     1      51.882  -5.959  18.043  1.00  0.00    -0.061 N 
ATOM     37  H3  UNL     1      51.284  -6.732  18.333  1.00  0.00     0.221 HD
BRANCH  36  38
HETATM   38  N4  UNL     1      51.430  -5.311  17.019  1.00  0.00    -0.272 NA
HETATM   39  C7  UNL     1      50.956  -4.634  15.946  1.00  0.00     0.314 C 
HETATM   40  O2  UNL     1      51.077  -4.908  14.723  1.00  0.00    -0.255 OA
BRANCH  39  41
HETATM   41  C8  UNL     1      50.160  -3.361  16.227  1.00  0.00     0.148 C 
BRANCH  41  42
HETATM   42  C9  UNL     1      51.120  -2.207  16.106  1.00  0.00     0.240 C 
BRANCH  42  43
HETATM   43  N5  UNL     1      52.474  -2.521  16.463  1.00  0.00    -0.079 N 
ATOM     44  H53 UNL     1      52.681  -2.187  17.405  1.00  0.00     0.274 HD
ATOM     45  H52 UNL     1      52.581  -3.526  16.606  1.00  0.00     0.274 HD
ATOM     46  H51 UNL     1      53.174  -2.180  15.804  1.00  0.00     0.274 HD
ENDBRANCH  42  43
ENDBRANCH  41  42
ENDBRANCH  39  41
ENDBRANCH  36  38
ENDBRANCH   4  36
BRANCH   7  47
HETATM   47  N7  UNL     1      54.065  -6.268  22.039  1.00  0.00    -0.163 N 
HETATM   48  C11 UNL     1      54.927  -6.764  22.959  1.00  0.00     0.200 C 
HETATM   49  N8  UNL     1      54.471  -7.322  24.070  1.00  0.00    -0.373 N 
HETATM   50  N9  UNL     1      56.340  -6.732  22.816  1.00  0.00    -0.063 NA
ATOM     51  H82 UNL     1      53.456  -7.345  24.173  1.00  0.00     0.158 HD
ATOM     52  H81 UNL     1      55.119  -7.695  24.763  1.00  0.00     0.158 HD
ATOM     53  H7  UNL     1      53.137  -6.116  22.432  1.00  0.00     0.187 HD
ENDBRANCH   7  47
TORSDOF 14
ENDMDL
MODEL 2
REMARK VINA RESULT: -6.967790693      2.961      9.775
REMARK  14 active torsions:
REMARK  status: ('A' for Active; 'I' for Inactive)
REMARK    1  A    between atoms: O1_2  and  C2_3 
REMARK    2  A    between atoms: C4_5  and  N1_6 
REMARK    3  A    between atoms: N1_6  and  C5_8 
REMARK    4  A    between atoms: C6_11  and  N3_12 
REMARK    5  A    between atoms: N3_12  and  N4_14 
REMARK       I    between atoms: N4_14  and  C7_15 
REMARK    6  A    between atoms: C7_15  and  C8_17 
REMARK    7  A    between atoms: C8_17  and  C9_18 
REMARK    8  A    between atoms: C9_18  and  N5_19 
REMARK    9  A    between atoms: C10_25  and  N7_26 
REMARK       I    between atoms: N7_26  and  C11_28 
REMARK   10  A    between atoms: C14_37  and  C15_38 
REMARK   11  A    between atoms: C15_38  and  N11_39 
REMARK   12  A    between atoms: N11_39  and  N12_40 
REMARK       I    between atoms: N12_40  and  C16_42 
REMARK   13  A    between atoms: C16_42  and  C17_44 
REMARK   14  A    between atoms: C18_50  and  N15_51 
ROOT
HETATM    1  C5  UNL     1      57.586   0.225  17.236  1.00  0.00     0.712 A 
HETATM    2  N2  UNL     1      57.428   1.178  18.159  1.00  0.00    -0.019 N 
ATOM      3  H2  UNL     1      57.616   0.970  19.140  1.00  0.00     0.203 HD
HETATM    4  C6  UNL     1      57.017   2.422  17.799  1.00  0.00     0.736 A 
HETATM    5  N6  UNL     1      56.780   2.663  16.514  1.00  0.00    -0.019 N 
ATOM      6  H6  UNL     1      56.470   3.598  16.248  1.00  0.00     0.203 HD
HETATM    7  C10 UNL     1      56.929   1.718  15.518  1.00  0.00     0.713 A 
HETATM    8  N10 UNL     1      57.331   0.517  15.905  1.00  0.00    -0.021 N 
ATOM      9  H10 UNL     1      57.456  -0.215  15.205  1.00  0.00     0.203 HD
ENDROOT
BRANCH   1  10
HETATM   10  N1  UNL     1      57.913  -0.964  17.460  1.00  0.00    -0.191 N 
ATOM     11  H1  UNL     1      58.908  -1.134  17.319  1.00  0.00     0.184 HD
BRANCH  10  12
HETATM   12  C4  UNL     1      57.224  -2.101  17.856  1.00  0.00     0.051 A 
HETATM   13  C3  UNL     1      57.137  -3.208  16.987  1.00  0.00     0.067 A 
HETATM   14  C2  UNL     1      56.473  -4.359  17.258  1.00  0.00     0.083 A 
HETATM   15  C14 UNL     1      55.821  -4.481  18.482  1.00  0.00     0.028 A 
HETATM   16  C13 UNL     1      55.896  -3.404  19.351  1.00  0.00     0.019 A 
HETATM   17  C12 UNL     1      56.573  -2.243  19.058  1.00  0.00     0.031 A 
BRANCH  14  18
HETATM   18  O1  UNL     1      56.416  -5.424  16.362  1.00  0.00    -0.355 OA
HETATM   19  C1  UNL     1      57.498  -5.937  15.663  1.00  0.00     0.210 C 
ENDBRANCH  14  18
BRANCH  15  20
HETATM   20  C15 UNL     1      55.044  -5.679  18.831  1.00  0.00     0.223 C 
BRANCH  20  21
HETATM   21  N11 UNL     1      54.435  -5.990  19.798  1.00  0.00    -0.335 NA
BRANCH  21  22
HETATM   22  N12 UNL     1      54.119  -6.427  21.003  1.00  0.00    -0.198 N 
HETATM   23  C16 UNL     1      55.072  -6.401  22.056  1.00  0.00     0.302 C 
HETATM   24  O3  UNL     1      56.234  -5.928  21.768  1.00  0.00    -0.263 OA
ATOM     25  H12 UNL     1      53.181  -6.786  21.180  1.00  0.00     0.205 HD
BRANCH  23  26
HETATM   26  C17 UNL     1      54.876  -6.844  23.412  1.00  0.00     0.171 A 
HETATM   27  N13 UNL     1      53.665  -7.324  23.895  1.00  0.00    -0.232 N 
HETATM   28  O4  UNL     1      53.796  -7.630  25.128  1.00  0.00    -0.155 OA
ATOM     29  H13 UNL     1      52.807  -7.417  23.351  1.00  0.00     0.197 HD
HETATM   30  N14 UNL     1      54.972  -7.413  25.561  1.00  0.00    -0.224 N 
HETATM   31  C18 UNL     1      55.717  -6.906  24.503  1.00  0.00     0.155 A 
ATOM     32  H14 UNL     1      55.307  -7.580  26.509  1.00  0.00     0.198 HD
BRANCH  31  33
HETATM   33  N15 UNL     1      56.909  -6.590  24.631  1.00  0.00    -0.382 N 
ATOM     34 2H15 UNL     1      57.659  -7.280  24.580  1.00  0.00     0.157 HD
ATOM     35 1H15 UNL     1      57.346  -5.686  24.805  1.00  0.00     0.157 HD
ENDBRANCH  31  33
ENDBRANCH  23  26
ENDBRANCH  21  22
ENDBRANCH  20  21
ENDBRANCH  15  20
ENDBRANCH  10  12
ENDBRANCH   1  10
BRANCH   4  36
HETATM   36  N3  UNL     1      56.855   3.285  18.733  1.00  0.00    -0.061 N 
ATOM     37  H3  UNL     1      57.714   3.507  19.235  1.00  0.00     0.221 HD
BRANCH  36  38
HETATM   38  N4  UNL     1      55.821   3.931  19.165  1.00  0.00    -0.272 NA
HETATM   39  C7  UNL     1      54.739   4.607  19.619  1.00  0.00     0.314 C 
HETATM   40  O2  UNL     1      54.208   4.573  20.760  1.00  0.00    -0.255 OA
BRANCH  39  41
HETATM   41  C8  UNL     1      54.048   5.548  18.633  1.00  0.00     0.148 C 
BRANCH  41  42
HETATM   42  C9  UNL     1      53.365   4.686  17.606  1.00  0.00     0.240 C 
BRANCH  42  43
HETATM   43  N5  UNL     1      52.968   3.392  18.086  1.00  0.00    -0.079 N 
ATOM     44  H53 UNL     1      52.613   3.460  19.040  1.00  0.00     0.274 HD
ATOM     45  H52 UNL     1      52.123   3.079  17.607  1.00  0.00     0.274 HD
ATOM     46  H51 UNL     1      53.695   2.679  18.027  1.00  0.00     0.274 HD
ENDBRANCH  42  43
ENDBRANCH  41  42
ENDBRANCH  39  41
ENDBRANCH  36  38
ENDBRANCH   4  36
BRANCH   7  47
HETATM   47  N7  UNL     1      56.680   2.043  14.345  1.00  0.00    -0.163 N 
HETATM   48  C11 UNL     1      55.570   2.319  13.618  1.00  0.00     0.200 C 
HETATM   49  N8  UNL     1      55.615   2.293  12.294  1.00  0.00    -0.373 N 
HETATM   50  N9  UNL     1      54.311   2.643  14.190  1.00  0.00    -0.063 NA
ATOM     51  H82 UNL     1      56.519   2.060  11.883  1.00  0.00     0.158 HD
ATOM     52  H81 UNL     1      54.780   2.500  11.747  1.00  0.00     0.158 HD
ATOM     53  H7  UNL     1      57.529   2.124  13.786  1.00  0.00     0.187 HD
ENDBRANCH   7  47
TORSDOF 14
ENDMDL
MODEL 3
REMARK VINA RESULT: -6.772599870      1.508      1.988
REMARK  14 active torsions:
REMARK  status: ('A' for Active; 'I' for Inactive)
REMARK    1  A    between atoms: O1_2  and  C2_3 
REMARK    2  A    between atoms: C4_5  and  N1_6 
REMARK    3  A    between atoms: N1_6  and  C5_8 
REMARK    4  A    between atoms: C6_11  and  N3_12 
REMARK    5  A    between atoms: N3_12  and  N4_14 
REMARK       I    between atoms: N4_14  and  C7_15 
REMARK    6  A    between atoms: C7_15  and  C8_17 
REMARK    7  A    between atoms: C8_17  and  C9_18 
REMARK    8  A    between atoms: C9_18  and  N5_19 
REMARK    9  A    between atoms: C10_25  and  N7_26 
REMARK       I    between atoms: N7_26  and  C11_28 
REMARK   10  A    between atoms: C14_37  and  C15_38 
REMARK   11  A    between atoms: C15_38  and  N11_39 
REMARK   12  A    between atoms: N11_39  and  N12_40 
REMARK       I    between atoms: N12_40  and  C16_42 
REMARK   13  A    between atoms: C16_42  and  C17_44 
REMARK   14  A    between atoms: C18_50  and  N15_51 
ROOT
HETATM    1  C5  UNL     1      54.552  -5.192  17.968  1.00  0.00     0.712 A 
HETATM    2  N2  UNL     1      53.338  -5.392  17.447  1.00  0.00    -0.019 N 
ATOM      3  H2  UNL     1      53.150  -5.120  16.482  1.00  0.00     0.203 HD
HETATM    4  C6  UNL     1      52.353  -5.955  18.194  1.00  0.00     0.736 A 
HETATM    5  N6  UNL     1      52.628  -6.300  19.447  1.00  0.00    -0.019 N 
ATOM      6  H6  UNL     1      51.885  -6.720  20.005  1.00  0.00     0.203 HD
HETATM    7  C10 UNL     1      53.863  -6.119  20.038  1.00  0.00     0.713 A 
HETATM    8  N10 UNL     1      54.800  -5.567  19.280  1.00  0.00    -0.021 N 
ATOM      9  H10 UNL     1      55.729  -5.413  19.672  1.00  0.00     0.203 HD
ENDROOT
BRANCH   1  10
HETATM   10  N1  UNL     1      55.516  -4.639  17.389  1.00  0.00    -0.191 N 
ATOM     11  H1  UNL     1      55.971  -5.248  16.710  1.00  0.00     0.184 HD
BRANCH  10  12
HETATM   12  C4  UNL     1      56.104  -3.385  17.464  1.00  0.00     0.051 A 
HETATM   13  C3  UNL     1      55.828  -2.420  16.475  1.00  0.00     0.067 A 
HETATM   14  C2  UNL     1      56.362  -1.174  16.434  1.00  0.00     0.083 A 
HETATM   15  C14 UNL     1      57.252  -0.795  17.436  1.00  0.00     0.028 A 
HETATM   16  C13 UNL     1      57.535  -1.731  18.419  1.00  0.00     0.019 A 
HETATM   17  C12 UNL     1      56.985  -2.991  18.443  1.00  0.00     0.031 A 
BRANCH  14  18
HETATM   18  O1  UNL     1      56.057  -0.257  15.431  1.00  0.00    -0.355 OA
HETATM   19  C1  UNL     1      55.255  -0.516  14.330  1.00  0.00     0.210 C 
ENDBRANCH  14  18
BRANCH  15  20
HETATM   20  C15 UNL     1      57.906   0.521  17.436  1.00  0.00     0.223 C 
BRANCH  20  21
HETATM   21  N11 UNL     1      57.620   1.561  17.926  1.00  0.00    -0.335 NA
BRANCH  21  22
HETATM   22  N12 UNL     1      57.164   2.787  18.106  1.00  0.00    -0.198 N 
HETATM   23  C16 UNL     1      55.780   3.073  17.969  1.00  0.00     0.302 C 
HETATM   24  O3  UNL     1      55.015   2.082  17.671  1.00  0.00    -0.263 OA
ATOM     25  H12 UNL     1      57.813   3.536  18.348  1.00  0.00     0.205 HD
BRANCH  23  26
HETATM   26  C17 UNL     1      55.140   4.354  18.130  1.00  0.00     0.171 A 
HETATM   27  N13 UNL     1      54.996   5.274  17.100  1.00  0.00    -0.232 N 
HETATM   28  O4  UNL     1      54.400   6.312  17.545  1.00  0.00    -0.155 OA
ATOM     29  H13 UNL     1      55.316   5.142  16.140  1.00  0.00     0.197 HD
HETATM   30  N14 UNL     1      54.113   6.216  18.780  1.00  0.00    -0.224 N 
HETATM   31  C18 UNL     1      54.563   4.976  19.216  1.00  0.00     0.155 A 
ATOM     32  H14 UNL     1      53.639   6.920  19.346  1.00  0.00     0.198 HD
BRANCH  31  33
HETATM   33  N15 UNL     1      54.428   4.605  20.391  1.00  0.00    -0.382 N 
ATOM     34 2H15 UNL     1      53.662   3.997  20.681  1.00  0.00     0.157 HD
ATOM     35 1H15 UNL     1      54.979   4.810  21.225  1.00  0.00     0.157 HD
ENDBRANCH  31  33
ENDBRANCH  23  26
ENDBRANCH  21  22
ENDBRANCH  20  21
ENDBRANCH  15  20
ENDBRANCH  10  12
ENDBRANCH   1  10
BRANCH   4  36
HETATM   36  N3  UNL     1      51.203  -6.095  17.647  1.00  0.00    -0.061 N 
ATOM     37  H3  UNL     1      51.082  -6.990  17.174  1.00  0.00     0.221 HD
BRANCH  36  38
HETATM   38  N4  UNL     1      50.163  -5.327  17.575  1.00  0.00    -0.272 NA
HETATM   39  C7  UNL     1      49.076  -4.524  17.501  1.00  0.00     0.314 C 
HETATM   40  O2  UNL     1      48.150  -4.368  18.341  1.00  0.00    -0.255 OA
BRANCH  39  41
HETATM   41  C8  UNL     1      48.925  -3.678  16.238  1.00  0.00     0.148 C 
BRANCH  41  42
HETATM   42  C9  UNL     1      49.805  -2.469  16.412  1.00  0.00     0.240 C 
BRANCH  42  43
HETATM   43  N5  UNL     1      51.213  -2.749  16.382  1.00  0.00    -0.079 N 
ATOM     44  H53 UNL     1      51.587  -2.793  17.330  1.00  0.00     0.274 HD
ATOM     45  H52 UNL     1      51.377  -3.711  16.084  1.00  0.00     0.274 HD
ATOM     46  H51 UNL     1      51.760  -2.102  15.814  1.00  0.00     0.274 HD
ENDBRANCH  42  43
ENDBRANCH  41  42
ENDBRANCH  39  41
ENDBRANCH  36  38
ENDBRANCH   4  36
BRANCH   7  47
HETATM   47  N7  UNL     1      54.018  -6.473  21.218  1.00  0.00    -0.163 N 
HETATM   48  C11 UNL     1      55.056  -6.581  22.083  1.00  0.00     0.200 C 
HETATM   49  N8  UNL     1      54.945  -7.327  23.171  1.00  0.00    -0.373 N 
HETATM   50  N9  UNL     1      56.306  -5.931  21.901  1.00  0.00    -0.063 NA
ATOM     51  H82 UNL     1      54.047  -7.794  23.302  1.00  0.00     0.158 HD
ATOM     52  H81 UNL     1      55.726  -7.408  23.822  1.00  0.00     0.158 HD
ATOM     53  H7  UNL     1      53.137  -6.756  21.647  1.00  0.00     0.187 HD
ENDBRANCH   7  47
TORSDOF 14
ENDMDL
MODEL 4
REMARK VINA RESULT: -6.765564371      2.771      8.592
REMARK  14 active torsions:
REMARK  status: ('A' for Active; 'I' for Inactive)
REMARK    1  A    between atoms: O1_2  and  C2_3 
REMARK    2  A    between atoms: C4_5  and  N1_6 
REMARK    3  A    between atoms: N1_6  and  C5_8 
REMARK    4  A    between atoms: C6_11  and  N3_12 
REMARK    5  A    between atoms: N3_12  and  N4_14 
REMARK       I    between atoms: N4_14  and  C7_15 
REMARK    6  A    between atoms: C7_15  and  C8_17 
REMARK    7  A    between atoms: C8_17  and  C9_18 
REMARK    8  A    between atoms: C9_18  and  N5_19 
REMARK    9  A    between atoms: C10_25  and  N7_26 
REMARK       I    between atoms: N7_26  and  C11_28 
REMARK   10  A    between atoms: C14_37  and  C15_38 
REMARK   11  A    between atoms: C15_38  and  N11_39 
REMARK   12  A    between atoms: N11_39  and  N12_40 
REMARK       I    between atoms: N12_40  and  C16_42 
REMARK   13  A    between atoms: C16_42  and  C17_44 
REMARK   14  A    between atoms: C18_50  and  N15_51 
ROOT
HETATM    1  C5  UNL     1      56.767   2.295  18.039  1.00  0.00     0.712 A 
HETATM    2  N2  UNL     1      55.803   3.026  17.473  1.00  0.00    -0.019 N 
ATOM      3  H2  UNL     1      55.532   2.845  16.506  1.00  0.00     0.203 HD
HETATM    4  C6  UNL     1      55.181   4.008  18.176  1.00  0.00     0.736 A 
HETATM    5  N6  UNL     1      55.555   4.219  19.434  1.00  0.00    -0.019 N 
ATOM      6  H6  UNL     1      55.087   4.958  19.958  1.00  0.00     0.203 HD
HETATM    7  C10 UNL     1      56.543   3.493  20.071  1.00  0.00     0.713 A 
HETATM    8  N10 UNL     1      57.128   2.545  19.354  1.00  0.00    -0.021 N 
ATOM      9  H10 UNL     1      57.864   1.982  19.782  1.00  0.00     0.203 HD
ENDROOT
BRANCH   1  10
HETATM   10  N1  UNL     1      57.438   1.401  17.471  1.00  0.00    -0.191 N 
ATOM     11  H1  UNL     1      58.278   1.763  17.022  1.00  0.00     0.184 HD
BRANCH  10  12
HETATM   12  C4  UNL     1      57.295   0.030  17.317  1.00  0.00     0.051 A 
HETATM   13  C3  UNL     1      56.355  -0.479  16.399  1.00  0.00     0.067 A 
HETATM   14  C2  UNL     1      56.113  -1.796  16.183  1.00  0.00     0.083 A 
HETATM   15  C14 UNL     1      56.838  -2.736  16.911  1.00  0.00     0.028 A 
HETATM   16  C13 UNL     1      57.769  -2.254  17.818  1.00  0.00     0.019 A 
HETATM   17  C12 UNL     1      57.999  -0.914  18.025  1.00  0.00     0.031 A 
BRANCH  14  18
HETATM   18  O1  UNL     1      55.169  -2.247  15.263  1.00  0.00    -0.355 OA
HETATM   19  C1  UNL     1      53.801  -2.049  15.363  1.00  0.00     0.210 C 
ENDBRANCH  14  18
BRANCH  15  20
HETATM   20  C15 UNL     1      56.603  -4.179  16.765  1.00  0.00     0.223 C 
BRANCH  20  21
HETATM   21  N11 UNL     1      56.161  -5.001  17.495  1.00  0.00    -0.335 NA
BRANCH  21  22
HETATM   22  N12 UNL     1      55.413  -5.625  18.386  1.00  0.00    -0.198 N 
HETATM   23  C16 UNL     1      55.620  -5.422  19.776  1.00  0.00     0.302 C 
HETATM   24  O3  UNL     1      56.558  -4.603  20.104  1.00  0.00    -0.263 OA
ATOM     25  H12 UNL     1      54.678  -6.259  18.073  1.00  0.00     0.205 HD
BRANCH  23  26
HETATM   26  C17 UNL     1      54.891  -6.031  20.859  1.00  0.00     0.171 A 
HETATM   27  N13 UNL     1      53.574  -6.457  20.752  1.00  0.00    -0.232 N 
HETATM   28  O4  UNL     1      53.198  -6.945  21.871  1.00  0.00    -0.155 OA
ATOM     29  H13 UNL     1      52.997  -6.391  19.912  1.00  0.00     0.197 HD
HETATM   30  N14 UNL     1      54.114  -6.904  22.752  1.00  0.00    -0.224 N 
HETATM   31  C18 UNL     1      55.232  -6.326  22.162  1.00  0.00     0.155 A 
ATOM     32  H14 UNL     1      54.042  -7.234  23.714  1.00  0.00     0.198 HD
BRANCH  31  33
HETATM   33  N15 UNL     1      56.285  -6.146  22.789  1.00  0.00    -0.382 N 
ATOM     34 2H15 UNL     1      56.987  -5.471  22.483  1.00  0.00     0.157 HD
ATOM     35 1H15 UNL     1      56.644  -6.585  23.637  1.00  0.00     0.157 HD
ENDBRANCH  31  33
ENDBRANCH  23  26
ENDBRANCH  21  22
ENDBRANCH  20  21
ENDBRANCH  15  20
ENDBRANCH  10  12
ENDBRANCH   1  10
BRANCH   4  36
HETATM   36  N3  UNL     1      54.285   4.693  17.570  1.00  0.00    -0.061 N 
ATOM     37  H3  UNL     1      54.191   5.645  17.923  1.00  0.00     0.221 HD
BRANCH  36  38
HETATM   38  N4  UNL     1      53.475   4.420  16.599  1.00  0.00    -0.272 NA
HETATM   39  C7  UNL     1      52.628   4.134  15.581  1.00  0.00     0.314 C 
HETATM   40  O2  UNL     1      52.319   4.844  14.588  1.00  0.00    -0.255 OA
BRANCH  39  41
HETATM   41  C8  UNL     1      51.939   2.771  15.616  1.00  0.00     0.148 C 
BRANCH  41  42
HETATM   42  C9  UNL     1      52.991   1.756  15.975  1.00  0.00     0.240 C 
BRANCH  42  43
HETATM   43  N5  UNL     1      52.844   1.184  17.284  1.00  0.00    -0.079 N 
ATOM     44  H53 UNL     1      53.202   1.824  17.993  1.00  0.00     0.274 HD
ATOM     45  H52 UNL     1      51.860   1.158  17.552  1.00  0.00     0.274 HD
ATOM     46  H51 UNL     1      53.266   0.262  17.391  1.00  0.00     0.274 HD
ENDBRANCH  42  43
ENDBRANCH  41  42
ENDBRANCH  39  41
ENDBRANCH  36  38
ENDBRANCH   4  36
BRANCH   7  47
HETATM   47  N7  UNL     1      56.821   3.770  21.249  1.00  0.00    -0.163 N 
HETATM   48  C11 UNL     1      57.063   3.079  22.389  1.00  0.00     0.200 C 
HETATM   49  N8  UNL     1      56.984   3.681  23.566  1.00  0.00    -0.373 N 
HETATM   50  N9  UNL     1      57.404   1.700  22.420  1.00  0.00    -0.063 NA
ATOM     51  H82 UNL     1      56.739   4.671  23.545  1.00  0.00     0.158 HD
ATOM     52  H81 UNL     1      57.166   3.160  24.424  1.00  0.00     0.158 HD
ATOM     53  H7  UNL     1      56.882   4.777  21.397  1.00  0.00     0.187 HD
ENDBRANCH   7  47
TORSDOF 14
ENDMDL
MODEL 5
REMARK VINA RESULT: -6.721974191      3.135      8.627
REMARK  14 active torsions:
REMARK  status: ('A' for Active; 'I' for Inactive)
REMARK    1  A    between atoms: O1_2  and  C2_3 
REMARK    2  A    between atoms: C4_5  and  N1_6 
REMARK    3  A    between atoms: N1_6  and  C5_8 
REMARK    4  A    between atoms: C6_11  and  N3_12 
REMARK    5  A    between atoms: N3_12  and  N4_14 
REMARK       I    between atoms: N4_14  and  C7_15 
REMARK    6  A    between atoms: C7_15  and  C8_17 
REMARK    7  A    between atoms: C8_17  and  C9_18 
REMARK    8  A    between atoms: C9_18  and  N5_19 
REMARK    9  A    between atoms: C10_25  and  N7_26 
REMARK       I    between atoms: N7_26  and  C11_28 
REMARK   10  A    between atoms: C14_37  and  C15_38 
REMARK   11  A    between atoms: C15_38  and  N11_39 
REMARK   12  A    between atoms: N11_39  and  N12_40 
REMARK       I    between atoms: N12_40  and  C16_42 
REMARK   13  A    between atoms: C16_42  and  C17_44 
REMARK   14  A    between atoms: C18_50  and  N15_51 
ROOT
HETATM    1  C5  UNL     1      54.938   2.760  16.163  1.00  0.00     0.712 A 
HETATM    2  N2  UNL     1      54.176   3.223  15.169  1.00  0.00    -0.019 N 
ATOM      3  H2  UNL     1      54.358   2.924  14.210  1.00  0.00     0.203 HD
HETATM    4  C6  UNL     1      53.161   4.089  15.425  1.00  0.00     0.736 A 
HETATM    5  N6  UNL     1      52.949   4.459  16.683  1.00  0.00    -0.019 N 
ATOM      6  H6  UNL     1      52.187   5.111  16.871  1.00  0.00     0.203 HD
HETATM    7  C10 UNL     1      53.702   4.011  17.751  1.00  0.00     0.713 A 
HETATM    8  N10 UNL     1      54.683   3.168  17.463  1.00  0.00    -0.021 N 
ATOM      9  H10 UNL     1      55.266   2.810  18.219  1.00  0.00     0.203 HD
ENDROOT
BRANCH   1  10
HETATM   10  N1  UNL     1      55.926   1.999  16.037  1.00  0.00    -0.191 N 
ATOM     11  H1  UNL     1      56.751   2.479  15.678  1.00  0.00     0.184 HD
BRANCH  10  12
HETATM   12  C4  UNL     1      56.150   0.651  16.274  1.00  0.00     0.051 A 
HETATM   13  C3  UNL     1      57.037   0.255  17.295  1.00  0.00     0.067 A 
HETATM   14  C2  UNL     1      57.349  -1.028  17.601  1.00  0.00     0.083 A 
HETATM   15  C14 UNL     1      56.759  -2.052  16.863  1.00  0.00     0.028 A 
HETATM   16  C13 UNL     1      55.883  -1.683  15.855  1.00  0.00     0.019 A 
HETATM   17  C12 UNL     1      55.580  -0.375  15.559  1.00  0.00     0.031 A 
BRANCH  14  18
HETATM   18  O1  UNL     1      58.236  -1.366  18.620  1.00  0.00    -0.355 OA
HETATM   19  C1  UNL     1      58.332  -0.716  19.841  1.00  0.00     0.210 C 
ENDBRANCH  14  18
BRANCH  15  20
HETATM   20  C15 UNL     1      57.080  -3.466  17.105  1.00  0.00     0.223 C 
BRANCH  20  21
HETATM   21  N11 UNL     1      56.468  -4.360  17.582  1.00  0.00    -0.335 NA
BRANCH  21  22
HETATM   22  N12 UNL     1      55.778  -5.110  18.422  1.00  0.00    -0.198 N 
HETATM   23  C16 UNL     1      55.484  -4.647  19.732  1.00  0.00     0.302 C 
HETATM   24  O3  UNL     1      55.916  -3.474  20.037  1.00  0.00    -0.263 OA
ATOM     25  H12 UNL     1      55.452  -6.030  18.127  1.00  0.00     0.205 HD
BRANCH  23  26
HETATM   26  C17 UNL     1      54.750  -5.348  20.754  1.00  0.00     0.171 A 
HETATM   27  N13 UNL     1      53.374  -5.535  20.718  1.00  0.00    -0.232 N 
HETATM   28  O4  UNL     1      53.011  -6.181  21.758  1.00  0.00    -0.155 OA
ATOM     29  H13 UNL     1      52.752  -5.209  19.978  1.00  0.00     0.197 HD
HETATM   30  N14 UNL     1      53.989  -6.464  22.521  1.00  0.00    -0.224 N 
HETATM   31  C18 UNL     1      55.138  -5.955  21.929  1.00  0.00     0.155 A 
ATOM     32  H14 UNL     1      53.938  -6.972  23.404  1.00  0.00     0.198 HD
BRANCH  31  33
HETATM   33  N15 UNL     1      56.254  -6.072  22.455  1.00  0.00    -0.382 N 
ATOM     34 2H15 UNL     1      56.972  -6.686  22.068  1.00  0.00     0.157 HD
ATOM     35 1H15 UNL     1      56.648  -5.643  23.292  1.00  0.00     0.157 HD
ENDBRANCH  31  33
ENDBRANCH  23  26
ENDBRANCH  21  22
ENDBRANCH  20  21
ENDBRANCH  15  20
ENDBRANCH  10  12
ENDBRANCH   1  10
BRANCH   4  36
HETATM   36  N3  UNL     1      52.485   4.520  14.426  1.00  0.00    -0.061 N 
ATOM     37  H3  UNL     1      52.150   5.476  14.543  1.00  0.00     0.221 HD
BRANCH  36  38
HETATM   38  N4  UNL     1      52.142   3.986  13.298  1.00  0.00    -0.272 NA
HETATM   39  C7  UNL     1      51.784   3.426  12.118  1.00  0.00     0.314 C 
HETATM   40  O2  UNL     1      52.413   3.413  11.028  1.00  0.00    -0.255 OA
BRANCH  39  41
HETATM   41  C8  UNL     1      50.439   2.704  12.075  1.00  0.00     0.148 C 
BRANCH  41  42
HETATM   42  C9  UNL     1      50.673   1.308  12.588  1.00  0.00     0.240 C 
BRANCH  42  43
HETATM   43  N5  UNL     1      52.025   1.041  12.991  1.00  0.00    -0.079 N 
ATOM     44  H53 UNL     1      52.625   0.935  12.173  1.00  0.00     0.274 HD
ATOM     45  H52 UNL     1      52.442   1.873  13.408  1.00  0.00     0.274 HD
ATOM     46  H51 UNL     1      52.129   0.240  13.614  1.00  0.00     0.274 HD
ENDBRANCH  42  43
ENDBRANCH  41  42
ENDBRANCH  39  41
ENDBRANCH  36  38
ENDBRANCH   4  36
BRANCH   7  47
HETATM   47  N7  UNL     1      53.423   4.419  18.890  1.00  0.00    -0.163 N 
HETATM   48  C11 UNL     1      54.081   4.578  20.065  1.00  0.00     0.200 C 
HETATM   49  N8  UNL     1      53.406   4.711  21.196  1.00  0.00    -0.373 N 
HETATM   50  N9  UNL     1      55.496   4.610  20.179  1.00  0.00    -0.063 NA
ATOM     51  H82 UNL     1      52.389   4.688  21.115  1.00  0.00     0.158 HD
ATOM     52  H81 UNL     1      53.901   4.830  22.080  1.00  0.00     0.158 HD
ATOM     53  H7  UNL     1      52.448   4.710  18.960  1.00  0.00     0.187 HD
ENDBRANCH   7  47
TORSDOF 14
ENDMDL
