MODEL 1
REMARK VINA RESULT: -9.078938150      0.000      0.000
REMARK  8 active torsions:
REMARK  status: ('A' for Active; 'I' for Inactive)
REMARK    1  A    between atoms: C2_2  and  C3_3 
REMARK    2  A    between atoms: C2_2  and  C10_14 
REMARK    3  A    between atoms: C3_3  and  C4_4 
REMARK    4  A    between atoms: C4_4  and  C5_5 
REMARK    5  A    between atoms: C5_5  and  C6_6 
REMARK    6  A    between atoms: C6_6  and  N1_7 
REMARK    7  A    between atoms: C10_14  and  N2_15 
REMARK    8  A    between atoms: N2_15  and  C11_18 
ROOT
HETATM    1  C10 UNL     1      64.148  -1.740 -30.057  1.00  0.00     0.237 C 
ENDROOT
BRANCH   1   2
HETATM    2  C2  UNL     1      62.914  -1.567 -29.224  1.00  0.00     0.007 C 
HETATM    3  C1  UNL     1      61.960  -2.683 -29.537  1.00  0.00     0.011 C 
BRANCH   2   4
HETATM    4  C3  UNL     1      62.352  -0.200 -29.361  1.00  0.00     0.006 C 
BRANCH   4   5
HETATM    5  C4  UNL     1      60.910   0.015 -29.137  1.00  0.00     0.003 C 
BRANCH   5   6
HETATM    6  C5  UNL     1      60.338   1.260 -29.698  1.00  0.00     0.038 C 
BRANCH   6   7
HETATM    7  C6  UNL     1      59.913   2.228 -28.583  1.00  0.00     0.123 C 
HETATM    8  C7  UNL     1      60.248   3.650 -28.766  1.00  0.00     0.038 C 
HETATM    9  C8  UNL     1      58.824   3.952 -29.134  1.00  0.00     0.005 C 
HETATM   10  C9  UNL     1      58.425   2.551 -28.770  1.00  0.00     0.038 C 
BRANCH   7  11
HETATM   11  N1  UNL     1      60.125   1.638 -27.263  1.00  0.00    -0.070 N 
ATOM     12  H13 UNL     1      60.068   0.620 -27.293  1.00  0.00     0.275 HD
ATOM     13  H12 UNL     1      61.096   1.730 -26.962  1.00  0.00     0.275 HD
ATOM     14  H11 UNL     1      59.481   2.030 -26.577  1.00  0.00     0.275 HD
ENDBRANCH   7  11
ENDBRANCH   6   7
ENDBRANCH   5   6
ENDBRANCH   4   5
ENDBRANCH   2   4
ENDBRANCH   1   2
BRANCH   1  15
HETATM   15  N2  UNL     1      64.489  -3.108 -30.139  1.00  0.00    -0.066 N 
ATOM     16  H22 UNL     1      64.590  -3.507 -29.206  1.00  0.00     0.278 HD
ATOM     17  H21 UNL     1      63.697  -3.653 -30.477  1.00  0.00     0.278 HD
BRANCH  15  18
HETATM   18  C11 UNL     1      65.666  -3.380 -30.934  1.00  0.00     0.127 C 
HETATM   19  C12 UNL     1      66.823  -3.496 -29.963  1.00  0.00     0.043 C 
HETATM   20  C13 UNL     1      68.122  -3.783 -30.683  1.00  0.00    -0.012 C 
HETATM   21  C14 UNL     1      68.427  -2.590 -31.563  1.00  0.00     0.009 C 
HETATM   22  C18 UNL     1      67.933  -5.014 -31.522  1.00  0.00     0.009 C 
HETATM   23  C15 UNL     1      67.292  -2.365 -32.525  1.00  0.00    -0.012 C 
HETATM   24  C16 UNL     1      67.139  -3.591 -33.394  1.00  0.00     0.009 C 
HETATM   25  C20 UNL     1      65.968  -2.177 -31.800  1.00  0.00     0.043 C 
HETATM   26  C17 UNL     1      66.842  -4.785 -32.533  1.00  0.00    -0.012 C 
HETATM   27  C19 UNL     1      65.517  -4.579 -31.824  1.00  0.00     0.043 C 
ENDBRANCH  15  18
ENDBRANCH   1  15
TORSDOF 8
ENDMDL
MODEL 2
REMARK VINA RESULT: -9.035553103      0.130      1.571
REMARK  8 active torsions:
REMARK  status: ('A' for Active; 'I' for Inactive)
REMARK    1  A    between atoms: C2_2  and  C3_3 
REMARK    2  A    between atoms: C2_2  and  C10_14 
REMARK    3  A    between atoms: C3_3  and  C4_4 
REMARK    4  A    between atoms: C4_4  and  C5_5 
REMARK    5  A    between atoms: C5_5  and  C6_6 
REMARK    6  A    between atoms: C6_6  and  N1_7 
REMARK    7  A    between atoms: C10_14  and  N2_15 
REMARK    8  A    between atoms: N2_15  and  C11_18 
ROOT
HETATM    1  C10 UNL     1      64.097  -1.625 -30.178  1.00  0.00     0.237 C 
ENDROOT
BRANCH   1   2
HETATM    2  C2  UNL     1      62.984  -1.384 -29.202  1.00  0.00     0.007 C 
HETATM    3  C1  UNL     1      62.037  -2.549 -29.252  1.00  0.00     0.011 C 
BRANCH   2   4
HETATM    4  C3  UNL     1      62.358  -0.054 -29.408  1.00  0.00     0.006 C 
BRANCH   4   5
HETATM    5  C4  UNL     1      60.909   0.107 -29.180  1.00  0.00     0.003 C 
BRANCH   5   6
HETATM    6  C5  UNL     1      60.291   1.333 -29.735  1.00  0.00     0.038 C 
BRANCH   6   7
HETATM    7  C6  UNL     1      59.887   2.307 -28.617  1.00  0.00     0.123 C 
HETATM    8  C7  UNL     1      60.280   3.716 -28.780  1.00  0.00     0.038 C 
HETATM    9  C8  UNL     1      58.874   4.076 -29.166  1.00  0.00     0.005 C 
HETATM   10  C9  UNL     1      58.415   2.689 -28.823  1.00  0.00     0.038 C 
BRANCH   7  11
HETATM   11  N1  UNL     1      60.056   1.696 -27.299  1.00  0.00    -0.070 N 
ATOM     12  H13 UNL     1      60.521   0.791 -27.362  1.00  0.00     0.275 HD
ATOM     13  H12 UNL     1      60.753   2.191 -26.743  1.00  0.00     0.275 HD
ATOM     14  H11 UNL     1      59.165   1.626 -26.809  1.00  0.00     0.275 HD
ENDBRANCH   7  11
ENDBRANCH   6   7
ENDBRANCH   5   6
ENDBRANCH   4   5
ENDBRANCH   2   4
ENDBRANCH   1   2
BRANCH   1  15
HETATM   15  N2  UNL     1      64.424  -2.998 -30.209  1.00  0.00    -0.066 N 
ATOM     16  H22 UNL     1      64.401  -3.392 -29.269  1.00  0.00     0.278 HD
ATOM     17  H21 UNL     1      63.671  -3.534 -30.640  1.00  0.00     0.278 HD
BRANCH  15  18
HETATM   18  C11 UNL     1      65.685  -3.294 -30.850  1.00  0.00     0.127 C 
HETATM   19  C12 UNL     1      65.979  -2.132 -31.777  1.00  0.00     0.043 C 
HETATM   20  C13 UNL     1      67.287  -2.328 -32.512  1.00  0.00    -0.012 C 
HETATM   21  C14 UNL     1      67.133  -3.547 -33.396  1.00  0.00     0.009 C 
HETATM   22  C18 UNL     1      68.367  -2.556 -31.494  1.00  0.00     0.009 C 
HETATM   23  C15 UNL     1      66.779  -4.743 -32.555  1.00  0.00    -0.012 C 
HETATM   24  C16 UNL     1      67.893  -4.991 -31.566  1.00  0.00     0.009 C 
HETATM   25  C20 UNL     1      65.517  -4.505 -31.741  1.00  0.00     0.043 C 
HETATM   26  C17 UNL     1      68.061  -3.787 -30.684  1.00  0.00    -0.012 C 
HETATM   27  C19 UNL     1      66.795  -3.571 -29.878  1.00  0.00     0.043 C 
ENDBRANCH  15  18
ENDBRANCH   1  15
TORSDOF 8
ENDMDL
MODEL 3
REMARK VINA RESULT: -9.013296350      0.185      1.587
REMARK  8 active torsions:
REMARK  status: ('A' for Active; 'I' for Inactive)
REMARK    1  A    between atoms: C2_2  and  C3_3 
REMARK    2  A    between atoms: C2_2  and  C10_14 
REMARK    3  A    between atoms: C3_3  and  C4_4 
REMARK    4  A    between atoms: C4_4  and  C5_5 
REMARK    5  A    between atoms: C5_5  and  C6_6 
REMARK    6  A    between atoms: C6_6  and  N1_7 
REMARK    7  A    between atoms: C10_14  and  N2_15 
REMARK    8  A    between atoms: N2_15  and  C11_18 
ROOT
HETATM    1  C10 UNL     1      64.116  -1.797 -29.860  1.00  0.00     0.237 C 
ENDROOT
BRANCH   1   2
HETATM    2  C2  UNL     1      62.692  -1.720 -29.396  1.00  0.00     0.007 C 
HETATM    3  C1  UNL     1      61.887  -2.751 -30.134  1.00  0.00     0.011 C 
BRANCH   2   4
HETATM    4  C3  UNL     1      62.166  -0.334 -29.477  1.00  0.00     0.006 C 
BRANCH   4   5
HETATM    5  C4  UNL     1      60.766  -0.068 -29.098  1.00  0.00     0.003 C 
BRANCH   5   6
HETATM    6  C5  UNL     1      60.149   1.146 -29.680  1.00  0.00     0.038 C 
BRANCH   6   7
HETATM    7  C6  UNL     1      59.867   2.200 -28.599  1.00  0.00     0.123 C 
HETATM    8  C7  UNL     1      60.256   3.588 -28.898  1.00  0.00     0.038 C 
HETATM    9  C8  UNL     1      58.822   3.944 -29.167  1.00  0.00     0.005 C 
HETATM   10  C9  UNL     1      58.386   2.591 -28.685  1.00  0.00     0.038 C 
BRANCH   7  11
HETATM   11  N1  UNL     1      60.161   1.678 -27.265  1.00  0.00    -0.070 N 
ATOM     12  H13 UNL     1      60.944   2.169 -26.834  1.00  0.00     0.275 HD
ATOM     13  H12 UNL     1      59.433   1.928 -26.596  1.00  0.00     0.275 HD
ATOM     14  H11 UNL     1      60.318   0.671 -27.291  1.00  0.00     0.275 HD
ENDBRANCH   7  11
ENDBRANCH   6   7
ENDBRANCH   5   6
ENDBRANCH   4   5
ENDBRANCH   2   4
ENDBRANCH   1   2
BRANCH   1  15
HETATM   15  N2  UNL     1      64.448  -3.130 -30.183  1.00  0.00    -0.066 N 
ATOM     16  H22 UNL     1      64.469  -3.707 -29.343  1.00  0.00     0.278 HD
ATOM     17  H21 UNL     1      63.680  -3.578 -30.683  1.00  0.00     0.278 HD
BRANCH  15  18
HETATM   18  C11 UNL     1      65.682  -3.271 -30.923  1.00  0.00     0.127 C 
HETATM   19  C12 UNL     1      65.561  -4.554 -31.719  1.00  0.00     0.043 C 
HETATM   20  C13 UNL     1      66.804  -4.813 -32.542  1.00  0.00    -0.012 C 
HETATM   21  C14 UNL     1      67.953  -5.019 -31.578  1.00  0.00     0.009 C 
HETATM   22  C18 UNL     1      67.057  -3.609 -33.403  1.00  0.00     0.009 C 
HETATM   23  C15 UNL     1      68.105  -3.807 -30.701  1.00  0.00    -0.012 C 
HETATM   24  C16 UNL     1      68.404  -2.609 -31.573  1.00  0.00     0.009 C 
HETATM   25  C20 UNL     1      66.821  -3.490 -29.951  1.00  0.00     0.043 C 
HETATM   26  C17 UNL     1      67.274  -2.395 -32.540  1.00  0.00    -0.012 C 
HETATM   27  C19 UNL     1      66.006  -2.076 -31.771  1.00  0.00     0.043 C 
ENDBRANCH  15  18
ENDBRANCH   1  15
TORSDOF 8
ENDMDL
MODEL 4
REMARK VINA RESULT: -8.680734720      0.814      1.887
REMARK  8 active torsions:
REMARK  status: ('A' for Active; 'I' for Inactive)
REMARK    1  A    between atoms: C2_2  and  C3_3 
REMARK    2  A    between atoms: C2_2  and  C10_14 
REMARK    3  A    between atoms: C3_3  and  C4_4 
REMARK    4  A    between atoms: C4_4  and  C5_5 
REMARK    5  A    between atoms: C5_5  and  C6_6 
REMARK    6  A    between atoms: C6_6  and  N1_7 
REMARK    7  A    between atoms: C10_14  and  N2_15 
REMARK    8  A    between atoms: N2_15  and  C11_18 
ROOT
HETATM    1  C10 UNL     1      64.050  -1.828 -30.017  1.00  0.00     0.237 C 
ENDROOT
BRANCH   1   2
HETATM    2  C2  UNL     1      62.928  -1.784 -29.023  1.00  0.00     0.007 C 
HETATM    3  C1  UNL     1      61.836  -2.704 -29.487  1.00  0.00     0.011 C 
BRANCH   2   4
HETATM    4  C3  UNL     1      62.501  -0.390 -28.744  1.00  0.00     0.006 C 
BRANCH   4   5
HETATM    5  C4  UNL     1      61.066  -0.051 -28.780  1.00  0.00     0.003 C 
BRANCH   5   6
HETATM    6  C5  UNL     1      60.679   1.228 -28.143  1.00  0.00     0.038 C 
BRANCH   6   7
HETATM    7  C6  UNL     1      60.120   2.217 -29.177  1.00  0.00     0.123 C 
HETATM    8  C7  UNL     1      58.663   2.434 -29.180  1.00  0.00     0.038 C 
HETATM    9  C8  UNL     1      58.846   3.754 -28.487  1.00  0.00     0.005 C 
HETATM   10  C9  UNL     1      60.334   3.640 -28.644  1.00  0.00     0.038 C 
BRANCH   7  11
HETATM   11  N1  UNL     1      60.793   2.069 -30.466  1.00  0.00    -0.070 N 
ATOM     12  H13 UNL     1      60.299   1.416 -31.074  1.00  0.00     0.275 HD
ATOM     13  H12 UNL     1      60.704   2.911 -31.035  1.00  0.00     0.275 HD
ATOM     14  H11 UNL     1      61.769   1.801 -30.343  1.00  0.00     0.275 HD
ENDBRANCH   7  11
ENDBRANCH   6   7
ENDBRANCH   5   6
ENDBRANCH   4   5
ENDBRANCH   2   4
ENDBRANCH   1   2
BRANCH   1  15
HETATM   15  N2  UNL     1      64.476  -3.160 -30.207  1.00  0.00    -0.066 N 
ATOM     16  H22 UNL     1      64.537  -3.647 -29.313  1.00  0.00     0.278 HD
ATOM     17  H21 UNL     1      63.741  -3.709 -30.654  1.00  0.00     0.278 HD
BRANCH  15  18
HETATM   18  C11 UNL     1      65.716  -3.288 -30.938  1.00  0.00     0.127 C 
HETATM   19  C12 UNL     1      65.619  -4.577 -31.727  1.00  0.00     0.043 C 
HETATM   20  C13 UNL     1      66.871  -4.823 -32.541  1.00  0.00    -0.012 C 
HETATM   21  C14 UNL     1      68.016  -5.007 -31.568  1.00  0.00     0.009 C 
HETATM   22  C18 UNL     1      67.113  -3.620 -33.407  1.00  0.00     0.009 C 
HETATM   23  C15 UNL     1      68.145  -3.788 -30.697  1.00  0.00    -0.012 C 
HETATM   24  C16 UNL     1      68.433  -2.591 -31.573  1.00  0.00     0.009 C 
HETATM   25  C20 UNL     1      66.852  -3.485 -29.957  1.00  0.00     0.043 C 
HETATM   26  C17 UNL     1      67.307  -2.398 -32.549  1.00  0.00    -0.012 C 
HETATM   27  C19 UNL     1      66.029  -2.094 -31.791  1.00  0.00     0.043 C 
ENDBRANCH  15  18
ENDBRANCH   1  15
TORSDOF 8
ENDMDL
MODEL 5
REMARK VINA RESULT: -8.676926390      0.826      1.051
REMARK  8 active torsions:
REMARK  status: ('A' for Active; 'I' for Inactive)
REMARK    1  A    between atoms: C2_2  and  C3_3 
REMARK    2  A    between atoms: C2_2  and  C10_14 
REMARK    3  A    between atoms: C3_3  and  C4_4 
REMARK    4  A    between atoms: C4_4  and  C5_5 
REMARK    5  A    between atoms: C5_5  and  C6_6 
REMARK    6  A    between atoms: C6_6  and  N1_7 
REMARK    7  A    between atoms: C10_14  and  N2_15 
REMARK    8  A    between atoms: N2_15  and  C11_18 
ROOT
HETATM    1  C10 UNL     1      64.150  -1.935 -29.944  1.00  0.00     0.237 C 
ENDROOT
BRANCH   1   2
HETATM    2  C2  UNL     1      62.925  -1.848 -29.084  1.00  0.00     0.007 C 
HETATM    3  C1  UNL     1      61.858  -2.726 -29.673  1.00  0.00     0.011 C 
BRANCH   2   4
HETATM    4  C3  UNL     1      62.522  -0.439 -28.849  1.00  0.00     0.006 C 
BRANCH   4   5
HETATM    5  C4  UNL     1      61.090  -0.086 -28.845  1.00  0.00     0.003 C 
BRANCH   5   6
HETATM    6  C5  UNL     1      60.731   1.191 -28.186  1.00  0.00     0.038 C 
BRANCH   6   7
HETATM    7  C6  UNL     1      60.141   2.190 -29.192  1.00  0.00     0.123 C 
HETATM    8  C7  UNL     1      58.682   2.385 -29.168  1.00  0.00     0.038 C 
HETATM    9  C8  UNL     1      58.857   3.695 -28.454  1.00  0.00     0.005 C 
HETATM   10  C9  UNL     1      60.344   3.606 -28.638  1.00  0.00     0.038 C 
BRANCH   7  11
HETATM   11  N1  UNL     1      60.795   2.074 -30.495  1.00  0.00    -0.070 N 
ATOM     12  H13 UNL     1      61.601   2.695 -30.567  1.00  0.00     0.275 HD
ATOM     13  H12 UNL     1      61.277   1.181 -30.595  1.00  0.00     0.275 HD
ATOM     14  H11 UNL     1      60.132   2.231 -31.254  1.00  0.00     0.275 HD
ENDBRANCH   7  11
ENDBRANCH   6   7
ENDBRANCH   5   6
ENDBRANCH   4   5
ENDBRANCH   2   4
ENDBRANCH   1   2
BRANCH   1  15
HETATM   15  N2  UNL     1      64.477  -3.287 -30.186  1.00  0.00    -0.066 N 
ATOM     16  H22 UNL     1      64.541  -3.801 -29.307  1.00  0.00     0.278 HD
ATOM     17  H21 UNL     1      63.690  -3.773 -30.615  1.00  0.00     0.278 HD
BRANCH  15  18
HETATM   18  C11 UNL     1      65.676  -3.476 -30.970  1.00  0.00     0.127 C 
HETATM   19  C12 UNL     1      66.820  -3.594 -29.984  1.00  0.00     0.043 C 
HETATM   20  C13 UNL     1      68.142  -3.798 -30.693  1.00  0.00    -0.012 C 
HETATM   21  C14 UNL     1      68.414  -2.554 -31.511  1.00  0.00     0.009 C 
HETATM   22  C18 UNL     1      68.014  -4.994 -31.591  1.00  0.00     0.009 C 
HETATM   23  C15 UNL     1      67.288  -2.327 -32.482  1.00  0.00    -0.012 C 
HETATM   24  C16 UNL     1      67.197  -3.515 -33.410  1.00  0.00     0.009 C 
HETATM   25  C20 UNL     1      65.946  -2.223 -31.774  1.00  0.00     0.043 C 
HETATM   26  C17 UNL     1      66.932  -4.759 -32.611  1.00  0.00    -0.012 C 
HETATM   27  C19 UNL     1      65.589  -4.637 -31.918  1.00  0.00     0.043 C 
ENDBRANCH  15  18
ENDBRANCH   1  15
TORSDOF 8
ENDMDL
