MODEL 1
REMARK VINA RESULT: -8.387092359      0.000      0.000
REMARK  12 active torsions:
REMARK  status: ('A' for Active; 'I' for Inactive)
REMARK    1  A    between atoms: C4_4  and  C5_5 
REMARK    2  A    between atoms: C5_5  and  C6_6 
REMARK    3  A    between atoms: C7_8  and  N1_9 
REMARK    4  A    between atoms: N1_9  and  N3_12 
REMARK    5  A    between atoms: C9_17  and  O2_18 
REMARK    6  A    between atoms: O2_18  and  C10_19 
REMARK    7  A    between atoms: C13_22  and  O3_23 
REMARK    8  A    between atoms: O3_23  and  C14_24 
REMARK    9  A    between atoms: C17_28  and  O5_29 
REMARK   10  A    between atoms: C18_31  and  O6_32 
REMARK   11  A    between atoms: C19_34  and  O7_35 
REMARK   12  A    between atoms: C20_37  and  O8_38 
ROOT
HETATM    1  N1  UNL     1      22.346  23.887  22.172  1.00  0.00    -0.181 N 
HETATM    2  C8  UNL     1      23.407  24.426  21.425  1.00  0.00     0.204 C 
HETATM    3  N2  UNL     1      24.282  24.852  20.796  1.00  0.00    -0.170 NA
ENDROOT
BRANCH   1   4
HETATM    4  C7  UNL     1      21.740  24.467  23.320  1.00  0.00     0.288 C 
HETATM    5  O1  UNL     1      21.133  23.430  24.047  1.00  0.00    -0.353 OA
HETATM    6  C6  UNL     1      22.072  22.843  24.845  1.00  0.00     0.159 C 
HETATM    7  C20 UNL     1      22.475  23.693  26.000  1.00  0.00     0.179 C 
HETATM    8  C13 UNL     1      22.453  25.171  25.635  1.00  0.00     0.189 C 
HETATM    9  C9  UNL     1      22.582  25.379  24.142  1.00  0.00     0.204 C 
BRANCH   6  10
HETATM   10  C5  UNL     1      21.534  21.525  25.330  1.00  0.00     0.062 C 
BRANCH  10  11
HETATM   11  C4  UNL     1      20.844  21.677  26.611  1.00  0.00    -0.022 C 
HETATM   12  C2  UNL     1      20.435  20.599  27.281  1.00  0.00    -0.091 C 
HETATM   13  C1  UNL     1      20.689  19.259  26.710  1.00  0.00     0.042 C 
HETATM   14  C3  UNL     1      19.742  20.800  28.571  1.00  0.00     0.042 C 
ENDBRANCH  10  11
ENDBRANCH   6  10
BRANCH   7  15
HETATM   15  O8  UNL     1      23.771  23.333  26.367  1.00  0.00    -0.390 OA
ATOM     16  H8  UNL     1      23.851  23.448  27.306  1.00  0.00     0.210 HD
ENDBRANCH   7  15
BRANCH   8  17
HETATM   17  O3  UNL     1      21.242  25.631  26.128  1.00  0.00    -0.348 OA
BRANCH  17  18
HETATM   18  C14 UNL     1      21.306  26.376  27.275  1.00  0.00     0.292 C 
HETATM   19  O4  UNL     1      20.030  26.705  27.766  1.00  0.00    -0.351 OA
HETATM   20  C15 UNL     1      19.285  27.393  26.817  1.00  0.00     0.152 C 
HETATM   21  C16 UNL     1      18.161  28.105  27.536  1.00  0.00     0.042 C 
HETATM   22  C17 UNL     1      20.098  28.436  26.098  1.00  0.00     0.178 C 
HETATM   23  C18 UNL     1      21.307  28.832  26.897  1.00  0.00     0.183 C 
HETATM   24  C19 UNL     1      22.158  27.576  27.076  1.00  0.00     0.204 C 
BRANCH  22  25
HETATM   25  O5  UNL     1      19.344  29.533  25.718  1.00  0.00    -0.390 OA
ATOM     26  H5  UNL     1      19.773  30.061  25.056  1.00  0.00     0.210 HD
ENDBRANCH  22  25
BRANCH  23  27
HETATM   27  O6  UNL     1      20.948  29.344  28.141  1.00  0.00    -0.390 OA
ATOM     28  H6  UNL     1      21.698  29.712  28.595  1.00  0.00     0.210 HD
ENDBRANCH  23  27
BRANCH  24  29
HETATM   29  O7  UNL     1      22.961  27.746  28.213  1.00  0.00    -0.388 OA
ATOM     30  H7  UNL     1      23.484  26.963  28.333  1.00  0.00     0.210 HD
ENDBRANCH  24  29
ENDBRANCH  17  18
ENDBRANCH   8  17
BRANCH   9  31
HETATM   31  O2  UNL     1      22.224  26.685  23.902  1.00  0.00    -0.374 OA
BRANCH  31  32
HETATM   32  C10 UNL     1      23.089  27.509  23.279  1.00  0.00     0.114 C 
HETATM   33  C11 UNL     1      24.552  27.245  23.600  1.00  0.00     0.039 C 
HETATM   34  C12 UNL     1      22.894  28.986  23.534  1.00  0.00     0.039 C 
ENDBRANCH  31  32
ENDBRANCH   9  31
ENDBRANCH   1   4
BRANCH   1  35
HETATM   35  N3  UNL     1      21.844  22.664  21.669  1.00  0.00    -0.236 N 
HETATM   36  N4  UNL     1      22.190  22.232  20.532  1.00  0.00    -0.330 N 
ATOM     37  H42 UNL     1      22.844  22.787  19.980  1.00  0.00     0.178 HD
ATOM     38  H41 UNL     1      21.828  21.350  20.169  1.00  0.00     0.178 HD
ATOM     39  H3  UNL     1      21.191  22.121  22.234  1.00  0.00     0.208 HD
ENDBRANCH   1  35
TORSDOF 12
ENDMDL
MODEL 2
REMARK VINA RESULT: -8.337161390      1.417      2.139
REMARK  12 active torsions:
REMARK  status: ('A' for Active; 'I' for Inactive)
REMARK    1  A    between atoms: C4_4  and  C5_5 
REMARK    2  A    between atoms: C5_5  and  C6_6 
REMARK    3  A    between atoms: C7_8  and  N1_9 
REMARK    4  A    between atoms: N1_9  and  N3_12 
REMARK    5  A    between atoms: C9_17  and  O2_18 
REMARK    6  A    between atoms: O2_18  and  C10_19 
REMARK    7  A    between atoms: C13_22  and  O3_23 
REMARK    8  A    between atoms: O3_23  and  C14_24 
REMARK    9  A    between atoms: C17_28  and  O5_29 
REMARK   10  A    between atoms: C18_31  and  O6_32 
REMARK   11  A    between atoms: C19_34  and  O7_35 
REMARK   12  A    between atoms: C20_37  and  O8_38 
ROOT
HETATM    1  N1  UNL     1      22.348  24.270  22.412  1.00  0.00    -0.181 N 
HETATM    2  C8  UNL     1      23.437  24.923  21.811  1.00  0.00     0.204 C 
HETATM    3  N2  UNL     1      24.336  25.446  21.301  1.00  0.00    -0.170 NA
ENDROOT
BRANCH   1   4
HETATM    4  C7  UNL     1      21.680  24.661  23.604  1.00  0.00     0.288 C 
HETATM    5  O1  UNL     1      21.164  23.499  24.201  1.00  0.00    -0.353 OA
HETATM    6  C6  UNL     1      22.145  22.913  24.948  1.00  0.00     0.159 C 
HETATM    7  C20 UNL     1      22.457  23.663  26.198  1.00  0.00     0.179 C 
HETATM    8  C13 UNL     1      22.303  25.164  25.998  1.00  0.00     0.189 C 
HETATM    9  C9  UNL     1      22.426  25.548  24.539  1.00  0.00     0.204 C 
BRANCH   6  10
HETATM   10  C5  UNL     1      21.725  21.507  25.274  1.00  0.00     0.062 C 
BRANCH  10  11
HETATM   11  C4  UNL     1      21.028  21.449  26.559  1.00  0.00    -0.022 C 
HETATM   12  C2  UNL     1      20.573  20.284  27.020  1.00  0.00    -0.091 C 
HETATM   13  C1  UNL     1      20.783  19.061  26.215  1.00  0.00     0.042 C 
HETATM   14  C3  UNL     1      19.876  20.273  28.323  1.00  0.00     0.042 C 
ENDBRANCH  10  11
ENDBRANCH   6  10
BRANCH   7  15
HETATM   15  O8  UNL     1      23.776  23.382  26.548  1.00  0.00    -0.390 OA
ATOM     16  H8  UNL     1      23.854  23.473  27.490  1.00  0.00     0.210 HD
ENDBRANCH   7  15
BRANCH   8  17
HETATM   17  O3  UNL     1      21.049  25.455  26.514  1.00  0.00    -0.348 OA
BRANCH  17  18
HETATM   18  C14 UNL     1      21.034  26.142  27.698  1.00  0.00     0.292 C 
HETATM   19  O4  UNL     1      20.861  25.289  28.803  1.00  0.00    -0.351 OA
HETATM   20  C15 UNL     1      19.691  24.549  28.691  1.00  0.00     0.152 C 
HETATM   21  C16 UNL     1      19.333  24.035  30.067  1.00  0.00     0.042 C 
HETATM   22  C17 UNL     1      18.534  25.377  28.199  1.00  0.00     0.178 C 
HETATM   23  C18 UNL     1      18.769  26.841  28.443  1.00  0.00     0.183 C 
HETATM   24  C19 UNL     1      20.024  27.230  27.663  1.00  0.00     0.204 C 
BRANCH  22  25
HETATM   25  O5  UNL     1      17.320  24.954  28.711  1.00  0.00    -0.390 OA
ATOM     26  H5  UNL     1      16.584  25.441  28.359  1.00  0.00     0.210 HD
ENDBRANCH  22  25
BRANCH  23  27
HETATM   27  O6  UNL     1      18.949  27.109  29.797  1.00  0.00    -0.390 OA
ATOM     28  H6  UNL     1      19.794  27.512  29.962  1.00  0.00     0.210 HD
ENDBRANCH  23  27
BRANCH  24  29
HETATM   29  O7  UNL     1      20.577  28.372  28.259  1.00  0.00    -0.388 OA
ATOM     30  H7  UNL     1      20.910  28.939  27.574  1.00  0.00     0.210 HD
ENDBRANCH  24  29
ENDBRANCH  17  18
ENDBRANCH   8  17
BRANCH   9  31
HETATM   31  O2  UNL     1      21.953  26.835  24.438  1.00  0.00    -0.374 OA
BRANCH  31  32
HETATM   32  C10 UNL     1      22.815  27.869  24.494  1.00  0.00     0.114 C 
HETATM   33  C11 UNL     1      22.289  29.087  25.236  1.00  0.00     0.039 C 
HETATM   34  C12 UNL     1      23.297  28.400  23.164  1.00  0.00     0.039 C 
ENDBRANCH  31  32
ENDBRANCH   9  31
ENDBRANCH   1   4
BRANCH   1  35
HETATM   35  N3  UNL     1      21.886  23.138  21.701  1.00  0.00    -0.236 N 
HETATM   36  N4  UNL     1      20.739  23.123  21.168  1.00  0.00    -0.330 N 
ATOM     37  H42 UNL     1      20.149  23.950  21.261  1.00  0.00     0.178 HD
ATOM     38  H41 UNL     1      20.405  22.306  20.656  1.00  0.00     0.178 HD
ATOM     39  H3  UNL     1      22.488  22.319  21.618  1.00  0.00     0.208 HD
ENDBRANCH   1  35
TORSDOF 12
ENDMDL
MODEL 3
REMARK VINA RESULT: -8.150099140      1.439      2.334
REMARK  12 active torsions:
REMARK  status: ('A' for Active; 'I' for Inactive)
REMARK    1  A    between atoms: C4_4  and  C5_5 
REMARK    2  A    between atoms: C5_5  and  C6_6 
REMARK    3  A    between atoms: C7_8  and  N1_9 
REMARK    4  A    between atoms: N1_9  and  N3_12 
REMARK    5  A    between atoms: C9_17  and  O2_18 
REMARK    6  A    between atoms: O2_18  and  C10_19 
REMARK    7  A    between atoms: C13_22  and  O3_23 
REMARK    8  A    between atoms: O3_23  and  C14_24 
REMARK    9  A    between atoms: C17_28  and  O5_29 
REMARK   10  A    between atoms: C18_31  and  O6_32 
REMARK   11  A    between atoms: C19_34  and  O7_35 
REMARK   12  A    between atoms: C20_37  and  O8_38 
ROOT
HETATM    1  N1  UNL     1      22.620  24.488  22.367  1.00  0.00    -0.181 N 
HETATM    2  C8  UNL     1      22.253  23.592  21.349  1.00  0.00     0.204 C 
HETATM    3  N2  UNL     1      21.968  22.859  20.499  1.00  0.00    -0.170 NA
ENDROOT
BRANCH   1   4
HETATM    4  C7  UNL     1      21.857  24.817  23.521  1.00  0.00     0.288 C 
HETATM    5  O1  UNL     1      21.322  23.623  24.030  1.00  0.00    -0.353 OA
HETATM    6  C6  UNL     1      22.257  23.024  24.825  1.00  0.00     0.159 C 
HETATM    7  C20 UNL     1      22.460  23.727  26.123  1.00  0.00     0.179 C 
HETATM    8  C13 UNL     1      22.290  25.232  25.972  1.00  0.00     0.189 C 
HETATM    9  C9  UNL     1      22.514  25.678  24.543  1.00  0.00     0.204 C 
BRANCH   6  10
HETATM   10  C5  UNL     1      21.843  21.598  25.062  1.00  0.00     0.062 C 
BRANCH  10  11
HETATM   11  C4  UNL     1      21.135  21.460  26.334  1.00  0.00    -0.022 C 
HETATM   12  C2  UNL     1      20.728  20.258  26.745  1.00  0.00    -0.091 C 
HETATM   13  C1  UNL     1      21.003  19.078  25.897  1.00  0.00     0.042 C 
HETATM   14  C3  UNL     1      20.016  20.166  28.037  1.00  0.00     0.042 C 
ENDBRANCH  10  11
ENDBRANCH   6  10
BRANCH   7  15
HETATM   15  O8  UNL     1      23.755  23.455  26.560  1.00  0.00    -0.390 OA
ATOM     16  H8  UNL     1      23.694  23.021  27.403  1.00  0.00     0.210 HD
ENDBRANCH   7  15
BRANCH   8  17
HETATM   17  O3  UNL     1      20.996  25.480  26.404  1.00  0.00    -0.348 OA
BRANCH  17  18
HETATM   18  C14 UNL     1      20.878  26.093  27.622  1.00  0.00     0.292 C 
HETATM   19  O4  UNL     1      20.544  25.186  28.642  1.00  0.00    -0.351 OA
HETATM   20  C15 UNL     1      19.362  24.515  28.354  1.00  0.00     0.152 C 
HETATM   21  C16 UNL     1      18.829  23.938  29.647  1.00  0.00     0.042 C 
HETATM   22  C17 UNL     1      18.306  25.430  27.794  1.00  0.00     0.178 C 
HETATM   23  C18 UNL     1      18.577  26.862  28.158  1.00  0.00     0.183 C 
HETATM   24  C19 UNL     1      19.928  27.232  27.547  1.00  0.00     0.204 C 
BRANCH  22  25
HETATM   25  O5  UNL     1      17.024  25.039  28.141  1.00  0.00    -0.390 OA
ATOM     26  H5  UNL     1      16.385  25.733  28.022  1.00  0.00     0.210 HD
ENDBRANCH  22  25
BRANCH  23  27
HETATM   27  O6  UNL     1      18.615  27.038  29.539  1.00  0.00    -0.390 OA
ATOM     28  H6  UNL     1      18.844  27.931  29.769  1.00  0.00     0.210 HD
ENDBRANCH  23  27
BRANCH  24  29
HETATM   29  O7  UNL     1      20.460  28.306  28.275  1.00  0.00    -0.388 OA
ATOM     30  H7  UNL     1      20.704  28.992  27.665  1.00  0.00     0.210 HD
ENDBRANCH  24  29
ENDBRANCH  17  18
ENDBRANCH   8  17
BRANCH   9  31
HETATM   31  O2  UNL     1      22.023  26.959  24.458  1.00  0.00    -0.374 OA
BRANCH  31  32
HETATM   32  C10 UNL     1      22.868  28.005  24.548  1.00  0.00     0.114 C 
HETATM   33  C11 UNL     1      22.301  29.211  25.280  1.00  0.00     0.039 C 
HETATM   34  C12 UNL     1      23.384  28.552  23.237  1.00  0.00     0.039 C 
ENDBRANCH  31  32
ENDBRANCH   9  31
ENDBRANCH   1   4
BRANCH   1  35
HETATM   35  N3  UNL     1      23.901  25.065  22.199  1.00  0.00    -0.236 N 
HETATM   36  N4  UNL     1      24.491  25.034  21.081  1.00  0.00    -0.330 N 
ATOM     37  H42 UNL     1      24.022  24.582  20.296  1.00  0.00     0.178 HD
ATOM     38  H41 UNL     1      25.415  25.450  20.960  1.00  0.00     0.178 HD
ATOM     39  H3  UNL     1      24.356  25.513  22.994  1.00  0.00     0.208 HD
ENDBRANCH   1  35
TORSDOF 12
ENDMDL
MODEL 4
REMARK VINA RESULT: -8.046698969      1.055      1.547
REMARK  12 active torsions:
REMARK  status: ('A' for Active; 'I' for Inactive)
REMARK    1  A    between atoms: C4_4  and  C5_5 
REMARK    2  A    between atoms: C5_5  and  C6_6 
REMARK    3  A    between atoms: C7_8  and  N1_9 
REMARK    4  A    between atoms: N1_9  and  N3_12 
REMARK    5  A    between atoms: C9_17  and  O2_18 
REMARK    6  A    between atoms: O2_18  and  C10_19 
REMARK    7  A    between atoms: C13_22  and  O3_23 
REMARK    8  A    between atoms: O3_23  and  C14_24 
REMARK    9  A    between atoms: C17_28  and  O5_29 
REMARK   10  A    between atoms: C18_31  and  O6_32 
REMARK   11  A    between atoms: C19_34  and  O7_35 
REMARK   12  A    between atoms: C20_37  and  O8_38 
ROOT
HETATM    1  N1  UNL     1      22.281  23.967  22.487  1.00  0.00    -0.181 N 
HETATM    2  C8  UNL     1      23.277  24.413  21.603  1.00  0.00     0.204 C 
HETATM    3  N2  UNL     1      24.097  24.761  20.863  1.00  0.00    -0.170 NA
ENDROOT
BRANCH   1   4
HETATM    4  C7  UNL     1      21.735  24.691  23.582  1.00  0.00     0.288 C 
HETATM    5  O1  UNL     1      21.099  23.767  24.426  1.00  0.00    -0.353 OA
HETATM    6  C6  UNL     1      22.030  23.218  25.260  1.00  0.00     0.159 C 
HETATM    7  C20 UNL     1      22.505  24.161  26.311  1.00  0.00     0.179 C 
HETATM    8  C13 UNL     1      22.544  25.593  25.795  1.00  0.00     0.189 C 
HETATM    9  C9  UNL     1      22.642  25.639  24.286  1.00  0.00     0.204 C 
BRANCH   6  10
HETATM   10  C5  UNL     1      21.443  21.986  25.892  1.00  0.00     0.062 C 
BRANCH  10  11
HETATM   11  C4  UNL     1      21.693  20.802  25.070  1.00  0.00    -0.022 C 
HETATM   12  C2  UNL     1      21.301  19.600  25.493  1.00  0.00    -0.091 C 
HETATM   13  C1  UNL     1      20.614  19.487  26.798  1.00  0.00     0.042 C 
HETATM   14  C3  UNL     1      21.575  18.433  24.630  1.00  0.00     0.042 C 
ENDBRANCH  10  11
ENDBRANCH   6  10
BRANCH   7  15
HETATM   15  O8  UNL     1      23.792  23.775  26.684  1.00  0.00    -0.390 OA
ATOM     16  H8  UNL     1      23.731  23.328  27.520  1.00  0.00     0.210 HD
ENDBRANCH   7  15
BRANCH   8  17
HETATM   17  O3  UNL     1      21.370  26.162  26.264  1.00  0.00    -0.348 OA
BRANCH  17  18
HETATM   18  C14 UNL     1      21.484  26.922  27.397  1.00  0.00     0.292 C 
HETATM   19  O4  UNL     1      20.620  26.486  28.418  1.00  0.00    -0.351 OA
HETATM   20  C15 UNL     1      19.297  26.493  27.996  1.00  0.00     0.152 C 
HETATM   21  C16 UNL     1      18.418  26.479  29.226  1.00  0.00     0.042 C 
HETATM   22  C17 UNL     1      18.954  27.727  27.206  1.00  0.00     0.178 C 
HETATM   23  C18 UNL     1      19.914  28.845  27.497  1.00  0.00     0.183 C 
HETATM   24  C19 UNL     1      21.304  28.362  27.085  1.00  0.00     0.204 C 
BRANCH  22  25
HETATM   25  O5  UNL     1      17.636  28.117  27.371  1.00  0.00    -0.390 OA
ATOM     26  H5  UNL     1      17.531  29.062  27.367  1.00  0.00     0.210 HD
ENDBRANCH  22  25
BRANCH  23  27
HETATM   27  O6  UNL     1      19.909  29.181  28.849  1.00  0.00    -0.390 OA
ATOM     28  H6  UNL     1      20.486  29.914  29.027  1.00  0.00     0.210 HD
ENDBRANCH  23  27
BRANCH  24  29
HETATM   29  O7  UNL     1      22.257  29.098  27.804  1.00  0.00    -0.388 OA
ATOM     30  H7  UNL     1      22.679  29.707  27.210  1.00  0.00     0.210 HD
ENDBRANCH  24  29
ENDBRANCH  17  18
ENDBRANCH   8  17
BRANCH   9  31
HETATM   31  O2  UNL     1      22.341  26.930  23.920  1.00  0.00    -0.374 OA
BRANCH  31  32
HETATM   32  C10 UNL     1      23.311  27.865  23.916  1.00  0.00     0.114 C 
HETATM   33  C11 UNL     1      22.945  29.148  23.185  1.00  0.00     0.039 C 
HETATM   34  C12 UNL     1      24.634  27.442  23.323  1.00  0.00     0.039 C 
ENDBRANCH  31  32
ENDBRANCH   9  31
ENDBRANCH   1   4
BRANCH   1  35
HETATM   35  N3  UNL     1      21.779  22.677  22.195  1.00  0.00    -0.236 N 
HETATM   36  N4  UNL     1      21.750  22.239  21.009  1.00  0.00    -0.330 N 
ATOM     37  H42 UNL     1      22.098  22.839  20.261  1.00  0.00     0.178 HD
ATOM     38  H41 UNL     1      21.389  21.308  20.797  1.00  0.00     0.178 HD
ATOM     39  H3  UNL     1      21.435  22.089  22.954  1.00  0.00     0.208 HD
ENDBRANCH   1  35
TORSDOF 12
ENDMDL
MODEL 5
REMARK VINA RESULT: -7.871108479      2.006      2.694
REMARK  12 active torsions:
REMARK  status: ('A' for Active; 'I' for Inactive)
REMARK    1  A    between atoms: C4_4  and  C5_5 
REMARK    2  A    between atoms: C5_5  and  C6_6 
REMARK    3  A    between atoms: C7_8  and  N1_9 
REMARK    4  A    between atoms: N1_9  and  N3_12 
REMARK    5  A    between atoms: C9_17  and  O2_18 
REMARK    6  A    between atoms: O2_18  and  C10_19 
REMARK    7  A    between atoms: C13_22  and  O3_23 
REMARK    8  A    between atoms: O3_23  and  C14_24 
REMARK    9  A    between atoms: C17_28  and  O5_29 
REMARK   10  A    between atoms: C18_31  and  O6_32 
REMARK   11  A    between atoms: C19_34  and  O7_35 
REMARK   12  A    between atoms: C20_37  and  O8_38 
ROOT
HETATM    1  N1  UNL     1      22.388  24.433  22.449  1.00  0.00    -0.181 N 
HETATM    2  C8  UNL     1      23.462  25.232  22.023  1.00  0.00     0.204 C 
HETATM    3  N2  UNL     1      24.350  25.877  21.655  1.00  0.00    -0.170 NA
ENDROOT
BRANCH   1   4
HETATM    4  C7  UNL     1      21.620  24.607  23.632  1.00  0.00     0.288 C 
HETATM    5  O1  UNL     1      21.223  23.334  24.071  1.00  0.00    -0.353 OA
HETATM    6  C6  UNL     1      22.232  22.788  24.812  1.00  0.00     0.159 C 
HETATM    7  C20 UNL     1      22.389  23.426  26.150  1.00  0.00     0.179 C 
HETATM    8  C13 UNL     1      22.060  24.911  26.099  1.00  0.00     0.189 C 
HETATM    9  C9  UNL     1      22.206  25.467  24.698  1.00  0.00     0.204 C 
BRANCH   6  10
HETATM   10  C5  UNL     1      21.974  21.315  24.963  1.00  0.00     0.062 C 
BRANCH  10  11
HETATM   11  C4  UNL     1      21.305  21.024  26.231  1.00  0.00    -0.022 C 
HETATM   12  C2  UNL     1      20.878  19.788  26.494  1.00  0.00    -0.091 C 
HETATM   13  C1  UNL     1      21.091  18.726  25.486  1.00  0.00     0.042 C 
HETATM   14  C3  UNL     1      20.208  19.541  27.787  1.00  0.00     0.042 C 
ENDBRANCH  10  11
ENDBRANCH   6  10
BRANCH   7  15
HETATM   15  O8  UNL     1      23.715  23.265  26.549  1.00  0.00    -0.390 OA
ATOM     16  H8  UNL     1      24.261  23.769  25.958  1.00  0.00     0.210 HD
ENDBRANCH   7  15
BRANCH   8  17
HETATM   17  O3  UNL     1      20.757  24.994  26.565  1.00  0.00    -0.348 OA
BRANCH  17  18
HETATM   18  C14 UNL     1      20.390  24.052  27.488  1.00  0.00     0.292 C 
HETATM   19  O4  UNL     1      19.129  23.497  27.206  1.00  0.00    -0.351 OA
HETATM   20  C15 UNL     1      18.148  24.479  27.143  1.00  0.00     0.152 C 
HETATM   21  C16 UNL     1      16.806  23.804  27.310  1.00  0.00     0.042 C 
HETATM   22  C17 UNL     1      18.286  25.498  28.242  1.00  0.00     0.178 C 
HETATM   23  C18 UNL     1      19.077  24.951  29.396  1.00  0.00     0.183 C 
HETATM   24  C19 UNL     1      20.467  24.606  28.863  1.00  0.00     0.204 C 
BRANCH  22  25
HETATM   25  O5  UNL     1      17.067  26.015  28.646  1.00  0.00    -0.390 OA
ATOM     26  H5  UNL     1      16.841  26.817  28.191  1.00  0.00     0.210 HD
ENDBRANCH  22  25
BRANCH  23  27
HETATM   27  O6  UNL     1      18.477  23.815  29.932  1.00  0.00    -0.390 OA
ATOM     28  H6  UNL     1      19.115  23.254  30.358  1.00  0.00     0.210 HD
ENDBRANCH  23  27
BRANCH  24  29
HETATM   29  O7  UNL     1      21.032  23.636  29.704  1.00  0.00    -0.388 OA
ATOM     30  H7  UNL     1      20.591  23.671  30.545  1.00  0.00     0.210 HD
ENDBRANCH  24  29
ENDBRANCH  17  18
ENDBRANCH   8  17
BRANCH   9  31
HETATM   31  O2  UNL     1      21.582  26.692  24.703  1.00  0.00    -0.374 OA
BRANCH  31  32
HETATM   32  C10 UNL     1      22.285  27.796  25.026  1.00  0.00     0.114 C 
HETATM   33  C11 UNL     1      21.466  28.887  25.699  1.00  0.00     0.039 C 
HETATM   34  C12 UNL     1      22.992  28.487  23.884  1.00  0.00     0.039 C 
ENDBRANCH  31  32
ENDBRANCH   9  31
ENDBRANCH   1   4
BRANCH   1  35
HETATM   35  N3  UNL     1      22.054  23.385  21.558  1.00  0.00    -0.236 N 
HETATM   36  N4  UNL     1      20.909  23.318  21.026  1.00  0.00    -0.330 N 
ATOM     37  H42 UNL     1      20.225  24.040  21.254  1.00  0.00     0.178 HD
ATOM     38  H41 UNL     1      20.668  22.563  20.384  1.00  0.00     0.178 HD
ATOM     39  H3  UNL     1      22.750  22.672  21.341  1.00  0.00     0.208 HD
ENDBRANCH   1  35
TORSDOF 12
ENDMDL
