MODEL 1
REMARK VINA RESULT: -8.131137502      0.000      0.000
REMARK  13 active torsions:
REMARK  status: ('A' for Active; 'I' for Inactive)
REMARK    1  A    between atoms: O1_1  and  C1_3 
REMARK    2  A    between atoms: C1_3  and  C2_4 
REMARK    3  A    between atoms: C3_6  and  O3_7 
REMARK    4  A    between atoms: O3_7  and  C4_8 
REMARK    5  A    between atoms: C4_8  and  C5_9 
REMARK    6  A    between atoms: C6_11  and  O5_12 
REMARK    7  A    between atoms: O5_12  and  C7_13 
REMARK    8  A    between atoms: C7_13  and  C8_14 
REMARK    9  A    between atoms: C18_24  and  O6_25 
REMARK   10  A    between atoms: C19_27  and  O7_28 
REMARK   11  A    between atoms: C20_30  and  O8_31 
REMARK   12  A    between atoms: C21_33  and  O9_34 
REMARK   13  A    between atoms: C22_36  and  O10_37 
ROOT
HETATM    1  C5  UNL     1      22.737  27.951  26.455  1.00  0.00     0.180 C 
HETATM    2  O4  UNL     1      22.428  28.241  25.167  1.00  0.00    -0.348 OA
HETATM    3  C6  UNL     1      23.328  28.138  24.176  1.00  0.00     0.291 C 
HETATM    4  C18 UNL     1      24.764  28.373  24.570  1.00  0.00     0.204 C 
HETATM    5  C19 UNL     1      25.061  27.378  25.705  1.00  0.00     0.183 C 
HETATM    6  C20 UNL     1      24.164  27.846  26.832  1.00  0.00     0.180 C 
ENDROOT
BRANCH   1   7
HETATM    7  C4  UNL     1      21.786  26.973  27.107  1.00  0.00     0.205 C 
BRANCH   7   8
HETATM    8  O3  UNL     1      21.981  25.675  27.031  1.00  0.00    -0.356 OA
BRANCH   8   9
HETATM    9  C3  UNL     1      21.772  24.833  26.040  1.00  0.00     0.291 C 
HETATM   10  O2  UNL     1      22.702  24.939  24.978  1.00  0.00    -0.348 OA
HETATM   11  C2  UNL     1      22.299  23.923  24.132  1.00  0.00     0.179 C 
HETATM   12  C22 UNL     1      21.784  22.776  24.997  1.00  0.00     0.182 C 
HETATM   13  C21 UNL     1      22.068  23.358  26.392  1.00  0.00     0.204 C 
BRANCH  11  14
HETATM   14  C1  UNL     1      21.210  24.341  23.159  1.00  0.00     0.198 C 
BRANCH  14  15
HETATM   15  O1  UNL     1      21.194  23.491  22.043  1.00  0.00    -0.398 OA
ATOM     16  H1  UNL     1      20.302  23.248  21.822  1.00  0.00     0.209 HD
ENDBRANCH  14  15
ENDBRANCH  11  14
BRANCH  12  17
HETATM   17  O10 UNL     1      22.470  21.609  24.775  1.00  0.00    -0.390 OA
ATOM     18  H10 UNL     1      21.901  20.908  24.480  1.00  0.00     0.210 HD
ENDBRANCH  12  17
BRANCH  13  19
HETATM   19  O9  UNL     1      23.414  23.238  26.629  1.00  0.00    -0.388 OA
ATOM     20  H9  UNL     1      23.529  22.851  27.488  1.00  0.00     0.210 HD
ENDBRANCH  13  19
ENDBRANCH   8   9
ENDBRANCH   7   8
ENDBRANCH   1   7
BRANCH   6  21
HETATM   21  O8  UNL     1      24.403  27.189  27.997  1.00  0.00    -0.390 OA
ATOM     22  H8  UNL     1      25.302  27.231  28.305  1.00  0.00     0.210 HD
ENDBRANCH   6  21
BRANCH   3  23
HETATM   23  O5  UNL     1      23.048  29.130  23.214  1.00  0.00    -0.358 OA
BRANCH  23  24
HETATM   24  C7  UNL     1      22.603  30.297  23.797  1.00  0.00     0.180 C 
BRANCH  24  25
HETATM   25  C8  UNL     1      21.757  31.131  22.888  1.00  0.00    -0.018 C 
HETATM   26  C9  UNL     1      20.307  31.029  23.316  1.00  0.00     0.016 C 
HETATM   27  C10 UNL     1      19.401  31.720  22.318  1.00  0.00    -0.013 C 
HETATM   28  C11 UNL     1      19.590  31.169  20.920  1.00  0.00     0.009 C 
HETATM   29  C15 UNL     1      19.781  33.189  22.262  1.00  0.00     0.009 C 
HETATM   30  C12 UNL     1      21.027  31.307  20.518  1.00  0.00    -0.013 C 
HETATM   31  C13 UNL     1      21.411  32.768  20.506  1.00  0.00     0.009 C 
HETATM   32  C17 UNL     1      21.886  30.545  21.486  1.00  0.00     0.016 C 
HETATM   33  C14 UNL     1      21.248  33.309  21.913  1.00  0.00    -0.013 C 
HETATM   34  C16 UNL     1      22.129  32.586  22.897  1.00  0.00     0.016 C 
ENDBRANCH  24  25
ENDBRANCH  23  24
ENDBRANCH   3  23
BRANCH   5  35
HETATM   35  O7  UNL     1      26.370  27.444  26.115  1.00  0.00    -0.390 OA
ATOM     36  H7  UNL     1      26.819  26.615  26.003  1.00  0.00     0.210 HD
ENDBRANCH   5  35
BRANCH   4  37
HETATM   37  O6  UNL     1      25.623  28.191  23.515  1.00  0.00    -0.388 OA
ATOM     38  H6  UNL     1      26.429  28.681  23.624  1.00  0.00     0.210 HD
ENDBRANCH   4  37
TORSDOF 13
ENDMDL
MODEL 2
REMARK VINA RESULT: -8.096389720      0.206      1.335
REMARK  13 active torsions:
REMARK  status: ('A' for Active; 'I' for Inactive)
REMARK    1  A    between atoms: O1_1  and  C1_3 
REMARK    2  A    between atoms: C1_3  and  C2_4 
REMARK    3  A    between atoms: C3_6  and  O3_7 
REMARK    4  A    between atoms: O3_7  and  C4_8 
REMARK    5  A    between atoms: C4_8  and  C5_9 
REMARK    6  A    between atoms: C6_11  and  O5_12 
REMARK    7  A    between atoms: O5_12  and  C7_13 
REMARK    8  A    between atoms: C7_13  and  C8_14 
REMARK    9  A    between atoms: C18_24  and  O6_25 
REMARK   10  A    between atoms: C19_27  and  O7_28 
REMARK   11  A    between atoms: C20_30  and  O8_31 
REMARK   12  A    between atoms: C21_33  and  O9_34 
REMARK   13  A    between atoms: C22_36  and  O10_37 
ROOT
HETATM    1  C5  UNL     1      22.745  27.909  26.456  1.00  0.00     0.180 C 
HETATM    2  O4  UNL     1      22.415  28.153  25.164  1.00  0.00    -0.348 OA
HETATM    3  C6  UNL     1      23.306  28.043  24.166  1.00  0.00     0.291 C 
HETATM    4  C18 UNL     1      24.740  28.325  24.536  1.00  0.00     0.204 C 
HETATM    5  C19 UNL     1      25.075  27.373  25.697  1.00  0.00     0.183 C 
HETATM    6  C20 UNL     1      24.179  27.852  26.820  1.00  0.00     0.180 C 
ENDROOT
BRANCH   1   7
HETATM    7  C4  UNL     1      21.827  26.928  27.148  1.00  0.00     0.205 C 
BRANCH   7   8
HETATM    8  O3  UNL     1      22.022  25.630  27.061  1.00  0.00    -0.356 OA
BRANCH   8   9
HETATM    9  C3  UNL     1      21.802  24.795  26.067  1.00  0.00     0.291 C 
HETATM   10  O2  UNL     1      22.734  24.893  25.006  1.00  0.00    -0.348 OA
HETATM   11  C2  UNL     1      22.319  23.886  24.155  1.00  0.00     0.179 C 
HETATM   12  C22 UNL     1      21.789  22.742  25.016  1.00  0.00     0.182 C 
HETATM   13  C21 UNL     1      22.080  23.314  26.412  1.00  0.00     0.204 C 
BRANCH  11  14
HETATM   14  C1  UNL     1      21.236  24.322  23.184  1.00  0.00     0.198 C 
BRANCH  14  15
HETATM   15  O1  UNL     1      21.224  23.490  22.054  1.00  0.00    -0.398 OA
ATOM     16  H1  UNL     1      20.439  23.637  21.539  1.00  0.00     0.209 HD
ENDBRANCH  14  15
ENDBRANCH  11  14
BRANCH  12  17
HETATM   17  O10 UNL     1      22.461  21.568  24.789  1.00  0.00    -0.390 OA
ATOM     18  H10 UNL     1      22.119  20.852  25.312  1.00  0.00     0.210 HD
ENDBRANCH  12  17
BRANCH  13  19
HETATM   19  O9  UNL     1      23.424  23.177  26.650  1.00  0.00    -0.388 OA
ATOM     20  H9  UNL     1      23.533  22.643  27.428  1.00  0.00     0.210 HD
ENDBRANCH  13  19
ENDBRANCH   8   9
ENDBRANCH   7   8
ENDBRANCH   1   7
BRANCH   6  21
HETATM   21  O8  UNL     1      24.448  27.236  28.001  1.00  0.00    -0.390 OA
ATOM     22  H8  UNL     1      25.336  26.910  28.091  1.00  0.00     0.210 HD
ENDBRANCH   6  21
BRANCH   3  23
HETATM   23  O5  UNL     1      22.991  28.998  23.179  1.00  0.00    -0.358 OA
BRANCH  23  24
HETATM   24  C7  UNL     1      22.700  30.228  23.731  1.00  0.00     0.180 C 
BRANCH  24  25
HETATM   25  C8  UNL     1      21.793  31.061  22.883  1.00  0.00    -0.018 C 
HETATM   26  C9  UNL     1      22.268  32.499  22.900  1.00  0.00     0.016 C 
HETATM   27  C10 UNL     1      21.278  33.403  22.194  1.00  0.00    -0.013 C 
HETATM   28  C11 UNL     1      19.893  33.287  22.795  1.00  0.00     0.009 C 
HETATM   29  C15 UNL     1      21.164  32.952  20.748  1.00  0.00     0.009 C 
HETATM   30  C12 UNL     1      19.442  31.858  22.741  1.00  0.00    -0.013 C 
HETATM   31  C13 UNL     1      19.372  31.403  21.303  1.00  0.00     0.009 C 
HETATM   32  C17 UNL     1      20.406  31.007  23.516  1.00  0.00     0.016 C 
HETATM   33  C14 UNL     1      20.766  31.494  20.712  1.00  0.00    -0.013 C 
HETATM   34  C16 UNL     1      21.744  30.618  21.449  1.00  0.00     0.016 C 
ENDBRANCH  24  25
ENDBRANCH  23  24
ENDBRANCH   3  23
BRANCH   5  35
HETATM   35  O7  UNL     1      26.386  27.484  26.088  1.00  0.00    -0.390 OA
ATOM     36  H7  UNL     1      26.908  26.749  25.791  1.00  0.00     0.210 HD
ENDBRANCH   5  35
BRANCH   4  37
HETATM   37  O6  UNL     1      25.591  28.134  23.477  1.00  0.00    -0.388 OA
ATOM     38  H6  UNL     1      25.472  28.791  22.802  1.00  0.00     0.210 HD
ENDBRANCH   4  37
TORSDOF 13
ENDMDL
MODEL 3
REMARK VINA RESULT: -8.023347641      1.233      1.561
REMARK  13 active torsions:
REMARK  status: ('A' for Active; 'I' for Inactive)
REMARK    1  A    between atoms: O1_1  and  C1_3 
REMARK    2  A    between atoms: C1_3  and  C2_4 
REMARK    3  A    between atoms: C3_6  and  O3_7 
REMARK    4  A    between atoms: O3_7  and  C4_8 
REMARK    5  A    between atoms: C4_8  and  C5_9 
REMARK    6  A    between atoms: C6_11  and  O5_12 
REMARK    7  A    between atoms: O5_12  and  C7_13 
REMARK    8  A    between atoms: C7_13  and  C8_14 
REMARK    9  A    between atoms: C18_24  and  O6_25 
REMARK   10  A    between atoms: C19_27  and  O7_28 
REMARK   11  A    between atoms: C20_30  and  O8_31 
REMARK   12  A    between atoms: C21_33  and  O9_34 
REMARK   13  A    between atoms: C22_36  and  O10_37 
ROOT
HETATM    1  C5  UNL     1      22.866  28.346  26.701  1.00  0.00     0.180 C 
HETATM    2  O4  UNL     1      22.421  28.502  25.429  1.00  0.00    -0.348 OA
HETATM    3  C6  UNL     1      23.179  28.192  24.365  1.00  0.00     0.291 C 
HETATM    4  C18 UNL     1      24.667  28.339  24.557  1.00  0.00     0.204 C 
HETATM    5  C19 UNL     1      25.026  27.470  25.775  1.00  0.00     0.183 C 
HETATM    6  C20 UNL     1      24.316  28.156  26.923  1.00  0.00     0.180 C 
ENDROOT
BRANCH   1   7
HETATM    7  C4  UNL     1      21.931  27.551  27.583  1.00  0.00     0.205 C 
BRANCH   7   8
HETATM    8  O3  UNL     1      22.264  26.362  28.036  1.00  0.00    -0.356 OA
BRANCH   8   9
HETATM    9  C3  UNL     1      21.856  25.163  27.679  1.00  0.00     0.291 C 
HETATM   10  O2  UNL     1      21.026  25.147  26.533  1.00  0.00    -0.348 OA
HETATM   11  C2  UNL     1      20.806  23.795  26.347  1.00  0.00     0.179 C 
HETATM   12  C22 UNL     1      22.077  23.058  26.761  1.00  0.00     0.182 C 
HETATM   13  C21 UNL     1      22.971  24.260  27.105  1.00  0.00     0.204 C 
BRANCH  11  14
HETATM   14  C1  UNL     1      19.633  23.256  27.147  1.00  0.00     0.198 C 
BRANCH  14  15
HETATM   15  O1  UNL     1      18.446  23.907  26.781  1.00  0.00    -0.398 OA
ATOM     16  H1  UNL     1      17.942  23.371  26.179  1.00  0.00     0.209 HD
ENDBRANCH  14  15
ENDBRANCH  11  14
BRANCH  12  17
HETATM   17  O10 UNL     1      22.596  22.303  25.741  1.00  0.00    -0.390 OA
ATOM     18  H10 UNL     1      22.895  22.838  25.015  1.00  0.00     0.210 HD
ENDBRANCH  12  17
BRANCH  13  19
HETATM   19  O9  UNL     1      23.401  24.813  25.925  1.00  0.00    -0.388 OA
ATOM     20  H9  UNL     1      24.320  24.601  25.817  1.00  0.00     0.210 HD
ENDBRANCH  13  19
ENDBRANCH   8   9
ENDBRANCH   7   8
ENDBRANCH   1   7
BRANCH   6  21
HETATM   21  O8  UNL     1      24.648  27.630  28.131  1.00  0.00    -0.390 OA
ATOM     22  H8  UNL     1      25.419  27.074  28.129  1.00  0.00     0.210 HD
ENDBRANCH   6  21
BRANCH   3  23
HETATM   23  O5  UNL     1      22.859  29.078  23.317  1.00  0.00    -0.358 OA
BRANCH  23  24
HETATM   24  C7  UNL     1      22.620  30.355  23.780  1.00  0.00     0.180 C 
BRANCH  24  25
HETATM   25  C8  UNL     1      21.760  31.169  22.866  1.00  0.00    -0.018 C 
HETATM   26  C9  UNL     1      20.316  31.068  23.312  1.00  0.00     0.016 C 
HETATM   27  C10 UNL     1      19.395  31.737  22.312  1.00  0.00    -0.013 C 
HETATM   28  C11 UNL     1      19.571  31.163  20.922  1.00  0.00     0.009 C 
HETATM   29  C15 UNL     1      19.769  33.207  22.226  1.00  0.00     0.009 C 
HETATM   30  C12 UNL     1      21.003  31.300  20.501  1.00  0.00    -0.013 C 
HETATM   31  C13 UNL     1      21.381  32.762  20.459  1.00  0.00     0.009 C 
HETATM   32  C17 UNL     1      21.876  30.559  21.473  1.00  0.00     0.016 C 
HETATM   33  C14 UNL     1      21.231  33.327  21.858  1.00  0.00    -0.013 C 
HETATM   34  C16 UNL     1      22.126  32.625  22.845  1.00  0.00     0.016 C 
ENDBRANCH  24  25
ENDBRANCH  23  24
ENDBRANCH   3  23
BRANCH   5  35
HETATM   35  O7  UNL     1      26.377  27.464  26.019  1.00  0.00    -0.390 OA
ATOM     36  H7  UNL     1      26.806  26.718  25.617  1.00  0.00     0.210 HD
ENDBRANCH   5  35
BRANCH   4  37
HETATM   37  O6  UNL     1      25.370  27.948  23.445  1.00  0.00    -0.388 OA
ATOM     38  H6  UNL     1      26.300  27.871  23.620  1.00  0.00     0.210 HD
ENDBRANCH   4  37
TORSDOF 13
ENDMDL
MODEL 4
REMARK VINA RESULT: -7.994399253      0.990      1.275
REMARK  13 active torsions:
REMARK  status: ('A' for Active; 'I' for Inactive)
REMARK    1  A    between atoms: O1_1  and  C1_3 
REMARK    2  A    between atoms: C1_3  and  C2_4 
REMARK    3  A    between atoms: C3_6  and  O3_7 
REMARK    4  A    between atoms: O3_7  and  C4_8 
REMARK    5  A    between atoms: C4_8  and  C5_9 
REMARK    6  A    between atoms: C6_11  and  O5_12 
REMARK    7  A    between atoms: O5_12  and  C7_13 
REMARK    8  A    between atoms: C7_13  and  C8_14 
REMARK    9  A    between atoms: C18_24  and  O6_25 
REMARK   10  A    between atoms: C19_27  and  O7_28 
REMARK   11  A    between atoms: C20_30  and  O8_31 
REMARK   12  A    between atoms: C21_33  and  O9_34 
REMARK   13  A    between atoms: C22_36  and  O10_37 
ROOT
HETATM    1  C5  UNL     1      22.878  28.492  26.697  1.00  0.00     0.180 C 
HETATM    2  O4  UNL     1      22.451  28.686  25.425  1.00  0.00    -0.348 OA
HETATM    3  C6  UNL     1      23.183  28.316  24.362  1.00  0.00     0.291 C 
HETATM    4  C18 UNL     1      24.678  28.337  24.558  1.00  0.00     0.204 C 
HETATM    5  C19 UNL     1      24.960  27.439  25.775  1.00  0.00     0.183 C 
HETATM    6  C20 UNL     1      24.307  28.181  26.923  1.00  0.00     0.180 C 
ENDROOT
BRANCH   1   7
HETATM    7  C4  UNL     1      21.878  27.777  27.576  1.00  0.00     0.205 C 
BRANCH   7   8
HETATM    8  O3  UNL     1      22.049  26.520  27.923  1.00  0.00    -0.356 OA
BRANCH   8   9
HETATM    9  C3  UNL     1      21.857  25.409  27.242  1.00  0.00     0.291 C 
HETATM   10  O2  UNL     1      23.037  24.669  26.990  1.00  0.00    -0.348 OA
HETATM   11  C2  UNL     1      22.551  23.551  26.339  1.00  0.00     0.179 C 
HETATM   12  C22 UNL     1      21.186  23.223  26.939  1.00  0.00     0.182 C 
HETATM   13  C21 UNL     1      21.118  24.304  28.029  1.00  0.00     0.204 C 
BRANCH  11  14
HETATM   14  C1  UNL     1      22.404  23.739  24.839  1.00  0.00     0.198 C 
BRANCH  14  15
HETATM   15  O1  UNL     1      21.598  22.730  24.292  1.00  0.00    -0.398 OA
ATOM     16  H1  UNL     1      20.681  22.978  24.329  1.00  0.00     0.209 HD
ENDBRANCH  14  15
ENDBRANCH  11  14
BRANCH  12  17
HETATM   17  O10 UNL     1      21.140  21.957  27.463  1.00  0.00    -0.390 OA
ATOM     18  H10 UNL     1      20.292  21.755  27.841  1.00  0.00     0.210 HD
ENDBRANCH  12  17
BRANCH  13  19
HETATM   19  O9  UNL     1      21.925  23.906  29.064  1.00  0.00    -0.388 OA
ATOM     20  H9  UNL     1      22.332  24.679  29.436  1.00  0.00     0.210 HD
ENDBRANCH  13  19
ENDBRANCH   8   9
ENDBRANCH   7   8
ENDBRANCH   1   7
BRANCH   6  21
HETATM   21  O8  UNL     1      24.591  27.627  28.131  1.00  0.00    -0.390 OA
ATOM     22  H8  UNL     1      25.304  26.999  28.127  1.00  0.00     0.210 HD
ENDBRANCH   6  21
BRANCH   3  23
HETATM   23  O5  UNL     1      22.941  29.227  23.315  1.00  0.00    -0.358 OA
BRANCH  23  24
HETATM   24  C7  UNL     1      22.559  30.464  23.789  1.00  0.00     0.180 C 
BRANCH  24  25
HETATM   25  C8  UNL     1      21.720  31.239  22.824  1.00  0.00    -0.018 C 
HETATM   26  C9  UNL     1      20.263  31.134  23.225  1.00  0.00     0.016 C 
HETATM   27  C10 UNL     1      19.369  31.761  22.176  1.00  0.00    -0.013 C 
HETATM   28  C11 UNL     1      19.597  31.148  20.810  1.00  0.00     0.009 C 
HETATM   29  C15 UNL     1      19.728  33.233  22.057  1.00  0.00     0.009 C 
HETATM   30  C12 UNL     1      21.041  31.290  20.432  1.00  0.00    -0.013 C 
HETATM   31  C13 UNL     1      21.403  32.755  20.358  1.00  0.00     0.009 C 
HETATM   32  C17 UNL     1      21.890  30.590  21.454  1.00  0.00     0.016 C 
HETATM   33  C14 UNL     1      21.200  33.360  21.735  1.00  0.00    -0.013 C 
HETATM   34  C16 UNL     1      22.070  32.699  22.771  1.00  0.00     0.016 C 
ENDBRANCH  24  25
ENDBRANCH  23  24
ENDBRANCH   3  23
BRANCH   5  35
HETATM   35  O7  UNL     1      26.305  27.320  26.022  1.00  0.00    -0.390 OA
ATOM     36  H7  UNL     1      26.476  26.861  26.836  1.00  0.00     0.210 HD
ENDBRANCH   5  35
BRANCH   4  37
HETATM   37  O6  UNL     1      25.348  27.890  23.447  1.00  0.00    -0.388 OA
ATOM     38  H6  UNL     1      24.808  27.321  22.911  1.00  0.00     0.210 HD
ENDBRANCH   4  37
TORSDOF 13
ENDMDL
MODEL 5
REMARK VINA RESULT: -7.992425169      1.245      2.052
REMARK  13 active torsions:
REMARK  status: ('A' for Active; 'I' for Inactive)
REMARK    1  A    between atoms: O1_1  and  C1_3 
REMARK    2  A    between atoms: C1_3  and  C2_4 
REMARK    3  A    between atoms: C3_6  and  O3_7 
REMARK    4  A    between atoms: O3_7  and  C4_8 
REMARK    5  A    between atoms: C4_8  and  C5_9 
REMARK    6  A    between atoms: C6_11  and  O5_12 
REMARK    7  A    between atoms: O5_12  and  C7_13 
REMARK    8  A    between atoms: C7_13  and  C8_14 
REMARK    9  A    between atoms: C18_24  and  O6_25 
REMARK   10  A    between atoms: C19_27  and  O7_28 
REMARK   11  A    between atoms: C20_30  and  O8_31 
REMARK   12  A    between atoms: C21_33  and  O9_34 
REMARK   13  A    between atoms: C22_36  and  O10_37 
ROOT
HETATM    1  C5  UNL     1      22.869  28.321  26.705  1.00  0.00     0.180 C 
HETATM    2  O4  UNL     1      22.433  28.466  25.429  1.00  0.00    -0.348 OA
HETATM    3  C6  UNL     1      23.201  28.155  24.373  1.00  0.00     0.291 C 
HETATM    4  C18 UNL     1      24.687  28.313  24.575  1.00  0.00     0.204 C 
HETATM    5  C19 UNL     1      25.042  27.454  25.801  1.00  0.00     0.183 C 
HETATM    6  C20 UNL     1      24.319  28.143  26.940  1.00  0.00     0.180 C 
ENDROOT
BRANCH   1   7
HETATM    7  C4  UNL     1      21.933  27.525  27.585  1.00  0.00     0.205 C 
BRANCH   7   8
HETATM    8  O3  UNL     1      22.267  26.336  28.039  1.00  0.00    -0.356 OA
BRANCH   8   9
HETATM    9  C3  UNL     1      21.855  25.137  27.684  1.00  0.00     0.291 C 
HETATM   10  O2  UNL     1      21.007  25.122  26.551  1.00  0.00    -0.348 OA
HETATM   11  C2  UNL     1      20.787  23.771  26.365  1.00  0.00     0.179 C 
HETATM   12  C22 UNL     1      22.065  23.035  26.758  1.00  0.00     0.182 C 
HETATM   13  C21 UNL     1      22.963  24.238  27.091  1.00  0.00     0.204 C 
BRANCH  11  14
HETATM   14  C1  UNL     1      19.628  23.227  27.181  1.00  0.00     0.198 C 
BRANCH  14  15
HETATM   15  O1  UNL     1      18.424  23.835  26.793  1.00  0.00    -0.398 OA
ATOM     16  H1  UNL     1      17.836  23.917  27.536  1.00  0.00     0.209 HD
ENDBRANCH  14  15
ENDBRANCH  11  14
BRANCH  12  17
HETATM   17  O10 UNL     1      22.570  22.284  25.727  1.00  0.00    -0.390 OA
ATOM     18  H10 UNL     1      22.783  22.813  24.968  1.00  0.00     0.210 HD
ENDBRANCH  12  17
BRANCH  13  19
HETATM   19  O9  UNL     1      23.373  24.794  25.906  1.00  0.00    -0.388 OA
ATOM     20  H9  UNL     1      23.857  24.135  25.422  1.00  0.00     0.210 HD
ENDBRANCH  13  19
ENDBRANCH   8   9
ENDBRANCH   7   8
ENDBRANCH   1   7
BRANCH   6  21
HETATM   21  O8  UNL     1      24.646  27.626  28.154  1.00  0.00    -0.390 OA
ATOM     22  H8  UNL     1      25.249  28.153  28.665  1.00  0.00     0.210 HD
ENDBRANCH   6  21
BRANCH   3  23
HETATM   23  O5  UNL     1      22.883  29.033  23.317  1.00  0.00    -0.358 OA
BRANCH  23  24
HETATM   24  C7  UNL     1      22.656  30.315  23.768  1.00  0.00     0.180 C 
BRANCH  24  25
HETATM   25  C8  UNL     1      21.763  31.113  22.871  1.00  0.00    -0.018 C 
HETATM   26  C9  UNL     1      22.214  32.559  22.867  1.00  0.00     0.016 C 
HETATM   27  C10 UNL     1      21.232  33.427  22.108  1.00  0.00    -0.013 C 
HETATM   28  C11 UNL     1      19.830  33.302  22.666  1.00  0.00     0.009 C 
HETATM   29  C15 UNL     1      21.173  32.941  20.670  1.00  0.00     0.009 C 
HETATM   30  C12 UNL     1      19.405  31.865  22.633  1.00  0.00    -0.013 C 
HETATM   31  C13 UNL     1      19.390  31.374  21.204  1.00  0.00     0.009 C 
HETATM   32  C17 UNL     1      20.357  31.049  23.459  1.00  0.00     0.016 C 
HETATM   33  C14 UNL     1      20.801  31.475  20.658  1.00  0.00    -0.013 C 
HETATM   34  C16 UNL     1      21.769  30.634  21.447  1.00  0.00     0.016 C 
ENDBRANCH  24  25
ENDBRANCH  23  24
ENDBRANCH   3  23
BRANCH   5  35
HETATM   35  O7  UNL     1      26.391  27.460  26.056  1.00  0.00    -0.390 OA
ATOM     36  H7  UNL     1      26.783  26.608  25.905  1.00  0.00     0.210 HD
ENDBRANCH   5  35
BRANCH   4  37
HETATM   37  O6  UNL     1      25.400  27.921  23.471  1.00  0.00    -0.388 OA
ATOM     38  H6  UNL     1      24.873  27.408  22.871  1.00  0.00     0.210 HD
ENDBRANCH   4  37
TORSDOF 13
ENDMDL
