MODEL 1
REMARK VINA RESULT: -5.001543323      0.000      0.000
REMARK  4 active torsions:
REMARK  status: ('A' for Active; 'I' for Inactive)
REMARK    1  A    between atoms: C2_2  and  C3_3 
REMARK    2  A    between atoms: C16_16  and  O1_17 
REMARK    3  A    between atoms: C17_19  and  O2_20 
REMARK    4  A    between atoms: O2_20  and  O3_21 
ROOT
HETATM    1  C3  UNL     1      25.078  27.434  42.102  1.00  0.00    -0.021 C 
HETATM    2  C4  UNL     1      25.979  26.787  41.067  1.00  0.00     0.020 C 
HETATM    3  C5  UNL     1      25.765  27.455  43.407  1.00  0.00     0.016 C 
HETATM    4  C6  UNL     1      25.307  28.542  44.344  1.00  0.00     0.043 C 
HETATM    5  C7  UNL     1      26.118  29.787  44.097  1.00  0.00     0.163 C 
HETATM    6  C8  UNL     1      27.512  29.455  44.675  1.00  0.00     0.049 C 
HETATM    7  C9  UNL     1      26.324  29.943  42.644  1.00  0.00     0.065 C 
HETATM    8  C10 UNL     1      27.261  31.122  42.364  1.00  0.00     0.013 C 
HETATM    9  C11 UNL     1      27.092  32.269  43.286  1.00  0.00     0.042 C 
HETATM   10  C12 UNL     1      25.986  32.195  44.263  1.00  0.00     0.157 C 
HETATM   11  C13 UNL     1      26.349  33.155  45.416  1.00  0.00     0.049 C 
HETATM   12  C14 UNL     1      24.718  32.845  43.691  1.00  0.00     0.044 C 
HETATM   13  C15 UNL     1      24.466  32.405  42.260  1.00  0.00     0.037 C 
HETATM   14  C16 UNL     1      24.061  31.002  42.255  1.00  0.00     0.157 C 
HETATM   15  C17 UNL     1      25.078  29.982  41.781  1.00  0.00     0.132 C 
HETATM   16  C18 UNL     1      24.425  28.680  41.600  1.00  0.00     0.034 C 
HETATM   17  C19 UNL     1      23.972  28.330  40.197  1.00  0.00     0.014 C 
HETATM   18  N1  UNL     1      25.685  30.936  44.818  1.00  0.00     0.103 N 
HETATM   19  C20 UNL     1      25.941  30.814  46.225  1.00  0.00     0.312 C 
ENDROOT
BRANCH   1  20
HETATM   20  C2  UNL     1      23.939  26.439  42.255  1.00  0.00    -0.027 C 
HETATM   21  C1  UNL     1      24.103  25.181  42.537  1.00  0.00     0.007 C 
ENDBRANCH   1  20
BRANCH  15  22
HETATM   22  O2  UNL     1      25.580  30.441  40.574  1.00  0.00    -0.228 OA
BRANCH  22  23
HETATM   23  O3  UNL     1      24.887  31.238  39.874  1.00  0.00    -0.250 OA
ATOM     24  H3  UNL     1      25.322  31.836  39.278  1.00  0.00     0.253 HD
ENDBRANCH  22  23
ENDBRANCH  15  22
BRANCH  14  25
HETATM   25  O1  UNL     1      22.951  30.830  41.385  1.00  0.00    -0.392 OA
ATOM     26  H1  UNL     1      22.898  29.922  41.112  1.00  0.00     0.210 HD
ENDBRANCH  14  25
TORSDOF 4
ENDMDL
MODEL 2
REMARK VINA RESULT: -4.885613998     11.973     14.690
REMARK  4 active torsions:
REMARK  status: ('A' for Active; 'I' for Inactive)
REMARK    1  A    between atoms: C2_2  and  C3_3 
REMARK    2  A    between atoms: C16_16  and  O1_17 
REMARK    3  A    between atoms: C17_19  and  O2_20 
REMARK    4  A    between atoms: O2_20  and  O3_21 
ROOT
HETATM    1  C3  UNL     1      34.370  20.920  43.045  1.00  0.00    -0.021 C 
HETATM    2  C4  UNL     1      33.142  21.462  43.753  1.00  0.00     0.020 C 
HETATM    3  C5  UNL     1      34.660  19.561  43.539  1.00  0.00     0.016 C 
HETATM    4  C6  UNL     1      35.417  18.687  42.572  1.00  0.00     0.043 C 
HETATM    5  C7  UNL     1      34.439  17.964  41.684  1.00  0.00     0.163 C 
HETATM    6  C8  UNL     1      33.793  16.907  42.608  1.00  0.00     0.049 C 
HETATM    7  C9  UNL     1      33.346  18.888  41.324  1.00  0.00     0.065 C 
HETATM    8  C10 UNL     1      32.262  18.148  40.534  1.00  0.00     0.013 C 
HETATM    9  C11 UNL     1      32.779  17.107  39.616  1.00  0.00     0.042 C 
HETATM   10  C12 UNL     1      34.246  16.993  39.478  1.00  0.00     0.157 C 
HETATM   11  C13 UNL     1      34.533  15.565  38.968  1.00  0.00     0.049 C 
HETATM   12  C14 UNL     1      34.747  17.857  38.312  1.00  0.00     0.044 C 
HETATM   13  C15 UNL     1      34.116  19.237  38.333  1.00  0.00     0.037 C 
HETATM   14  C16 UNL     1      34.652  19.993  39.462  1.00  0.00     0.157 C 
HETATM   15  C17 UNL     1      33.749  20.192  40.662  1.00  0.00     0.132 C 
HETATM   16  C18 UNL     1      34.347  21.174  41.574  1.00  0.00     0.034 C 
HETATM   17  C19 UNL     1      33.872  22.607  41.446  1.00  0.00     0.014 C 
HETATM   18  N1  UNL     1      35.030  17.216  40.626  1.00  0.00     0.103 N 
HETATM   19  C20 UNL     1      35.737  16.065  41.114  1.00  0.00     0.312 C 
ENDROOT
BRANCH   1  20
HETATM   20  C2  UNL     1      35.498  21.795  43.569  1.00  0.00    -0.027 C 
HETATM   21  C1  UNL     1      35.730  22.008  44.830  1.00  0.00     0.007 C 
ENDBRANCH   1  20
BRANCH  15  22
HETATM   22  O2  UNL     1      32.534  20.657  40.183  1.00  0.00    -0.228 OA
BRANCH  22  23
HETATM   23  O3  UNL     1      31.567  20.814  40.986  1.00  0.00    -0.250 OA
ATOM     24  H3  UNL     1      30.680  20.662  40.684  1.00  0.00     0.253 HD
ENDBRANCH  22  23
ENDBRANCH  15  22
BRANCH  14  25
HETATM   25  O1  UNL     1      34.982  21.309  39.040  1.00  0.00    -0.392 OA
ATOM     26  H1  UNL     1      35.038  21.881  39.796  1.00  0.00     0.210 HD
ENDBRANCH  14  25
TORSDOF 4
ENDMDL
MODEL 3
REMARK VINA RESULT: -4.799832058      1.484      2.082
REMARK  4 active torsions:
REMARK  status: ('A' for Active; 'I' for Inactive)
REMARK    1  A    between atoms: C2_2  and  C3_3 
REMARK    2  A    between atoms: C16_16  and  O1_17 
REMARK    3  A    between atoms: C17_19  and  O2_20 
REMARK    4  A    between atoms: O2_20  and  O3_21 
ROOT
HETATM    1  C3  UNL     1      24.920  29.422  41.784  1.00  0.00    -0.021 C 
HETATM    2  C4  UNL     1      25.573  29.503  40.418  1.00  0.00     0.020 C 
HETATM    3  C5  UNL     1      25.836  28.751  42.727  1.00  0.00     0.016 C 
HETATM    4  C6  UNL     1      25.626  29.112  44.175  1.00  0.00     0.043 C 
HETATM    5  C7  UNL     1      26.454  30.325  44.510  1.00  0.00     0.163 C 
HETATM    6  C8  UNL     1      27.907  29.800  44.535  1.00  0.00     0.049 C 
HETATM    7  C9  UNL     1      26.398  31.270  43.378  1.00  0.00     0.065 C 
HETATM    8  C10 UNL     1      27.340  32.453  43.626  1.00  0.00     0.013 C 
HETATM    9  C11 UNL     1      27.415  32.886  45.041  1.00  0.00     0.042 C 
HETATM   10  C12 UNL     1      26.505  32.228  46.000  1.00  0.00     0.157 C 
HETATM   11  C13 UNL     1      27.133  32.406  47.399  1.00  0.00     0.049 C 
HETATM   12  C14 UNL     1      25.197  33.020  46.133  1.00  0.00     0.044 C 
HETATM   13  C15 UNL     1      24.658  33.434  44.775  1.00  0.00     0.037 C 
HETATM   14  C16 UNL     1      24.173  32.250  44.071  1.00  0.00     0.157 C 
HETATM   15  C17 UNL     1      25.020  31.717  42.932  1.00  0.00     0.132 C 
HETATM   16  C18 UNL     1      24.266  30.701  42.188  1.00  0.00     0.034 C 
HETATM   17  C19 UNL     1      23.541  31.164  40.940  1.00  0.00     0.014 C 
HETATM   18  N1  UNL     1      26.233  30.859  45.811  1.00  0.00     0.103 N 
HETATM   19  C20 UNL     1      26.736  29.991  46.839  1.00  0.00     0.312 C 
ENDROOT
BRANCH   1  20
HETATM   20  C2  UNL     1      23.769  28.451  41.572  1.00  0.00    -0.027 C 
HETATM   21  C1  UNL     1      23.903  27.160  41.526  1.00  0.00     0.007 C 
ENDBRANCH   1  20
BRANCH  15  22
HETATM   22  O2  UNL     1      25.319  32.793  42.111  1.00  0.00    -0.228 OA
BRANCH  22  23
HETATM   23  O3  UNL     1      24.397  33.331  41.429  1.00  0.00    -0.250 OA
ATOM     24  H3  UNL     1      24.166  32.965  40.584  1.00  0.00     0.253 HD
ENDBRANCH  22  23
ENDBRANCH  15  22
BRANCH  14  25
HETATM   25  O1  UNL     1      22.913  32.532  43.478  1.00  0.00    -0.392 OA
ATOM     26  H1  UNL     1      23.012  33.224  42.834  1.00  0.00     0.210 HD
ENDBRANCH  14  25
TORSDOF 4
ENDMDL
MODEL 4
REMARK VINA RESULT: -4.744076396     11.196     13.089
REMARK  4 active torsions:
REMARK  status: ('A' for Active; 'I' for Inactive)
REMARK    1  A    between atoms: C2_2  and  C3_3 
REMARK    2  A    between atoms: C16_16  and  O1_17 
REMARK    3  A    between atoms: C17_19  and  O2_20 
REMARK    4  A    between atoms: O2_20  and  O3_21 
ROOT
HETATM    1  C3  UNL     1      34.146  17.431  40.897  1.00  0.00    -0.021 C 
HETATM    2  C4  UNL     1      35.091  17.179  39.737  1.00  0.00     0.020 C 
HETATM    3  C5  UNL     1      34.925  17.811  42.090  1.00  0.00     0.016 C 
HETATM    4  C6  UNL     1      34.173  18.644  43.096  1.00  0.00     0.043 C 
HETATM    5  C7  UNL     1      34.328  20.102  42.750  1.00  0.00     0.163 C 
HETATM    6  C8  UNL     1      35.793  20.428  43.119  1.00  0.00     0.049 C 
HETATM    7  C9  UNL     1      34.250  20.256  41.284  1.00  0.00     0.065 C 
HETATM    8  C10 UNL     1      34.541  21.706  40.886  1.00  0.00     0.013 C 
HETATM    9  C11 UNL     1      34.020  22.717  41.835  1.00  0.00     0.042 C 
HETATM   10  C12 UNL     1      33.195  22.227  42.959  1.00  0.00     0.157 C 
HETATM   11  C13 UNL     1      33.260  23.309  44.059  1.00  0.00     0.049 C 
HETATM   12  C14 UNL     1      31.707  22.242  42.582  1.00  0.00     0.044 C 
HETATM   13  C15 UNL     1      31.480  21.663  41.197  1.00  0.00     0.037 C 
HETATM   14  C16 UNL     1      31.723  20.223  41.233  1.00  0.00     0.157 C 
HETATM   15  C17 UNL     1      33.006  19.714  40.607  1.00  0.00     0.132 C 
HETATM   16  C18 UNL     1      32.960  18.250  40.507  1.00  0.00     0.034 C 
HETATM   17  C19 UNL     1      32.519  17.668  39.180  1.00  0.00     0.014 C 
HETATM   18  N1  UNL     1      33.543  20.991  43.537  1.00  0.00     0.103 N 
HETATM   19  C20 UNL     1      34.012  21.062  44.892  1.00  0.00     0.312 C 
ENDROOT
BRANCH   1  20
HETATM   20  C2  UNL     1      33.579  16.053  41.200  1.00  0.00    -0.027 C 
HETATM   21  C1  UNL     1      34.252  15.095  41.762  1.00  0.00     0.007 C 
ENDBRANCH   1  20
BRANCH  15  22
HETATM   22  O2  UNL     1      33.095  20.281  39.346  1.00  0.00    -0.228 OA
BRANCH  22  23
HETATM   23  O3  UNL     1      34.169  20.165  38.686  1.00  0.00    -0.250 OA
ATOM     24  H3  UNL     1      34.377  19.334  38.274  1.00  0.00     0.253 HD
ENDBRANCH  22  23
ENDBRANCH  15  22
BRANCH  14  25
HETATM   25  O1  UNL     1      30.689  19.549  40.529  1.00  0.00    -0.392 OA
ATOM     26  H1  UNL     1      30.483  18.733  40.971  1.00  0.00     0.210 HD
ENDBRANCH  14  25
TORSDOF 4
ENDMDL
MODEL 5
REMARK VINA RESULT: -4.532507746      3.694      5.717
REMARK  4 active torsions:
REMARK  status: ('A' for Active; 'I' for Inactive)
REMARK    1  A    between atoms: C2_2  and  C3_3 
REMARK    2  A    between atoms: C16_16  and  O1_17 
REMARK    3  A    between atoms: C17_19  and  O2_20 
REMARK    4  A    between atoms: O2_20  and  O3_21 
ROOT
HETATM    1  C3  UNL     1      24.850  27.301  41.796  1.00  0.00    -0.021 C 
HETATM    2  C4  UNL     1      23.396  27.047  41.446  1.00  0.00     0.020 C 
HETATM    3  C5  UNL     1      24.925  28.236  42.934  1.00  0.00     0.016 C 
HETATM    4  C6  UNL     1      26.181  28.125  43.760  1.00  0.00     0.043 C 
HETATM    5  C7  UNL     1      25.975  27.101  44.844  1.00  0.00     0.163 C 
HETATM    6  C8  UNL     1      25.015  27.788  45.842  1.00  0.00     0.049 C 
HETATM    7  C9  UNL     1      25.215  25.964  44.290  1.00  0.00     0.065 C 
HETATM    8  C10 UNL     1      24.868  24.965  45.399  1.00  0.00     0.013 C 
HETATM    9  C11 UNL     1      25.917  24.811  46.432  1.00  0.00     0.042 C 
HETATM   10  C12 UNL     1      27.193  25.524  46.213  1.00  0.00     0.157 C 
HETATM   11  C13 UNL     1      27.855  25.681  47.599  1.00  0.00     0.049 C 
HETATM   12  C14 UNL     1      28.195  24.622  45.480  1.00  0.00     0.044 C 
HETATM   13  C15 UNL     1      27.544  23.905  44.310  1.00  0.00     0.037 C 
HETATM   14  C16 UNL     1      27.249  24.874  43.258  1.00  0.00     0.157 C 
HETATM   15  C17 UNL     1      25.802  25.284  43.068  1.00  0.00     0.132 C 
HETATM   16  C18 UNL     1      25.664  26.049  41.824  1.00  0.00     0.034 C 
HETATM   17  C19 UNL     1      25.220  25.283  40.594  1.00  0.00     0.014 C 
HETATM   18  N1  UNL     1      27.138  26.793  45.606  1.00  0.00     0.103 N 
HETATM   19  C20 UNL     1      27.533  27.889  46.446  1.00  0.00     0.312 C 
ENDROOT
BRANCH   1  20
HETATM   20  C2  UNL     1      25.375  28.074  40.596  1.00  0.00    -0.027 C 
HETATM   21  C1  UNL     1      25.296  29.364  40.469  1.00  0.00     0.007 C 
ENDBRANCH   1  20
BRANCH  15  22
HETATM   22  O2  UNL     1      25.057  24.118  43.003  1.00  0.00    -0.228 OA
BRANCH  22  23
HETATM   23  O3  UNL     1      25.419  23.189  42.221  1.00  0.00    -0.250 OA
ATOM     24  H3  UNL     1      24.993  22.342  42.273  1.00  0.00     0.253 HD
ENDBRANCH  22  23
ENDBRANCH  15  22
BRANCH  14  25
HETATM   25  O1  UNL     1      27.638  24.342  41.999  1.00  0.00    -0.392 OA
ATOM     26  H1  UNL     1      28.305  24.896  41.611  1.00  0.00     0.210 HD
ENDBRANCH  14  25
TORSDOF 4
ENDMDL
