MODEL 1
REMARK VINA RESULT: -6.802426354      0.000      0.000
REMARK  2 active torsions:
REMARK  status: ('A' for Active; 'I' for Inactive)
REMARK    1  A    between atoms: N1_2  and  C2_4 
REMARK    2  A    between atoms: C3_8  and  C4_9 
ROOT
HETATM    1  C4  UNL     1      26.164  24.451  43.651  1.00  0.00     0.071 C 
HETATM    2  C5  UNL     1      26.589  25.291  44.773  1.00  0.00     0.187 C 
HETATM    3  O1  UNL     1      25.685  26.368  45.063  1.00  0.00    -0.329 OA
HETATM    4  C6  UNL     1      25.465  27.426  44.175  1.00  0.00     0.192 A 
HETATM    5  O2  UNL     1      25.477  28.717  44.418  1.00  0.00    -0.299 OA
HETATM    6  C7  UNL     1      25.230  29.415  43.314  1.00  0.00     0.152 A 
HETATM    7  C8  UNL     1      25.036  28.562  42.245  1.00  0.00    -0.024 A 
HETATM    8  C9  UNL     1      25.190  27.328  42.829  1.00  0.00     0.017 A 
HETATM    9  C10 UNL     1      25.035  26.106  41.991  1.00  0.00    -0.008 C 
HETATM   10  C11 UNL     1      23.594  26.196  41.439  1.00  0.00     0.021 C 
HETATM   11  C12 UNL     1      25.894  26.378  40.781  1.00  0.00     0.015 C 
HETATM   12  C13 UNL     1      25.456  27.613  40.038  1.00  0.00     0.006 C 
HETATM   13  C14 UNL     1      24.759  28.671  40.795  1.00  0.00     0.041 C 
HETATM   14  C15 UNL     1      25.132  24.855  42.701  1.00  0.00     0.005 C 
HETATM   15  C16 UNL     1      23.765  24.676  43.428  1.00  0.00     0.011 C 
ENDROOT
BRANCH   1  16
HETATM   16  C3  UNL     1      27.381  23.817  43.006  1.00  0.00     0.330 C 
HETATM   17  N2  UNL     1      27.326  22.361  43.112  1.00  0.00    -0.025 N 
HETATM   18  C2  UNL     1      28.703  21.937  42.756  1.00  0.00     0.316 C 
ATOM     19  H22 UNL     1      26.592  21.923  42.555  1.00  0.00     0.282 HD
ATOM     20  H21 UNL     1      26.998  22.015  44.013  1.00  0.00     0.282 HD
HETATM   21  C17 UNL     1      29.439  23.194  42.950  1.00  0.00     0.102 C 
HETATM   22  O3  UNL     1      28.574  24.086  43.617  1.00  0.00    -0.344 OA
HETATM   23  C18 UNL     1      30.074  23.783  41.745  1.00  0.00     0.050 C 
HETATM   24  C19 UNL     1      30.613  22.870  43.912  1.00  0.00     0.050 C 
BRANCH  18  25
HETATM   25  N1  UNL     1      28.650  21.279  41.521  1.00  0.00    -0.397 N 
HETATM   26  C1  UNL     1      28.010  20.022  41.428  1.00  0.00     0.142 C 
ATOM     27  H1  UNL     1      29.070  21.704  40.694  1.00  0.00     0.154 HD
ENDBRANCH  18  25
ENDBRANCH   1  16
TORSDOF 2
ENDMDL
MODEL 2
REMARK VINA RESULT: -6.725948435      2.778      3.810
REMARK  2 active torsions:
REMARK  status: ('A' for Active; 'I' for Inactive)
REMARK    1  A    between atoms: N1_2  and  C2_4 
REMARK    2  A    between atoms: C3_8  and  C4_9 
ROOT
HETATM    1  C4  UNL     1      26.554  24.391  42.166  1.00  0.00     0.071 C 
HETATM    2  C5  UNL     1      26.609  25.690  41.491  1.00  0.00     0.187 C 
HETATM    3  O1  UNL     1      25.353  26.103  40.931  1.00  0.00    -0.329 OA
HETATM    4  C6  UNL     1      24.742  25.424  39.871  1.00  0.00     0.192 A 
HETATM    5  O2  UNL     1      24.246  25.916  38.758  1.00  0.00    -0.299 OA
HETATM    6  C7  UNL     1      23.752  24.953  37.987  1.00  0.00     0.152 A 
HETATM    7  C8  UNL     1      23.914  23.724  38.596  1.00  0.00    -0.024 A 
HETATM    8  C9  UNL     1      24.535  24.065  39.773  1.00  0.00     0.017 A 
HETATM    9  C10 UNL     1      24.876  22.993  40.750  1.00  0.00    -0.008 C 
HETATM   10  C11 UNL     1      23.519  22.343  41.099  1.00  0.00     0.021 C 
HETATM   11  C12 UNL     1      25.568  21.943  39.917  1.00  0.00     0.015 C 
HETATM   12  C13 UNL     1      24.686  21.420  38.813  1.00  0.00     0.006 C 
HETATM   13  C14 UNL     1      23.625  22.305  38.292  1.00  0.00     0.041 C 
HETATM   14  C15 UNL     1      25.451  23.450  41.991  1.00  0.00     0.005 C 
HETATM   15  C16 UNL     1      24.259  24.001  42.829  1.00  0.00     0.011 C 
ENDROOT
BRANCH   1  16
HETATM   16  C3  UNL     1      27.925  23.746  42.133  1.00  0.00     0.330 C 
HETATM   17  N2  UNL     1      27.828  22.307  42.365  1.00  0.00    -0.025 N 
HETATM   18  C2  UNL     1      29.231  21.906  42.636  1.00  0.00     0.316 C 
ATOM     19  H22 UNL     1      27.378  21.786  41.612  1.00  0.00     0.282 HD
ATOM     20  H21 UNL     1      27.165  22.040  43.092  1.00  0.00     0.282 HD
HETATM   21  C17 UNL     1      29.831  23.205  42.970  1.00  0.00     0.102 C 
HETATM   22  O3  UNL     1      28.774  24.124  43.136  1.00  0.00    -0.344 OA
HETATM   23  C18 UNL     1      30.898  23.695  42.062  1.00  0.00     0.050 C 
HETATM   24  C19 UNL     1      30.520  23.027  44.350  1.00  0.00     0.050 C 
BRANCH  18  25
HETATM   25  N1  UNL     1      29.676  21.126  41.562  1.00  0.00    -0.397 N 
HETATM   26  C1  UNL     1      28.789  20.208  40.952  1.00  0.00     0.142 C 
ATOM     27  H1  UNL     1      30.633  21.219  41.220  1.00  0.00     0.154 HD
ENDBRANCH  18  25
ENDBRANCH   1  16
TORSDOF 2
ENDMDL
MODEL 3
REMARK VINA RESULT: -6.467967165      2.154      3.239
REMARK  2 active torsions:
REMARK  status: ('A' for Active; 'I' for Inactive)
REMARK    1  A    between atoms: N1_2  and  C2_4 
REMARK    2  A    between atoms: C3_8  and  C4_9 
ROOT
HETATM    1  C4  UNL     1      26.965  25.505  45.974  1.00  0.00     0.071 C 
HETATM    2  C5  UNL     1      27.029  26.951  46.199  1.00  0.00     0.187 C 
HETATM    3  O1  UNL     1      25.852  27.655  45.773  1.00  0.00    -0.329 OA
HETATM    4  C6  UNL     1      25.472  27.742  44.430  1.00  0.00     0.192 A 
HETATM    5  O2  UNL     1      25.126  28.807  43.743  1.00  0.00    -0.299 OA
HETATM    6  C7  UNL     1      24.836  28.492  42.484  1.00  0.00     0.152 A 
HETATM    7  C8  UNL     1      24.992  27.134  42.285  1.00  0.00    -0.024 A 
HETATM    8  C9  UNL     1      25.388  26.704  43.528  1.00  0.00     0.017 A 
HETATM    9  C10 UNL     1      25.648  25.253  43.744  1.00  0.00    -0.008 C 
HETATM   10  C11 UNL     1      24.306  24.566  43.407  1.00  0.00     0.021 C 
HETATM   11  C12 UNL     1      26.542  24.864  42.593  1.00  0.00     0.015 C 
HETATM   12  C13 UNL     1      25.891  25.113  41.257  1.00  0.00     0.006 C 
HETATM   13  C14 UNL     1      24.864  26.170  41.170  1.00  0.00     0.041 C 
HETATM   14  C15 UNL     1      25.980  24.881  45.097  1.00  0.00     0.005 C 
HETATM   15  C16 UNL     1      24.630  24.877  45.876  1.00  0.00     0.011 C 
ENDROOT
BRANCH   1  16
HETATM   16  C3  UNL     1      28.369  24.957  45.813  1.00  0.00     0.330 C 
HETATM   17  N2  UNL     1      29.263  25.971  45.258  1.00  0.00    -0.025 N 
HETATM   18  C2  UNL     1      30.461  25.193  44.856  1.00  0.00     0.316 C 
ATOM     19  H22 UNL     1      29.457  26.753  45.884  1.00  0.00     0.282 HD
ATOM     20  H21 UNL     1      28.853  26.532  44.511  1.00  0.00     0.282 HD
HETATM   21  C17 UNL     1      29.906  23.833  44.811  1.00  0.00     0.102 C 
HETATM   22  O3  UNL     1      28.503  23.951  44.897  1.00  0.00    -0.344 OA
HETATM   23  C18 UNL     1      30.473  22.855  45.773  1.00  0.00     0.050 C 
HETATM   24  C19 UNL     1      30.245  23.268  43.406  1.00  0.00     0.050 C 
BRANCH  18  25
HETATM   25  N1  UNL     1      31.515  25.548  45.706  1.00  0.00    -0.397 N 
HETATM   26  C1  UNL     1      32.797  25.792  45.161  1.00  0.00     0.142 C 
ATOM     27  H1  UNL     1      31.360  25.630  46.710  1.00  0.00     0.154 HD
ENDBRANCH  18  25
ENDBRANCH   1  16
TORSDOF 2
ENDMDL
MODEL 4
REMARK VINA RESULT: -6.376371503      1.493      1.992
REMARK  2 active torsions:
REMARK  status: ('A' for Active; 'I' for Inactive)
REMARK    1  A    between atoms: N1_2  and  C2_4 
REMARK    2  A    between atoms: C3_8  and  C4_9 
ROOT
HETATM    1  C4  UNL     1      27.038  25.260  45.209  1.00  0.00     0.071 C 
HETATM    2  C5  UNL     1      27.131  26.651  45.656  1.00  0.00     0.187 C 
HETATM    3  O1  UNL     1      25.922  27.402  45.463  1.00  0.00    -0.329 OA
HETATM    4  C6  UNL     1      25.416  27.700  44.193  1.00  0.00     0.192 A 
HETATM    5  O2  UNL     1      25.011  28.858  43.722  1.00  0.00    -0.299 OA
HETATM    6  C7  UNL     1      24.601  28.745  42.462  1.00  0.00     0.152 A 
HETATM    7  C8  UNL     1      24.729  27.439  42.034  1.00  0.00    -0.024 A 
HETATM    8  C9  UNL     1      25.240  26.819  43.149  1.00  0.00     0.017 A 
HETATM    9  C10 UNL     1      25.512  25.355  43.103  1.00  0.00    -0.008 C 
HETATM   10  C11 UNL     1      24.140  24.717  42.790  1.00  0.00     0.021 C 
HETATM   11  C12 UNL     1      26.290  25.165  41.825  1.00  0.00     0.015 C 
HETATM   12  C13 UNL     1      25.516  25.618  40.614  1.00  0.00     0.006 C 
HETATM   13  C14 UNL     1      24.491  26.665  40.796  1.00  0.00     0.041 C 
HETATM   14  C15 UNL     1      25.970  24.774  44.341  1.00  0.00     0.005 C 
HETATM   15  C16 UNL     1      24.700  24.632  45.234  1.00  0.00     0.011 C 
ENDROOT
BRANCH   1  16
HETATM   16  C3  UNL     1      28.417  24.759  44.830  1.00  0.00     0.330 C 
HETATM   17  N2  UNL     1      28.323  23.565  43.992  1.00  0.00    -0.025 N 
HETATM   18  C2  UNL     1      29.707  23.028  44.002  1.00  0.00     0.316 C 
ATOM     19  H22 UNL     1      27.941  23.731  43.061  1.00  0.00     0.282 HD
ATOM     20  H21 UNL     1      27.609  22.898  44.283  1.00  0.00     0.282 HD
HETATM   21  C17 UNL     1      30.259  23.706  45.183  1.00  0.00     0.102 C 
HETATM   22  O3  UNL     1      29.179  24.299  45.868  1.00  0.00    -0.344 OA
HETATM   23  C18 UNL     1      31.386  24.640  44.942  1.00  0.00     0.050 C 
HETATM   24  C19 UNL     1      30.840  22.592  46.095  1.00  0.00     0.050 C 
BRANCH  18  25
HETATM   25  N1  UNL     1      30.246  23.190  42.720  1.00  0.00    -0.397 N 
HETATM   26  C1  UNL     1      30.155  22.132  41.786  1.00  0.00     0.142 C 
ATOM     27  H1  UNL     1      30.701  24.065  42.461  1.00  0.00     0.154 HD
ENDBRANCH  18  25
ENDBRANCH   1  16
TORSDOF 2
ENDMDL
MODEL 5
REMARK VINA RESULT: -6.311153751      2.538      5.030
REMARK  2 active torsions:
REMARK  status: ('A' for Active; 'I' for Inactive)
REMARK    1  A    between atoms: N1_2  and  C2_4 
REMARK    2  A    between atoms: C3_8  and  C4_9 
ROOT
HETATM    1  C4  UNL     1      25.372  24.828  43.714  1.00  0.00     0.071 C 
HETATM    2  C5  UNL     1      26.696  24.262  43.444  1.00  0.00     0.187 C 
HETATM    3  O1  UNL     1      27.526  24.152  44.610  1.00  0.00    -0.329 OA
HETATM    4  C6  UNL     1      27.995  25.270  45.308  1.00  0.00     0.192 A 
HETATM    5  O2  UNL     1      29.220  25.535  45.705  1.00  0.00    -0.299 OA
HETATM    6  C7  UNL     1      29.276  26.704  46.336  1.00  0.00     0.152 A 
HETATM    7  C8  UNL     1      28.023  27.283  46.379  1.00  0.00    -0.024 A 
HETATM    8  C9  UNL     1      27.252  26.351  45.727  1.00  0.00     0.017 A 
HETATM    9  C10 UNL     1      25.791  26.600  45.574  1.00  0.00    -0.008 C 
HETATM   10  C11 UNL     1      25.266  26.723  47.022  1.00  0.00     0.021 C 
HETATM   11  C12 UNL     1      25.711  28.011  45.048  1.00  0.00     0.015 C 
HETATM   12  C13 UNL     1      26.342  29.006  45.987  1.00  0.00     0.006 C 
HETATM   13  C14 UNL     1      27.412  28.531  46.886  1.00  0.00     0.041 C 
HETATM   14  C15 UNL     1      25.047  25.534  44.950  1.00  0.00     0.005 C 
HETATM   15  C16 UNL     1      24.869  24.445  46.050  1.00  0.00     0.011 C 
ENDROOT
BRANCH   1  16
HETATM   16  C3  UNL     1      24.847  25.503  42.462  1.00  0.00     0.330 C 
HETATM   17  N2  UNL     1      25.349  24.836  41.263  1.00  0.00    -0.025 N 
HETATM   18  C2  UNL     1      25.034  25.797  40.177  1.00  0.00     0.316 C 
ATOM     19  H22 UNL     1      24.980  23.897  41.116  1.00  0.00     0.282 HD
ATOM     20  H21 UNL     1      26.329  24.560  41.311  1.00  0.00     0.282 HD
HETATM   21  C17 UNL     1      24.832  27.032  40.948  1.00  0.00     0.102 C 
HETATM   22  O3  UNL     1      25.284  26.783  42.261  1.00  0.00    -0.344 OA
HETATM   23  C18 UNL     1      23.474  27.628  40.899  1.00  0.00     0.050 C 
HETATM   24  C19 UNL     1      25.769  28.098  40.322  1.00  0.00     0.050 C 
BRANCH  18  25
HETATM   25  N1  UNL     1      24.031  25.237  39.377  1.00  0.00    -0.397 N 
HETATM   26  C1  UNL     1      24.141  23.889  38.964  1.00  0.00     0.142 C 
ATOM     27  H1  UNL     1      23.226  25.796  39.094  1.00  0.00     0.154 HD
ENDBRANCH  18  25
ENDBRANCH   1  16
TORSDOF 2
ENDMDL
