MODEL 1
REMARK VINA RESULT: -9.065814550      0.000      0.000
REMARK  3 active torsions:
REMARK  status: ('A' for Active; 'I' for Inactive)
REMARK    1  A    between atoms: N1_1  and  C1_4 
REMARK    2  A    between atoms: C2_7  and  C3_8 
REMARK    3  A    between atoms: N4_20  and  C12_21 
ROOT
HETATM    1  C1  UNL     1      25.155  23.922  41.911  1.00  0.00     0.114 A 
HETATM    2  N2  UNL     1      25.328  22.723  41.272  1.00  0.00    -0.331 N 
ATOM      3  H2  UNL     1      25.643  21.939  41.842  1.00  0.00     0.168 HD
HETATM    4  C2  UNL     1      25.127  22.482  39.994  1.00  0.00     0.087 A 
HETATM    5  N3  UNL     1      24.713  23.515  39.249  1.00  0.00    -0.339 N 
ATOM      6  H3  UNL     1      24.543  23.383  38.252  1.00  0.00     0.168 HD
HETATM    7  C6  UNL     1      24.516  24.748  39.814  1.00  0.00     0.090 A 
HETATM    8  S1  UNL     1      24.001  26.249  39.177  1.00  0.00    -0.070 SA
HETATM    9  C7  UNL     1      24.050  27.185  40.576  1.00  0.00     0.029 A 
HETATM   10  C8  UNL     1      24.485  26.276  41.557  1.00  0.00    -0.021 A 
HETATM   11  C9  UNL     1      24.719  25.023  41.143  1.00  0.00     0.049 A 
HETATM   12  C10 UNL     1      24.585  27.013  42.884  1.00  0.00     0.061 C 
HETATM   13  C11 UNL     1      25.502  28.200  42.554  1.00  0.00     0.127 C 
HETATM   14  N4  UNL     1      24.776  29.118  41.786  1.00  0.00    -0.384 N 
HETATM   15  C18 UNL     1      23.756  28.620  40.966  1.00  0.00     0.105 C 
ENDROOT
BRANCH  14  16
HETATM   16  C12 UNL     1      24.718  30.453  42.215  1.00  0.00     0.083 C 
HETATM   17  C13 UNL     1      24.098  31.417  41.234  1.00  0.00     0.025 C 
HETATM   18  C14 UNL     1      25.127  32.127  40.380  1.00  0.00     0.002 C 
HETATM   19  C15 UNL     1      25.843  33.121  41.266  1.00  0.00     0.000 C 
HETATM   20  C16 UNL     1      25.897  32.558  42.669  1.00  0.00     0.002 C 
HETATM   21  C17 UNL     1      26.031  31.032  42.648  1.00  0.00     0.025 C 
ENDBRANCH  14  16
BRANCH   1  22
HETATM   22  N1  UNL     1      25.404  23.897  43.135  1.00  0.00    -0.385 N 
ATOM     23  H12 UNL     1      25.817  23.135  43.671  1.00  0.00     0.157 HD
ATOM     24  H11 UNL     1      25.163  24.753  43.634  1.00  0.00     0.157 HD
ENDBRANCH   1  22
BRANCH   4  25
HETATM   25  C3  UNL     1      25.332  21.157  39.356  1.00  0.00     0.053 A 
HETATM   26  C4  UNL     1      25.475  19.935  40.183  1.00  0.00     0.013 A 
HETATM   27  C5  UNL     1      24.155  20.207  39.553  1.00  0.00     0.013 A 
ENDBRANCH   4  25
TORSDOF 3
ENDMDL
MODEL 2
REMARK VINA RESULT: -8.817697031      1.166      2.113
REMARK  3 active torsions:
REMARK  status: ('A' for Active; 'I' for Inactive)
REMARK    1  A    between atoms: N1_1  and  C1_4 
REMARK    2  A    between atoms: C2_7  and  C3_8 
REMARK    3  A    between atoms: N4_20  and  C12_21 
ROOT
HETATM    1  C1  UNL     1      24.149  24.672  39.421  1.00  0.00     0.114 A 
HETATM    2  N2  UNL     1      23.923  23.324  39.341  1.00  0.00    -0.331 N 
ATOM      3  H2  UNL     1      23.668  22.953  38.426  1.00  0.00     0.168 HD
HETATM    4  C2  UNL     1      24.002  22.457  40.329  1.00  0.00     0.087 A 
HETATM    5  N3  UNL     1      24.337  22.948  41.529  1.00  0.00    -0.339 N 
ATOM      6  H3  UNL     1      24.411  22.320  42.329  1.00  0.00     0.168 HD
HETATM    7  C6  UNL     1      24.580  24.287  41.691  1.00  0.00     0.090 A 
HETATM    8  S1  UNL     1      25.023  25.231  43.046  1.00  0.00    -0.070 SA
HETATM    9  C7  UNL     1      25.103  26.750  42.323  1.00  0.00     0.029 A 
HETATM   10  C8  UNL     1      24.770  26.486  40.983  1.00  0.00    -0.021 A 
HETATM   11  C9  UNL     1      24.503  25.208  40.677  1.00  0.00     0.049 A 
HETATM   12  C10 UNL     1      24.792  27.799  40.215  1.00  0.00     0.061 C 
HETATM   13  C11 UNL     1      23.841  28.692  41.025  1.00  0.00     0.127 C 
HETATM   14  N4  UNL     1      24.486  29.059  42.213  1.00  0.00    -0.384 N 
HETATM   15  C18 UNL     1      25.425  28.169  42.747  1.00  0.00     0.105 C 
ENDROOT
BRANCH  14  16
HETATM   16  C12 UNL     1      24.576  30.422  42.532  1.00  0.00     0.083 C 
HETATM   17  C13 UNL     1      23.920  31.358  41.545  1.00  0.00     0.025 C 
HETATM   18  C14 UNL     1      24.894  31.915  40.529  1.00  0.00     0.002 C 
HETATM   19  C15 UNL     1      25.779  32.909  41.245  1.00  0.00     0.000 C 
HETATM   20  C16 UNL     1      25.951  32.452  42.677  1.00  0.00     0.002 C 
HETATM   21  C17 UNL     1      25.969  30.922  42.769  1.00  0.00     0.025 C 
ENDBRANCH  14  16
BRANCH   1  22
HETATM   22  N1  UNL     1      24.019  25.284  38.340  1.00  0.00    -0.385 N 
ATOM     23  H12 UNL     1      23.166  25.687  37.952  1.00  0.00     0.157 HD
ATOM     24  H11 UNL     1      24.880  25.385  37.804  1.00  0.00     0.157 HD
ENDBRANCH   1  22
BRANCH   4  25
HETATM   25  C3  UNL     1      23.744  21.002  40.180  1.00  0.00     0.053 A 
HETATM   26  C4  UNL     1      23.670  20.382  38.836  1.00  0.00     0.013 A 
HETATM   27  C5  UNL     1      24.933  20.237  39.610  1.00  0.00     0.013 A 
ENDBRANCH   4  25
TORSDOF 3
ENDMDL
MODEL 3
REMARK VINA RESULT: -8.794643392      2.086      8.097
REMARK  3 active torsions:
REMARK  status: ('A' for Active; 'I' for Inactive)
REMARK    1  A    between atoms: N1_1  and  C1_4 
REMARK    2  A    between atoms: C2_7  and  C3_8 
REMARK    3  A    between atoms: N4_20  and  C12_21 
ROOT
HETATM    1  C1  UNL     1      24.663  28.381  41.515  1.00  0.00     0.114 A 
HETATM    2  N2  UNL     1      25.011  29.404  42.355  1.00  0.00    -0.331 N 
ATOM      3  H2  UNL     1      24.916  30.351  41.989  1.00  0.00     0.168 HD
HETATM    4  C2  UNL     1      25.455  29.287  43.589  1.00  0.00     0.087 A 
HETATM    5  N3  UNL     1      25.578  28.042  44.064  1.00  0.00    -0.339 N 
ATOM      6  H3  UNL     1      25.919  27.895  45.014  1.00  0.00     0.168 HD
HETATM    7  C6  UNL     1      25.250  26.963  43.285  1.00  0.00     0.090 A 
HETATM    8  S1  UNL     1      25.280  25.276  43.566  1.00  0.00    -0.070 SA
HETATM    9  C7  UNL     1      24.714  24.729  42.077  1.00  0.00     0.029 A 
HETATM   10  C8  UNL     1      24.503  25.917  41.356  1.00  0.00    -0.021 A 
HETATM   11  C9  UNL     1      24.786  27.060  41.998  1.00  0.00     0.049 A 
HETATM   12  C10 UNL     1      23.999  25.554  39.968  1.00  0.00     0.061 C 
HETATM   13  C11 UNL     1      25.072  24.585  39.450  1.00  0.00     0.127 C 
HETATM   14  N4  UNL     1      24.926  23.366  40.122  1.00  0.00    -0.384 N 
HETATM   15  C18 UNL     1      24.411  23.395  41.423  1.00  0.00     0.105 C 
ENDROOT
BRANCH  14  16
HETATM   16  C12 UNL     1      24.797  22.193  39.362  1.00  0.00     0.083 C 
HETATM   17  C13 UNL     1      23.802  22.270  38.229  1.00  0.00     0.025 C 
HETATM   18  C14 UNL     1      22.440  21.728  38.607  1.00  0.00     0.002 C 
HETATM   19  C15 UNL     1      22.563  20.225  38.713  1.00  0.00     0.000 C 
HETATM   20  C16 UNL     1      23.959  19.892  39.189  1.00  0.00     0.002 C 
HETATM   21  C17 UNL     1      24.484  20.961  40.154  1.00  0.00     0.025 C 
ENDBRANCH  14  16
BRANCH   1  22
HETATM   22  N1  UNL     1      24.261  28.747  40.391  1.00  0.00    -0.385 N 
ATOM     23  H12 UNL     1      23.340  29.112  40.148  1.00  0.00     0.157 HD
ATOM     24  H11 UNL     1      24.953  28.668  39.646  1.00  0.00     0.157 HD
ENDBRANCH   1  22
BRANCH   4  25
HETATM   25  C3  UNL     1      25.817  30.439  44.454  1.00  0.00     0.053 A 
HETATM   26  C4  UNL     1      26.944  30.338  45.413  1.00  0.00     0.013 A 
HETATM   27  C5  UNL     1      27.180  31.036  44.120  1.00  0.00     0.013 A 
ENDBRANCH   4  25
TORSDOF 3
ENDMDL
MODEL 4
REMARK VINA RESULT: -8.541480586      0.850      1.231
REMARK  3 active torsions:
REMARK  status: ('A' for Active; 'I' for Inactive)
REMARK    1  A    between atoms: N1_1  and  C1_4 
REMARK    2  A    between atoms: C2_7  and  C3_8 
REMARK    3  A    between atoms: N4_20  and  C12_21 
ROOT
HETATM    1  C1  UNL     1      24.875  24.034  41.810  1.00  0.00     0.114 A 
HETATM    2  N2  UNL     1      24.933  22.857  41.113  1.00  0.00    -0.331 N 
ATOM      3  H2  UNL     1      25.150  22.017  41.648  1.00  0.00     0.168 HD
HETATM    4  C2  UNL     1      24.737  22.703  39.821  1.00  0.00     0.087 A 
HETATM    5  N3  UNL     1      24.453  23.809  39.123  1.00  0.00    -0.339 N 
ATOM      6  H3  UNL     1      24.292  23.746  38.118  1.00  0.00     0.168 HD
HETATM    7  C6  UNL     1      24.376  25.027  39.748  1.00  0.00     0.090 A 
HETATM    8  S1  UNL     1      24.038  26.604  39.180  1.00  0.00    -0.070 SA
HETATM    9  C7  UNL     1      24.154  27.459  40.626  1.00  0.00     0.029 A 
HETATM   10  C8  UNL     1      24.467  26.462  41.566  1.00  0.00    -0.021 A 
HETATM   11  C9  UNL     1      24.576  25.212  41.092  1.00  0.00     0.049 A 
HETATM   12  C10 UNL     1      24.615  27.117  42.930  1.00  0.00     0.061 C 
HETATM   13  C11 UNL     1      25.661  28.213  42.678  1.00  0.00     0.127 C 
HETATM   14  N4  UNL     1      25.054  29.241  41.946  1.00  0.00    -0.384 N 
HETATM   15  C18 UNL     1      24.006  28.897  41.084  1.00  0.00     0.105 C 
ENDROOT
BRANCH  14  16
HETATM   16  C12 UNL     1      25.129  30.551  42.442  1.00  0.00     0.083 C 
HETATM   17  C13 UNL     1      26.244  31.392  41.868  1.00  0.00     0.025 C 
HETATM   18  C14 UNL     1      27.484  31.391  42.736  1.00  0.00     0.002 C 
HETATM   19  C15 UNL     1      27.178  32.213  43.967  1.00  0.00     0.000 C 
HETATM   20  C16 UNL     1      25.708  32.060  44.291  1.00  0.00     0.002 C 
HETATM   21  C17 UNL     1      25.208  30.655  43.935  1.00  0.00     0.025 C 
ENDBRANCH  14  16
BRANCH   1  22
HETATM   22  N1  UNL     1      25.091  23.923  43.035  1.00  0.00    -0.385 N 
ATOM     23  H12 UNL     1      24.404  23.867  43.786  1.00  0.00     0.157 HD
ATOM     24  H11 UNL     1      26.078  23.878  43.289  1.00  0.00     0.157 HD
ENDBRANCH   1  22
BRANCH   4  25
HETATM   25  C3  UNL     1      24.814  21.395  39.120  1.00  0.00     0.053 A 
HETATM   26  C4  UNL     1      24.977  20.136  39.885  1.00  0.00     0.013 A 
HETATM   27  C5  UNL     1      23.617  20.493  39.397  1.00  0.00     0.013 A 
ENDBRANCH   4  25
TORSDOF 3
ENDMDL
MODEL 5
REMARK VINA RESULT: -8.292882853      1.657      2.551
REMARK  3 active torsions:
REMARK  status: ('A' for Active; 'I' for Inactive)
REMARK    1  A    between atoms: N1_1  and  C1_4 
REMARK    2  A    between atoms: C2_7  and  C3_8 
REMARK    3  A    between atoms: N4_20  and  C12_21 
ROOT
HETATM    1  C1  UNL     1      24.088  26.061  38.822  1.00  0.00     0.114 A 
HETATM    2  N2  UNL     1      23.901  24.767  38.417  1.00  0.00    -0.331 N 
ATOM      3  H2  UNL     1      23.518  24.629  37.482  1.00  0.00     0.168 HD
HETATM    4  C2  UNL     1      24.168  23.682  39.113  1.00  0.00     0.087 A 
HETATM    5  N3  UNL     1      24.671  23.869  40.340  1.00  0.00    -0.339 N 
ATOM      6  H3  UNL     1      24.895  23.062  40.922  1.00  0.00     0.168 HD
HETATM    7  C6  UNL     1      24.888  25.134  40.820  1.00  0.00     0.090 A 
HETATM    8  S1  UNL     1      25.506  25.724  42.301  1.00  0.00    -0.070 SA
HETATM    9  C7  UNL     1      25.415  27.380  42.009  1.00  0.00     0.029 A 
HETATM   10  C8  UNL     1      24.882  27.449  40.710  1.00  0.00    -0.021 A 
HETATM   11  C9  UNL     1      24.617  26.278  40.113  1.00  0.00     0.049 A 
HETATM   12  C10 UNL     1      24.735  28.914  40.328  1.00  0.00     0.061 C 
HETATM   13  C11 UNL     1      23.893  29.489  41.476  1.00  0.00     0.127 C 
HETATM   14  N4  UNL     1      24.704  29.583  42.613  1.00  0.00    -0.384 N 
HETATM   15  C18 UNL     1      25.748  28.661  42.748  1.00  0.00     0.105 C 
ENDROOT
BRANCH  14  16
HETATM   16  C12 UNL     1      24.794  30.820  43.271  1.00  0.00     0.083 C 
HETATM   17  C13 UNL     1      24.606  32.031  42.390  1.00  0.00     0.025 C 
HETATM   18  C14 UNL     1      25.918  32.614  41.909  1.00  0.00     0.002 C 
HETATM   19  C15 UNL     1      26.579  33.283  43.092  1.00  0.00     0.000 C 
HETATM   20  C16 UNL     1      26.201  32.523  44.343  1.00  0.00     0.002 C 
HETATM   21  C17 UNL     1      26.054  31.024  44.056  1.00  0.00     0.025 C 
ENDBRANCH  14  16
BRANCH   1  22
HETATM   22  N1  UNL     1      23.765  26.921  37.976  1.00  0.00    -0.385 N 
ATOM     23  H12 UNL     1      23.835  26.853  36.962  1.00  0.00     0.157 HD
ATOM     24  H11 UNL     1      23.384  27.781  38.371  1.00  0.00     0.157 HD
ENDBRANCH   1  22
BRANCH   4  25
HETATM   25  C3  UNL     1      23.943  22.300  38.617  1.00  0.00     0.053 A 
HETATM   26  C4  UNL     1      23.525  21.223  39.547  1.00  0.00     0.013 A 
HETATM   27  C5  UNL     1      22.485  21.864  38.697  1.00  0.00     0.013 A 
ENDBRANCH   4  25
TORSDOF 3
ENDMDL
