MODEL 1
REMARK VINA RESULT: -8.654759103      0.000      0.000
REMARK  13 active torsions:
REMARK  status: ('A' for Active; 'I' for Inactive)
REMARK    1  A    between atoms: C2_2  and  C4_4 
REMARK    2  A    between atoms: C4_4  and  O1_5 
REMARK    3  A    between atoms: C4_4  and  C5_10 
REMARK    4  A    between atoms: O1_5  and  S1_6 
REMARK    5  A    between atoms: C5_10  and  C6_11 
REMARK    6  A    between atoms: C5_10  and  C26_33 
REMARK    7  A    between atoms: C7_12  and  C8_13 
REMARK    8  A    between atoms: C8_13  and  C9_14 
REMARK    9  A    between atoms: C8_13  and  C13_18 
REMARK   10  A    between atoms: C9_14  and  C10_15 
REMARK   11  A    between atoms: C16_21  and  C17_22 
REMARK   12  A    between atoms: C26_33  and  C27_34 
REMARK   13  A    between atoms: C27_34  and  C28_35 
ROOT
HETATM    1  C8  UNL     1      12.453  -3.549   2.273  1.00  0.00    -0.076 C 
ENDROOT
BRANCH   1   2
HETATM    2  C7  UNL     1      12.039  -4.485   1.171  1.00  0.00    -0.001 C 
HETATM    3  C6  UNL     1      10.993  -5.247   1.139  1.00  0.00    -0.019 C 
BRANCH   3   4
HETATM    4  C5  UNL     1      10.686  -6.129  -0.023  1.00  0.00     0.043 C 
BRANCH   4   5
HETATM    5  C4  UNL     1      11.608  -7.350   0.197  1.00  0.00     0.180 C 
BRANCH   5   6
HETATM    6  C2  UNL     1      10.806  -8.569   0.353  1.00  0.00    -0.062 C 
HETATM    7  C1  UNL     1      10.744  -9.564  -0.495  1.00  0.00     0.016 C 
HETATM    8  C3  UNL     1       9.946  -8.686   1.586  1.00  0.00     0.045 C 
ENDBRANCH   5   6
BRANCH   5   9
HETATM    9  O1  UNL     1      12.532  -7.499  -0.811  1.00  0.00    -0.246 OA
BRANCH   9  10
HETATM   10  S1  UNL     1      14.050  -7.845  -0.202  1.00  0.00     0.252 S 
HETATM   11  O2  UNL     1      14.912  -8.399  -1.324  1.00  0.00    -0.572 OA
HETATM   12  O3  UNL     1      14.048  -8.880   0.873  1.00  0.00    -0.572 OA
HETATM   13  O4  UNL     1      14.762  -6.416   0.354  1.00  0.00    -0.572 OA
ENDBRANCH   9  10
ENDBRANCH   5   9
ENDBRANCH   4   5
BRANCH   4  14
HETATM   14  C26 UNL     1      10.989  -5.587  -1.359  1.00  0.00     0.015 C 
BRANCH  14  15
HETATM   15  C27 UNL     1      10.185  -6.092  -2.506  1.00  0.00     0.028 C 
BRANCH  15  16
HETATM   16  C28 UNL     1       8.739  -5.736  -2.382  1.00  0.00    -0.025 C 
HETATM   17  C29 UNL     1       8.188  -4.665  -2.929  1.00  0.00    -0.091 C 
HETATM   18  C30 UNL     1       8.999  -3.690  -3.743  1.00  0.00     0.042 C 
HETATM   19  C31 UNL     1       6.740  -4.362  -2.772  1.00  0.00     0.042 C 
ENDBRANCH  15  16
ENDBRANCH  14  15
ENDBRANCH   4  14
ENDBRANCH   3   4
ENDBRANCH   1   2
BRANCH   1  20
HETATM   20  C9  UNL     1      11.375  -2.699   2.811  1.00  0.00     0.038 C 
BRANCH  20  21
HETATM   21  C10 UNL     1      11.283  -2.894   4.318  1.00  0.00    -0.019 C 
HETATM   22  C11 UNL     1      10.516  -4.172   4.588  1.00  0.00     0.010 C 
HETATM   23  C12 UNL     1      10.380  -1.787   4.914  1.00  0.00     0.010 C 
ENDBRANCH  20  21
ENDBRANCH   1  20
BRANCH   1  24
HETATM   24  C13 UNL     1      13.771  -2.918   1.977  1.00  0.00     0.015 C 
HETATM   25  C14 UNL     1      14.296  -3.238   0.597  1.00  0.00     0.010 C 
HETATM   26  C15 UNL     1      13.920  -2.163  -0.405  1.00  0.00     0.013 C 
HETATM   27  C16 UNL     1      14.483  -0.819  -0.009  1.00  0.00    -0.008 C 
HETATM   28  C22 UNL     1      13.442   0.281  -0.004  1.00  0.00     0.013 C 
HETATM   29  C24 UNL     1      14.664  -0.608   1.444  1.00  0.00    -0.003 C 
HETATM   30  C23 UNL     1      13.973   0.744   1.320  1.00  0.00     0.006 C 
HETATM   31  C25 UNL     1      13.849  -1.496   2.349  1.00  0.00     0.014 C 
BRANCH  27  32
HETATM   32  C17 UNL     1      15.627  -0.463  -0.906  1.00  0.00     0.158 C 
HETATM   33  C18 UNL     1      16.062  -1.544  -1.846  1.00  0.00     0.204 C 
HETATM   34  O5  UNL     1      16.913  -0.801  -2.701  1.00  0.00    -0.353 OA
HETATM   35  C19 UNL     1      16.553   0.514  -2.588  1.00  0.00     0.157 C 
HETATM   36  C20 UNL     1      16.286   1.063  -3.959  1.00  0.00     0.078 C 
HETATM   37  C21 UNL     1      17.698   1.294  -1.977  1.00  0.00     0.078 C 
HETATM   38  O6  UNL     1      15.417   0.593  -1.755  1.00  0.00    -0.348 OA
ENDBRANCH  27  32
ENDBRANCH   1  24
TORSDOF 13
ENDMDL
MODEL 2
REMARK VINA RESULT: -8.199313387      2.301      3.630
REMARK  13 active torsions:
REMARK  status: ('A' for Active; 'I' for Inactive)
REMARK    1  A    between atoms: C2_2  and  C4_4 
REMARK    2  A    between atoms: C4_4  and  O1_5 
REMARK    3  A    between atoms: C4_4  and  C5_10 
REMARK    4  A    between atoms: O1_5  and  S1_6 
REMARK    5  A    between atoms: C5_10  and  C6_11 
REMARK    6  A    between atoms: C5_10  and  C26_33 
REMARK    7  A    between atoms: C7_12  and  C8_13 
REMARK    8  A    between atoms: C8_13  and  C9_14 
REMARK    9  A    between atoms: C8_13  and  C13_18 
REMARK   10  A    between atoms: C9_14  and  C10_15 
REMARK   11  A    between atoms: C16_21  and  C17_22 
REMARK   12  A    between atoms: C26_33  and  C27_34 
REMARK   13  A    between atoms: C27_34  and  C28_35 
ROOT
HETATM    1  C8  UNL     1      12.349  -2.665   2.878  1.00  0.00    -0.076 C 
ENDROOT
BRANCH   1   2
HETATM    2  C7  UNL     1      11.642  -3.359   1.746  1.00  0.00    -0.001 C 
HETATM    3  C6  UNL     1      11.703  -4.615   1.434  1.00  0.00    -0.019 C 
BRANCH   3   4
HETATM    4  C5  UNL     1      10.943  -5.188   0.287  1.00  0.00     0.043 C 
BRANCH   4   5
HETATM    5  C4  UNL     1      10.229  -6.413   0.903  1.00  0.00     0.180 C 
BRANCH   5   6
HETATM    6  C2  UNL     1      10.035  -7.451  -0.115  1.00  0.00    -0.062 C 
HETATM    7  C1  UNL     1       9.247  -7.371  -1.157  1.00  0.00     0.016 C 
HETATM    8  C3  UNL     1      10.784  -8.749   0.058  1.00  0.00     0.045 C 
ENDBRANCH   5   6
BRANCH   5   9
HETATM    9  O1  UNL     1      10.899  -6.918   1.994  1.00  0.00    -0.246 OA
BRANCH   9  10
HETATM   10  S1  UNL     1       9.881  -7.092   3.308  1.00  0.00     0.252 S 
HETATM   11  O2  UNL     1       8.986  -5.867   3.399  1.00  0.00    -0.572 OA
HETATM   12  O3  UNL     1      10.593  -7.187   4.616  1.00  0.00    -0.572 OA
HETATM   13  O4  UNL     1       8.898  -8.447   3.070  1.00  0.00    -0.572 OA
ENDBRANCH   9  10
ENDBRANCH   5   9
ENDBRANCH   4   5
BRANCH   4  14
HETATM   14  C26 UNL     1      11.741  -5.674  -0.853  1.00  0.00     0.015 C 
BRANCH  14  15
HETATM   15  C27 UNL     1      13.221  -5.531  -0.768  1.00  0.00     0.028 C 
BRANCH  15  16
HETATM   16  C28 UNL     1      13.887  -6.800  -0.346  1.00  0.00    -0.025 C 
HETATM   17  C29 UNL     1      15.112  -6.866   0.148  1.00  0.00    -0.091 C 
HETATM   18  C30 UNL     1      15.957  -5.632   0.329  1.00  0.00     0.042 C 
HETATM   19  C31 UNL     1      15.724  -8.161   0.553  1.00  0.00     0.042 C 
ENDBRANCH  15  16
ENDBRANCH  14  15
ENDBRANCH   4  14
ENDBRANCH   3   4
ENDBRANCH   1   2
BRANCH   1  20
HETATM   20  C9  UNL     1      11.508  -1.753   3.675  1.00  0.00     0.038 C 
BRANCH  20  21
HETATM   21  C10 UNL     1      10.488  -2.565   4.461  1.00  0.00    -0.019 C 
HETATM   22  C11 UNL     1       9.873  -1.668   5.514  1.00  0.00     0.010 C 
HETATM   23  C12 UNL     1      11.231  -3.646   5.283  1.00  0.00     0.010 C 
ENDBRANCH  20  21
ENDBRANCH   1  20
BRANCH   1  24
HETATM   24  C13 UNL     1      13.703  -2.199   2.461  1.00  0.00     0.015 C 
HETATM   25  C14 UNL     1      14.175  -2.803   1.160  1.00  0.00     0.010 C 
HETATM   26  C15 UNL     1      13.856  -1.903  -0.019  1.00  0.00     0.013 C 
HETATM   27  C16 UNL     1      14.524  -0.555   0.121  1.00  0.00    -0.008 C 
HETATM   28  C22 UNL     1      13.565   0.602  -0.069  1.00  0.00     0.013 C 
HETATM   29  C24 UNL     1      14.749  -0.098   1.508  1.00  0.00    -0.003 C 
HETATM   30  C23 UNL     1      14.155   1.257   1.144  1.00  0.00     0.006 C 
HETATM   31  C25 UNL     1      13.891  -0.743   2.567  1.00  0.00     0.014 C 
BRANCH  27  32
HETATM   32  C17 UNL     1      15.671  -0.455  -0.835  1.00  0.00     0.158 C 
HETATM   33  C18 UNL     1      15.919  -1.675  -1.666  1.00  0.00     0.204 C 
HETATM   34  O5  UNL     1      16.832  -1.149  -2.613  1.00  0.00    -0.353 OA
HETATM   35  C19 UNL     1      16.659   0.208  -2.631  1.00  0.00     0.157 C 
HETATM   36  C20 UNL     1      16.419   0.648  -4.045  1.00  0.00     0.078 C 
HETATM   37  C21 UNL     1      17.922   0.877  -2.131  1.00  0.00     0.078 C 
HETATM   38  O6  UNL     1      15.576   0.528  -1.786  1.00  0.00    -0.348 OA
ENDBRANCH  27  32
ENDBRANCH   1  24
TORSDOF 13
ENDMDL
MODEL 3
REMARK VINA RESULT: -8.173143310      4.526      7.255
REMARK  13 active torsions:
REMARK  status: ('A' for Active; 'I' for Inactive)
REMARK    1  A    between atoms: C2_2  and  C4_4 
REMARK    2  A    between atoms: C4_4  and  O1_5 
REMARK    3  A    between atoms: C4_4  and  C5_10 
REMARK    4  A    between atoms: O1_5  and  S1_6 
REMARK    5  A    between atoms: C5_10  and  C6_11 
REMARK    6  A    between atoms: C5_10  and  C26_33 
REMARK    7  A    between atoms: C7_12  and  C8_13 
REMARK    8  A    between atoms: C8_13  and  C9_14 
REMARK    9  A    between atoms: C8_13  and  C13_18 
REMARK   10  A    between atoms: C9_14  and  C10_15 
REMARK   11  A    between atoms: C16_21  and  C17_22 
REMARK   12  A    between atoms: C26_33  and  C27_34 
REMARK   13  A    between atoms: C27_34  and  C28_35 
ROOT
HETATM    1  C8  UNL     1      10.588  -4.270   3.270  1.00  0.00    -0.076 C 
ENDROOT
BRANCH   1   2
HETATM    2  C7  UNL     1      10.879  -3.313   4.393  1.00  0.00    -0.001 C 
HETATM    3  C6  UNL     1      10.115  -3.027   5.399  1.00  0.00    -0.019 C 
BRANCH   3   4
HETATM    4  C5  UNL     1      10.523  -2.062   6.459  1.00  0.00     0.043 C 
BRANCH   4   5
HETATM    5  C4  UNL     1       9.978  -2.701   7.757  1.00  0.00     0.180 C 
BRANCH   5   6
HETATM    6  C2  UNL     1       8.629  -3.233   7.531  1.00  0.00    -0.062 C 
HETATM    7  C1  UNL     1       7.619  -2.580   7.015  1.00  0.00     0.016 C 
HETATM    8  C3  UNL     1       8.359  -4.654   7.958  1.00  0.00     0.045 C 
ENDBRANCH   5   6
BRANCH   5   9
HETATM    9  O1  UNL     1      10.812  -3.676   8.253  1.00  0.00    -0.246 OA
BRANCH   9  10
HETATM   10  S1  UNL     1      11.362  -3.289   9.783  1.00  0.00     0.252 S 
HETATM   11  O2  UNL     1      11.497  -1.779   9.887  1.00  0.00    -0.572 OA
HETATM   12  O3  UNL     1      12.707  -3.851  10.101  1.00  0.00    -0.572 OA
HETATM   13  O4  UNL     1      10.223  -3.797  10.925  1.00  0.00    -0.572 OA
ENDBRANCH   9  10
ENDBRANCH   5   9
ENDBRANCH   4   5
BRANCH   4  14
HETATM   14  C26 UNL     1       9.955  -0.705   6.367  1.00  0.00     0.015 C 
BRANCH  14  15
HETATM   15  C27 UNL     1       9.768  -0.128   5.007  1.00  0.00     0.028 C 
BRANCH  15  16
HETATM   16  C28 UNL     1      10.705   1.006   4.742  1.00  0.00    -0.025 C 
HETATM   17  C29 UNL     1      10.349   2.146   4.175  1.00  0.00    -0.091 C 
HETATM   18  C30 UNL     1       8.930   2.398   3.736  1.00  0.00     0.042 C 
HETATM   19  C31 UNL     1      11.328   3.242   3.937  1.00  0.00     0.042 C 
ENDBRANCH  15  16
ENDBRANCH  14  15
ENDBRANCH   4  14
ENDBRANCH   3   4
ENDBRANCH   1   2
BRANCH   1  20
HETATM   20  C9  UNL     1      10.785  -5.695   3.594  1.00  0.00     0.038 C 
BRANCH  20  21
HETATM   21  C10 UNL     1       9.454  -6.426   3.484  1.00  0.00    -0.019 C 
HETATM   22  C11 UNL     1       8.885  -6.593   4.877  1.00  0.00     0.010 C 
HETATM   23  C12 UNL     1       9.715  -7.877   3.013  1.00  0.00     0.010 C 
ENDBRANCH  20  21
ENDBRANCH   1  20
BRANCH   1  24
HETATM   24  C13 UNL     1      11.121  -3.758   1.974  1.00  0.00     0.015 C 
HETATM   25  C14 UNL     1      12.228  -2.743   2.138  1.00  0.00     0.010 C 
HETATM   26  C15 UNL     1      13.596  -3.397   2.072  1.00  0.00     0.013 C 
HETATM   27  C16 UNL     1      13.811  -4.092   0.748  1.00  0.00    -0.008 C 
HETATM   28  C22 UNL     1      14.283  -5.523   0.901  1.00  0.00     0.013 C 
HETATM   29  C24 UNL     1      12.589  -4.599   0.090  1.00  0.00    -0.003 C 
HETATM   30  C23 UNL     1      13.283  -5.937  -0.137  1.00  0.00     0.006 C 
HETATM   31  C25 UNL     1      11.394  -4.811   0.983  1.00  0.00     0.014 C 
BRANCH  27  32
HETATM   32  C17 UNL     1      14.770  -3.304  -0.088  1.00  0.00     0.158 C 
HETATM   33  C18 UNL     1      16.001  -4.042  -0.516  1.00  0.00     0.204 C 
HETATM   34  O5  UNL     1      16.506  -3.141  -1.485  1.00  0.00    -0.353 OA
HETATM   35  C19 UNL     1      15.458  -2.365  -1.901  1.00  0.00     0.157 C 
HETATM   36  C20 UNL     1      15.372  -2.427  -3.398  1.00  0.00     0.078 C 
HETATM   37  C21 UNL     1      15.713  -0.928  -1.498  1.00  0.00     0.078 C 
HETATM   38  O6  UNL     1      14.283  -2.839  -1.282  1.00  0.00    -0.348 OA
ENDBRANCH  27  32
ENDBRANCH   1  24
TORSDOF 13
ENDMDL
MODEL 4
REMARK VINA RESULT: -7.918138143      1.402      2.883
REMARK  13 active torsions:
REMARK  status: ('A' for Active; 'I' for Inactive)
REMARK    1  A    between atoms: C2_2  and  C4_4 
REMARK    2  A    between atoms: C4_4  and  O1_5 
REMARK    3  A    between atoms: C4_4  and  C5_10 
REMARK    4  A    between atoms: O1_5  and  S1_6 
REMARK    5  A    between atoms: C5_10  and  C6_11 
REMARK    6  A    between atoms: C5_10  and  C26_33 
REMARK    7  A    between atoms: C7_12  and  C8_13 
REMARK    8  A    between atoms: C8_13  and  C9_14 
REMARK    9  A    between atoms: C8_13  and  C13_18 
REMARK   10  A    between atoms: C9_14  and  C10_15 
REMARK   11  A    between atoms: C16_21  and  C17_22 
REMARK   12  A    between atoms: C26_33  and  C27_34 
REMARK   13  A    between atoms: C27_34  and  C28_35 
ROOT
HETATM    1  C8  UNL     1      14.057  -2.792   0.137  1.00  0.00    -0.076 C 
ENDROOT
BRANCH   1   2
HETATM    2  C7  UNL     1      13.069  -3.829  -0.324  1.00  0.00    -0.001 C 
HETATM    3  C6  UNL     1      12.413  -4.670   0.410  1.00  0.00    -0.019 C 
BRANCH   3   4
HETATM    4  C5  UNL     1      11.449  -5.649  -0.168  1.00  0.00     0.043 C 
BRANCH   4   5
HETATM    5  C4  UNL     1      12.070  -7.020   0.188  1.00  0.00     0.180 C 
BRANCH   5   6
HETATM    6  C2  UNL     1      11.012  -7.993   0.484  1.00  0.00    -0.062 C 
HETATM    7  C1  UNL     1      10.273  -8.023   1.563  1.00  0.00     0.016 C 
HETATM    8  C3  UNL     1      10.764  -9.084  -0.527  1.00  0.00     0.045 C 
ENDBRANCH   5   6
BRANCH   5   9
HETATM    9  O1  UNL     1      12.905  -7.491  -0.799  1.00  0.00    -0.246 OA
BRANCH   9  10
HETATM   10  S1  UNL     1      14.392  -7.937  -0.179  1.00  0.00     0.252 S 
HETATM   11  O2  UNL     1      15.223  -8.548  -1.294  1.00  0.00    -0.572 OA
HETATM   12  O3  UNL     1      14.313  -8.969   0.897  1.00  0.00    -0.572 OA
HETATM   13  O4  UNL     1      15.194  -6.559   0.383  1.00  0.00    -0.572 OA
ENDBRANCH   9  10
ENDBRANCH   5   9
ENDBRANCH   4   5
BRANCH   4  14
HETATM   14  C26 UNL     1      11.276  -5.615  -1.631  1.00  0.00     0.015 C 
BRANCH  14  15
HETATM   15  C27 UNL     1       9.883  -5.629  -2.160  1.00  0.00     0.028 C 
BRANCH  15  16
HETATM   16  C28 UNL     1       9.532  -4.357  -2.859  1.00  0.00    -0.025 C 
HETATM   17  C29 UNL     1       8.310  -4.038  -3.251  1.00  0.00    -0.091 C 
HETATM   18  C30 UNL     1       7.142  -4.961  -3.020  1.00  0.00     0.042 C 
HETATM   19  C31 UNL     1       8.020  -2.752  -3.943  1.00  0.00     0.042 C 
ENDBRANCH  15  16
ENDBRANCH  14  15
ENDBRANCH   4  14
ENDBRANCH   3   4
ENDBRANCH   1   2
BRANCH   1  20
HETATM   20  C9  UNL     1      14.088  -2.561   1.593  1.00  0.00     0.038 C 
BRANCH  20  21
HETATM   21  C10 UNL     1      13.070  -1.488   1.955  1.00  0.00    -0.019 C 
HETATM   22  C11 UNL     1      13.807  -0.317   2.569  1.00  0.00     0.010 C 
HETATM   23  C12 UNL     1      12.178  -2.010   3.108  1.00  0.00     0.010 C 
ENDBRANCH  20  21
ENDBRANCH   1  20
BRANCH   1  24
HETATM   24  C13 UNL     1      14.054  -1.607  -0.769  1.00  0.00     0.015 C 
HETATM   25  C14 UNL     1      15.363  -0.852  -0.776  1.00  0.00     0.010 C 
HETATM   26  C15 UNL     1      16.263  -1.311  -1.908  1.00  0.00     0.013 C 
HETATM   27  C16 UNL     1      15.610  -1.097  -3.253  1.00  0.00    -0.008 C 
HETATM   28  C22 UNL     1      15.629  -2.336  -4.124  1.00  0.00     0.013 C 
HETATM   29  C24 UNL     1      14.133  -1.154  -3.259  1.00  0.00    -0.003 C 
HETATM   30  C23 UNL     1      14.188  -2.090  -4.460  1.00  0.00     0.006 C 
HETATM   31  C25 UNL     1      13.492  -1.877  -2.102  1.00  0.00     0.014 C 
BRANCH  27  32
HETATM   32  C17 UNL     1      16.260   0.054  -3.955  1.00  0.00     0.158 C 
HETATM   33  C18 UNL     1      15.332   1.150  -4.381  1.00  0.00     0.204 C 
HETATM   34  O5  UNL     1      16.272   2.152  -4.721  1.00  0.00    -0.353 OA
HETATM   35  C19 UNL     1      17.437   1.856  -4.067  1.00  0.00     0.157 C 
HETATM   36  C20 UNL     1      17.874   3.059  -3.285  1.00  0.00     0.078 C 
HETATM   37  C21 UNL     1      18.511   1.532  -5.084  1.00  0.00     0.078 C 
HETATM   38  O6  UNL     1      17.206   0.739  -3.237  1.00  0.00    -0.348 OA
ENDBRANCH  27  32
ENDBRANCH   1  24
TORSDOF 13
ENDMDL
MODEL 5
REMARK VINA RESULT: -7.911096589      2.451      3.863
REMARK  13 active torsions:
REMARK  status: ('A' for Active; 'I' for Inactive)
REMARK    1  A    between atoms: C2_2  and  C4_4 
REMARK    2  A    between atoms: C4_4  and  O1_5 
REMARK    3  A    between atoms: C4_4  and  C5_10 
REMARK    4  A    between atoms: O1_5  and  S1_6 
REMARK    5  A    between atoms: C5_10  and  C6_11 
REMARK    6  A    between atoms: C5_10  and  C26_33 
REMARK    7  A    between atoms: C7_12  and  C8_13 
REMARK    8  A    between atoms: C8_13  and  C9_14 
REMARK    9  A    between atoms: C8_13  and  C13_18 
REMARK   10  A    between atoms: C9_14  and  C10_15 
REMARK   11  A    between atoms: C16_21  and  C17_22 
REMARK   12  A    between atoms: C26_33  and  C27_34 
REMARK   13  A    between atoms: C27_34  and  C28_35 
ROOT
HETATM    1  C8  UNL     1      12.645  -2.531   2.946  1.00  0.00    -0.076 C 
ENDROOT
BRANCH   1   2
HETATM    2  C7  UNL     1      12.367  -3.937   2.490  1.00  0.00    -0.001 C 
HETATM    3  C6  UNL     1      11.320  -4.366   1.859  1.00  0.00    -0.019 C 
BRANCH   3   4
HETATM    4  C5  UNL     1      11.165  -5.791   1.450  1.00  0.00     0.043 C 
BRANCH   4   5
HETATM    5  C4  UNL     1      11.105  -5.718  -0.093  1.00  0.00     0.180 C 
BRANCH   5   6
HETATM    6  C2  UNL     1      12.445  -5.904  -0.661  1.00  0.00    -0.062 C 
HETATM    7  C1  UNL     1      13.081  -5.056  -1.429  1.00  0.00     0.016 C 
HETATM    8  C3  UNL     1      13.154  -7.202  -0.367  1.00  0.00     0.045 C 
ENDBRANCH   5   6
BRANCH   5   9
HETATM    9  O1  UNL     1      10.217  -6.624  -0.628  1.00  0.00    -0.246 OA
BRANCH   9  10
HETATM   10  S1  UNL     1       9.554  -6.059  -2.054  1.00  0.00     0.252 S 
HETATM   11  O2  UNL     1      10.453  -6.470  -3.208  1.00  0.00    -0.572 OA
HETATM   12  O3  UNL     1       9.442  -4.572  -2.121  1.00  0.00    -0.572 OA
HETATM   13  O4  UNL     1       8.040  -6.777  -2.283  1.00  0.00    -0.572 OA
ENDBRANCH   9  10
ENDBRANCH   5   9
ENDBRANCH   4   5
BRANCH   4  14
HETATM   14  C26 UNL     1       9.942  -6.475   1.904  1.00  0.00     0.015 C 
BRANCH  14  15
HETATM   15  C27 UNL     1      10.043  -7.332   3.118  1.00  0.00     0.028 C 
BRANCH  15  16
HETATM   16  C28 UNL     1       8.949  -7.052   4.098  1.00  0.00    -0.025 C 
HETATM   17  C29 UNL     1       9.004  -6.107   5.021  1.00  0.00    -0.091 C 
HETATM   18  C30 UNL     1      10.208  -5.214   5.165  1.00  0.00     0.042 C 
HETATM   19  C31 UNL     1       7.881  -5.874   5.971  1.00  0.00     0.042 C 
ENDBRANCH  15  16
ENDBRANCH  14  15
ENDBRANCH   4  14
ENDBRANCH   3   4
ENDBRANCH   1   2
BRANCH   1  20
HETATM   20  C9  UNL     1      11.487  -1.619   2.907  1.00  0.00     0.038 C 
BRANCH  20  21
HETATM   21  C10 UNL     1      11.291  -0.994   4.281  1.00  0.00    -0.019 C 
HETATM   22  C11 UNL     1      10.174  -1.733   4.988  1.00  0.00     0.010 C 
HETATM   23  C12 UNL     1      10.735   0.440   4.106  1.00  0.00     0.010 C 
ENDBRANCH  20  21
ENDBRANCH   1  20
BRANCH   1  24
HETATM   24  C13 UNL     1      13.951  -2.041   2.416  1.00  0.00     0.015 C 
HETATM   25  C14 UNL     1      14.348  -2.682   1.107  1.00  0.00     0.010 C 
HETATM   26  C15 UNL     1      13.918  -1.838  -0.078  1.00  0.00     0.013 C 
HETATM   27  C16 UNL     1      14.550  -0.466  -0.036  1.00  0.00    -0.008 C 
HETATM   28  C22 UNL     1      13.543   0.654  -0.198  1.00  0.00     0.013 C 
HETATM   29  C24 UNL     1      14.858   0.050   1.314  1.00  0.00    -0.003 C 
HETATM   30  C23 UNL     1      14.196   1.372   0.944  1.00  0.00     0.006 C 
HETATM   31  C25 UNL     1      14.098  -0.577   2.455  1.00  0.00     0.014 C 
BRANCH  27  32
HETATM   32  C17 UNL     1      15.622  -0.370  -1.074  1.00  0.00     0.158 C 
HETATM   33  C18 UNL     1      15.956  -1.653  -1.771  1.00  0.00     0.204 C 
HETATM   34  O5  UNL     1      16.749  -1.158  -2.835  1.00  0.00    -0.353 OA
HETATM   35  C19 UNL     1      16.427   0.161  -3.002  1.00  0.00     0.157 C 
HETATM   36  C20 UNL     1      16.060   0.393  -4.438  1.00  0.00     0.078 C 
HETATM   37  C21 UNL     1      17.634   1.014  -2.675  1.00  0.00     0.078 C 
HETATM   38  O6  UNL     1      15.365   0.471  -2.126  1.00  0.00    -0.348 OA
ENDBRANCH  27  32
ENDBRANCH   1  24
TORSDOF 13
ENDMDL
