MODEL 1
REMARK VINA RESULT: -6.942355895      0.000      0.000
REMARK  7 active torsions:
REMARK  status: ('A' for Active; 'I' for Inactive)
REMARK    1  A    between atoms: C2_2  and  N1_3 
REMARK    2  A    between atoms: C3_9  and  N3_10 
REMARK    3  A    between atoms: N3_10  and  N4_12 
REMARK    4  A    between atoms: N7_20  and  O1_21 
REMARK    5  A    between atoms: C5_23  and  C6_24 
REMARK    6  A    between atoms: C6_24  and  N9_28 
REMARK    7  A    between atoms: N9_28  and  N10_30 
ROOT
HETATM    1  C1  UNL     1      35.675  39.722  27.358  1.00  0.00     0.073 C 
HETATM    2  C2  UNL     1      36.399  39.844  26.009  1.00  0.00     0.231 C 
HETATM    3  N2  UNL     1      35.447  39.762  24.921  1.00  0.00    -0.188 N 
ATOM      4  H2  UNL     1      35.420  38.865  24.435  1.00  0.00     0.180 HD
HETATM    5  C3  UNL     1      34.617  40.663  24.469  1.00  0.00     0.692 C 
HETATM    6  N6  UNL     1      34.466  41.984  24.970  1.00  0.00    -0.211 N 
ATOM      7  H6  UNL     1      33.646  42.511  24.671  1.00  0.00     0.179 HD
HETATM    8  C4  UNL     1      35.401  42.647  25.885  1.00  0.00     0.261 C 
HETATM    9  N7  UNL     1      36.723  42.259  25.505  1.00  0.00    -0.165 NA
HETATM   10  C5  UNL     1      37.231  41.061  26.063  1.00  0.00     0.212 C 
ENDROOT
BRANCH  10  11
HETATM   11  C6  UNL     1      38.563  40.777  25.445  1.00  0.00     0.114 C 
HETATM   12  N8  UNL     1      39.556  40.594  26.248  1.00  0.00    -0.386 N 
ATOM     13  H82 UNL     1      39.423  40.641  27.259  1.00  0.00     0.157 HD
ATOM     14  H81 UNL     1      40.464  40.401  25.826  1.00  0.00     0.157 HD
BRANCH  11  15
HETATM   15  N9  UNL     1      38.747  40.712  24.039  1.00  0.00    -0.294 N 
ATOM     16  H9  UNL     1      39.172  39.867  23.655  1.00  0.00     0.187 HD
BRANCH  15  17
HETATM   17  N10 UNL     1      38.389  41.718  23.146  1.00  0.00    -0.344 N 
ATOM     18 2H10 UNL     1      38.800  42.638  23.307  1.00  0.00     0.176 HD
ATOM     19 1H10 UNL     1      37.754  41.595  22.358  1.00  0.00     0.176 HD
ENDBRANCH  15  17
ENDBRANCH  11  15
ENDBRANCH  10  11
BRANCH   2  20
HETATM   20  N1  UNL     1      37.211  38.640  25.901  1.00  0.00    -0.050 N 
ATOM     21  H13 UNL     1      37.146  38.024  26.711  1.00  0.00     0.277 HD
ATOM     22  H12 UNL     1      36.864  37.969  25.216  1.00  0.00     0.277 HD
ATOM     23  H11 UNL     1      38.157  38.971  25.711  1.00  0.00     0.277 HD
ENDBRANCH   2  20
BRANCH   9  24
HETATM   24  O1  UNL     1      37.558  43.275  25.906  1.00  0.00    -0.311 OA
ATOM     25  H1  UNL     1      38.239  42.872  26.433  1.00  0.00     0.237 HD
ENDBRANCH   9  24
BRANCH   5  26
HETATM   26  N3  UNL     1      33.774  40.324  23.372  1.00  0.00    -0.118 N 
ATOM     27  H3  UNL     1      33.958  40.737  22.457  1.00  0.00     0.207 HD
BRANCH  26  28
HETATM   28  N4  UNL     1      32.815  39.533  23.503  1.00  0.00    -0.235 N 
HETATM   29  N5  UNL     1      32.079  38.672  24.015  1.00  0.00    -0.330 N 
ATOM     30  H52 UNL     1      32.615  38.539  24.873  1.00  0.00     0.178 HD
ATOM     31  H51 UNL     1      31.296  38.027  24.123  1.00  0.00     0.178 HD
ATOM     32  H4  UNL     1      32.317  39.704  22.630  1.00  0.00     0.208 HD
ENDBRANCH  26  28
ENDBRANCH   5  26
TORSDOF 7
ENDMDL
MODEL 2
REMARK VINA RESULT: -6.715914955      1.418      1.694
REMARK  7 active torsions:
REMARK  status: ('A' for Active; 'I' for Inactive)
REMARK    1  A    between atoms: C2_2  and  N1_3 
REMARK    2  A    between atoms: C3_9  and  N3_10 
REMARK    3  A    between atoms: N3_10  and  N4_12 
REMARK    4  A    between atoms: N7_20  and  O1_21 
REMARK    5  A    between atoms: C5_23  and  C6_24 
REMARK    6  A    between atoms: C6_24  and  N9_28 
REMARK    7  A    between atoms: N9_28  and  N10_30 
ROOT
HETATM    1  C1  UNL     1      36.913  39.938  27.984  1.00  0.00     0.073 C 
HETATM    2  C2  UNL     1      36.615  39.652  26.504  1.00  0.00     0.231 C 
HETATM    3  N2  UNL     1      35.237  39.238  26.343  1.00  0.00    -0.188 N 
ATOM      4  H2  UNL     1      35.098  38.236  26.208  1.00  0.00     0.180 HD
HETATM    5  C3  UNL     1      34.144  39.953  26.344  1.00  0.00     0.692 C 
HETATM    6  N6  UNL     1      34.071  41.362  26.509  1.00  0.00    -0.211 N 
ATOM      7  H6  UNL     1      33.156  41.768  26.700  1.00  0.00     0.179 HD
HETATM    8  C4  UNL     1      35.214  42.278  26.423  1.00  0.00     0.261 C 
HETATM    9  N7  UNL     1      36.069  41.804  25.381  1.00  0.00    -0.165 NA
HETATM   10  C5  UNL     1      37.039  40.834  25.732  1.00  0.00     0.212 C 
ENDROOT
BRANCH  10  11
HETATM   11  C6  UNL     1      37.735  40.388  24.486  1.00  0.00     0.114 C 
HETATM   12  N8  UNL     1      39.025  40.367  24.509  1.00  0.00    -0.386 N 
ATOM     13  H82 UNL     1      39.535  40.643  25.348  1.00  0.00     0.157 HD
ATOM     14  H81 UNL     1      39.499  40.062  23.658  1.00  0.00     0.157 HD
BRANCH  11  15
HETATM   15  N9  UNL     1      37.025  40.003  23.318  1.00  0.00    -0.294 N 
ATOM     16  H9  UNL     1      36.699  40.743  22.696  1.00  0.00     0.187 HD
BRANCH  15  17
HETATM   17  N10 UNL     1      36.742  38.687  22.962  1.00  0.00    -0.344 N 
ATOM     18 2H10 UNL     1      35.771  38.388  23.055  1.00  0.00     0.176 HD
ATOM     19 1H10 UNL     1      37.432  38.018  22.622  1.00  0.00     0.176 HD
ENDBRANCH  15  17
ENDBRANCH  11  15
ENDBRANCH  10  11
BRANCH   2  20
HETATM   20  N1  UNL     1      37.411  38.478  26.174  1.00  0.00    -0.050 N 
ATOM     21  H13 UNL     1      38.116  38.248  26.874  1.00  0.00     0.277 HD
ATOM     22  H12 UNL     1      36.894  37.600  26.234  1.00  0.00     0.277 HD
ATOM     23  H11 UNL     1      37.795  38.667  25.249  1.00  0.00     0.277 HD
ENDBRANCH   2  20
BRANCH   9  24
HETATM   24  O1  UNL     1      36.749  42.900  24.905  1.00  0.00    -0.311 OA
ATOM     25  H1  UNL     1      37.251  42.601  24.156  1.00  0.00     0.237 HD
ENDBRANCH   9  24
BRANCH   5  26
HETATM   26  N3  UNL     1      32.896  39.292  26.164  1.00  0.00    -0.118 N 
ATOM     27  H3  UNL     1      32.274  39.177  26.963  1.00  0.00     0.207 HD
BRANCH  26  28
HETATM   28  N4  UNL     1      32.545  38.849  25.049  1.00  0.00    -0.235 N 
HETATM   29  N5  UNL     1      31.801  38.435  24.143  1.00  0.00    -0.330 N 
ATOM     30  H52 UNL     1      30.921  38.516  24.653  1.00  0.00     0.178 HD
ATOM     31  H51 UNL     1      31.514  38.074  23.233  1.00  0.00     0.178 HD
ATOM     32  H4  UNL     1      33.451  38.786  24.584  1.00  0.00     0.208 HD
ENDBRANCH  26  28
ENDBRANCH   5  26
TORSDOF 7
ENDMDL
MODEL 3
REMARK VINA RESULT: -6.584969330      2.241      3.293
REMARK  7 active torsions:
REMARK  status: ('A' for Active; 'I' for Inactive)
REMARK    1  A    between atoms: C2_2  and  N1_3 
REMARK    2  A    between atoms: C3_9  and  N3_10 
REMARK    3  A    between atoms: N3_10  and  N4_12 
REMARK    4  A    between atoms: N7_20  and  O1_21 
REMARK    5  A    between atoms: C5_23  and  C6_24 
REMARK    6  A    between atoms: C6_24  and  N9_28 
REMARK    7  A    between atoms: N9_28  and  N10_30 
ROOT
HETATM    1  C1  UNL     1      34.614  44.266  27.104  1.00  0.00     0.073 C 
HETATM    2  C2  UNL     1      35.411  43.087  27.682  1.00  0.00     0.231 C 
HETATM    3  N2  UNL     1      34.632  41.869  27.600  1.00  0.00    -0.188 N 
ATOM      4  H2  UNL     1      34.208  41.565  28.476  1.00  0.00     0.180 HD
HETATM    5  C3  UNL     1      34.391  41.100  26.571  1.00  0.00     0.692 C 
HETATM    6  N6  UNL     1      34.868  41.304  25.249  1.00  0.00    -0.211 N 
ATOM      7  H6  UNL     1      34.439  40.756  24.503  1.00  0.00     0.179 HD
HETATM    8  C4  UNL     1      35.931  42.243  24.875  1.00  0.00     0.261 C 
HETATM    9  N7  UNL     1      36.918  42.209  25.908  1.00  0.00    -0.165 NA
HETATM   10  C5  UNL     1      36.725  43.072  27.014  1.00  0.00     0.212 C 
ENDROOT
BRANCH  10  11
HETATM   11  C6  UNL     1      37.791  42.792  28.025  1.00  0.00     0.114 C 
HETATM   12  N8  UNL     1      38.385  43.810  28.550  1.00  0.00    -0.386 N 
ATOM     13  H82 UNL     1      38.127  44.759  28.279  1.00  0.00     0.157 HD
ATOM     14  H81 UNL     1      39.112  43.619  29.239  1.00  0.00     0.157 HD
BRANCH  11  15
HETATM   15  N9  UNL     1      38.150  41.471  28.401  1.00  0.00    -0.294 N 
ATOM     16  H9  UNL     1      38.057  41.217  29.385  1.00  0.00     0.187 HD
BRANCH  15  17
HETATM   17  N10 UNL     1      38.620  40.499  27.523  1.00  0.00    -0.344 N 
ATOM     18 2H10 UNL     1      37.980  39.737  27.300  1.00  0.00     0.176 HD
ATOM     19 1H10 UNL     1      39.548  40.501  27.099  1.00  0.00     0.176 HD
ENDBRANCH  15  17
ENDBRANCH  11  15
ENDBRANCH  10  11
BRANCH   2  20
HETATM   20  N1  UNL     1      35.532  43.369  29.106  1.00  0.00    -0.050 N 
ATOM     21  H13 UNL     1      34.890  42.834  29.689  1.00  0.00     0.277 HD
ATOM     22  H12 UNL     1      36.393  43.016  29.524  1.00  0.00     0.277 HD
ATOM     23  H11 UNL     1      35.419  44.380  29.189  1.00  0.00     0.277 HD
ENDBRANCH   2  20
BRANCH   9  24
HETATM   24  O1  UNL     1      38.109  42.568  25.322  1.00  0.00    -0.311 OA
ATOM     25  H1  UNL     1      37.903  43.238  24.681  1.00  0.00     0.237 HD
ENDBRANCH   9  24
BRANCH   5  26
HETATM   26  N3  UNL     1      33.582  39.944  26.760  1.00  0.00    -0.118 N 
ATOM     27  H3  UNL     1      33.296  39.685  27.703  1.00  0.00     0.207 HD
BRANCH  26  28
HETATM   28  N4  UNL     1      33.214  39.238  25.795  1.00  0.00    -0.235 N 
HETATM   29  N5  UNL     1      32.520  38.836  24.846  1.00  0.00    -0.330 N 
ATOM     30  H52 UNL     1      31.791  39.547  24.910  1.00  0.00     0.178 HD
ATOM     31  H51 UNL     1      32.220  38.261  24.059  1.00  0.00     0.178 HD
ATOM     32  H4  UNL     1      33.968  38.551  25.774  1.00  0.00     0.208 HD
ENDBRANCH  26  28
ENDBRANCH   5  26
TORSDOF 7
ENDMDL
MODEL 4
REMARK VINA RESULT: -6.535011488      2.351      3.622
REMARK  7 active torsions:
REMARK  status: ('A' for Active; 'I' for Inactive)
REMARK    1  A    between atoms: C2_2  and  N1_3 
REMARK    2  A    between atoms: C3_9  and  N3_10 
REMARK    3  A    between atoms: N3_10  and  N4_12 
REMARK    4  A    between atoms: N7_20  and  O1_21 
REMARK    5  A    between atoms: C5_23  and  C6_24 
REMARK    6  A    between atoms: C6_24  and  N9_28 
REMARK    7  A    between atoms: N9_28  and  N10_30 
ROOT
HETATM    1  C1  UNL     1      36.666  42.164  24.571  1.00  0.00     0.073 C 
HETATM    2  C2  UNL     1      36.033  42.245  25.968  1.00  0.00     0.231 C 
HETATM    3  N2  UNL     1      34.901  41.347  26.058  1.00  0.00    -0.188 N 
ATOM      4  H2  UNL     1      33.986  41.795  25.995  1.00  0.00     0.180 HD
HETATM    5  C3  UNL     1      34.874  40.050  26.207  1.00  0.00     0.692 C 
HETATM    6  N6  UNL     1      36.007  39.201  26.323  1.00  0.00    -0.211 N 
ATOM      7  H6  UNL     1      35.857  38.198  26.222  1.00  0.00     0.179 HD
HETATM    8  C4  UNL     1      37.378  39.659  26.575  1.00  0.00     0.261 C 
HETATM    9  N7  UNL     1      37.304  40.749  27.497  1.00  0.00    -0.165 NA
HETATM   10  C5  UNL     1      37.111  42.042  26.954  1.00  0.00     0.212 C 
ENDROOT
BRANCH  10  11
HETATM   11  C6  UNL     1      36.940  43.009  28.082  1.00  0.00     0.114 C 
HETATM   12  N8  UNL     1      35.915  42.841  28.848  1.00  0.00    -0.386 N 
ATOM     13  H82 UNL     1      35.260  42.077  28.681  1.00  0.00     0.157 HD
ATOM     14  H81 UNL     1      35.798  43.501  29.617  1.00  0.00     0.157 HD
BRANCH  11  15
HETATM   15  N9  UNL     1      37.851  44.072  28.314  1.00  0.00    -0.294 N 
ATOM     16  H9  UNL     1      37.576  45.007  28.012  1.00  0.00     0.187 HD
BRANCH  15  17
HETATM   17  N10 UNL     1      39.094  43.929  28.924  1.00  0.00    -0.344 N 
ATOM     18 2H10 UNL     1      39.659  43.133  28.629  1.00  0.00     0.176 HD
ATOM     19 1H10 UNL     1      39.466  44.560  29.634  1.00  0.00     0.176 HD
ENDBRANCH  15  17
ENDBRANCH  11  15
ENDBRANCH  10  11
BRANCH   2  20
HETATM   20  N1  UNL     1      35.469  43.585  26.055  1.00  0.00    -0.050 N 
ATOM     21  H13 UNL     1      34.453  43.600  26.136  1.00  0.00     0.277 HD
ATOM     22  H12 UNL     1      35.664  44.058  26.937  1.00  0.00     0.277 HD
ATOM     23  H11 UNL     1      35.824  44.078  25.235  1.00  0.00     0.277 HD
ENDBRANCH   2  20
BRANCH   9  24
HETATM   24  O1  UNL     1      38.502  40.771  28.172  1.00  0.00    -0.311 OA
ATOM     25  H1  UNL     1      38.318  40.475  29.056  1.00  0.00     0.237 HD
ENDBRANCH   9  24
BRANCH   5  26
HETATM   26  N3  UNL     1      33.610  39.396  26.266  1.00  0.00    -0.118 N 
ATOM     27  H3  UNL     1      33.258  39.075  27.167  1.00  0.00     0.207 HD
BRANCH  26  28
HETATM   28  N4  UNL     1      32.923  39.207  25.239  1.00  0.00    -0.235 N 
HETATM   29  N5  UNL     1      32.164  38.639  24.435  1.00  0.00    -0.330 N 
ATOM     30  H52 UNL     1      32.024  37.784  24.974  1.00  0.00     0.178 HD
ATOM     31  H51 UNL     1      31.603  38.484  23.597  1.00  0.00     0.178 HD
ATOM     32  H4  UNL     1      33.097  40.080  24.740  1.00  0.00     0.208 HD
ENDBRANCH  26  28
ENDBRANCH   5  26
TORSDOF 7
ENDMDL
MODEL 5
REMARK VINA RESULT: -6.508808027      2.487      3.892
REMARK  7 active torsions:
REMARK  status: ('A' for Active; 'I' for Inactive)
REMARK    1  A    between atoms: C2_2  and  N1_3 
REMARK    2  A    between atoms: C3_9  and  N3_10 
REMARK    3  A    between atoms: N3_10  and  N4_12 
REMARK    4  A    between atoms: N7_20  and  O1_21 
REMARK    5  A    between atoms: C5_23  and  C6_24 
REMARK    6  A    between atoms: C6_24  and  N9_28 
REMARK    7  A    between atoms: N9_28  and  N10_30 
ROOT
HETATM    1  C1  UNL     1      36.941  40.276  27.464  1.00  0.00     0.073 C 
HETATM    2  C2  UNL     1      36.181  41.468  26.864  1.00  0.00     0.231 C 
HETATM    3  N2  UNL     1      35.858  41.209  25.477  1.00  0.00    -0.188 N 
ATOM      4  H2  UNL     1      36.450  41.686  24.797  1.00  0.00     0.180 HD
HETATM    5  C3  UNL     1      34.922  40.455  24.965  1.00  0.00     0.692 C 
HETATM    6  N6  UNL     1      33.972  39.693  25.697  1.00  0.00    -0.211 N 
ATOM      7  H6  UNL     1      33.438  38.990  25.187  1.00  0.00     0.179 HD
HETATM    8  C4  UNL     1      33.701  39.843  27.131  1.00  0.00     0.261 C 
HETATM    9  N7  UNL     1      33.771  41.236  27.439  1.00  0.00    -0.165 NA
HETATM   10  C5  UNL     1      35.046  41.764  27.758  1.00  0.00     0.212 C 
ENDROOT
BRANCH  10  11
HETATM   11  C6  UNL     1      34.918  43.244  27.924  1.00  0.00     0.114 C 
HETATM   12  N8  UNL     1      35.595  43.790  28.877  1.00  0.00    -0.386 N 
ATOM     13  H82 UNL     1      36.190  43.223  29.483  1.00  0.00     0.157 HD
ATOM     14  H81 UNL     1      35.508  44.800  28.989  1.00  0.00     0.157 HD
BRANCH  11  15
HETATM   15  N9  UNL     1      34.090  44.032  27.081  1.00  0.00    -0.294 N 
ATOM     16  H9  UNL     1      34.543  44.735  26.495  1.00  0.00     0.187 HD
BRANCH  15  17
HETATM   17  N10 UNL     1      32.706  43.914  26.997  1.00  0.00    -0.344 N 
ATOM     18 2H10 UNL     1      32.158  44.689  27.369  1.00  0.00     0.176 HD
ATOM     19 1H10 UNL     1      32.217  43.115  26.594  1.00  0.00     0.176 HD
ENDBRANCH  15  17
ENDBRANCH  11  15
ENDBRANCH  10  11
BRANCH   2  20
HETATM   20  N1  UNL     1      37.144  42.561  26.837  1.00  0.00    -0.050 N 
ATOM     21  H13 UNL     1      37.752  42.595  27.655  1.00  0.00     0.277 HD
ATOM     22  H12 UNL     1      37.884  42.440  26.145  1.00  0.00     0.277 HD
ATOM     23  H11 UNL     1      36.587  43.405  26.702  1.00  0.00     0.277 HD
ENDBRANCH   2  20
BRANCH   9  24
HETATM   24  O1  UNL     1      32.968  41.434  28.537  1.00  0.00    -0.311 OA
ATOM     25  H1  UNL     1      33.530  41.357  29.300  1.00  0.00     0.237 HD
ENDBRANCH   9  24
BRANCH   5  26
HETATM   26  N3  UNL     1      34.816  40.368  23.548  1.00  0.00    -0.118 N 
ATOM     27  H3  UNL     1      35.666  40.329  22.987  1.00  0.00     0.207 HD
BRANCH  26  28
HETATM   28  N4  UNL     1      33.705  40.340  22.975  1.00  0.00    -0.235 N 
HETATM   29  N5  UNL     1      32.593  40.725  22.572  1.00  0.00    -0.330 N 
ATOM     30  H52 UNL     1      32.628  41.661  22.976  1.00  0.00     0.178 HD
ATOM     31  H51 UNL     1      31.687  40.702  22.105  1.00  0.00     0.178 HD
ATOM     32  H4  UNL     1      33.721  39.394  22.593  1.00  0.00     0.208 HD
ENDBRANCH  26  28
ENDBRANCH   5  26
TORSDOF 7
ENDMDL
