MODEL 1
REMARK VINA RESULT: -7.889723014      0.000      0.000
REMARK  9 active torsions:
REMARK  status: ('A' for Active; 'I' for Inactive)
REMARK    1  A    between atoms: C4_6  and  C5_7 
REMARK    2  A    between atoms: C5_7  and  C6_8 
REMARK    3  A    between atoms: C6_8  and  C7_9 
REMARK    4  A    between atoms: C7_9  and  C8_10 
REMARK    5  A    between atoms: C8_10  and  C9_11 
REMARK    6  A    between atoms: C9_11  and  N2_12 
REMARK    7  A    between atoms: C13_16  and  C14_17 
REMARK    8  A    between atoms: C14_17  and  C15_18 
REMARK    9  A    between atoms: C20_29  and  C21_30 
ROOT
HETATM    1  C15 UNL     1      19.633 -14.524  21.732  1.00  0.00     0.085 C 
HETATM    2  N3  UNL     1      20.897 -14.752  22.394  1.00  0.00    -0.324 N 
ATOM      3  H3  UNL     1      21.715 -14.764  21.785  1.00  0.00     0.169 HD
HETATM    4  C16 UNL     1      21.160 -14.960  23.768  1.00  0.00     0.244 C 
HETATM    5  O1  UNL     1      22.123 -14.318  24.272  1.00  0.00    -0.271 OA
HETATM    6  C17 UNL     1      20.449 -15.840  24.696  1.00  0.00     0.173 C 
HETATM    7  C18 UNL     1      21.249 -16.178  25.939  1.00  0.00     0.042 C 
HETATM    8  N4  UNL     1      19.179 -15.328  25.163  1.00  0.00    -0.346 N 
ATOM      9  H4  UNL     1      19.148 -14.361  25.486  1.00  0.00     0.163 HD
HETATM   10  C19 UNL     1      17.986 -16.069  25.204  1.00  0.00     0.248 C 
HETATM   11  O2  UNL     1      17.158 -15.790  26.107  1.00  0.00    -0.271 OA
HETATM   12  C20 UNL     1      17.604 -17.157  24.275  1.00  0.00     0.238 C 
HETATM   13  N5  UNL     1      16.189 -17.115  23.922  1.00  0.00    -0.339 N 
ATOM     14  H5  UNL     1      15.597 -16.393  24.332  1.00  0.00     0.164 HD
HETATM   15  C22 UNL     1      15.616 -18.049  23.026  1.00  0.00     0.242 C 
HETATM   16  O4  UNL     1      14.428 -18.444  23.360  1.00  0.00    -0.269 OA
HETATM   17  C23 UNL     1      16.192 -18.600  21.806  1.00  0.00     0.075 C 
HETATM   18  C24 UNL     1      16.718 -18.041  20.759  1.00  0.00     0.022 C 
HETATM   19  C25 UNL     1      16.979 -16.683  20.315  1.00  0.00     0.091 C 
HETATM   20  N6  UNL     1      17.942 -15.894  20.392  1.00  0.00    -0.332 N 
ATOM     21  H6  UNL     1      17.653 -15.035  19.925  1.00  0.00     0.168 HD
HETATM   22  C26 UNL     1      19.233 -15.686  20.838  1.00  0.00     0.268 C 
HETATM   23  O5  UNL     1      20.250 -16.433  20.563  1.00  0.00    -0.266 OA
ENDROOT
BRANCH   1  24
HETATM   24  C14 UNL     1      19.358 -13.192  21.191  1.00  0.00     0.104 C 
BRANCH  24  25
HETATM   25  C13 UNL     1      18.449 -12.992  20.080  1.00  0.00    -0.023 A 
HETATM   26  C2  UNL     1      18.823 -13.110  18.745  1.00  0.00     0.012 A 
HETATM   27  C1  UNL     1      20.159 -13.403  18.137  1.00  0.00     0.068 C 
HETATM   28  N1  UNL     1      17.733 -12.875  18.018  1.00  0.00    -0.368 N 
HETATM   29  C3  UNL     1      16.687 -12.613  18.775  1.00  0.00     0.095 A 
ATOM     30  H1  UNL     1      17.710 -12.894  16.998  1.00  0.00     0.165 HD
HETATM   31  C4  UNL     1      17.112 -12.679  20.126  1.00  0.00    -0.034 A 
BRANCH  31  32
HETATM   32  C5  UNL     1      16.194 -12.491  21.270  1.00  0.00     0.040 C 
BRANCH  32  33
HETATM   33  C6  UNL     1      15.745 -13.650  22.045  1.00  0.00     0.005 C 
BRANCH  33  34
HETATM   34  C7  UNL     1      14.622 -14.500  21.650  1.00  0.00     0.002 C 
BRANCH  34  35
HETATM   35  C8  UNL     1      13.294 -13.869  21.414  1.00  0.00     0.028 C 
BRANCH  35  36
HETATM   36  C9  UNL     1      13.009 -12.970  22.626  1.00  0.00     0.236 C 
BRANCH  36  37
HETATM   37  N2  UNL     1      12.523 -11.690  22.209  1.00  0.00    -0.079 N 
HETATM   38  C10 UNL     1      12.554 -11.614  20.751  1.00  0.00     0.271 C 
HETATM   39  C11 UNL     1      11.163 -11.551  22.680  1.00  0.00     0.271 C 
HETATM   40  C12 UNL     1      13.282 -10.570  22.696  1.00  0.00     0.271 C 
ENDBRANCH  36  37
ENDBRANCH  35  36
ENDBRANCH  34  35
ENDBRANCH  33  34
ENDBRANCH  32  33
ENDBRANCH  31  32
ENDBRANCH  24  25
ENDBRANCH   1  24
BRANCH  12  41
HETATM   41  C21 UNL     1      17.799 -18.415  25.060  1.00  0.00     0.266 C 
HETATM   42  O3  UNL     1      18.784 -18.629  25.746  1.00  0.00    -0.304 OA
ENDBRANCH  12  41
TORSDOF 9
ENDMDL
MODEL 2
REMARK VINA RESULT: -7.632631046      2.589      3.928
REMARK  9 active torsions:
REMARK  status: ('A' for Active; 'I' for Inactive)
REMARK    1  A    between atoms: C4_6  and  C5_7 
REMARK    2  A    between atoms: C5_7  and  C6_8 
REMARK    3  A    between atoms: C6_8  and  C7_9 
REMARK    4  A    between atoms: C7_9  and  C8_10 
REMARK    5  A    between atoms: C8_10  and  C9_11 
REMARK    6  A    between atoms: C9_11  and  N2_12 
REMARK    7  A    between atoms: C13_16  and  C14_17 
REMARK    8  A    between atoms: C14_17  and  C15_18 
REMARK    9  A    between atoms: C20_29  and  C21_30 
ROOT
HETATM    1  C15 UNL     1      20.170 -16.359  22.266  1.00  0.00     0.085 C 
HETATM    2  N3  UNL     1      21.171 -15.717  23.088  1.00  0.00    -0.324 N 
ATOM      3  H3  UNL     1      22.103 -15.658  22.679  1.00  0.00     0.169 HD
HETATM    4  C16 UNL     1      21.039 -15.158  24.381  1.00  0.00     0.244 C 
HETATM    5  O1  UNL     1      21.558 -14.023  24.572  1.00  0.00    -0.271 OA
HETATM    6  C17 UNL     1      20.368 -15.735  25.546  1.00  0.00     0.173 C 
HETATM    7  C18 UNL     1      20.800 -15.114  26.860  1.00  0.00     0.042 C 
HETATM    8  N4  UNL     1      18.924 -15.650  25.518  1.00  0.00    -0.346 N 
ATOM      9  H4  UNL     1      18.507 -14.752  25.268  1.00  0.00     0.163 HD
HETATM   10  C19 UNL     1      18.055 -16.714  25.809  1.00  0.00     0.248 C 
HETATM   11  O2  UNL     1      16.942 -16.435  26.322  1.00  0.00    -0.271 OA
HETATM   12  C20 UNL     1      18.325 -18.150  25.568  1.00  0.00     0.238 C 
HETATM   13  N5  UNL     1      17.147 -18.864  25.086  1.00  0.00    -0.339 N 
ATOM     14  H5  UNL     1      16.270 -18.355  24.976  1.00  0.00     0.164 HD
HETATM   15  C22 UNL     1      17.188 -20.242  24.768  1.00  0.00     0.242 C 
HETATM   16  O4  UNL     1      16.129 -20.900  25.121  1.00  0.00    -0.269 OA
HETATM   17  C23 UNL     1      18.254 -20.984  24.107  1.00  0.00     0.075 C 
HETATM   18  C24 UNL     1      18.891 -20.791  22.992  1.00  0.00     0.022 C 
HETATM   19  C25 UNL     1      18.862 -19.806  21.926  1.00  0.00     0.091 C 
HETATM   20  N6  UNL     1      19.472 -18.746  21.680  1.00  0.00    -0.332 N 
ATOM     21  H6  UNL     1      19.103 -18.395  20.797  1.00  0.00     0.168 HD
HETATM   22  C26 UNL     1      20.435 -17.845  22.092  1.00  0.00     0.268 C 
HETATM   23  O5  UNL     1      21.660 -18.136  22.377  1.00  0.00    -0.266 OA
ENDROOT
BRANCH   1  24
HETATM   24  C14 UNL     1      19.696 -15.661  21.071  1.00  0.00     0.104 C 
BRANCH  24  25
HETATM   25  C13 UNL     1      19.001 -14.391  21.152  1.00  0.00    -0.023 A 
HETATM   26  C2  UNL     1      17.778 -14.220  21.791  1.00  0.00     0.012 A 
HETATM   27  C1  UNL     1      16.892 -15.217  22.471  1.00  0.00     0.068 C 
HETATM   28  N1  UNL     1      17.462 -12.931  21.676  1.00  0.00    -0.368 N 
HETATM   29  C3  UNL     1      18.382 -12.259  21.015  1.00  0.00     0.095 A 
ATOM     30  H1  UNL     1      16.610 -12.515  22.055  1.00  0.00     0.165 HD
HETATM   31  C4  UNL     1      19.402 -13.174  20.654  1.00  0.00    -0.034 A 
BRANCH  31  32
HETATM   32  C5  UNL     1      20.633 -12.771  19.941  1.00  0.00     0.040 C 
BRANCH  32  33
HETATM   33  C6  UNL     1      20.654 -12.744  18.477  1.00  0.00     0.005 C 
BRANCH  33  34
HETATM   34  C7  UNL     1      19.830 -13.619  17.642  1.00  0.00     0.002 C 
BRANCH  34  35
HETATM   35  C8  UNL     1      18.591 -13.069  17.031  1.00  0.00     0.028 C 
BRANCH  35  36
HETATM   36  C9  UNL     1      17.410 -13.807  17.681  1.00  0.00     0.236 C 
BRANCH  36  37
HETATM   37  N2  UNL     1      16.177 -13.129  17.417  1.00  0.00    -0.079 N 
HETATM   38  C10 UNL     1      15.455 -12.937  18.671  1.00  0.00     0.271 C 
HETATM   39  C11 UNL     1      16.488 -11.846  16.827  1.00  0.00     0.271 C 
HETATM   40  C12 UNL     1      15.286 -13.825  16.529  1.00  0.00     0.271 C 
ENDBRANCH  36  37
ENDBRANCH  35  36
ENDBRANCH  34  35
ENDBRANCH  33  34
ENDBRANCH  32  33
ENDBRANCH  31  32
ENDBRANCH  24  25
ENDBRANCH   1  24
BRANCH  12  41
HETATM   41  C21 UNL     1      18.628 -18.714  26.920  1.00  0.00     0.266 C 
HETATM   42  O3  UNL     1      19.762 -18.897  27.329  1.00  0.00    -0.304 OA
ENDBRANCH  12  41
TORSDOF 9
ENDMDL
MODEL 3
REMARK VINA RESULT: -7.600890310      2.290      5.715
REMARK  9 active torsions:
REMARK  status: ('A' for Active; 'I' for Inactive)
REMARK    1  A    between atoms: C4_6  and  C5_7 
REMARK    2  A    between atoms: C5_7  and  C6_8 
REMARK    3  A    between atoms: C6_8  and  C7_9 
REMARK    4  A    between atoms: C7_9  and  C8_10 
REMARK    5  A    between atoms: C8_10  and  C9_11 
REMARK    6  A    between atoms: C9_11  and  N2_12 
REMARK    7  A    between atoms: C13_16  and  C14_17 
REMARK    8  A    between atoms: C14_17  and  C15_18 
REMARK    9  A    between atoms: C20_29  and  C21_30 
ROOT
HETATM    1  C15 UNL     1      17.612 -16.090  23.179  1.00  0.00     0.085 C 
HETATM    2  N3  UNL     1      16.399 -16.792  23.530  1.00  0.00    -0.324 N 
ATOM      3  H3  UNL     1      15.568 -16.209  23.627  1.00  0.00     0.169 HD
HETATM    4  C16 UNL     1      16.202 -18.173  23.760  1.00  0.00     0.244 C 
HETATM    5  O1  UNL     1      15.195 -18.708  23.216  1.00  0.00    -0.271 OA
HETATM    6  C17 UNL     1      17.026 -19.079  24.560  1.00  0.00     0.173 C 
HETATM    7  C18 UNL     1      16.304 -20.347  24.973  1.00  0.00     0.042 C 
HETATM    8  N4  UNL     1      18.252 -19.506  23.922  1.00  0.00    -0.346 N 
ATOM      9  H4  UNL     1      18.196 -19.827  22.954  1.00  0.00     0.163 HD
HETATM   10  C19 UNL     1      19.515 -19.509  24.538  1.00  0.00     0.248 C 
HETATM   11  O2  UNL     1      20.338 -20.386  24.175  1.00  0.00    -0.271 OA
HETATM   12  C20 UNL     1      19.975 -18.569  25.585  1.00  0.00     0.238 C 
HETATM   13  N5  UNL     1      21.367 -18.171  25.402  1.00  0.00    -0.339 N 
ATOM     14  H5  UNL     1      21.896 -18.562  24.623  1.00  0.00     0.164 HD
HETATM   15  C22 UNL     1      22.002 -17.258  26.277  1.00  0.00     0.242 C 
HETATM   16  O4  UNL     1      23.234 -17.554  26.549  1.00  0.00    -0.269 OA
HETATM   17  C23 UNL     1      21.447 -16.057  26.887  1.00  0.00     0.075 C 
HETATM   18  C24 UNL     1      20.834 -15.027  26.387  1.00  0.00     0.022 C 
HETATM   19  C25 UNL     1      20.425 -14.591  25.065  1.00  0.00     0.091 C 
HETATM   20  N6  UNL     1      19.389 -14.698  24.376  1.00  0.00    -0.332 N 
ATOM     21  H6  UNL     1      19.576 -14.222  23.494  1.00  0.00     0.168 HD
HETATM   22  C26 UNL     1      18.099 -15.184  24.298  1.00  0.00     0.268 C 
HETATM   23  O5  UNL     1      17.154 -14.942  25.144  1.00  0.00    -0.266 OA
ENDROOT
BRANCH   1  24
HETATM   24  C14 UNL     1      17.735 -15.541  21.828  1.00  0.00     0.104 C 
BRANCH  24  25
HETATM   25  C13 UNL     1      17.665 -14.115  21.574  1.00  0.00    -0.023 A 
HETATM   26  C2  UNL     1      16.499 -13.366  21.691  1.00  0.00     0.012 A 
HETATM   27  C1  UNL     1      15.105 -13.791  22.036  1.00  0.00     0.068 C 
HETATM   28  N1  UNL     1      16.819 -12.107  21.399  1.00  0.00    -0.368 N 
HETATM   29  C3  UNL     1      18.097 -11.985  21.101  1.00  0.00     0.095 A 
ATOM     30  H1  UNL     1      16.156 -11.332  21.404  1.00  0.00     0.165 HD
HETATM   31  C4  UNL     1      18.684 -13.271  21.203  1.00  0.00    -0.034 A 
BRANCH  31  32
HETATM   32  C5  UNL     1      20.126 -13.519  20.989  1.00  0.00     0.040 C 
BRANCH  32  33
HETATM   33  C6  UNL     1      20.852 -12.769  19.962  1.00  0.00     0.005 C 
BRANCH  33  34
HETATM   34  C7  UNL     1      20.498 -12.794  18.542  1.00  0.00     0.002 C 
BRANCH  34  35
HETATM   35  C8  UNL     1      19.538 -13.824  18.061  1.00  0.00     0.028 C 
BRANCH  35  36
HETATM   36  C9  UNL     1      18.766 -13.197  16.890  1.00  0.00     0.236 C 
BRANCH  36  37
HETATM   37  N2  UNL     1      17.359 -13.427  17.025  1.00  0.00    -0.079 N 
HETATM   38  C10 UNL     1      16.693 -12.168  17.342  1.00  0.00     0.271 C 
HETATM   39  C11 UNL     1      16.866 -13.943  15.768  1.00  0.00     0.271 C 
HETATM   40  C12 UNL     1      16.999 -14.357  18.061  1.00  0.00     0.271 C 
ENDBRANCH  36  37
ENDBRANCH  35  36
ENDBRANCH  34  35
ENDBRANCH  33  34
ENDBRANCH  32  33
ENDBRANCH  31  32
ENDBRANCH  24  25
ENDBRANCH   1  24
BRANCH  12  41
HETATM   41  C21 UNL     1      19.932 -19.360  26.854  1.00  0.00     0.266 C 
HETATM   42  O3  UNL     1      18.931 -19.468  27.541  1.00  0.00    -0.304 OA
ENDBRANCH  12  41
TORSDOF 9
ENDMDL
MODEL 4
REMARK VINA RESULT: -7.495853855      1.226      1.819
REMARK  9 active torsions:
REMARK  status: ('A' for Active; 'I' for Inactive)
REMARK    1  A    between atoms: C4_6  and  C5_7 
REMARK    2  A    between atoms: C5_7  and  C6_8 
REMARK    3  A    between atoms: C6_8  and  C7_9 
REMARK    4  A    between atoms: C7_9  and  C8_10 
REMARK    5  A    between atoms: C8_10  and  C9_11 
REMARK    6  A    between atoms: C9_11  and  N2_12 
REMARK    7  A    between atoms: C13_16  and  C14_17 
REMARK    8  A    between atoms: C14_17  and  C15_18 
REMARK    9  A    between atoms: C20_29  and  C21_30 
ROOT
HETATM    1  C15 UNL     1      18.737 -15.238  21.804  1.00  0.00     0.085 C 
HETATM    2  N3  UNL     1      20.076 -15.248  22.348  1.00  0.00    -0.324 N 
ATOM      3  H3  UNL     1      20.828 -15.251  21.659  1.00  0.00     0.169 HD
HETATM    4  C16 UNL     1      20.489 -15.255  23.700  1.00  0.00     0.244 C 
HETATM    5  O1  UNL     1      21.414 -14.458  24.021  1.00  0.00    -0.271 OA
HETATM    6  C17 UNL     1      19.977 -16.081  24.794  1.00  0.00     0.173 C 
HETATM    7  C18 UNL     1      20.925 -16.176  25.974  1.00  0.00     0.042 C 
HETATM    8  N4  UNL     1      18.706 -15.650  25.333  1.00  0.00    -0.346 N 
ATOM      9  H4  UNL     1      18.593 -14.658  25.545  1.00  0.00     0.163 HD
HETATM   10  C19 UNL     1      17.616 -16.500  25.587  1.00  0.00     0.248 C 
HETATM   11  O2  UNL     1      16.850 -16.199  26.536  1.00  0.00    -0.271 OA
HETATM   12  C20 UNL     1      17.277 -17.729  24.834  1.00  0.00     0.238 C 
HETATM   13  N5  UNL     1      15.840 -17.880  24.633  1.00  0.00    -0.339 N 
ATOM     14  H5  UNL     1      15.209 -17.178  25.019  1.00  0.00     0.164 HD
HETATM   15  C22 UNL     1      15.298 -18.973  23.916  1.00  0.00     0.242 C 
HETATM   16  O4  UNL     1      14.201 -19.445  24.418  1.00  0.00    -0.269 OA
HETATM   17  C23 UNL     1      15.816 -19.609  22.711  1.00  0.00     0.075 C 
HETATM   18  C24 UNL     1      16.172 -19.133  21.557  1.00  0.00     0.022 C 
HETATM   19  C25 UNL     1      16.230 -17.822  20.936  1.00  0.00     0.091 C 
HETATM   20  N6  UNL     1      17.098 -16.933  20.818  1.00  0.00    -0.332 N 
ATOM     21  H6  UNL     1      16.668 -16.174  20.291  1.00  0.00     0.168 HD
HETATM   22  C26 UNL     1      18.392 -16.538  21.096  1.00  0.00     0.268 C 
HETATM   23  O5  UNL     1      19.459 -17.203  20.800  1.00  0.00    -0.266 OA
ENDROOT
BRANCH   1  24
HETATM   24  C14 UNL     1      18.258 -14.020  21.148  1.00  0.00     0.104 C 
BRANCH  24  25
HETATM   25  C13 UNL     1      18.638 -13.684  19.791  1.00  0.00    -0.023 A 
HETATM   26  C2  UNL     1      19.856 -13.104  19.450  1.00  0.00     0.012 A 
HETATM   27  C1  UNL     1      20.993 -12.661  20.317  1.00  0.00     0.068 C 
HETATM   28  N1  UNL     1      19.855 -12.958  18.127  1.00  0.00    -0.368 N 
HETATM   29  C3  UNL     1      18.736 -13.395  17.587  1.00  0.00     0.095 A 
ATOM     30  H1  UNL     1      20.628 -12.556  17.595  1.00  0.00     0.165 HD
HETATM   31  C4  UNL     1      17.915 -13.876  18.638  1.00  0.00    -0.034 A 
BRANCH  31  32
HETATM   32  C5  UNL     1      16.592 -14.495  18.409  1.00  0.00     0.040 C 
BRANCH  32  33
HETATM   33  C6  UNL     1      15.544 -13.744  17.714  1.00  0.00     0.005 C 
BRANCH  33  34
HETATM   34  C7  UNL     1      14.625 -12.827  18.390  1.00  0.00     0.002 C 
BRANCH  34  35
HETATM   35  C8  UNL     1      14.068 -13.215  19.714  1.00  0.00     0.028 C 
BRANCH  35  36
HETATM   36  C9  UNL     1      13.168 -12.058  20.173  1.00  0.00     0.236 C 
BRANCH  36  37
HETATM   37  N2  UNL     1      13.005 -12.072  21.595  1.00  0.00    -0.079 N 
HETATM   38  C10 UNL     1      13.860 -13.107  22.168  1.00  0.00     0.271 C 
HETATM   39  C11 UNL     1      13.394 -10.775  22.103  1.00  0.00     0.271 C 
HETATM   40  C12 UNL     1      11.667 -12.346  22.044  1.00  0.00     0.271 C 
ENDBRANCH  36  37
ENDBRANCH  35  36
ENDBRANCH  34  35
ENDBRANCH  33  34
ENDBRANCH  32  33
ENDBRANCH  31  32
ENDBRANCH  24  25
ENDBRANCH   1  24
BRANCH  12  41
HETATM   41  C21 UNL     1      17.691 -18.852  25.731  1.00  0.00     0.266 C 
HETATM   42  O3  UNL     1      18.697 -18.824  26.418  1.00  0.00    -0.304 OA
ENDBRANCH  12  41
TORSDOF 9
ENDMDL
MODEL 5
REMARK VINA RESULT: -7.460840891      1.479      1.814
REMARK  9 active torsions:
REMARK  status: ('A' for Active; 'I' for Inactive)
REMARK    1  A    between atoms: C4_6  and  C5_7 
REMARK    2  A    between atoms: C5_7  and  C6_8 
REMARK    3  A    between atoms: C6_8  and  C7_9 
REMARK    4  A    between atoms: C7_9  and  C8_10 
REMARK    5  A    between atoms: C8_10  and  C9_11 
REMARK    6  A    between atoms: C9_11  and  N2_12 
REMARK    7  A    between atoms: C13_16  and  C14_17 
REMARK    8  A    between atoms: C14_17  and  C15_18 
REMARK    9  A    between atoms: C20_29  and  C21_30 
ROOT
HETATM    1  C15 UNL     1      19.688 -16.775  21.716  1.00  0.00     0.085 C 
HETATM    2  N3  UNL     1      20.920 -16.828  22.471  1.00  0.00    -0.324 N 
ATOM      3  H3  UNL     1      21.738 -17.148  21.954  1.00  0.00     0.169 HD
HETATM    4  C16 UNL     1      21.149 -16.498  23.827  1.00  0.00     0.244 C 
HETATM    5  O1  UNL     1      22.164 -15.792  24.082  1.00  0.00    -0.271 OA
HETATM    6  C17 UNL     1      20.350 -16.876  24.993  1.00  0.00     0.173 C 
HETATM    7  C18 UNL     1      21.103 -16.762  26.304  1.00  0.00     0.042 C 
HETATM    8  N4  UNL     1      19.130 -16.117  25.163  1.00  0.00    -0.346 N 
ATOM      9  H4  UNL     1      19.188 -15.102  25.078  1.00  0.00     0.163 HD
HETATM   10  C19 UNL     1      17.872 -16.678  25.437  1.00  0.00     0.248 C 
HETATM   11  O2  UNL     1      17.066 -15.997  26.120  1.00  0.00    -0.271 OA
HETATM   12  C20 UNL     1      17.396 -18.009  24.994  1.00  0.00     0.238 C 
HETATM   13  N5  UNL     1      15.995 -17.991  24.588  1.00  0.00    -0.339 N 
ATOM     14  H5  UNL     1      15.470 -17.119  24.655  1.00  0.00     0.164 HD
HETATM   15  C22 UNL     1      15.343 -19.151  24.106  1.00  0.00     0.242 C 
HETATM   16  O4  UNL     1      14.120 -19.281  24.513  1.00  0.00    -0.269 OA
HETATM   17  C23 UNL     1      15.875 -20.185  23.227  1.00  0.00     0.075 C 
HETATM   18  C24 UNL     1      16.461 -20.132  22.070  1.00  0.00     0.022 C 
HETATM   19  C25 UNL     1      16.853 -19.087  21.142  1.00  0.00     0.091 C 
HETATM   20  N6  UNL     1      17.887 -18.416  20.946  1.00  0.00    -0.332 N 
ATOM     21  H6  UNL     1      17.685 -17.790  20.167  1.00  0.00     0.168 HD
HETATM   22  C26 UNL     1      19.187 -18.158  21.333  1.00  0.00     0.268 C 
HETATM   23  O5  UNL     1      20.131 -19.035  21.420  1.00  0.00    -0.266 OA
ENDROOT
BRANCH   1  24
HETATM   24  C14 UNL     1      19.545 -15.747  20.684  1.00  0.00     0.104 C 
BRANCH  24  25
HETATM   25  C13 UNL     1      18.862 -14.496  20.942  1.00  0.00    -0.023 A 
HETATM   26  C2  UNL     1      19.376 -13.249  20.601  1.00  0.00     0.012 A 
HETATM   27  C1  UNL     1      20.683 -12.882  19.971  1.00  0.00     0.068 C 
HETATM   28  N1  UNL     1      18.473 -12.345  20.974  1.00  0.00    -0.368 N 
HETATM   29  C3  UNL     1      17.419 -12.907  21.529  1.00  0.00     0.095 A 
ATOM     30  H1  UNL     1      18.584 -11.339  20.845  1.00  0.00     0.165 HD
HETATM   31  C4  UNL     1      17.633 -14.309  21.529  1.00  0.00    -0.034 A 
BRANCH  31  32
HETATM   32  C5  UNL     1      16.634 -15.277  22.030  1.00  0.00     0.040 C 
BRANCH  32  33
HETATM   33  C6  UNL     1      15.441 -15.574  21.234  1.00  0.00     0.005 C 
BRANCH  33  34
HETATM   34  C7  UNL     1      14.110 -15.054  21.550  1.00  0.00     0.002 C 
BRANCH  34  35
HETATM   35  C8  UNL     1      13.711 -13.729  21.002  1.00  0.00     0.028 C 
BRANCH  35  36
HETATM   36  C9  UNL     1      13.727 -12.740  22.178  1.00  0.00     0.236 C 
BRANCH  36  37
HETATM   37  N2  UNL     1      12.732 -11.725  22.005  1.00  0.00    -0.079 N 
HETATM   38  C10 UNL     1      12.785 -11.226  20.634  1.00  0.00     0.271 C 
HETATM   39  C11 UNL     1      11.439 -12.317  22.263  1.00  0.00     0.271 C 
HETATM   40  C12 UNL     1      12.882 -10.584  22.866  1.00  0.00     0.271 C 
ENDBRANCH  36  37
ENDBRANCH  35  36
ENDBRANCH  34  35
ENDBRANCH  33  34
ENDBRANCH  32  33
ENDBRANCH  31  32
ENDBRANCH  24  25
ENDBRANCH   1  24
BRANCH  12  41
HETATM   41  C21 UNL     1      17.464 -18.866  26.217  1.00  0.00     0.266 C 
HETATM   42  O3  UNL     1      18.292 -18.709  27.098  1.00  0.00    -0.304 OA
ENDBRANCH  12  41
TORSDOF 9
ENDMDL
