MODEL 1
REMARK VINA RESULT: -9.004629479      0.000      0.000
REMARK  5 active torsions:
REMARK  status: ('A' for Active; 'I' for Inactive)
REMARK    1  A    between atoms: C4_4  and  N1_5 
REMARK    2  A    between atoms: C7_8  and  C8_9 
REMARK    3  A    between atoms: C12_19  and  N4_20 
REMARK    4  A    between atoms: N4_20  and  C13_22 
REMARK    5  A    between atoms: C13_22  and  C15_24 
ROOT
HETATM    1  C1  UNL     1      79.366   1.893  23.872  1.00  0.00     0.069 C 
HETATM    2  C2  UNL     1      78.339   1.053  24.567  1.00  0.00     0.026 A 
HETATM    3  C3  UNL     1      78.304  -0.297  24.326  1.00  0.00     0.076 A 
HETATM    4  C4  UNL     1      77.382  -1.131  24.977  1.00  0.00     0.144 A 
HETATM    5  N3  UNL     1      76.559  -0.518  25.832  1.00  0.00    -0.175 N 
ATOM      6  H3  UNL     1      75.875  -1.091  26.325  1.00  0.00     0.186 HD
HETATM    7  C12 UNL     1      76.567   0.823  26.092  1.00  0.00     0.680 A 
HETATM    8  N5  UNL     1      77.468   1.563  25.439  1.00  0.00    -0.196 N 
ATOM      9  H5  UNL     1      77.491   2.567  25.616  1.00  0.00     0.184 HD
ENDROOT
BRANCH   4  10
HETATM   10  N1  UNL     1      77.320  -2.511  24.694  1.00  0.00    -0.241 N 
HETATM   11  C5  UNL     1      77.252  -3.462  25.781  1.00  0.00     0.159 C 
HETATM   12  C6  UNL     1      77.776  -4.824  25.339  1.00  0.00     0.036 C 
HETATM   13  C7  UNL     1      76.965  -5.256  24.155  1.00  0.00     0.071 C 
HETATM   14  C11 UNL     1      76.395  -4.085  23.368  1.00  0.00     0.212 C 
HETATM   15  O1  UNL     1      77.300  -3.010  23.446  1.00  0.00    -0.276 OA
BRANCH  13  16
HETATM   16  C8  UNL     1      75.861  -6.179  24.591  1.00  0.00     0.057 A 
HETATM   17  N2  UNL     1      75.279  -6.180  25.785  1.00  0.00    -0.363 N 
HETATM   18  C9  UNL     1      74.334  -7.027  26.031  1.00  0.00     0.095 A 
ATOM     19  H2  UNL     1      75.575  -5.518  26.502  1.00  0.00     0.165 HD
HETATM   20  C10 UNL     1      73.974  -7.897  25.038  1.00  0.00     0.068 A 
HETATM   21  S1  UNL     1      75.045  -7.427  23.780  1.00  0.00    -0.087 SA
ENDBRANCH  13  16
ENDBRANCH   4  10
BRANCH   7  22
HETATM   22  N4  UNL     1      75.716   1.295  26.929  1.00  0.00    -0.217 N 
ATOM     23  H4  UNL     1      75.880   0.980  27.885  1.00  0.00     0.178 HD
BRANCH  22  24
HETATM   24  C13 UNL     1      74.621   2.142  26.816  1.00  0.00     0.149 C 
HETATM   25  C14 UNL     1      74.802   3.509  27.450  1.00  0.00     0.037 C 
BRANCH  24  26
HETATM   26  C15 UNL     1      73.280   1.616  27.215  1.00  0.00     0.208 C 
HETATM   27 CL1  UNL     1      72.816   2.359  28.776  1.00  0.00    -0.082 Cl
HETATM   28 CL2  UNL     1      72.073   1.868  25.970  1.00  0.00    -0.082 Cl
HETATM   29 CL3  UNL     1      73.435  -0.144  27.507  1.00  0.00    -0.082 Cl
ENDBRANCH  24  26
ENDBRANCH  22  24
ENDBRANCH   7  22
TORSDOF 5
ENDMDL
MODEL 2
REMARK VINA RESULT: -8.919931629      0.050      1.012
REMARK  5 active torsions:
REMARK  status: ('A' for Active; 'I' for Inactive)
REMARK    1  A    between atoms: C4_4  and  N1_5 
REMARK    2  A    between atoms: C7_8  and  C8_9 
REMARK    3  A    between atoms: C12_19  and  N4_20 
REMARK    4  A    between atoms: N4_20  and  C13_22 
REMARK    5  A    between atoms: C13_22  and  C15_24 
ROOT
HETATM    1  C1  UNL     1      79.365   1.877  23.863  1.00  0.00     0.069 C 
HETATM    2  C2  UNL     1      78.343   1.035  24.562  1.00  0.00     0.026 A 
HETATM    3  C3  UNL     1      78.302  -0.314  24.312  1.00  0.00     0.076 A 
HETATM    4  C4  UNL     1      77.385  -1.150  24.966  1.00  0.00     0.144 A 
HETATM    5  N3  UNL     1      76.570  -0.539  25.832  1.00  0.00    -0.175 N 
ATOM      6  H3  UNL     1      75.889  -1.115  26.327  1.00  0.00     0.186 HD
HETATM    7  C12 UNL     1      76.584   0.800  26.100  1.00  0.00     0.680 A 
HETATM    8  N5  UNL     1      77.481   1.541  25.444  1.00  0.00    -0.196 N 
ATOM      9  H5  UNL     1      77.508   2.544  25.628  1.00  0.00     0.184 HD
ENDROOT
BRANCH   4  10
HETATM   10  N1  UNL     1      77.317  -2.528  24.675  1.00  0.00    -0.241 N 
HETATM   11  C5  UNL     1      77.282  -3.487  25.757  1.00  0.00     0.159 C 
HETATM   12  C6  UNL     1      77.796  -4.844  25.289  1.00  0.00     0.036 C 
HETATM   13  C7  UNL     1      76.951  -5.269  24.126  1.00  0.00     0.071 C 
HETATM   14  C11 UNL     1      76.356  -4.093  23.365  1.00  0.00     0.212 C 
HETATM   15  O1  UNL     1      77.261  -3.018  23.424  1.00  0.00    -0.276 OA
BRANCH  13  16
HETATM   16  C8  UNL     1      75.862  -6.197  24.588  1.00  0.00     0.057 A 
HETATM   17  N2  UNL     1      75.312  -6.206  25.797  1.00  0.00    -0.363 N 
HETATM   18  C9  UNL     1      74.377  -7.057  26.064  1.00  0.00     0.095 A 
ATOM     19  H2  UNL     1      75.626  -5.547  26.509  1.00  0.00     0.165 HD
HETATM   20  C10 UNL     1      73.992  -7.923  25.076  1.00  0.00     0.068 A 
HETATM   21  S1  UNL     1      75.027  -7.443  23.793  1.00  0.00    -0.087 SA
ENDBRANCH  13  16
ENDBRANCH   4  10
BRANCH   7  22
HETATM   22  N4  UNL     1      75.742   1.268  26.948  1.00  0.00    -0.217 N 
ATOM     23  H4  UNL     1      75.916   0.950  27.901  1.00  0.00     0.178 HD
BRANCH  22  24
HETATM   24  C13 UNL     1      74.645   2.115  26.849  1.00  0.00     0.149 C 
HETATM   25  C14 UNL     1      74.855   3.503  27.426  1.00  0.00     0.037 C 
BRANCH  24  26
HETATM   26  C15 UNL     1      73.320   1.609  27.321  1.00  0.00     0.208 C 
HETATM   27 CL1  UNL     1      73.413  -0.173  27.481  1.00  0.00    -0.082 Cl
HETATM   28 CL2  UNL     1      72.805   2.386  28.804  1.00  0.00    -0.082 Cl
HETATM   29 CL3  UNL     1      72.106   1.949  26.050  1.00  0.00    -0.082 Cl
ENDBRANCH  24  26
ENDBRANCH  22  24
ENDBRANCH   7  22
TORSDOF 5
ENDMDL
MODEL 3
REMARK VINA RESULT: -8.908585564      7.145      9.521
REMARK  5 active torsions:
REMARK  status: ('A' for Active; 'I' for Inactive)
REMARK    1  A    between atoms: C4_4  and  N1_5 
REMARK    2  A    between atoms: C7_8  and  C8_9 
REMARK    3  A    between atoms: C12_19  and  N4_20 
REMARK    4  A    between atoms: N4_20  and  C13_22 
REMARK    5  A    between atoms: C13_22  and  C15_24 
ROOT
HETATM    1  C1  UNL     1      81.075  -4.519  32.052  1.00  0.00     0.069 C 
HETATM    2  C2  UNL     1      81.078  -5.171  30.704  1.00  0.00     0.026 A 
HETATM    3  C3  UNL     1      80.144  -4.791  29.773  1.00  0.00     0.076 A 
HETATM    4  C4  UNL     1      80.126  -5.349  28.487  1.00  0.00     0.144 A 
HETATM    5  N3  UNL     1      81.071  -6.262  28.245  1.00  0.00    -0.175 N 
ATOM      6  H3  UNL     1      81.091  -6.690  27.319  1.00  0.00     0.186 HD
HETATM    7  C12 UNL     1      82.013  -6.663  29.149  1.00  0.00     0.680 A 
HETATM    8  N5  UNL     1      81.976  -6.094  30.357  1.00  0.00    -0.196 N 
ATOM      9  H5  UNL     1      82.668  -6.380  31.049  1.00  0.00     0.184 HD
ENDROOT
BRANCH   4  10
HETATM   10  N1  UNL     1      79.138  -4.987  27.548  1.00  0.00    -0.241 N 
HETATM   11  C5  UNL     1      79.443  -5.031  26.135  1.00  0.00     0.159 C 
HETATM   12  C6  UNL     1      78.530  -4.089  25.358  1.00  0.00     0.036 C 
HETATM   13  C7  UNL     1      77.115  -4.492  25.647  1.00  0.00     0.071 C 
HETATM   14  C11 UNL     1      76.956  -5.169  27.000  1.00  0.00     0.212 C 
HETATM   15  O1  UNL     1      77.893  -4.613  27.891  1.00  0.00    -0.276 OA
BRANCH  13  16
HETATM   16  C8  UNL     1      76.596  -5.382  24.552  1.00  0.00     0.057 A 
HETATM   17  N2  UNL     1      75.968  -6.539  24.727  1.00  0.00    -0.363 N 
HETATM   18  C9  UNL     1      75.566  -7.207  23.696  1.00  0.00     0.095 A 
ATOM     19  H2  UNL     1      75.803  -6.897  25.668  1.00  0.00     0.165 HD
HETATM   20  C10 UNL     1      75.813  -6.686  22.455  1.00  0.00     0.068 A 
HETATM   21  S1  UNL     1      76.627  -5.230  22.862  1.00  0.00    -0.087 SA
ENDBRANCH  13  16
ENDBRANCH   4  10
BRANCH   7  22
HETATM   22  N4  UNL     1      82.864  -7.558  28.798  1.00  0.00    -0.217 N 
ATOM     23  H4  UNL     1      83.716  -7.163  28.400  1.00  0.00     0.178 HD
BRANCH  22  24
HETATM   24  C13 UNL     1      82.876  -8.946  28.844  1.00  0.00     0.149 C 
HETATM   25  C14 UNL     1      82.587  -9.543  30.208  1.00  0.00     0.037 C 
BRANCH  24  26
HETATM   26  C15 UNL     1      84.054  -9.659  28.262  1.00  0.00     0.208 C 
HETATM   27 CL1  UNL     1      83.687 -11.411  28.199  1.00  0.00    -0.082 Cl
HETATM   28 CL2  UNL     1      84.509  -9.016  26.697  1.00  0.00    -0.082 Cl
HETATM   29 CL3  UNL     1      85.436  -9.462  29.382  1.00  0.00    -0.082 Cl
ENDBRANCH  24  26
ENDBRANCH  22  24
ENDBRANCH   7  22
TORSDOF 5
ENDMDL
MODEL 4
REMARK VINA RESULT: -8.864156541      7.133      9.516
REMARK  5 active torsions:
REMARK  status: ('A' for Active; 'I' for Inactive)
REMARK    1  A    between atoms: C4_4  and  N1_5 
REMARK    2  A    between atoms: C7_8  and  C8_9 
REMARK    3  A    between atoms: C12_19  and  N4_20 
REMARK    4  A    between atoms: N4_20  and  C13_22 
REMARK    5  A    between atoms: C13_22  and  C15_24 
ROOT
HETATM    1  C1  UNL     1      81.074  -4.497  32.017  1.00  0.00     0.069 C 
HETATM    2  C2  UNL     1      81.074  -5.149  30.669  1.00  0.00     0.026 A 
HETATM    3  C3  UNL     1      80.134  -4.774  29.743  1.00  0.00     0.076 A 
HETATM    4  C4  UNL     1      80.113  -5.333  28.457  1.00  0.00     0.144 A 
HETATM    5  N3  UNL     1      81.062  -6.241  28.211  1.00  0.00    -0.175 N 
ATOM      6  H3  UNL     1      81.080  -6.669  27.286  1.00  0.00     0.186 HD
HETATM    7  C12 UNL     1      82.010  -6.638  29.111  1.00  0.00     0.680 A 
HETATM    8  N5  UNL     1      81.975  -6.068  30.319  1.00  0.00    -0.196 N 
ATOM      9  H5  UNL     1      82.672  -6.351  31.008  1.00  0.00     0.184 HD
ENDROOT
BRANCH   4  10
HETATM   10  N1  UNL     1      79.119  -4.976  27.523  1.00  0.00    -0.241 N 
HETATM   11  C5  UNL     1      79.424  -4.999  26.109  1.00  0.00     0.159 C 
HETATM   12  C6  UNL     1      78.496  -4.063  25.343  1.00  0.00     0.036 C 
HETATM   13  C7  UNL     1      77.088  -4.492  25.628  1.00  0.00     0.071 C 
HETATM   14  C11 UNL     1      76.941  -5.188  26.973  1.00  0.00     0.212 C 
HETATM   15  O1  UNL     1      77.868  -4.627  27.871  1.00  0.00    -0.276 OA
BRANCH  13  16
HETATM   16  C8  UNL     1      76.583  -5.378  24.523  1.00  0.00     0.057 A 
HETATM   17  N2  UNL     1      75.944  -6.530  24.685  1.00  0.00    -0.363 N 
HETATM   18  C9  UNL     1      75.557  -7.195  23.647  1.00  0.00     0.095 A 
ATOM     19  H2  UNL     1      75.759  -6.888  25.623  1.00  0.00     0.165 HD
HETATM   20  C10 UNL     1      75.829  -6.675  22.411  1.00  0.00     0.068 A 
HETATM   21  S1  UNL     1      76.645  -5.224  22.834  1.00  0.00    -0.087 SA
ENDBRANCH  13  16
ENDBRANCH   4  10
BRANCH   7  22
HETATM   22  N4  UNL     1      82.864  -7.528  28.756  1.00  0.00    -0.217 N 
ATOM     23  H4  UNL     1      83.696  -7.131  28.321  1.00  0.00     0.178 HD
BRANCH  22  24
HETATM   24  C13 UNL     1      82.900  -8.914  28.837  1.00  0.00     0.149 C 
HETATM   25  C14 UNL     1      82.578  -9.483  30.207  1.00  0.00     0.037 C 
BRANCH  24  26
HETATM   26  C15 UNL     1      84.108  -9.619  28.310  1.00  0.00     0.208 C 
HETATM   27 CL1  UNL     1      84.462  -8.997  26.669  1.00  0.00    -0.082 Cl
HETATM   28 CL2  UNL     1      85.481  -9.474  29.389  1.00  0.00    -0.082 Cl
HETATM   29 CL3  UNL     1      83.709 -11.355  28.129  1.00  0.00    -0.082 Cl
ENDBRANCH  24  26
ENDBRANCH  22  24
ENDBRANCH   7  22
TORSDOF 5
ENDMDL
MODEL 5
REMARK VINA RESULT: -8.801743366      7.573     10.361
REMARK  5 active torsions:
REMARK  status: ('A' for Active; 'I' for Inactive)
REMARK    1  A    between atoms: C4_4  and  N1_5 
REMARK    2  A    between atoms: C7_8  and  C8_9 
REMARK    3  A    between atoms: C12_19  and  N4_20 
REMARK    4  A    between atoms: N4_20  and  C13_22 
REMARK    5  A    between atoms: C13_22  and  C15_24 
ROOT
HETATM    1  C1  UNL     1      81.031  -4.876  32.093  1.00  0.00     0.069 C 
HETATM    2  C2  UNL     1      81.422  -5.486  30.782  1.00  0.00     0.026 A 
HETATM    3  C3  UNL     1      80.979  -4.912  29.617  1.00  0.00     0.076 A 
HETATM    4  C4  UNL     1      81.344  -5.427  28.365  1.00  0.00     0.144 A 
HETATM    5  N3  UNL     1      82.139  -6.500  28.396  1.00  0.00    -0.175 N 
ATOM      6  H3  UNL     1      82.426  -6.904  27.505  1.00  0.00     0.186 HD
HETATM    7  C12 UNL     1      82.594  -7.097  29.538  1.00  0.00     0.680 A 
HETATM    8  N5  UNL     1      82.210  -6.558  30.699  1.00  0.00    -0.196 N 
ATOM      9  H5  UNL     1      82.537  -6.989  31.564  1.00  0.00     0.184 HD
ENDROOT
BRANCH   4  10
HETATM   10  N1  UNL     1      80.852  -4.860  27.171  1.00  0.00    -0.241 N 
HETATM   11  C5  UNL     1      79.436  -4.593  27.036  1.00  0.00     0.159 C 
HETATM   12  C6  UNL     1      79.033  -4.561  25.566  1.00  0.00     0.036 C 
HETATM   13  C7  UNL     1      79.874  -3.520  24.891  1.00  0.00     0.071 C 
HETATM   14  C11 UNL     1      81.214  -3.303  25.580  1.00  0.00     0.212 C 
HETATM   15  O1  UNL     1      81.636  -4.526  26.132  1.00  0.00    -0.276 OA
BRANCH  13  16
HETATM   16  C8  UNL     1      79.119  -2.223  24.798  1.00  0.00     0.057 A 
HETATM   17  N2  UNL     1      79.654  -1.029  24.568  1.00  0.00    -0.363 N 
HETATM   18  C9  UNL     1      78.889   0.010  24.506  1.00  0.00     0.095 A 
ATOM     19  H2  UNL     1      80.662  -0.934  24.441  1.00  0.00     0.165 HD
HETATM   20  C10 UNL     1      77.544  -0.169  24.686  1.00  0.00     0.068 A 
HETATM   21  S1  UNL     1      77.466  -1.866  24.937  1.00  0.00    -0.087 SA
ENDBRANCH  13  16
ENDBRANCH   4  10
BRANCH   7  22
HETATM   22  N4  UNL     1      83.347  -8.131  29.436  1.00  0.00    -0.217 N 
ATOM     23  H4  UNL     1      84.304  -7.961  29.745  1.00  0.00     0.178 HD
BRANCH  22  24
HETATM   24  C13 UNL     1      83.141  -9.433  28.995  1.00  0.00     0.149 C 
HETATM   25  C14 UNL     1      82.987 -10.463  30.099  1.00  0.00     0.037 C 
BRANCH  24  26
HETATM   26  C15 UNL     1      84.076  -9.985  27.968  1.00  0.00     0.208 C 
HETATM   27 CL1  UNL     1      83.346 -11.461  27.265  1.00  0.00    -0.082 Cl
HETATM   28 CL2  UNL     1      84.492  -8.799  26.748  1.00  0.00    -0.082 Cl
HETATM   29 CL3  UNL     1      85.578 -10.498  28.797  1.00  0.00    -0.082 Cl
ENDBRANCH  24  26
ENDBRANCH  22  24
ENDBRANCH   7  22
TORSDOF 5
ENDMDL
