MODEL 1
REMARK VINA RESULT: -5.245346755      0.000      0.000
REMARK  4 active torsions:
REMARK  status: ('A' for Active; 'I' for Inactive)
REMARK       I    between atoms: C1_4  and  N3_6 
REMARK    1  A    between atoms: N4_9  and  C4_10 
REMARK    2  A    between atoms: C4_10  and  C5_11 
REMARK    3  A    between atoms: C5_11  and  C6_12 
REMARK    4  A    between atoms: C6_12  and  N5_13 
ROOT
HETATM    1  N1  UNL     1      79.716  27.346  37.694  1.00  0.00    -0.374 N 
ATOM      2  H11 UNL     1      80.504  26.980  38.230  1.00  0.00     0.158 HD
ATOM      3  H12 UNL     1      79.879  27.785  36.788  1.00  0.00     0.158 HD
HETATM    4  C1  UNL     1      78.527  27.254  38.159  1.00  0.00     0.184 C 
HETATM    5  N2  UNL     1      77.439  27.758  37.418  1.00  0.00    -0.064 NA
HETATM    6  N3  UNL     1      78.303  26.650  39.405  1.00  0.00    -0.353 N 
HETATM    7  C2  UNL     1      78.355  25.220  39.665  1.00  0.00     0.156 C 
HETATM    8  C3  UNL     1      78.412  24.926  41.121  1.00  0.00     0.292 C 
HETATM    9  N4  UNL     1      77.314  25.506  41.916  1.00  0.00     0.091 N 
HETATM   10  C7  UNL     1      76.793  26.661  41.219  1.00  0.00     0.292 C 
HETATM   11  C8  UNL     1      77.983  27.427  40.619  1.00  0.00     0.156 C 
ENDROOT
BRANCH   9  12
HETATM   12  C4  UNL     1      77.787  25.866  43.209  1.00  0.00     0.274 C 
BRANCH  12  13
HETATM   13  C5  UNL     1      76.846  25.659  44.324  1.00  0.00     0.057 C 
BRANCH  13  14
HETATM   14  C6  UNL     1      76.013  26.806  44.768  1.00  0.00     0.231 C 
BRANCH  14  15
HETATM   15  N5  UNL     1      75.149  27.221  43.625  1.00  0.00    -0.079 N 
ATOM     16  H53 UNL     1      75.663  27.734  42.908  1.00  0.00     0.274 HD
ATOM     17  H52 UNL     1      74.856  26.433  43.046  1.00  0.00     0.274 HD
ATOM     18  H51 UNL     1      74.361  27.749  43.999  1.00  0.00     0.274 HD
ENDBRANCH  14  15
ENDBRANCH  13  14
ENDBRANCH  12  13
ENDBRANCH   9  12
TORSDOF 4
ENDMDL
MODEL 2
REMARK VINA RESULT: -4.503989237      0.721      1.733
REMARK  4 active torsions:
REMARK  status: ('A' for Active; 'I' for Inactive)
REMARK       I    between atoms: C1_4  and  N3_6 
REMARK    1  A    between atoms: N4_9  and  C4_10 
REMARK    2  A    between atoms: C4_10  and  C5_11 
REMARK    3  A    between atoms: C5_11  and  C6_12 
REMARK    4  A    between atoms: C6_12  and  N5_13 
ROOT
HETATM    1  N1  UNL     1      77.388  28.108  37.386  1.00  0.00    -0.374 N 
ATOM      2  H11 UNL     1      76.509  28.395  37.815  1.00  0.00     0.158 HD
ATOM      3  H12 UNL     1      77.567  28.319  36.403  1.00  0.00     0.158 HD
HETATM    4  C1  UNL     1      78.266  27.483  38.078  1.00  0.00     0.184 C 
HETATM    5  N2  UNL     1      79.481  27.086  37.485  1.00  0.00    -0.064 NA
HETATM    6  N3  UNL     1      78.021  27.194  39.429  1.00  0.00    -0.353 N 
HETATM    7  C2  UNL     1      78.067  28.160  40.515  1.00  0.00     0.156 C 
HETATM    8  C3  UNL     1      77.438  27.629  41.752  1.00  0.00     0.292 C 
HETATM    9  N4  UNL     1      77.997  26.354  42.236  1.00  0.00     0.091 N 
HETATM   10  C7  UNL     1      78.594  25.652  41.121  1.00  0.00     0.292 C 
HETATM   11  C8  UNL     1      77.678  25.838  39.902  1.00  0.00     0.156 C 
ENDROOT
BRANCH   9  12
HETATM   12  C4  UNL     1      76.972  25.570  42.837  1.00  0.00     0.274 C 
BRANCH  12  13
HETATM   13  C5  UNL     1      76.759  25.777  44.280  1.00  0.00     0.057 C 
BRANCH  13  14
HETATM   14  C6  UNL     1      75.750  26.778  44.709  1.00  0.00     0.231 C 
BRANCH  14  15
HETATM   15  N5  UNL     1      74.993  27.221  43.502  1.00  0.00    -0.079 N 
ATOM     16  H53 UNL     1      75.557  27.791  42.871  1.00  0.00     0.274 HD
ATOM     17  H52 UNL     1      74.798  26.455  42.857  1.00  0.00     0.274 HD
ATOM     18  H51 UNL     1      74.149  27.698  43.815  1.00  0.00     0.274 HD
ENDBRANCH  14  15
ENDBRANCH  13  14
ENDBRANCH  12  13
ENDBRANCH   9  12
TORSDOF 4
ENDMDL
MODEL 3
REMARK VINA RESULT: -4.306496658      2.329      3.545
REMARK  4 active torsions:
REMARK  status: ('A' for Active; 'I' for Inactive)
REMARK       I    between atoms: C1_4  and  N3_6 
REMARK    1  A    between atoms: N4_9  and  C4_10 
REMARK    2  A    between atoms: C4_10  and  C5_11 
REMARK    3  A    between atoms: C5_11  and  C6_12 
REMARK    4  A    between atoms: C6_12  and  N5_13 
ROOT
HETATM    1  N1  UNL     1      77.961  29.988  39.786  1.00  0.00    -0.374 N 
ATOM      2  H11 UNL     1      78.850  29.523  39.603  1.00  0.00     0.158 HD
ATOM      3  H12 UNL     1      77.840  30.970  39.535  1.00  0.00     0.158 HD
HETATM    4  C1  UNL     1      76.999  29.341  40.329  1.00  0.00     0.184 C 
HETATM    5  N2  UNL     1      75.769  29.984  40.581  1.00  0.00    -0.064 NA
HETATM    6  N3  UNL     1      77.164  27.992  40.674  1.00  0.00    -0.353 N 
HETATM    7  C2  UNL     1      77.182  26.882  39.734  1.00  0.00     0.156 C 
HETATM    8  C3  UNL     1      77.708  25.640  40.356  1.00  0.00     0.292 C 
HETATM    9  N4  UNL     1      77.001  25.208  41.576  1.00  0.00     0.091 N 
HETATM   10  C7  UNL     1      76.372  26.360  42.184  1.00  0.00     0.292 C 
HETATM   11  C8  UNL     1      77.345  27.544  42.069  1.00  0.00     0.156 C 
ENDROOT
BRANCH   9  12
HETATM   12  C4  UNL     1      77.915  24.596  42.478  1.00  0.00     0.274 C 
BRANCH  12  13
HETATM   13  C5  UNL     1      79.284  24.389  41.973  1.00  0.00     0.057 C 
BRANCH  13  14
HETATM   14  C6  UNL     1      79.803  23.001  41.882  1.00  0.00     0.231 C 
BRANCH  14  15
HETATM   15  N5  UNL     1      79.769  22.587  40.450  1.00  0.00    -0.079 N 
ATOM     16  H53 UNL     1      79.739  21.574  40.333  1.00  0.00     0.274 HD
ATOM     17  H52 UNL     1      78.879  22.803  39.999  1.00  0.00     0.274 HD
ATOM     18  H51 UNL     1      80.565  23.015  39.977  1.00  0.00     0.274 HD
ENDBRANCH  14  15
ENDBRANCH  13  14
ENDBRANCH  12  13
ENDBRANCH   9  12
TORSDOF 4
ENDMDL
MODEL 4
REMARK VINA RESULT: -4.103080248      1.176      1.358
REMARK  4 active torsions:
REMARK  status: ('A' for Active; 'I' for Inactive)
REMARK       I    between atoms: C1_4  and  N3_6 
REMARK    1  A    between atoms: N4_9  and  C4_10 
REMARK    2  A    between atoms: C4_10  and  C5_11 
REMARK    3  A    between atoms: C5_11  and  C6_12 
REMARK    4  A    between atoms: C6_12  and  N5_13 
ROOT
HETATM    1  N1  UNL     1      79.949  27.005  37.652  1.00  0.00    -0.374 N 
ATOM      2  H11 UNL     1      80.357  26.327  38.297  1.00  0.00     0.158 HD
ATOM      3  H12 UNL     1      80.416  27.211  36.769  1.00  0.00     0.158 HD
HETATM    4  C1  UNL     1      78.853  27.596  37.952  1.00  0.00     0.184 C 
HETATM    5  N2  UNL     1      78.290  28.532  37.061  1.00  0.00    -0.064 NA
HETATM    6  N3  UNL     1      78.210  27.312  39.166  1.00  0.00    -0.353 N 
HETATM    7  C2  UNL     1      77.461  26.099  39.454  1.00  0.00     0.156 C 
HETATM    8  C3  UNL     1      77.197  25.948  40.909  1.00  0.00     0.292 C 
HETATM    9  N4  UNL     1      76.502  27.087  41.536  1.00  0.00     0.091 N 
HETATM   10  C7  UNL     1      76.757  28.277  40.756  1.00  0.00     0.292 C 
HETATM   11  C8  UNL     1      78.227  28.243  40.311  1.00  0.00     0.156 C 
ENDROOT
BRANCH   9  12
HETATM   12  C4  UNL     1      76.953  27.253  42.876  1.00  0.00     0.274 C 
BRANCH  12  13
HETATM   13  C5  UNL     1      77.645  26.099  43.476  1.00  0.00     0.057 C 
BRANCH  13  14
HETATM   14  C6  UNL     1      77.044  25.459  44.674  1.00  0.00     0.231 C 
BRANCH  14  15
HETATM   15  N5  UNL     1      75.624  25.905  44.774  1.00  0.00    -0.079 N 
ATOM     16  H53 UNL     1      75.534  26.916  44.868  1.00  0.00     0.274 HD
ATOM     17  H52 UNL     1      75.116  25.803  43.895  1.00  0.00     0.274 HD
ATOM     18  H51 UNL     1      75.186  25.397  45.543  1.00  0.00     0.274 HD
ENDBRANCH  14  15
ENDBRANCH  13  14
ENDBRANCH  12  13
ENDBRANCH   9  12
TORSDOF 4
ENDMDL
MODEL 5
REMARK VINA RESULT: -4.072271326      1.417      2.244
REMARK  4 active torsions:
REMARK  status: ('A' for Active; 'I' for Inactive)
REMARK       I    between atoms: C1_4  and  N3_6 
REMARK    1  A    between atoms: N4_9  and  C4_10 
REMARK    2  A    between atoms: C4_10  and  C5_11 
REMARK    3  A    between atoms: C5_11  and  C6_12 
REMARK    4  A    between atoms: C6_12  and  N5_13 
ROOT
HETATM    1  N1  UNL     1      77.957  28.073  37.073  1.00  0.00    -0.374 N 
ATOM      2  H11 UNL     1      76.997  28.407  37.167  1.00  0.00     0.158 HD
ATOM      3  H12 UNL     1      78.407  28.072  36.157  1.00  0.00     0.158 HD
HETATM    4  C1  UNL     1      78.595  27.657  38.102  1.00  0.00     0.184 C 
HETATM    5  N2  UNL     1      79.922  27.197  37.971  1.00  0.00    -0.064 NA
HETATM    6  N3  UNL     1      77.978  27.659  39.361  1.00  0.00    -0.353 N 
HETATM    7  C2  UNL     1      77.736  28.841  40.174  1.00  0.00     0.156 C 
HETATM    8  C3  UNL     1      76.777  28.566  41.275  1.00  0.00     0.292 C 
HETATM    9  N4  UNL     1      77.156  27.454  42.167  1.00  0.00     0.091 N 
HETATM   10  C7  UNL     1      78.029  26.554  41.446  1.00  0.00     0.292 C 
HETATM   11  C8  UNL     1      77.494  26.426  40.012  1.00  0.00     0.156 C 
ENDROOT
BRANCH   9  12
HETATM   12  C4  UNL     1      75.991  26.774  42.620  1.00  0.00     0.274 C 
BRANCH  12  13
HETATM   13  C5  UNL     1      75.498  27.153  43.956  1.00  0.00     0.057 C 
BRANCH  13  14
HETATM   14  C6  UNL     1      76.049  26.447  45.140  1.00  0.00     0.231 C 
BRANCH  14  15
HETATM   15  N5  UNL     1      76.959  25.369  44.655  1.00  0.00    -0.079 N 
ATOM     16  H53 UNL     1      77.095  24.628  45.343  1.00  0.00     0.274 HD
ATOM     17  H52 UNL     1      76.538  24.799  43.920  1.00  0.00     0.274 HD
ATOM     18  H51 UNL     1      77.836  25.802  44.364  1.00  0.00     0.274 HD
ENDBRANCH  14  15
ENDBRANCH  13  14
ENDBRANCH  12  13
ENDBRANCH   9  12
TORSDOF 4
ENDMDL
