MODEL 1
REMARK VINA RESULT: -4.855391060      0.000      0.000
REMARK  4 active torsions:
REMARK  status: ('A' for Active; 'I' for Inactive)
REMARK       I    between atoms: C1_4  and  N2_5 
REMARK       I    between atoms: C1_4  and  N4_14 
REMARK    1  A    between atoms: N2_5  and  C2_7 
REMARK    2  A    between atoms: C2_7  and  C3_8 
REMARK    3  A    between atoms: C3_8  and  C4_9 
REMARK    4  A    between atoms: C4_9  and  N3_10 
ROOT
HETATM    1  N1  UNL     1      77.917  24.100  41.351  1.00  0.00    -0.235 N 
ATOM      2  H11 UNL     1      78.036  23.718  42.290  1.00  0.00     0.174 HD
ATOM      3  H12 UNL     1      78.044  23.514  40.525  1.00  0.00     0.174 HD
HETATM    4  C1  UNL     1      77.603  25.346  41.256  1.00  0.00     0.669 C 
HETATM    5  N2  UNL     1      77.438  25.875  39.954  1.00  0.00    -0.227 N 
ATOM      6  H2  UNL     1      76.506  25.923  39.543  1.00  0.00     0.177 HD
HETATM    7  N4  UNL     1      77.427  26.159  42.405  1.00  0.00    -0.214 N 
HETATM    8  C5  UNL     1      76.425  27.189  42.444  1.00  0.00     0.167 C 
HETATM    9  C6  UNL     1      75.548  26.877  43.657  1.00  0.00     0.188 C 
HETATM   10  O1  UNL     1      75.951  25.760  44.335  1.00  0.00    -0.388 OA
HETATM   11  C7  UNL     1      77.265  25.726  44.723  1.00  0.00     0.188 C 
HETATM   12  C8  UNL     1      78.237  25.995  43.579  1.00  0.00     0.167 C 
ENDROOT
BRANCH   5  13
HETATM   13  C2  UNL     1      78.566  26.345  39.208  1.00  0.00     0.139 C 
BRANCH  13  14
HETATM   14  C3  UNL     1      78.228  27.549  38.347  1.00  0.00     0.047 C 
BRANCH  14  15
HETATM   15  C4  UNL     1      77.437  28.554  39.159  1.00  0.00     0.231 C 
BRANCH  15  16
HETATM   16  N3  UNL     1      78.309  29.297  40.066  1.00  0.00    -0.079 N 
ATOM     17  H33 UNL     1      78.849  28.672  40.665  1.00  0.00     0.274 HD
ATOM     18  H32 UNL     1      79.082  29.739  39.567  1.00  0.00     0.274 HD
ATOM     19  H31 UNL     1      77.777  29.975  40.612  1.00  0.00     0.274 HD
ENDBRANCH  15  16
ENDBRANCH  14  15
ENDBRANCH  13  14
ENDBRANCH   5  13
TORSDOF 4
ENDMDL
MODEL 2
REMARK VINA RESULT: -4.764655957      1.237      1.573
REMARK  4 active torsions:
REMARK  status: ('A' for Active; 'I' for Inactive)
REMARK       I    between atoms: C1_4  and  N2_5 
REMARK       I    between atoms: C1_4  and  N4_14 
REMARK    1  A    between atoms: N2_5  and  C2_7 
REMARK    2  A    between atoms: C2_7  and  C3_8 
REMARK    3  A    between atoms: C3_8  and  C4_9 
REMARK    4  A    between atoms: C4_9  and  N3_10 
ROOT
HETATM    1  N1  UNL     1      77.571  25.283  40.336  1.00  0.00    -0.235 N 
ATOM      2  H11 UNL     1      77.902  24.576  40.993  1.00  0.00     0.174 HD
ATOM      3  H12 UNL     1      77.506  25.084  39.338  1.00  0.00     0.174 HD
HETATM    4  C1  UNL     1      77.242  26.430  40.820  1.00  0.00     0.669 C 
HETATM    5  N2  UNL     1      76.783  27.411  39.909  1.00  0.00    -0.227 N 
ATOM      6  H2  UNL     1      75.781  27.529  39.757  1.00  0.00     0.177 HD
HETATM    7  N4  UNL     1      77.332  26.707  42.209  1.00  0.00    -0.214 N 
HETATM    8  C5  UNL     1      76.364  27.540  42.868  1.00  0.00     0.167 C 
HETATM    9  C6  UNL     1      75.789  26.696  44.006  1.00  0.00     0.188 C 
HETATM   10  O1  UNL     1      76.337  25.445  44.074  1.00  0.00    -0.388 OA
HETATM   11  C7  UNL     1      77.705  25.385  44.132  1.00  0.00     0.188 C 
HETATM   12  C8  UNL     1      78.389  26.170  43.019  1.00  0.00     0.167 C 
ENDROOT
BRANCH   5  13
HETATM   13  C2  UNL     1      77.709  28.239  39.199  1.00  0.00     0.139 C 
BRANCH  13  14
HETATM   14  C3  UNL     1      77.820  27.857  37.734  1.00  0.00     0.047 C 
BRANCH  14  15
HETATM   15  C4  UNL     1      78.941  26.855  37.549  1.00  0.00     0.231 C 
BRANCH  15  16
HETATM   16  N3  UNL     1      80.095  27.202  38.375  1.00  0.00    -0.079 N 
ATOM     17  H33 UNL     1      79.840  27.841  39.128  1.00  0.00     0.274 HD
ATOM     18  H32 UNL     1      80.405  26.412  38.941  1.00  0.00     0.274 HD
ATOM     19  H31 UNL     1      80.854  27.576  37.805  1.00  0.00     0.274 HD
ENDBRANCH  15  16
ENDBRANCH  14  15
ENDBRANCH  13  14
ENDBRANCH   5  13
TORSDOF 4
ENDMDL
MODEL 3
REMARK VINA RESULT: -4.649264522      2.299      4.926
REMARK  4 active torsions:
REMARK  status: ('A' for Active; 'I' for Inactive)
REMARK       I    between atoms: C1_4  and  N2_5 
REMARK       I    between atoms: C1_4  and  N4_14 
REMARK    1  A    between atoms: N2_5  and  C2_7 
REMARK    2  A    between atoms: C2_7  and  C3_8 
REMARK    3  A    between atoms: C3_8  and  C4_9 
REMARK    4  A    between atoms: C4_9  and  N3_10 
ROOT
HETATM    1  N1  UNL     1      75.692  29.046  41.674  1.00  0.00    -0.235 N 
ATOM      2  H11 UNL     1      76.029  29.711  40.979  1.00  0.00     0.174 HD
ATOM      3  H12 UNL     1      74.976  29.311  42.351  1.00  0.00     0.174 HD
HETATM    4  C1  UNL     1      76.206  27.865  41.660  1.00  0.00     0.669 C 
HETATM    5  N2  UNL     1      75.737  26.942  42.625  1.00  0.00    -0.227 N 
ATOM      6  H2  UNL     1      74.993  26.289  42.379  1.00  0.00     0.177 HD
HETATM    7  N4  UNL     1      77.201  27.497  40.718  1.00  0.00    -0.214 N 
HETATM    8  C5  UNL     1      77.246  26.174  40.158  1.00  0.00     0.167 C 
HETATM    9  C6  UNL     1      77.178  26.356  38.642  1.00  0.00     0.188 C 
HETATM   10  O1  UNL     1      77.103  27.668  38.264  1.00  0.00    -0.388 OA
HETATM   11  C7  UNL     1      78.072  28.500  38.763  1.00  0.00     0.188 C 
HETATM   12  C8  UNL     1      78.206  28.424  40.279  1.00  0.00     0.167 C 
ENDROOT
BRANCH   5  13
HETATM   13  C2  UNL     1      76.297  26.914  43.942  1.00  0.00     0.139 C 
BRANCH  13  14
HETATM   14  C3  UNL     1      77.036  25.620  44.228  1.00  0.00     0.047 C 
BRANCH  14  15
HETATM   15  C4  UNL     1      78.353  25.605  43.479  1.00  0.00     0.231 C 
BRANCH  15  16
HETATM   16  N3  UNL     1      78.368  24.551  42.467  1.00  0.00    -0.079 N 
ATOM     17  H33 UNL     1      78.524  23.633  42.883  1.00  0.00     0.274 HD
ATOM     18  H32 UNL     1      77.440  24.389  42.078  1.00  0.00     0.274 HD
ATOM     19  H31 UNL     1      79.051  24.754  41.737  1.00  0.00     0.274 HD
ENDBRANCH  15  16
ENDBRANCH  14  15
ENDBRANCH  13  14
ENDBRANCH   5  13
TORSDOF 4
ENDMDL
MODEL 4
REMARK VINA RESULT: -4.550204800      2.249      4.769
REMARK  4 active torsions:
REMARK  status: ('A' for Active; 'I' for Inactive)
REMARK       I    between atoms: C1_4  and  N2_5 
REMARK       I    between atoms: C1_4  and  N4_14 
REMARK    1  A    between atoms: N2_5  and  C2_7 
REMARK    2  A    between atoms: C2_7  and  C3_8 
REMARK    3  A    between atoms: C3_8  and  C4_9 
REMARK    4  A    between atoms: C4_9  and  N3_10 
ROOT
HETATM    1  N1  UNL     1      76.035  28.025  42.494  1.00  0.00    -0.235 N 
ATOM      2  H11 UNL     1      76.028  28.931  42.025  1.00  0.00     0.174 HD
ATOM      3  H12 UNL     1      75.517  27.878  43.361  1.00  0.00     0.174 HD
HETATM    4  C1  UNL     1      76.720  27.081  41.946  1.00  0.00     0.669 C 
HETATM    5  N2  UNL     1      76.728  25.824  42.596  1.00  0.00    -0.227 N 
ATOM      6  H2  UNL     1      76.071  25.101  42.304  1.00  0.00     0.177 HD
HETATM    7  N4  UNL     1      77.439  27.286  40.740  1.00  0.00    -0.214 N 
HETATM    8  C5  UNL     1      77.548  26.250  39.750  1.00  0.00     0.167 C 
HETATM    9  C6  UNL     1      77.002  26.849  38.453  1.00  0.00     0.188 C 
HETATM   10  O1  UNL     1      76.590  28.145  38.595  1.00  0.00    -0.388 OA
HETATM   11  C7  UNL     1      77.501  29.017  39.132  1.00  0.00     0.188 C 
HETATM   12  C8  UNL     1      78.091  28.533  40.451  1.00  0.00     0.167 C 
ENDROOT
BRANCH   5  13
HETATM   13  C2  UNL     1      77.649  25.557  43.659  1.00  0.00     0.139 C 
BRANCH  13  14
HETATM   14  C3  UNL     1      78.989  25.058  43.149  1.00  0.00     0.047 C 
BRANCH  14  15
HETATM   15  C4  UNL     1      78.776  24.111  41.987  1.00  0.00     0.231 C 
BRANCH  15  16
HETATM   16  N3  UNL     1      79.902  23.191  41.846  1.00  0.00    -0.079 N 
ATOM     17  H33 UNL     1      80.151  23.048  40.868  1.00  0.00     0.274 HD
ATOM     18  H32 UNL     1      80.774  23.610  42.169  1.00  0.00     0.274 HD
ATOM     19  H31 UNL     1      79.713  22.306  42.319  1.00  0.00     0.274 HD
ENDBRANCH  15  16
ENDBRANCH  14  15
ENDBRANCH  13  14
ENDBRANCH   5  13
TORSDOF 4
ENDMDL
MODEL 5
REMARK VINA RESULT: -4.353499054      2.361      4.769
REMARK  4 active torsions:
REMARK  status: ('A' for Active; 'I' for Inactive)
REMARK       I    between atoms: C1_4  and  N2_5 
REMARK       I    between atoms: C1_4  and  N4_14 
REMARK    1  A    between atoms: N2_5  and  C2_7 
REMARK    2  A    between atoms: C2_7  and  C3_8 
REMARK    3  A    between atoms: C3_8  and  C4_9 
REMARK    4  A    between atoms: C4_9  and  N3_10 
ROOT
HETATM    1  N1  UNL     1      78.491  24.898  40.250  1.00  0.00    -0.235 N 
ATOM      2  H11 UNL     1      78.457  24.900  39.231  1.00  0.00     0.174 HD
ATOM      3  H12 UNL     1      78.893  24.112  40.761  1.00  0.00     0.174 HD
HETATM    4  C1  UNL     1      78.007  25.925  40.859  1.00  0.00     0.669 C 
HETATM    5  N2  UNL     1      78.055  25.922  42.274  1.00  0.00    -0.227 N 
ATOM      6  H2  UNL     1      78.828  26.383  42.753  1.00  0.00     0.177 HD
HETATM    7  N4  UNL     1      77.448  27.018  40.148  1.00  0.00    -0.214 N 
HETATM    8  C5  UNL     1      77.605  28.369  40.612  1.00  0.00     0.167 C 
HETATM    9  C6  UNL     1      78.255  29.136  39.461  1.00  0.00     0.188 C 
HETATM   10  O1  UNL     1      78.487  28.356  38.362  1.00  0.00    -0.388 OA
HETATM   11  C7  UNL     1      77.412  27.660  37.874  1.00  0.00     0.188 C 
HETATM   12  C8  UNL     1      76.701  26.829  38.936  1.00  0.00     0.167 C 
ENDROOT
BRANCH   5  13
HETATM   13  C2  UNL     1      77.030  25.279  43.038  1.00  0.00     0.139 C 
BRANCH  13  14
HETATM   14  C3  UNL     1      76.967  25.791  44.466  1.00  0.00     0.047 C 
BRANCH  14  15
HETATM   15  C4  UNL     1      75.805  26.749  44.617  1.00  0.00     0.231 C 
BRANCH  15  16
HETATM   16  N3  UNL     1      75.228  27.083  43.316  1.00  0.00    -0.079 N 
ATOM     17  H33 UNL     1      75.191  28.091  43.169  1.00  0.00     0.274 HD
ATOM     18  H32 UNL     1      75.857  26.837  42.551  1.00  0.00     0.274 HD
ATOM     19  H31 UNL     1      74.311  26.651  43.201  1.00  0.00     0.274 HD
ENDBRANCH  15  16
ENDBRANCH  14  15
ENDBRANCH  13  14
ENDBRANCH   5  13
TORSDOF 4
ENDMDL
