MODEL 1
REMARK VINA RESULT: -5.542679064      0.000      0.000
REMARK  4 active torsions:
REMARK  status: ('A' for Active; 'I' for Inactive)
REMARK    1  A    between atoms: C1_2  and  N2_4 
REMARK    2  A    between atoms: N2_4  and  C2_6 
REMARK    3  A    between atoms: C2_6  and  C3_7 
REMARK    4  A    between atoms: C3_7  and  N3_8 
ROOT
HETATM    1  N3  UNL     1      77.308  27.814  39.045  1.00  0.00     0.093 N 
HETATM    2  C4  UNL     1      77.070  26.358  39.130  1.00  0.00     0.300 C 
HETATM    3  C5  UNL     1      78.262  25.528  39.406  1.00  0.00     0.262 C 
HETATM    4  N4  UNL     1      79.206  25.605  38.299  1.00  0.00    -0.072 N 
ATOM      5  H41 UNL     1      78.986  24.969  37.532  1.00  0.00     0.277 HD
ATOM      6  H42 UNL     1      80.124  25.219  38.521  1.00  0.00     0.277 HD
HETATM    7  C6  UNL     1      79.248  26.987  37.901  1.00  0.00     0.262 C 
HETATM    8  C7  UNL     1      78.769  27.908  39.027  1.00  0.00     0.300 C 
ENDROOT
BRANCH   1   9
HETATM    9  C3  UNL     1      76.763  28.435  40.225  1.00  0.00     0.292 C 
BRANCH   9  10
HETATM   10  C2  UNL     1      77.123  27.971  41.561  1.00  0.00     0.152 C 
BRANCH  10  11
HETATM   11  N2  UNL     1      76.119  27.599  42.512  1.00  0.00    -0.368 N 
ATOM     12  H2  UNL     1      75.199  28.041  42.510  1.00  0.00     0.161 HD
BRANCH  11  13
HETATM   13  C1  UNL     1      76.457  26.566  43.481  1.00  0.00     0.181 C 
HETATM   14  N1  UNL     1      75.616  26.330  44.604  1.00  0.00    -0.070 NA
HETATM   15  S1  UNL     1      77.800  25.649  43.300  1.00  0.00    -0.044 SA
ENDBRANCH  11  13
ENDBRANCH  10  11
ENDBRANCH   9  10
ENDBRANCH   1   9
TORSDOF 4
ENDMDL
MODEL 2
REMARK VINA RESULT: -5.192071473      0.714      1.471
REMARK  4 active torsions:
REMARK  status: ('A' for Active; 'I' for Inactive)
REMARK    1  A    between atoms: C1_2  and  N2_4 
REMARK    2  A    between atoms: N2_4  and  C2_6 
REMARK    3  A    between atoms: C2_6  and  C3_7 
REMARK    4  A    between atoms: C3_7  and  N3_8 
ROOT
HETATM    1  N3  UNL     1      77.895  27.064  40.313  1.00  0.00     0.093 N 
HETATM    2  C4  UNL     1      78.819  27.749  39.385  1.00  0.00     0.300 C 
HETATM    3  C5  UNL     1      78.748  27.317  37.973  1.00  0.00     0.262 C 
HETATM    4  N4  UNL     1      79.176  25.930  37.841  1.00  0.00    -0.072 N 
ATOM      5  H41 UNL     1      80.189  25.821  37.785  1.00  0.00     0.277 HD
ATOM      6  H42 UNL     1      78.957  25.523  36.931  1.00  0.00     0.277 HD
HETATM    7  C6  UNL     1      78.584  25.219  38.942  1.00  0.00     0.262 C 
HETATM    8  C7  UNL     1      77.369  25.964  39.501  1.00  0.00     0.300 C 
ENDROOT
BRANCH   1   9
HETATM    9  C3  UNL     1      76.850  27.985  40.678  1.00  0.00     0.292 C 
BRANCH   9  10
HETATM   10  C2  UNL     1      76.465  28.181  42.073  1.00  0.00     0.152 C 
BRANCH  10  11
HETATM   11  N2  UNL     1      75.651  27.223  42.758  1.00  0.00    -0.368 N 
ATOM     12  H2  UNL     1      74.660  27.118  42.539  1.00  0.00     0.161 HD
BRANCH  11  13
HETATM   13  C1  UNL     1      76.288  26.403  43.779  1.00  0.00     0.181 C 
HETATM   14  N1  UNL     1      75.655  26.198  45.036  1.00  0.00    -0.070 NA
HETATM   15  S1  UNL     1      77.737  25.693  43.504  1.00  0.00    -0.044 SA
ENDBRANCH  11  13
ENDBRANCH  10  11
ENDBRANCH   9  10
ENDBRANCH   1   9
TORSDOF 4
ENDMDL
MODEL 3
REMARK VINA RESULT: -5.184559994      1.699      2.328
REMARK  4 active torsions:
REMARK  status: ('A' for Active; 'I' for Inactive)
REMARK    1  A    between atoms: C1_2  and  N2_4 
REMARK    2  A    between atoms: N2_4  and  C2_6 
REMARK    3  A    between atoms: C2_6  and  C3_7 
REMARK    4  A    between atoms: C3_7  and  N3_8 
ROOT
HETATM    1  N3  UNL     1      77.636  26.014  40.035  1.00  0.00     0.093 N 
HETATM    2  C4  UNL     1      78.207  25.752  38.698  1.00  0.00     0.300 C 
HETATM    3  C5  UNL     1      79.086  26.810  38.157  1.00  0.00     0.262 C 
HETATM    4  N4  UNL     1      78.328  28.032  37.917  1.00  0.00    -0.072 N 
ATOM      5  H41 UNL     1      77.836  28.035  37.024  1.00  0.00     0.277 HD
ATOM      6  H42 UNL     1      78.917  28.845  37.738  1.00  0.00     0.277 HD
HETATM    7  C6  UNL     1      77.458  28.194  39.051  1.00  0.00     0.262 C 
HETATM    8  C7  UNL     1      77.973  27.420  40.267  1.00  0.00     0.300 C 
ENDROOT
BRANCH   1   9
HETATM    9  C3  UNL     1      78.297  25.158  40.988  1.00  0.00     0.292 C 
BRANCH   9  10
HETATM   10  C2  UNL     1      77.649  24.772  42.238  1.00  0.00     0.152 C 
BRANCH  10  11
HETATM   11  N2  UNL     1      77.711  25.614  43.394  1.00  0.00    -0.368 N 
ATOM     12  H2  UNL     1      78.577  25.725  43.921  1.00  0.00     0.161 HD
BRANCH  11  13
HETATM   13  C1  UNL     1      76.492  26.306  43.792  1.00  0.00     0.181 C 
HETATM   14  N1  UNL     1      75.799  25.921  44.973  1.00  0.00    -0.070 NA
HETATM   15  S1  UNL     1      75.897  27.542  42.900  1.00  0.00    -0.044 SA
ENDBRANCH  11  13
ENDBRANCH  10  11
ENDBRANCH   9  10
ENDBRANCH   1   9
TORSDOF 4
ENDMDL
MODEL 4
REMARK VINA RESULT: -5.178872592      1.777      2.338
REMARK  4 active torsions:
REMARK  status: ('A' for Active; 'I' for Inactive)
REMARK    1  A    between atoms: C1_2  and  N2_4 
REMARK    2  A    between atoms: N2_4  and  C2_6 
REMARK    3  A    between atoms: C2_6  and  C3_7 
REMARK    4  A    between atoms: C3_7  and  N3_8 
ROOT
HETATM    1  N3  UNL     1      78.415  26.203  40.009  1.00  0.00     0.093 N 
HETATM    2  C4  UNL     1      77.619  27.445  39.923  1.00  0.00     0.300 C 
HETATM    3  C5  UNL     1      77.094  27.779  38.582  1.00  0.00     0.262 C 
HETATM    4  N4  UNL     1      78.187  28.069  37.663  1.00  0.00    -0.072 N 
ATOM      5  H41 UNL     1      78.529  29.028  37.728  1.00  0.00     0.277 HD
ATOM      6  H42 UNL     1      77.897  28.106  36.686  1.00  0.00     0.277 HD
HETATM    7  C6  UNL     1      79.201  27.081  37.920  1.00  0.00     0.262 C 
HETATM    8  C7  UNL     1      78.616  25.843  38.605  1.00  0.00     0.300 C 
ENDROOT
BRANCH   1   9
HETATM    9  C3  UNL     1      77.631  25.207  40.694  1.00  0.00     0.292 C 
BRANCH   9  10
HETATM   10  C2  UNL     1      78.023  24.705  42.008  1.00  0.00     0.152 C 
BRANCH  10  11
HETATM   11  N2  UNL     1      78.130  25.583  43.134  1.00  0.00    -0.368 N 
ATOM     12  H2  UNL     1      79.040  25.896  43.476  1.00  0.00     0.161 HD
BRANCH  11  13
HETATM   13  C1  UNL     1      76.895  26.015  43.774  1.00  0.00     0.181 C 
HETATM   14  N1  UNL     1      76.441  25.381  44.963  1.00  0.00    -0.070 NA
HETATM   15  S1  UNL     1      76.008  27.240  43.149  1.00  0.00    -0.044 SA
ENDBRANCH  11  13
ENDBRANCH  10  11
ENDBRANCH   9  10
ENDBRANCH   1   9
TORSDOF 4
ENDMDL
MODEL 5
REMARK VINA RESULT: -4.882660180      1.788      4.856
REMARK  4 active torsions:
REMARK  status: ('A' for Active; 'I' for Inactive)
REMARK    1  A    between atoms: C1_2  and  N2_4 
REMARK    2  A    between atoms: N2_4  and  C2_6 
REMARK    3  A    between atoms: C2_6  and  C3_7 
REMARK    4  A    between atoms: C3_7  and  N3_8 
ROOT
HETATM    1  N3  UNL     1      76.949  27.782  42.475  1.00  0.00     0.093 N 
HETATM    2  C4  UNL     1      77.933  26.681  42.421  1.00  0.00     0.300 C 
HETATM    3  C5  UNL     1      77.401  25.331  42.705  1.00  0.00     0.262 C 
HETATM    4  N4  UNL     1      76.940  25.243  44.085  1.00  0.00    -0.072 N 
ATOM      5  H41 UNL     1      77.688  25.049  44.751  1.00  0.00     0.277 HD
ATOM      6  H42 UNL     1      76.385  24.409  44.274  1.00  0.00     0.277 HD
HETATM    7  C6  UNL     1      76.239  26.470  44.354  1.00  0.00     0.262 C 
HETATM    8  C7  UNL     1      75.769  27.141  43.060  1.00  0.00     0.300 C 
ENDROOT
BRANCH   1   9
HETATM    9  C3  UNL     1      76.686  28.225  41.130  1.00  0.00     0.292 C 
BRANCH   9  10
HETATM   10  C2  UNL     1      77.766  28.664  40.251  1.00  0.00     0.152 C 
BRANCH  10  11
HETATM   11  N2  UNL     1      77.824  28.246  38.883  1.00  0.00    -0.368 N 
ATOM     12  H2  UNL     1      77.309  28.743  38.156  1.00  0.00     0.161 HD
BRANCH  11  13
HETATM   13  C1  UNL     1      78.644  27.085  38.566  1.00  0.00     0.181 C 
HETATM   14  N1  UNL     1      79.953  27.252  38.034  1.00  0.00    -0.070 NA
HETATM   15  S1  UNL     1      78.088  25.567  38.820  1.00  0.00    -0.044 SA
ENDBRANCH  11  13
ENDBRANCH  10  11
ENDBRANCH   9  10
ENDBRANCH   1   9
TORSDOF 4
ENDMDL
