MODEL 1
REMARK VINA RESULT: -4.196975210      0.000      0.000
REMARK  9 active torsions:
REMARK  status: ('A' for Active; 'I' for Inactive)
REMARK    1  A    between atoms: C2_2  and  C4_4 
REMARK    2  A    between atoms: C4_4  and  C5_5 
REMARK    3  A    between atoms: C9_14  and  O1_15 
REMARK    4  A    between atoms: O1_15  and  C10_16 
REMARK    5  A    between atoms: C10_16  and  N4_24 
REMARK    6  A    between atoms: N3_17  and  C11_19 
REMARK    7  A    between atoms: C12_20  and  C13_21 
REMARK    8  A    between atoms: C13_21  and  C14_22 
REMARK    9  A    between atoms: C17_27  and  N5_28 
ROOT
HETATM    1  C5  UNL     1      39.000  14.286 -15.089  1.00  0.00     0.123 C 
HETATM    2  C6  UNL     1      38.995  15.080 -16.366  1.00  0.00     0.087 C 
HETATM    3  N1  UNL     1      38.486  14.726 -17.451  1.00  0.00    -0.358 N 
ATOM      4  H1  UNL     1      38.613  15.435 -18.173  1.00  0.00     0.166 HD
HETATM    5  C7  UNL     1      37.800  13.633 -17.929  1.00  0.00     0.076 C 
HETATM    6  N2  UNL     1      36.487  13.555 -18.053  1.00  0.00    -0.389 N 
ATOM      7  H21 UNL     1      35.979  12.745 -18.408  1.00  0.00     0.157 HD
ATOM      8  H22 UNL     1      35.989  14.390 -17.745  1.00  0.00     0.157 HD
HETATM    9  C8  UNL     1      38.523  12.420 -18.377  1.00  0.00     0.111 C 
HETATM   10  C9  UNL     1      39.691  12.006 -17.574  1.00  0.00     0.178 C 
HETATM   11  C17 UNL     1      39.407  11.153 -16.377  1.00  0.00     0.304 C 
HETATM   12  C18 UNL     1      38.557  11.764 -15.341  1.00  0.00     0.251 C 
HETATM   13  O2  UNL     1      38.117  10.908 -14.479  1.00  0.00    -0.271 OA
HETATM   14  N6  UNL     1      38.180  13.107 -15.181  1.00  0.00    -0.350 N 
ATOM     15  H6  UNL     1      37.176  13.271 -15.121  1.00  0.00     0.163 HD
ENDROOT
BRANCH  10  16
HETATM   16  O1  UNL     1      40.787  11.478 -18.336  1.00  0.00    -0.313 OA
BRANCH  16  17
HETATM   17  C10 UNL     1      41.798  12.255 -18.833  1.00  0.00     0.229 C 
HETATM   18  N3  UNL     1      42.906  12.253 -18.208  1.00  0.00    -0.281 N 
ATOM     19  H3  UNL     1      42.987  11.675 -17.371  1.00  0.00     0.179 HD
BRANCH  18  20
HETATM   20  C11 UNL     1      44.025  13.006 -18.609  1.00  0.00     0.013 C 
HETATM   21  C12 UNL     1      44.991  13.650 -18.933  1.00  0.00    -0.082 C 
BRANCH  21  22
HETATM   22  C13 UNL     1      46.164  14.439 -19.302  1.00  0.00     0.110 C 
BRANCH  22  23
HETATM   23  C14 UNL     1      47.233  14.227 -18.242  1.00  0.00     0.126 C 
HETATM   24 CL1  UNL     1      47.621  15.731 -17.408  1.00  0.00    -0.130 Cl
ENDBRANCH  22  23
ENDBRANCH  21  22
ENDBRANCH  18  20
BRANCH  17  25
HETATM   25  N4  UNL     1      41.692  13.060 -19.994  1.00  0.00    -0.355 N 
HETATM   26  C15 UNL     1      41.981  12.508 -21.291  1.00  0.00     0.152 C 
HETATM   27  C16 UNL     1      41.295  14.441 -19.892  1.00  0.00     0.152 C 
ENDBRANCH  17  25
ENDBRANCH  16  17
ENDBRANCH  10  16
BRANCH  11  28
HETATM   28  N5  UNL     1      38.863   9.865 -16.705  1.00  0.00    -0.064 N 
ATOM     29  H53 UNL     1      37.922   9.763 -16.325  1.00  0.00     0.275 HD
ATOM     30  H52 UNL     1      38.651   9.806 -17.701  1.00  0.00     0.275 HD
ATOM     31  H51 UNL     1      39.455   9.086 -16.416  1.00  0.00     0.275 HD
ENDBRANCH  11  28
BRANCH   1  32
HETATM   32  C4  UNL     1      38.823  15.123 -13.890  1.00  0.00     0.034 C 
BRANCH  32  33
HETATM   33  C2  UNL     1      38.914  14.601 -12.540  1.00  0.00    -0.020 C 
HETATM   34  C1  UNL     1      39.918  13.504 -12.273  1.00  0.00     0.009 C 
HETATM   35  C3  UNL     1      37.629  14.175 -11.884  1.00  0.00     0.009 C 
ENDBRANCH  32  33
ENDBRANCH   1  32
TORSDOF 9
ENDMDL
MODEL 2
REMARK VINA RESULT: -4.065484102      1.127      1.604
REMARK  9 active torsions:
REMARK  status: ('A' for Active; 'I' for Inactive)
REMARK    1  A    between atoms: C2_2  and  C4_4 
REMARK    2  A    between atoms: C4_4  and  C5_5 
REMARK    3  A    between atoms: C9_14  and  O1_15 
REMARK    4  A    between atoms: O1_15  and  C10_16 
REMARK    5  A    between atoms: C10_16  and  N4_24 
REMARK    6  A    between atoms: N3_17  and  C11_19 
REMARK    7  A    between atoms: C12_20  and  C13_21 
REMARK    8  A    between atoms: C13_21  and  C14_22 
REMARK    9  A    between atoms: C17_27  and  N5_28 
ROOT
HETATM    1  C5  UNL     1      38.968  14.629 -15.538  1.00  0.00     0.123 C 
HETATM    2  C6  UNL     1      38.668  15.729 -16.518  1.00  0.00     0.087 C 
HETATM    3  N1  UNL     1      37.898  15.652 -17.498  1.00  0.00    -0.358 N 
ATOM      4  H1  UNL     1      37.860  16.530 -18.015  1.00  0.00     0.166 HD
HETATM    5  C7  UNL     1      37.086  14.695 -18.065  1.00  0.00     0.076 C 
HETATM    6  N2  UNL     1      35.781  14.600 -17.879  1.00  0.00    -0.389 N 
ATOM      7  H21 UNL     1      35.180  13.891 -18.299  1.00  0.00     0.157 HD
ATOM      8  H22 UNL     1      35.398  15.304 -17.248  1.00  0.00     0.157 HD
HETATM    9  C8  UNL     1      37.643  13.673 -18.980  1.00  0.00     0.111 C 
HETATM   10  C9  UNL     1      38.961  13.111 -18.627  1.00  0.00     0.178 C 
HETATM   11  C17 UNL     1      38.960  11.962 -17.666  1.00  0.00     0.304 C 
HETATM   12  C18 UNL     1      38.410  12.245 -16.330  1.00  0.00     0.251 C 
HETATM   13  O2  UNL     1      38.174  11.176 -15.644  1.00  0.00    -0.271 OA
HETATM   14  N6  UNL     1      38.120  13.483 -15.734  1.00  0.00    -0.350 N 
ATOM     15  H6  UNL     1      37.167  13.585 -15.387  1.00  0.00     0.163 HD
ENDROOT
BRANCH  10  16
HETATM   16  O1  UNL     1      39.821  12.846 -19.747  1.00  0.00    -0.313 OA
BRANCH  16  17
HETATM   17  C10 UNL     1      41.161  12.601 -19.622  1.00  0.00     0.229 C 
HETATM   18  N3  UNL     1      41.895  13.540 -19.180  1.00  0.00    -0.281 N 
ATOM     19  H3  UNL     1      41.451  14.427 -18.941  1.00  0.00     0.179 HD
BRANCH  18  20
HETATM   20  C11 UNL     1      43.286  13.423 -19.004  1.00  0.00     0.013 C 
HETATM   21  C12 UNL     1      44.479  13.342 -18.853  1.00  0.00    -0.082 C 
BRANCH  21  22
HETATM   22  C13 UNL     1      45.928  13.267 -18.681  1.00  0.00     0.110 C 
BRANCH  22  23
HETATM   23  C14 UNL     1      46.497  14.670 -18.818  1.00  0.00     0.126 C 
HETATM   24 CL1  UNL     1      47.236  15.216 -17.313  1.00  0.00    -0.130 Cl
ENDBRANCH  22  23
ENDBRANCH  21  22
ENDBRANCH  18  20
BRANCH  17  25
HETATM   25  N4  UNL     1      41.784  11.371 -19.952  1.00  0.00    -0.355 N 
HETATM   26  C15 UNL     1      42.234  11.121 -21.296  1.00  0.00     0.152 C 
HETATM   27  C16 UNL     1      41.976  10.356 -18.947  1.00  0.00     0.152 C 
ENDBRANCH  17  25
ENDBRANCH  16  17
ENDBRANCH  10  16
BRANCH  11  28
HETATM   28  N5  UNL     1      38.318  10.785 -18.179  1.00  0.00    -0.064 N 
ATOM     29  H53 UNL     1      37.826  10.992 -19.049  1.00  0.00     0.275 HD
ATOM     30  H52 UNL     1      39.008  10.121 -18.529  1.00  0.00     0.275 HD
ATOM     31  H51 UNL     1      37.693  10.336 -17.509  1.00  0.00     0.275 HD
ENDBRANCH  11  28
BRANCH   1  32
HETATM   32  C4  UNL     1      39.116  15.114 -14.155  1.00  0.00     0.034 C 
BRANCH  32  33
HETATM   33  C2  UNL     1      38.884  14.277 -12.994  1.00  0.00    -0.020 C 
HETATM   34  C1  UNL     1      37.818  14.708 -12.013  1.00  0.00     0.009 C 
HETATM   35  C3  UNL     1      40.088  13.894 -12.176  1.00  0.00     0.009 C 
ENDBRANCH  32  33
ENDBRANCH   1  32
TORSDOF 9
ENDMDL
MODEL 3
REMARK VINA RESULT: -4.026689994      4.553      6.391
REMARK  9 active torsions:
REMARK  status: ('A' for Active; 'I' for Inactive)
REMARK    1  A    between atoms: C2_2  and  C4_4 
REMARK    2  A    between atoms: C4_4  and  C5_5 
REMARK    3  A    between atoms: C9_14  and  O1_15 
REMARK    4  A    between atoms: O1_15  and  C10_16 
REMARK    5  A    between atoms: C10_16  and  N4_24 
REMARK    6  A    between atoms: N3_17  and  C11_19 
REMARK    7  A    between atoms: C12_20  and  C13_21 
REMARK    8  A    between atoms: C13_21  and  C14_22 
REMARK    9  A    between atoms: C17_27  and  N5_28 
ROOT
HETATM    1  C5  UNL     1      37.517  14.363 -12.614  1.00  0.00     0.123 C 
HETATM    2  C6  UNL     1      38.954  14.716 -12.888  1.00  0.00     0.087 C 
HETATM    3  N1  UNL     1      39.501  14.753 -14.010  1.00  0.00    -0.358 N 
ATOM      4  H1  UNL     1      40.483  15.018 -13.939  1.00  0.00     0.166 HD
HETATM    5  C7  UNL     1      39.130  14.531 -15.317  1.00  0.00     0.076 C 
HETATM    6  N2  UNL     1      38.804  15.473 -16.184  1.00  0.00    -0.389 N 
ATOM      7  H21 UNL     1      38.529  15.308 -17.152  1.00  0.00     0.157 HD
ATOM      8  H22 UNL     1      38.834  16.418 -15.803  1.00  0.00     0.157 HD
HETATM    9  C8  UNL     1      39.086  13.158 -15.871  1.00  0.00     0.111 C 
HETATM   10  C9  UNL     1      38.570  12.098 -14.983  1.00  0.00     0.178 C 
HETATM   11  C17 UNL     1      37.083  11.919 -14.955  1.00  0.00     0.304 C 
HETATM   12  C18 UNL     1      36.307  13.079 -14.487  1.00  0.00     0.251 C 
HETATM   13  O2  UNL     1      35.044  12.978 -14.743  1.00  0.00    -0.271 OA
HETATM   14  N6  UNL     1      36.750  14.235 -13.825  1.00  0.00    -0.350 N 
ATOM     15  H6  UNL     1      36.490  15.115 -14.268  1.00  0.00     0.163 HD
ENDROOT
BRANCH  10  16
HETATM   16  O1  UNL     1      39.240  10.833 -15.104  1.00  0.00    -0.313 OA
BRANCH  16  17
HETATM   17  C10 UNL     1      39.712  10.129 -14.030  1.00  0.00     0.229 C 
HETATM   18  N3  UNL     1      39.522  10.619 -12.873  1.00  0.00    -0.281 N 
ATOM     19  H3  UNL     1      39.029  11.510 -12.800  1.00  0.00     0.179 HD
BRANCH  18  20
HETATM   20  C11 UNL     1      39.956  10.000 -11.685  1.00  0.00     0.013 C 
HETATM   21  C12 UNL     1      40.319   9.454 -10.675  1.00  0.00    -0.082 C 
BRANCH  21  22
HETATM   22  C13 UNL     1      40.741   8.774  -9.453  1.00  0.00     0.110 C 
BRANCH  22  23
HETATM   23  C14 UNL     1      41.014   7.316  -9.788  1.00  0.00     0.126 C 
HETATM   24 CL1  UNL     1      42.186   7.163 -11.096  1.00  0.00    -0.130 Cl
ENDBRANCH  22  23
ENDBRANCH  21  22
ENDBRANCH  18  20
BRANCH  17  25
HETATM   25  N4  UNL     1      40.397   8.892 -14.123  1.00  0.00    -0.355 N 
HETATM   26  C15 UNL     1      41.824   8.862 -14.305  1.00  0.00     0.152 C 
HETATM   27  C16 UNL     1      39.675   7.648 -14.036  1.00  0.00     0.152 C 
ENDBRANCH  17  25
ENDBRANCH  16  17
ENDBRANCH  10  16
BRANCH  11  28
HETATM   28  N5  UNL     1      36.533  11.483 -16.208  1.00  0.00    -0.064 N 
ATOM     29  H53 UNL     1      37.268  11.379 -16.908  1.00  0.00     0.275 HD
ATOM     30  H52 UNL     1      36.219  10.515 -16.147  1.00  0.00     0.275 HD
ATOM     31  H51 UNL     1      35.786  12.083 -16.556  1.00  0.00     0.275 HD
ENDBRANCH  11  28
BRANCH   1  32
HETATM   32  C4  UNL     1      36.921  15.169 -11.535  1.00  0.00     0.034 C 
BRANCH  32  33
HETATM   33  C2  UNL     1      35.732  14.767 -10.811  1.00  0.00    -0.020 C 
HETATM   34  C1  UNL     1      35.191  15.709  -9.761  1.00  0.00     0.009 C 
HETATM   35  C3  UNL     1      35.738  13.395 -10.193  1.00  0.00     0.009 C 
ENDBRANCH  32  33
ENDBRANCH   1  32
TORSDOF 9
ENDMDL
MODEL 4
REMARK VINA RESULT: -4.014747389      1.960      2.411
REMARK  9 active torsions:
REMARK  status: ('A' for Active; 'I' for Inactive)
REMARK    1  A    between atoms: C2_2  and  C4_4 
REMARK    2  A    between atoms: C4_4  and  C5_5 
REMARK    3  A    between atoms: C9_14  and  O1_15 
REMARK    4  A    between atoms: O1_15  and  C10_16 
REMARK    5  A    between atoms: C10_16  and  N4_24 
REMARK    6  A    between atoms: N3_17  and  C11_19 
REMARK    7  A    between atoms: C12_20  and  C13_21 
REMARK    8  A    between atoms: C13_21  and  C14_22 
REMARK    9  A    between atoms: C17_27  and  N5_28 
ROOT
HETATM    1  C5  UNL     1      38.364  13.711 -15.501  1.00  0.00     0.123 C 
HETATM    2  C6  UNL     1      39.039  15.014 -15.831  1.00  0.00     0.087 C 
HETATM    3  N1  UNL     1      38.633  15.865 -16.651  1.00  0.00    -0.358 N 
ATOM      4  H1  UNL     1      39.263  16.666 -16.701  1.00  0.00     0.166 HD
HETATM    5  C7  UNL     1      37.562  16.009 -17.503  1.00  0.00     0.076 C 
HETATM    6  N2  UNL     1      36.476  16.715 -17.246  1.00  0.00    -0.389 N 
ATOM      7  H21 UNL     1      35.683  16.821 -17.878  1.00  0.00     0.157 HD
ATOM      8  H22 UNL     1      36.474  17.157 -16.327  1.00  0.00     0.157 HD
HETATM    9  C8  UNL     1      37.564  15.366 -18.838  1.00  0.00     0.111 C 
HETATM   10  C9  UNL     1      38.133  14.007 -18.923  1.00  0.00     0.178 C 
HETATM   11  C17 UNL     1      37.207  12.876 -18.600  1.00  0.00     0.304 C 
HETATM   12  C18 UNL     1      36.659  12.866 -17.233  1.00  0.00     0.251 C 
HETATM   13  O2  UNL     1      35.667  12.050 -17.092  1.00  0.00    -0.271 OA
HETATM   14  N6  UNL     1      37.065  13.603 -16.110  1.00  0.00    -0.350 N 
ATOM     15  H6  UNL     1      36.328  14.144 -15.657  1.00  0.00     0.163 HD
ENDROOT
BRANCH  10  16
HETATM   16  O1  UNL     1      38.875  13.740 -20.123  1.00  0.00    -0.313 OA
BRANCH  16  17
HETATM   17  C10 UNL     1      40.242  13.761 -20.179  1.00  0.00     0.229 C 
HETATM   18  N3  UNL     1      40.882  13.424 -19.134  1.00  0.00    -0.281 N 
ATOM     19  H3  UNL     1      40.348  13.154 -18.307  1.00  0.00     0.179 HD
BRANCH  18  20
HETATM   20  C11 UNL     1      42.287  13.402 -19.055  1.00  0.00     0.013 C 
HETATM   21  C12 UNL     1      43.490  13.403 -18.985  1.00  0.00    -0.082 C 
BRANCH  21  22
HETATM   22  C13 UNL     1      44.948  13.429 -18.906  1.00  0.00     0.110 C 
BRANCH  22  23
HETATM   23  C14 UNL     1      45.471  14.319 -20.022  1.00  0.00     0.126 C 
HETATM   24 CL1  UNL     1      46.645  15.488 -19.420  1.00  0.00    -0.130 Cl
ENDBRANCH  22  23
ENDBRANCH  21  22
ENDBRANCH  18  20
BRANCH  17  25
HETATM   25  N4  UNL     1      40.991  14.134 -21.324  1.00  0.00    -0.355 N 
HETATM   26  C15 UNL     1      41.398  13.141 -22.283  1.00  0.00     0.152 C 
HETATM   27  C16 UNL     1      41.353  15.512 -21.543  1.00  0.00     0.152 C 
ENDBRANCH  17  25
ENDBRANCH  16  17
ENDBRANCH  10  16
BRANCH  11  28
HETATM   28  N5  UNL     1      36.116  12.746 -19.525  1.00  0.00    -0.064 N 
ATOM     29  H53 UNL     1      35.243  12.562 -19.029  1.00  0.00     0.275 HD
ATOM     30  H52 UNL     1      35.887  13.647 -19.942  1.00  0.00     0.275 HD
ATOM     31  H51 UNL     1      36.275  12.043 -20.247  1.00  0.00     0.275 HD
ENDBRANCH  11  28
BRANCH   1  32
HETATM   32  C4  UNL     1      38.458  13.359 -14.074  1.00  0.00     0.034 C 
BRANCH  32  33
HETATM   33  C2  UNL     1      38.840  14.310 -13.048  1.00  0.00    -0.020 C 
HETATM   34  C1  UNL     1      40.088  14.022 -12.247  1.00  0.00     0.009 C 
HETATM   35  C3  UNL     1      37.779  14.711 -12.059  1.00  0.00     0.009 C 
ENDBRANCH  32  33
ENDBRANCH   1  32
TORSDOF 9
ENDMDL
MODEL 5
REMARK VINA RESULT: -3.968155411      4.562      6.381
REMARK  9 active torsions:
REMARK  status: ('A' for Active; 'I' for Inactive)
REMARK    1  A    between atoms: C2_2  and  C4_4 
REMARK    2  A    between atoms: C4_4  and  C5_5 
REMARK    3  A    between atoms: C9_14  and  O1_15 
REMARK    4  A    between atoms: O1_15  and  C10_16 
REMARK    5  A    between atoms: C10_16  and  N4_24 
REMARK    6  A    between atoms: N3_17  and  C11_19 
REMARK    7  A    between atoms: C12_20  and  C13_21 
REMARK    8  A    between atoms: C13_21  and  C14_22 
REMARK    9  A    between atoms: C17_27  and  N5_28 
ROOT
HETATM    1  C5  UNL     1      37.435  14.479 -12.851  1.00  0.00     0.123 C 
HETATM    2  C6  UNL     1      38.877  14.816 -13.113  1.00  0.00     0.087 C 
HETATM    3  N1  UNL     1      39.452  14.780 -14.221  1.00  0.00    -0.358 N 
ATOM      4  H1  UNL     1      40.432  15.051 -14.144  1.00  0.00     0.166 HD
HETATM    5  C7  UNL     1      39.113  14.470 -15.519  1.00  0.00     0.076 C 
HETATM    6  N2  UNL     1      38.809  15.351 -16.455  1.00  0.00    -0.389 N 
ATOM      7  H21 UNL     1      38.558  15.121 -17.416  1.00  0.00     0.157 HD
ATOM      8  H22 UNL     1      38.828  16.320 -16.138  1.00  0.00     0.157 HD
HETATM    9  C8  UNL     1      39.085  13.062 -15.980  1.00  0.00     0.111 C 
HETATM   10  C9  UNL     1      38.547  12.063 -15.036  1.00  0.00     0.178 C 
HETATM   11  C17 UNL     1      37.060  11.883 -15.033  1.00  0.00     0.304 C 
HETATM   12  C18 UNL     1      36.272  13.070 -14.663  1.00  0.00     0.251 C 
HETATM   13  O2  UNL     1      35.016  12.950 -14.942  1.00  0.00    -0.271 OA
HETATM   14  N6  UNL     1      36.698  14.268 -14.069  1.00  0.00    -0.350 N 
ATOM     15  H6  UNL     1      36.448  15.117 -14.576  1.00  0.00     0.163 HD
ENDROOT
BRANCH  10  16
HETATM   16  O1  UNL     1      39.220  10.795 -15.056  1.00  0.00    -0.313 OA
BRANCH  16  17
HETATM   17  C10 UNL     1      39.686  10.175 -13.928  1.00  0.00     0.229 C 
HETATM   18  N3  UNL     1      40.492   9.204 -14.078  1.00  0.00    -0.281 N 
ATOM     19  H3  UNL     1      40.754   8.935 -15.026  1.00  0.00     0.179 HD
BRANCH  18  20
HETATM   20  C11 UNL     1      41.045   8.480 -13.004  1.00  0.00     0.013 C 
HETATM   21  C12 UNL     1      41.499   7.858 -12.078  1.00  0.00    -0.082 C 
BRANCH  21  22
HETATM   22  C13 UNL     1      42.030   7.112 -10.940  1.00  0.00     0.110 C 
BRANCH  22  23
HETATM   23  C14 UNL     1      41.079   7.288  -9.767  1.00  0.00     0.126 C 
HETATM   24 CL1  UNL     1      40.814   8.993  -9.403  1.00  0.00    -0.130 Cl
ENDBRANCH  22  23
ENDBRANCH  21  22
ENDBRANCH  18  20
BRANCH  17  25
HETATM   25  N4  UNL     1      39.328  10.544 -12.607  1.00  0.00    -0.355 N 
HETATM   26  C15 UNL     1      38.214   9.911 -11.952  1.00  0.00     0.152 C 
HETATM   27  C16 UNL     1      40.074  11.556 -11.903  1.00  0.00     0.152 C 
ENDBRANCH  17  25
ENDBRANCH  16  17
ENDBRANCH  10  16
BRANCH  11  28
HETATM   28  N5  UNL     1      36.542  11.363 -16.267  1.00  0.00    -0.064 N 
ATOM     29  H53 UNL     1      36.915  11.881 -17.062  1.00  0.00     0.275 HD
ATOM     30  H52 UNL     1      36.934  10.443 -16.464  1.00  0.00     0.275 HD
ATOM     31  H51 UNL     1      35.522  11.335 -16.301  1.00  0.00     0.275 HD
ENDBRANCH  11  28
BRANCH   1  32
HETATM   32  C4  UNL     1      36.812  15.355 -11.844  1.00  0.00     0.034 C 
BRANCH  32  33
HETATM   33  C2  UNL     1      35.740  14.919 -10.970  1.00  0.00    -0.020 C 
HETATM   34  C1  UNL     1      35.289  15.862  -9.879  1.00  0.00     0.009 C 
HETATM   35  C3  UNL     1      35.887  13.564 -10.332  1.00  0.00     0.009 C 
ENDBRANCH  32  33
ENDBRANCH   1  32
TORSDOF 9
ENDMDL
