MODEL 1
REMARK VINA RESULT: -5.841976532      0.000      0.000
REMARK  15 active torsions:
REMARK  status: ('A' for Active; 'I' for Inactive)
REMARK    1  A    between atoms: O1_2  and  C2_3 
REMARK    2  A    between atoms: C2_3  and  C3_4 
REMARK    3  A    between atoms: C4_7  and  C5_8 
REMARK    4  A    between atoms: C5_8  and  O2_9 
REMARK    5  A    between atoms: C5_8  and  C6_11 
REMARK    6  A    between atoms: C6_11  and  O3_12 
REMARK    7  A    between atoms: C6_11  and  C7_14 
REMARK    8  A    between atoms: C7_14  and  O4_15 
REMARK    9  A    between atoms: C7_14  and  C8_17 
REMARK   10  A    between atoms: C8_17  and  O5_18 
REMARK   11  A    between atoms: C8_17  and  O6_20 
REMARK   12  A    between atoms: C10_24  and  O8_25 
REMARK   13  A    between atoms: C11_27  and  N2_28 
REMARK   14  A    between atoms: N2_28  and  O9_30 
REMARK   15  A    between atoms: C14_33  and  O10_34 
ROOT
HETATM    1  C3  UNL     1      20.103  11.615  18.575  1.00  0.00     0.282 C 
HETATM    2  N1  UNL     1      18.668  11.865  18.628  1.00  0.00    -0.108 NA
HETATM    3  S1  UNL     1      18.114  10.172  18.718  1.00  0.00    -0.013 SA
HETATM    4  C4  UNL     1      19.705   9.429  18.167  1.00  0.00     0.190 C 
HETATM    5  O7  UNL     1      20.319  10.607  17.684  1.00  0.00    -0.308 OA
HETATM    6  C9  UNL     1      20.407   8.994  19.359  1.00  0.00     0.062 A 
HETATM    7  C10 UNL     1      20.644   7.693  19.715  1.00  0.00     0.107 A 
HETATM    8  C11 UNL     1      21.334   7.403  20.892  1.00  0.00     0.093 A 
HETATM    9  C13 UNL     1      21.791   8.422  21.725  1.00  0.00     0.074 A 
HETATM   10  C14 UNL     1      21.544   9.723  21.353  1.00  0.00     0.102 A 
HETATM   11  C15 UNL     1      20.863  10.009  20.190  1.00  0.00     0.120 A 
HETATM   12  O11 UNL     1      20.634  11.335  19.846  1.00  0.00    -0.293 OA
ENDROOT
BRANCH   4  13
HETATM   13  C5  UNL     1      19.515   8.493  17.046  1.00  0.00     0.201 C 
BRANCH  13  14
HETATM   14  O2  UNL     1      20.099   8.979  15.881  1.00  0.00    -0.389 OA
ATOM     15  H2  UNL     1      19.566   8.780  15.120  1.00  0.00     0.210 HD
ENDBRANCH  13  14
BRANCH  13  16
HETATM   16  C6  UNL     1      18.009   8.434  16.685  1.00  0.00     0.184 C 
BRANCH  16  17
HETATM   17  O3  UNL     1      17.835   9.049  15.456  1.00  0.00    -0.390 OA
ATOM     18  H3  UNL     1      17.258   8.506  14.932  1.00  0.00     0.210 HD
ENDBRANCH  16  17
BRANCH  16  19
HETATM   19  C7  UNL     1      17.652   6.957  16.539  1.00  0.00     0.204 C 
BRANCH  19  20
HETATM   20  O4  UNL     1      18.875   6.318  16.230  1.00  0.00    -0.388 OA
ATOM     21  H4  UNL     1      19.385   6.371  17.029  1.00  0.00     0.210 HD
ENDBRANCH  19  20
BRANCH  19  22
HETATM   22  C8  UNL     1      17.108   6.393  17.819  1.00  0.00     0.285 C 
BRANCH  22  23
HETATM   23  O5  UNL     1      15.759   6.129  17.692  1.00  0.00    -0.369 OA
ATOM     24  H5  UNL     1      15.507   5.414  18.264  1.00  0.00     0.212 HD
ENDBRANCH  22  23
BRANCH  22  25
HETATM   25  O6  UNL     1      17.745   5.168  18.049  1.00  0.00    -0.369 OA
ATOM     26  H6  UNL     1      17.070   4.516  18.198  1.00  0.00     0.212 HD
ENDBRANCH  22  25
ENDBRANCH  19  22
ENDBRANCH  16  19
ENDBRANCH  13  16
ENDBRANCH   4  13
BRANCH   1  27
HETATM   27  C2  UNL     1      20.752  12.860  18.045  1.00  0.00     0.257 C 
BRANCH  27  28
HETATM   28  O1  UNL     1      19.780  13.788  17.673  1.00  0.00    -0.389 OA
HETATM   29  C1  UNL     1      20.197  15.077  17.993  1.00  0.00     0.201 C 
ENDBRANCH  27  28
ENDBRANCH   1  27
BRANCH   7  30
HETATM   30  O8  UNL     1      20.225   6.626  18.950  1.00  0.00    -0.358 OA
ATOM     31  H8  UNL     1      20.824   5.969  18.617  1.00  0.00     0.217 HD
ENDBRANCH   7  30
BRANCH   8  32
HETATM   32  N2  UNL     1      21.635   6.079  21.304  1.00  0.00    -0.263 N 
HETATM   33  C12 UNL     1      23.019   5.662  21.374  1.00  0.00     0.185 C 
BRANCH  32  34
HETATM   34  O9  UNL     1      20.674   5.187  21.636  1.00  0.00    -0.287 OA
ATOM     35  H9  UNL     1      20.715   4.666  22.430  1.00  0.00     0.244 HD
ENDBRANCH  32  34
ENDBRANCH   8  32
BRANCH  10  36
HETATM   36  O10 UNL     1      21.991  10.751  22.169  1.00  0.00    -0.358 OA
ATOM     37  H10 UNL     1      21.594  11.610  22.085  1.00  0.00     0.217 HD
ENDBRANCH  10  36
TORSDOF 15
ENDMDL
MODEL 2
REMARK VINA RESULT: -5.733000545      1.860      5.552
REMARK  15 active torsions:
REMARK  status: ('A' for Active; 'I' for Inactive)
REMARK    1  A    between atoms: O1_2  and  C2_3 
REMARK    2  A    between atoms: C2_3  and  C3_4 
REMARK    3  A    between atoms: C4_7  and  C5_8 
REMARK    4  A    between atoms: C5_8  and  O2_9 
REMARK    5  A    between atoms: C5_8  and  C6_11 
REMARK    6  A    between atoms: C6_11  and  O3_12 
REMARK    7  A    between atoms: C6_11  and  C7_14 
REMARK    8  A    between atoms: C7_14  and  O4_15 
REMARK    9  A    between atoms: C7_14  and  C8_17 
REMARK   10  A    between atoms: C8_17  and  O5_18 
REMARK   11  A    between atoms: C8_17  and  O6_20 
REMARK   12  A    between atoms: C10_24  and  O8_25 
REMARK   13  A    between atoms: C11_27  and  N2_28 
REMARK   14  A    between atoms: N2_28  and  O9_30 
REMARK   15  A    between atoms: C14_33  and  O10_34 
ROOT
HETATM    1  C3  UNL     1      19.063   8.058  18.136  1.00  0.00     0.282 C 
HETATM    2  N1  UNL     1      19.722   8.465  16.901  1.00  0.00    -0.108 NA
HETATM    3  S1  UNL     1      20.952   9.546  17.609  1.00  0.00    -0.013 SA
HETATM    4  C4  UNL     1      20.131   9.710  19.248  1.00  0.00     0.190 C 
HETATM    5  O7  UNL     1      18.871   9.174  18.895  1.00  0.00    -0.308 OA
HETATM    6  C9  UNL     1      20.792   8.788  20.150  1.00  0.00     0.062 A 
HETATM    7  C10 UNL     1      21.583   9.138  21.211  1.00  0.00     0.107 A 
HETATM    8  C11 UNL     1      22.165   8.152  22.007  1.00  0.00     0.093 A 
HETATM    9  C13 UNL     1      21.958   6.801  21.741  1.00  0.00     0.074 A 
HETATM   10  C14 UNL     1      21.162   6.465  20.671  1.00  0.00     0.102 A 
HETATM   11  C15 UNL     1      20.587   7.439  19.886  1.00  0.00     0.120 A 
HETATM   12  O11 UNL     1      19.787   7.063  18.814  1.00  0.00    -0.293 OA
ENDROOT
BRANCH   4  13
HETATM   13  C5  UNL     1      19.960  11.120  19.637  1.00  0.00     0.201 C 
BRANCH  13  14
HETATM   14  O2  UNL     1      18.645  11.383  20.008  1.00  0.00    -0.389 OA
ATOM     15  H2  UNL     1      18.530  12.298  20.240  1.00  0.00     0.210 HD
ENDBRANCH  13  14
BRANCH  13  16
HETATM   16  C6  UNL     1      20.160  12.018  18.391  1.00  0.00     0.184 C 
BRANCH  16  17
HETATM   17  O3  UNL     1      18.936  12.576  18.059  1.00  0.00    -0.390 OA
ATOM     18  H3  UNL     1      18.952  12.797  17.135  1.00  0.00     0.210 HD
ENDBRANCH  16  17
BRANCH  16  19
HETATM   19  C7  UNL     1      21.103  13.142  18.808  1.00  0.00     0.204 C 
BRANCH  19  20
HETATM   20  O4  UNL     1      22.366  12.763  18.298  1.00  0.00    -0.388 OA
ATOM     21  H4  UNL     1      22.848  13.576  18.213  1.00  0.00     0.210 HD
ENDBRANCH  19  20
BRANCH  19  22
HETATM   22  C8  UNL     1      20.698  14.455  18.202  1.00  0.00     0.285 C 
BRANCH  22  23
HETATM   23  O5  UNL     1      19.711  15.049  18.961  1.00  0.00    -0.369 OA
ATOM     24  H5  UNL     1      18.977  14.456  19.072  1.00  0.00     0.212 HD
ENDBRANCH  22  23
BRANCH  22  25
HETATM   25  O6  UNL     1      21.812  15.302  18.241  1.00  0.00    -0.369 OA
ATOM     26  H6  UNL     1      21.845  15.694  19.106  1.00  0.00     0.212 HD
ENDBRANCH  22  25
ENDBRANCH  19  22
ENDBRANCH  16  19
ENDBRANCH  13  16
ENDBRANCH   4  13
BRANCH   1  27
HETATM   27  C2  UNL     1      17.718   7.507  17.761  1.00  0.00     0.257 C 
BRANCH  27  28
HETATM   28  O1  UNL     1      17.605   6.184  18.186  1.00  0.00    -0.389 OA
HETATM   29  C1  UNL     1      16.599   5.534  17.475  1.00  0.00     0.201 C 
ENDBRANCH  27  28
ENDBRANCH   1  27
BRANCH   7  30
HETATM   30  O8  UNL     1      21.841  10.451  21.543  1.00  0.00    -0.358 OA
ATOM     31  H8  UNL     1      22.377  10.694  22.288  1.00  0.00     0.217 HD
ENDBRANCH   7  30
BRANCH   8  32
HETATM   32  N2  UNL     1      22.972   8.449  23.137  1.00  0.00    -0.263 N 
HETATM   33  C12 UNL     1      24.370   8.076  23.121  1.00  0.00     0.185 C 
BRANCH  32  34
HETATM   34  O9  UNL     1      22.482   9.071  24.234  1.00  0.00    -0.287 OA
ATOM     35  H9  UNL     1      22.190   8.594  25.003  1.00  0.00     0.244 HD
ENDBRANCH  32  34
ENDBRANCH   8  32
BRANCH  10  36
HETATM   36  O10 UNL     1      20.945   5.125  20.390  1.00  0.00    -0.358 OA
ATOM     37  H10 UNL     1      20.070   4.770  20.494  1.00  0.00     0.217 HD
ENDBRANCH  10  36
TORSDOF 15
ENDMDL
MODEL 3
REMARK VINA RESULT: -5.655967192      2.293      5.268
REMARK  15 active torsions:
REMARK  status: ('A' for Active; 'I' for Inactive)
REMARK    1  A    between atoms: O1_2  and  C2_3 
REMARK    2  A    between atoms: C2_3  and  C3_4 
REMARK    3  A    between atoms: C4_7  and  C5_8 
REMARK    4  A    between atoms: C5_8  and  O2_9 
REMARK    5  A    between atoms: C5_8  and  C6_11 
REMARK    6  A    between atoms: C6_11  and  O3_12 
REMARK    7  A    between atoms: C6_11  and  C7_14 
REMARK    8  A    between atoms: C7_14  and  O4_15 
REMARK    9  A    between atoms: C7_14  and  C8_17 
REMARK   10  A    between atoms: C8_17  and  O5_18 
REMARK   11  A    between atoms: C8_17  and  O6_20 
REMARK   12  A    between atoms: C10_24  and  O8_25 
REMARK   13  A    between atoms: C11_27  and  N2_28 
REMARK   14  A    between atoms: N2_28  and  O9_30 
REMARK   15  A    between atoms: C14_33  and  O10_34 
ROOT
HETATM    1  C3  UNL     1      19.129   6.608  16.555  1.00  0.00     0.282 C 
HETATM    2  N1  UNL     1      19.806   7.449  15.575  1.00  0.00    -0.108 NA
HETATM    3  S1  UNL     1      20.521   8.633  16.702  1.00  0.00    -0.013 SA
HETATM    4  C4  UNL     1      19.454   8.191  18.135  1.00  0.00     0.190 C 
HETATM    5  O7  UNL     1      18.491   7.426  17.438  1.00  0.00    -0.308 OA
HETATM    6  C9  UNL     1      20.227   7.303  18.982  1.00  0.00     0.062 A 
HETATM    7  C10 UNL     1      20.703   7.604  20.230  1.00  0.00     0.107 A 
HETATM    8  C11 UNL     1      21.437   6.660  20.948  1.00  0.00     0.093 A 
HETATM    9  C13 UNL     1      21.701   5.401  20.414  1.00  0.00     0.074 A 
HETATM   10  C14 UNL     1      21.216   5.114  19.159  1.00  0.00     0.102 A 
HETATM   11  C15 UNL     1      20.491   6.046  18.451  1.00  0.00     0.120 A 
HETATM   12  O11 UNL     1      20.017   5.720  17.187  1.00  0.00    -0.293 OA
ENDROOT
BRANCH   4  13
HETATM   13  C5  UNL     1      18.799   9.373  18.718  1.00  0.00     0.201 C 
BRANCH  13  14
HETATM   14  O2  UNL     1      17.417   9.304  18.574  1.00  0.00    -0.389 OA
ATOM     15  H2  UNL     1      16.975   9.731  19.298  1.00  0.00     0.210 HD
ENDBRANCH  13  14
BRANCH  13  16
HETATM   16  C6  UNL     1      19.177  10.624  17.884  1.00  0.00     0.184 C 
BRANCH  16  17
HETATM   17  O3  UNL     1      18.037  11.071  17.235  1.00  0.00    -0.390 OA
ATOM     18  H3  UNL     1      17.866  11.962  17.516  1.00  0.00     0.210 HD
ENDBRANCH  16  17
BRANCH  16  19
HETATM   19  C7  UNL     1      19.616  11.695  18.878  1.00  0.00     0.204 C 
BRANCH  19  20
HETATM   20  O4  UNL     1      19.132  11.249  20.129  1.00  0.00    -0.388 OA
ATOM     21  H4  UNL     1      18.193  11.386  20.089  1.00  0.00     0.210 HD
ENDBRANCH  19  20
BRANCH  19  22
HETATM   22  C8  UNL     1      21.112  11.811  18.938  1.00  0.00     0.285 C 
BRANCH  22  23
HETATM   23  O5  UNL     1      21.642  11.835  17.664  1.00  0.00    -0.369 OA
ATOM     24  H5  UNL     1      21.448  11.023  17.210  1.00  0.00     0.212 HD
ENDBRANCH  22  23
BRANCH  22  25
HETATM   25  O6  UNL     1      21.419  13.040  19.533  1.00  0.00    -0.369 OA
ATOM     26  H6  UNL     1      21.471  12.900  20.472  1.00  0.00     0.212 HD
ENDBRANCH  22  25
ENDBRANCH  19  22
ENDBRANCH  16  19
ENDBRANCH  13  16
ENDBRANCH   4  13
BRANCH   1  27
HETATM   27  C2  UNL     1      18.093   5.812  15.817  1.00  0.00     0.257 C 
BRANCH  27  28
HETATM   28  O1  UNL     1      16.845   6.423  15.931  1.00  0.00    -0.389 OA
HETATM   29  C1  UNL     1      15.863   5.469  16.182  1.00  0.00     0.201 C 
ENDBRANCH  27  28
ENDBRANCH   1  27
BRANCH   7  30
HETATM   30  O8  UNL     1      20.489   8.827  20.830  1.00  0.00    -0.358 OA
ATOM     31  H8  UNL     1      20.579   8.959  21.766  1.00  0.00     0.217 HD
ENDBRANCH   7  30
BRANCH   8  32
HETATM   32  N2  UNL     1      21.934   6.900  22.255  1.00  0.00    -0.263 N 
HETATM   33  C12 UNL     1      23.361   6.849  22.486  1.00  0.00     0.185 C 
BRANCH  32  34
HETATM   34  O9  UNL     1      21.120   7.178  23.300  1.00  0.00    -0.287 OA
ATOM     35  H9  UNL     1      21.305   6.879  24.183  1.00  0.00     0.244 HD
ENDBRANCH  32  34
ENDBRANCH   8  32
BRANCH  10  36
HETATM   36  O10 UNL     1      21.469   3.866  18.611  1.00  0.00    -0.358 OA
ATOM     37  H10 UNL     1      20.880   3.527  17.948  1.00  0.00     0.217 HD
ENDBRANCH  10  36
TORSDOF 15
ENDMDL
MODEL 4
REMARK VINA RESULT: -5.600031123      2.461      5.540
REMARK  15 active torsions:
REMARK  status: ('A' for Active; 'I' for Inactive)
REMARK    1  A    between atoms: O1_2  and  C2_3 
REMARK    2  A    between atoms: C2_3  and  C3_4 
REMARK    3  A    between atoms: C4_7  and  C5_8 
REMARK    4  A    between atoms: C5_8  and  O2_9 
REMARK    5  A    between atoms: C5_8  and  C6_11 
REMARK    6  A    between atoms: C6_11  and  O3_12 
REMARK    7  A    between atoms: C6_11  and  C7_14 
REMARK    8  A    between atoms: C7_14  and  O4_15 
REMARK    9  A    between atoms: C7_14  and  C8_17 
REMARK   10  A    between atoms: C8_17  and  O5_18 
REMARK   11  A    between atoms: C8_17  and  O6_20 
REMARK   12  A    between atoms: C10_24  and  O8_25 
REMARK   13  A    between atoms: C11_27  and  N2_28 
REMARK   14  A    between atoms: N2_28  and  O9_30 
REMARK   15  A    between atoms: C14_33  and  O10_34 
ROOT
HETATM    1  C3  UNL     1      23.097   9.309  19.246  1.00  0.00     0.282 C 
HETATM    2  N1  UNL     1      23.254   8.661  17.950  1.00  0.00    -0.108 NA
HETATM    3  S1  UNL     1      22.054   9.615  17.037  1.00  0.00    -0.013 SA
HETATM    4  C4  UNL     1      21.203  10.303  18.517  1.00  0.00     0.190 C 
HETATM    5  O7  UNL     1      21.762   9.441  19.488  1.00  0.00    -0.308 OA
HETATM    6  C9  UNL     1      21.727  11.639  18.726  1.00  0.00     0.062 A 
HETATM    7  C10 UNL     1      21.030  12.806  18.558  1.00  0.00     0.107 A 
HETATM    8  C11 UNL     1      21.649  14.033  18.792  1.00  0.00     0.093 A 
HETATM    9  C13 UNL     1      22.980  14.099  19.196  1.00  0.00     0.074 A 
HETATM   10  C14 UNL     1      23.667  12.919  19.360  1.00  0.00     0.102 A 
HETATM   11  C15 UNL     1      23.055  11.707  19.129  1.00  0.00     0.120 A 
HETATM   12  O11 UNL     1      23.780  10.535  19.307  1.00  0.00    -0.293 OA
ENDROOT
BRANCH   4  13
HETATM   13  C5  UNL     1      19.748  10.087  18.463  1.00  0.00     0.201 C 
BRANCH  13  14
HETATM   14  O2  UNL     1      19.175  10.210  19.725  1.00  0.00    -0.389 OA
ATOM     15  H2  UNL     1      18.938  11.112  19.908  1.00  0.00     0.210 HD
ENDBRANCH  13  14
BRANCH  13  16
HETATM   16  C6  UNL     1      19.469   8.609  18.093  1.00  0.00     0.184 C 
BRANCH  16  17
HETATM   17  O3  UNL     1      19.511   7.857  19.256  1.00  0.00    -0.390 OA
ATOM     18  H3  UNL     1      20.281   7.300  19.222  1.00  0.00     0.210 HD
ENDBRANCH  16  17
BRANCH  16  19
HETATM   19  C7  UNL     1      18.048   8.557  17.539  1.00  0.00     0.204 C 
BRANCH  19  20
HETATM   20  O4  UNL     1      17.656   9.911  17.422  1.00  0.00    -0.388 OA
ATOM     21  H4  UNL     1      16.707   9.888  17.406  1.00  0.00     0.210 HD
ENDBRANCH  19  20
BRANCH  19  22
HETATM   22  C8  UNL     1      18.009   7.911  16.184  1.00  0.00     0.285 C 
BRANCH  22  23
HETATM   23  O5  UNL     1      17.060   6.909  16.158  1.00  0.00    -0.369 OA
ATOM     24  H5  UNL     1      16.497   7.007  15.398  1.00  0.00     0.212 HD
ENDBRANCH  22  23
BRANCH  22  25
HETATM   25  O6  UNL     1      17.604   8.884  15.262  1.00  0.00    -0.369 OA
ATOM     26  H6  UNL     1      17.488   8.453  14.422  1.00  0.00     0.212 HD
ENDBRANCH  22  25
ENDBRANCH  19  22
ENDBRANCH  16  19
ENDBRANCH  13  16
ENDBRANCH   4  13
BRANCH   1  27
HETATM   27  C2  UNL     1      23.672   8.383  20.278  1.00  0.00     0.257 C 
BRANCH  27  28
HETATM   28  O1  UNL     1      22.698   8.041  21.215  1.00  0.00    -0.389 OA
HETATM   29  C1  UNL     1      23.174   8.257  22.506  1.00  0.00     0.201 C 
ENDBRANCH  27  28
ENDBRANCH   1  27
BRANCH   7  30
HETATM   30  O8  UNL     1      19.710  12.830  18.158  1.00  0.00    -0.358 OA
ATOM     31  H8  UNL     1      19.404  13.372  17.441  1.00  0.00     0.217 HD
ENDBRANCH   7  30
BRANCH   8  32
HETATM   32  N2  UNL     1      20.974  15.275  18.662  1.00  0.00    -0.263 N 
HETATM   33  C12 UNL     1      21.698  16.420  18.154  1.00  0.00     0.185 C 
BRANCH  32  34
HETATM   34  O9  UNL     1      19.672  15.431  18.997  1.00  0.00    -0.287 OA
ATOM     35  H9  UNL     1      19.296  16.280  19.197  1.00  0.00     0.244 HD
ENDBRANCH  32  34
ENDBRANCH   8  32
BRANCH  10  36
HETATM   36  O10 UNL     1      24.993  12.964  19.762  1.00  0.00    -0.358 OA
ATOM     37  H10 UNL     1      25.410  13.810  19.876  1.00  0.00     0.217 HD
ENDBRANCH  10  36
TORSDOF 15
ENDMDL
MODEL 5
REMARK VINA RESULT: -5.487853546      3.376      4.953
REMARK  15 active torsions:
REMARK  status: ('A' for Active; 'I' for Inactive)
REMARK    1  A    between atoms: O1_2  and  C2_3 
REMARK    2  A    between atoms: C2_3  and  C3_4 
REMARK    3  A    between atoms: C4_7  and  C5_8 
REMARK    4  A    between atoms: C5_8  and  O2_9 
REMARK    5  A    between atoms: C5_8  and  C6_11 
REMARK    6  A    between atoms: C6_11  and  O3_12 
REMARK    7  A    between atoms: C6_11  and  C7_14 
REMARK    8  A    between atoms: C7_14  and  O4_15 
REMARK    9  A    between atoms: C7_14  and  C8_17 
REMARK   10  A    between atoms: C8_17  and  O5_18 
REMARK   11  A    between atoms: C8_17  and  O6_20 
REMARK   12  A    between atoms: C10_24  and  O8_25 
REMARK   13  A    between atoms: C11_27  and  N2_28 
REMARK   14  A    between atoms: N2_28  and  O9_30 
REMARK   15  A    between atoms: C14_33  and  O10_34 
ROOT
HETATM    1  C3  UNL     1      20.931   9.824  17.789  1.00  0.00     0.282 C 
HETATM    2  N1  UNL     1      20.966   8.802  18.829  1.00  0.00    -0.108 NA
HETATM    3  S1  UNL     1      20.642   7.379  17.802  1.00  0.00    -0.013 SA
HETATM    4  C4  UNL     1      20.017   8.333  16.358  1.00  0.00     0.190 C 
HETATM    5  O7  UNL     1      19.846   9.581  17.001  1.00  0.00    -0.308 OA
HETATM    6  C9  UNL     1      21.113   8.444  15.415  1.00  0.00     0.062 A 
HETATM    7  C10 UNL     1      21.177   7.835  14.190  1.00  0.00     0.107 A 
HETATM    8  C11 UNL     1      22.291   8.021  13.372  1.00  0.00     0.093 A 
HETATM    9  C13 UNL     1      23.355   8.822  13.780  1.00  0.00     0.074 A 
HETATM   10  C14 UNL     1      23.275   9.427  15.012  1.00  0.00     0.102 A 
HETATM   11  C15 UNL     1      22.175   9.243  15.820  1.00  0.00     0.120 A 
HETATM   12  O11 UNL     1      22.129   9.871  17.058  1.00  0.00    -0.293 OA
ENDROOT
BRANCH   4  13
HETATM   13  C5  UNL     1      18.706   7.844  15.902  1.00  0.00     0.201 C 
BRANCH  13  14
HETATM   14  O2  UNL     1      17.843   8.900  15.627  1.00  0.00    -0.389 OA
ATOM     15  H2  UNL     1      18.322   9.668  15.334  1.00  0.00     0.210 HD
ENDBRANCH  13  14
BRANCH  13  16
HETATM   16  C6  UNL     1      18.003   7.114  17.074  1.00  0.00     0.184 C 
BRANCH  16  17
HETATM   17  O3  UNL     1      17.216   8.034  17.748  1.00  0.00    -0.390 OA
ATOM     18  H3  UNL     1      16.694   7.565  18.388  1.00  0.00     0.210 HD
ENDBRANCH  16  17
BRANCH  16  19
HETATM   19  C7  UNL     1      17.088   6.064  16.449  1.00  0.00     0.204 C 
BRANCH  19  20
HETATM   20  O4  UNL     1      17.701   5.736  15.219  1.00  0.00    -0.388 OA
ATOM     21  H4  UNL     1      17.032   5.896  14.564  1.00  0.00     0.210 HD
ENDBRANCH  19  20
BRANCH  19  22
HETATM   22  C8  UNL     1      16.999   4.833  17.303  1.00  0.00     0.285 C 
BRANCH  22  23
HETATM   23  O5  UNL     1      18.262   4.393  17.644  1.00  0.00    -0.369 OA
ATOM     24  H5  UNL     1      18.492   4.693  18.516  1.00  0.00     0.212 HD
ENDBRANCH  22  23
BRANCH  22  25
HETATM   25  O6  UNL     1      16.353   5.187  18.494  1.00  0.00    -0.369 OA
ATOM     26  H6  UNL     1      16.324   4.414  19.047  1.00  0.00     0.212 HD
ENDBRANCH  22  25
ENDBRANCH  19  22
ENDBRANCH  16  19
ENDBRANCH  13  16
ENDBRANCH   4  13
BRANCH   1  27
HETATM   27  C2  UNL     1      20.729  11.145  18.473  1.00  0.00     0.257 C 
BRANCH  27  28
HETATM   28  O1  UNL     1      21.374  12.157  17.764  1.00  0.00    -0.389 OA
HETATM   29  C1  UNL     1      21.375  13.338  18.502  1.00  0.00     0.201 C 
ENDBRANCH  27  28
ENDBRANCH   1  27
BRANCH   7  30
HETATM   30  O8  UNL     1      20.170   7.024  13.711  1.00  0.00    -0.358 OA
ATOM     31  H8  UNL     1      20.048   6.855  12.785  1.00  0.00     0.217 HD
ENDBRANCH   7  30
BRANCH   8  32
HETATM   32  N2  UNL     1      22.406   7.440  12.082  1.00  0.00    -0.263 N 
HETATM   33  C12 UNL     1      23.648   6.799  11.707  1.00  0.00     0.185 C 
BRANCH  32  34
HETATM   34  O9  UNL     1      21.394   7.463  11.184  1.00  0.00    -0.287 OA
ATOM     35  H9  UNL     1      20.922   8.259  10.968  1.00  0.00     0.244 HD
ENDBRANCH  32  34
ENDBRANCH   8  32
BRANCH  10  36
HETATM   36  O10 UNL     1      24.325  10.228  15.436  1.00  0.00    -0.358 OA
ATOM     37  H10 UNL     1      24.372  10.478  16.351  1.00  0.00     0.217 HD
ENDBRANCH  10  36
TORSDOF 15
ENDMDL
