MODEL 1
REMARK VINA RESULT: -9.515577249      0.000      0.000
REMARK  16 active torsions:
REMARK  status: ('A' for Active; 'I' for Inactive)
REMARK    1  A    between atoms: O1_2  and  C2_3 
REMARK    2  A    between atoms: C2_3  and  C3_4 
REMARK    3  A    between atoms: C3_4  and  C4_5 
REMARK       I    between atoms: N1_9  and  C8_10 
REMARK    4  A    between atoms: C8_10  and  C9_12 
REMARK    5  A    between atoms: C9_12  and  N2_13 
REMARK    6  A    between atoms: C9_12  and  C28_43 
REMARK       I    between atoms: N2_13  and  C10_15 
REMARK    7  A    between atoms: C10_15  and  C11_17 
REMARK    8  A    between atoms: C11_17  and  C12_18 
REMARK    9  A    between atoms: N3_21  and  C15_22 
REMARK   10  A    between atoms: C15_22  and  O4_23 
REMARK   11  A    between atoms: C15_22  and  C16_25 
REMARK   12  A    between atoms: C16_25  and  N4_27 
REMARK       I    between atoms: N4_27  and  C18_29 
REMARK   13  A    between atoms: C18_29  and  C19_31 
REMARK   14  A    between atoms: C19_31  and  N5_33 
REMARK       I    between atoms: N5_33  and  C21_34 
REMARK   15  A    between atoms: C21_34  and  O7_36 
REMARK   16  A    between atoms: O7_36  and  C22_37 
ROOT
HETATM    1  C12 UNL     1      15.989  21.940   8.174  1.00  0.00    -0.003 C 
HETATM    2  C13 UNL     1      15.190  21.502   9.407  1.00  0.00     0.025 C 
HETATM    3  C14 UNL     1      15.393  20.021   9.522  1.00  0.00     0.125 C 
HETATM    4  N3  UNL     1      16.806  19.728   9.670  1.00  0.00    -0.364 N 
HETATM    5  C26 UNL     1      17.778  20.763   9.392  1.00  0.00     0.125 C 
HETATM    6  C27 UNL     1      17.427  21.828   8.437  1.00  0.00     0.025 C 
ENDROOT
BRANCH   1   7
HETATM    7  C11 UNL     1      15.458  23.255   7.686  1.00  0.00     0.107 C 
BRANCH   7   8
HETATM    8  C10 UNL     1      14.795  23.244   6.387  1.00  0.00     0.218 C 
HETATM    9  N2  UNL     1      13.419  23.523   6.233  1.00  0.00    -0.347 N 
ATOM     10  H2  UNL     1      12.823  23.674   7.046  1.00  0.00     0.163 HD
HETATM   11  O3  UNL     1      15.481  22.987   5.333  1.00  0.00    -0.274 OA
BRANCH   9  12
HETATM   12  C9  UNL     1      12.863  23.590   4.857  1.00  0.00     0.184 C 
BRANCH  12  13
HETATM   13  C8  UNL     1      11.933  24.748   4.950  1.00  0.00     0.243 C 
HETATM   14  N1  UNL     1      11.012  24.991   5.966  1.00  0.00    -0.350 N 
HETATM   15  C7  UNL     1      10.738  24.210   7.124  1.00  0.00     0.126 C 
HETATM   16  C32 UNL     1      10.188  26.219   5.817  1.00  0.00     0.126 C 
HETATM   17  C6  UNL     1      10.618  25.129   8.328  1.00  0.00     0.029 C 
HETATM   18  C4  UNL     1       9.428  26.011   8.173  1.00  0.00    -0.039 C 
HETATM   19  C5  UNL     1       8.231  25.393   8.849  1.00  0.00     0.015 C 
HETATM   20  C33 UNL     1       8.977  26.016   6.660  1.00  0.00     0.029 C 
HETATM   21  O2  UNL     1      12.021  25.580   3.984  1.00  0.00    -0.271 OA
BRANCH  18  22
HETATM   22  C3  UNL     1       9.625  27.465   8.473  1.00  0.00     0.035 C 
BRANCH  22  23
HETATM   23  C2  UNL     1       8.453  28.334   8.264  1.00  0.00     0.167 C 
BRANCH  23  24
HETATM   24  O1  UNL     1       7.995  28.775   9.506  1.00  0.00    -0.396 OA
HETATM   25  C1  UNL     1       8.921  28.668  10.506  1.00  0.00     0.201 C 
ENDBRANCH  23  24
ENDBRANCH  22  23
ENDBRANCH  18  22
ENDBRANCH  12  13
BRANCH  12  26
HETATM   26  C28 UNL     1      12.215  22.335   4.487  1.00  0.00    -0.022 C 
HETATM   27  C29 UNL     1      11.950  21.456   5.724  1.00  0.00     0.017 C 
HETATM   28  C30 UNL     1      10.871  22.500   3.792  1.00  0.00     0.017 C 
HETATM   29  C31 UNL     1      13.100  21.447   3.581  1.00  0.00     0.017 C 
ENDBRANCH  12  26
ENDBRANCH   9  12
ENDBRANCH   7   8
ENDBRANCH   1   7
BRANCH   4  30
HETATM   30  C15 UNL     1      17.194  18.497  10.175  1.00  0.00     0.136 C 
BRANCH  30  31
HETATM   31  O4  UNL     1      17.278  18.429  11.507  1.00  0.00    -0.348 OA
ATOM     32  H4  UNL     1      17.577  17.596  11.852  1.00  0.00     0.219 HD
ENDBRANCH  30  31
BRANCH  30  33
HETATM   33  C16 UNL     1      17.509  17.266   9.496  1.00  0.00     0.155 C 
HETATM   34  C17 UNL     1      18.637  16.640  10.390  1.00  0.00     0.041 C 
BRANCH  33  35
HETATM   35  N4  UNL     1      18.036  17.436   8.174  1.00  0.00    -0.343 N 
HETATM   36  C18 UNL     1      18.232  16.406   7.266  1.00  0.00     0.278 C 
HETATM   37  O5  UNL     1      18.005  15.199   7.496  1.00  0.00    -0.265 OA
ATOM     38  H4  UNL     1      18.283  18.381   7.880  1.00  0.00     0.163 HD
BRANCH  36  39
HETATM   39  C19 UNL     1      18.779  16.765   5.880  1.00  0.00     0.154 C 
HETATM   40  C20 UNL     1      18.855  15.450   5.066  1.00  0.00     0.091 C 
BRANCH  39  41
HETATM   41  N5  UNL     1      18.325  17.870   5.371  1.00  0.00    -0.345 NA
HETATM   42  C21 UNL     1      17.830  19.076   4.817  1.00  0.00     0.441 C 
HETATM   43  O6  UNL     1      17.607  20.173   5.425  1.00  0.00    -0.221 OA
BRANCH  42  44
HETATM   44  O7  UNL     1      17.530  19.112   3.447  1.00  0.00    -0.282 OA
BRANCH  44  45
HETATM   45  C22 UNL     1      16.623  18.319   2.761  1.00  0.00     0.062 C 
HETATM   46  C23 UNL     1      15.564  17.695   3.650  1.00  0.00     0.046 C 
HETATM   47  C24 UNL     1      15.847  19.284   1.822  1.00  0.00     0.046 C 
HETATM   48  C25 UNL     1      17.217  17.264   1.858  1.00  0.00     0.046 C 
ENDBRANCH  44  45
ENDBRANCH  42  44
ENDBRANCH  39  41
ENDBRANCH  36  39
ENDBRANCH  33  35
ENDBRANCH  30  33
ENDBRANCH   4  30
TORSDOF 16
ENDMDL
MODEL 2
REMARK VINA RESULT: -9.266200984      1.924      2.853
REMARK  16 active torsions:
REMARK  status: ('A' for Active; 'I' for Inactive)
REMARK    1  A    between atoms: O1_2  and  C2_3 
REMARK    2  A    between atoms: C2_3  and  C3_4 
REMARK    3  A    between atoms: C3_4  and  C4_5 
REMARK       I    between atoms: N1_9  and  C8_10 
REMARK    4  A    between atoms: C8_10  and  C9_12 
REMARK    5  A    between atoms: C9_12  and  N2_13 
REMARK    6  A    between atoms: C9_12  and  C28_43 
REMARK       I    between atoms: N2_13  and  C10_15 
REMARK    7  A    between atoms: C10_15  and  C11_17 
REMARK    8  A    between atoms: C11_17  and  C12_18 
REMARK    9  A    between atoms: N3_21  and  C15_22 
REMARK   10  A    between atoms: C15_22  and  O4_23 
REMARK   11  A    between atoms: C15_22  and  C16_25 
REMARK   12  A    between atoms: C16_25  and  N4_27 
REMARK       I    between atoms: N4_27  and  C18_29 
REMARK   13  A    between atoms: C18_29  and  C19_31 
REMARK   14  A    between atoms: C19_31  and  N5_33 
REMARK       I    between atoms: N5_33  and  C21_34 
REMARK   15  A    between atoms: C21_34  and  O7_36 
REMARK   16  A    between atoms: O7_36  and  C22_37 
ROOT
HETATM    1  C12 UNL     1      16.372  21.378   8.767  1.00  0.00    -0.003 C 
HETATM    2  C13 UNL     1      15.459  20.852   9.881  1.00  0.00     0.025 C 
HETATM    3  C14 UNL     1      15.475  19.359   9.752  1.00  0.00     0.125 C 
HETATM    4  N3  UNL     1      16.831  18.866   9.897  1.00  0.00    -0.364 N 
HETATM    5  C26 UNL     1      17.935  19.798   9.832  1.00  0.00     0.125 C 
HETATM    6  C27 UNL     1      17.769  21.041   9.058  1.00  0.00     0.025 C 
ENDROOT
BRANCH   1   7
HETATM    7  C11 UNL     1      16.033  22.812   8.491  1.00  0.00     0.107 C 
BRANCH   7   8
HETATM    8  C10 UNL     1      15.295  23.077   7.260  1.00  0.00     0.218 C 
HETATM    9  N2  UNL     1      13.996  22.573   7.030  1.00  0.00    -0.347 N 
ATOM     10  H2  UNL     1      13.555  21.940   7.697  1.00  0.00     0.163 HD
HETATM   11  O3  UNL     1      15.830  23.808   6.352  1.00  0.00    -0.274 OA
BRANCH   9  12
HETATM   12  C9  UNL     1      13.290  22.987   5.790  1.00  0.00     0.184 C 
BRANCH  12  13
HETATM   13  C8  UNL     1      11.904  23.221   6.282  1.00  0.00     0.243 C 
HETATM   14  N1  UNL     1      11.055  24.258   5.902  1.00  0.00    -0.350 N 
HETATM   15  C7  UNL     1      11.300  25.319   4.985  1.00  0.00     0.126 C 
HETATM   16  C32 UNL     1       9.718  24.275   6.552  1.00  0.00     0.126 C 
HETATM   17  C6  UNL     1      10.084  25.498   4.092  1.00  0.00     0.029 C 
HETATM   18  C4  UNL     1       8.925  25.957   4.906  1.00  0.00    -0.039 C 
HETATM   19  C5  UNL     1       8.839  27.462   4.887  1.00  0.00     0.015 C 
HETATM   20  C33 UNL     1       9.212  25.670   6.432  1.00  0.00     0.029 C 
HETATM   21  O2  UNL     1      11.490  22.363   7.133  1.00  0.00    -0.271 OA
BRANCH  18  22
HETATM   22  C3  UNL     1       7.619  25.262   4.669  1.00  0.00     0.035 C 
BRANCH  22  23
HETATM   23  C2  UNL     1       7.516  24.482   3.422  1.00  0.00     0.167 C 
BRANCH  23  24
HETATM   24  O1  UNL     1       6.560  25.079   2.599  1.00  0.00    -0.396 OA
HETATM   25  C1  UNL     1       7.089  25.919   1.658  1.00  0.00     0.201 C 
ENDBRANCH  23  24
ENDBRANCH  22  23
ENDBRANCH  18  22
ENDBRANCH  12  13
BRANCH  12  26
HETATM   26  C28 UNL     1      13.388  21.961   4.757  1.00  0.00    -0.022 C 
HETATM   27  C29 UNL     1      14.397  22.363   3.664  1.00  0.00     0.017 C 
HETATM   28  C30 UNL     1      13.836  20.597   5.263  1.00  0.00     0.017 C 
HETATM   29  C31 UNL     1      12.063  21.758   3.985  1.00  0.00     0.017 C 
ENDBRANCH  12  26
ENDBRANCH   9  12
ENDBRANCH   7   8
ENDBRANCH   1   7
BRANCH   4  30
HETATM   30  C15 UNL     1      17.039  17.530  10.200  1.00  0.00     0.136 C 
BRANCH  30  31
HETATM   31  O4  UNL     1      16.755  17.180  11.459  1.00  0.00    -0.348 OA
ATOM     32  H4  UNL     1      15.889  16.816  11.593  1.00  0.00     0.219 HD
ENDBRANCH  30  31
BRANCH  30  33
HETATM   33  C16 UNL     1      17.498  16.444   9.372  1.00  0.00     0.155 C 
HETATM   34  C17 UNL     1      18.657  15.809  10.219  1.00  0.00     0.041 C 
BRANCH  33  35
HETATM   35  N4  UNL     1      18.043  16.850   8.111  1.00  0.00    -0.343 N 
HETATM   36  C18 UNL     1      18.350  15.986   7.069  1.00  0.00     0.278 C 
HETATM   37  O5  UNL     1      18.220  14.744   7.112  1.00  0.00    -0.265 OA
ATOM     38  H4  UNL     1      18.218  17.845   7.968  1.00  0.00     0.163 HD
BRANCH  36  39
HETATM   39  C19 UNL     1      18.902  16.590   5.773  1.00  0.00     0.154 C 
HETATM   40  C20 UNL     1      19.156  15.416   4.797  1.00  0.00     0.091 C 
BRANCH  39  41
HETATM   41  N5  UNL     1      18.343  17.699   5.394  1.00  0.00    -0.345 NA
HETATM   42  C21 UNL     1      17.733  18.909   4.981  1.00  0.00     0.441 C 
HETATM   43  O6  UNL     1      17.335  19.866   5.720  1.00  0.00    -0.221 OA
BRANCH  42  44
HETATM   44  O7  UNL     1      17.517  19.118   3.611  1.00  0.00    -0.282 OA
BRANCH  44  45
HETATM   45  C22 UNL     1      16.631  18.444   2.784  1.00  0.00     0.062 C 
HETATM   46  C23 UNL     1      17.286  17.365   1.941  1.00  0.00     0.046 C 
HETATM   47  C24 UNL     1      15.663  17.686   3.733  1.00  0.00     0.046 C 
HETATM   48  C25 UNL     1      15.752  19.309   1.911  1.00  0.00     0.046 C 
ENDBRANCH  44  45
ENDBRANCH  42  44
ENDBRANCH  39  41
ENDBRANCH  36  39
ENDBRANCH  33  35
ENDBRANCH  30  33
ENDBRANCH   4  30
TORSDOF 16
ENDMDL
MODEL 3
REMARK VINA RESULT: -9.168932272      3.434     12.000
REMARK  16 active torsions:
REMARK  status: ('A' for Active; 'I' for Inactive)
REMARK    1  A    between atoms: O1_2  and  C2_3 
REMARK    2  A    between atoms: C2_3  and  C3_4 
REMARK    3  A    between atoms: C3_4  and  C4_5 
REMARK       I    between atoms: N1_9  and  C8_10 
REMARK    4  A    between atoms: C8_10  and  C9_12 
REMARK    5  A    between atoms: C9_12  and  N2_13 
REMARK    6  A    between atoms: C9_12  and  C28_43 
REMARK       I    between atoms: N2_13  and  C10_15 
REMARK    7  A    between atoms: C10_15  and  C11_17 
REMARK    8  A    between atoms: C11_17  and  C12_18 
REMARK    9  A    between atoms: N3_21  and  C15_22 
REMARK   10  A    between atoms: C15_22  and  O4_23 
REMARK   11  A    between atoms: C15_22  and  C16_25 
REMARK   12  A    between atoms: C16_25  and  N4_27 
REMARK       I    between atoms: N4_27  and  C18_29 
REMARK   13  A    between atoms: C18_29  and  C19_31 
REMARK   14  A    between atoms: C19_31  and  N5_33 
REMARK       I    between atoms: N5_33  and  C21_34 
REMARK   15  A    between atoms: C21_34  and  O7_36 
REMARK   16  A    between atoms: O7_36  and  C22_37 
ROOT
HETATM    1  C12 UNL     1       9.338  24.877   2.252  1.00  0.00    -0.003 C 
HETATM    2  C13 UNL     1       9.033  26.120   3.096  1.00  0.00     0.025 C 
HETATM    3  C14 UNL     1       7.691  26.607   2.638  1.00  0.00     0.125 C 
HETATM    4  N3  UNL     1       6.696  25.570   2.837  1.00  0.00    -0.364 N 
HETATM    5  C26 UNL     1       7.127  24.219   3.121  1.00  0.00     0.125 C 
HETATM    6  C27 UNL     1       8.445  23.777   2.632  1.00  0.00     0.025 C 
ENDROOT
BRANCH   1   7
HETATM    7  C11 UNL     1      10.816  24.625   2.264  1.00  0.00     0.107 C 
BRANCH   7   8
HETATM    8  C10 UNL     1      11.467  24.659   3.569  1.00  0.00     0.218 C 
HETATM    9  N2  UNL     1      11.552  23.524   4.405  1.00  0.00    -0.347 N 
ATOM     10  H2  UNL     1      11.092  22.651   4.150  1.00  0.00     0.163 HD
HETATM   11  O3  UNL     1      12.002  25.751   3.977  1.00  0.00    -0.274 OA
BRANCH   9  12
HETATM   12  C9  UNL     1      12.329  23.636   5.667  1.00  0.00     0.184 C 
BRANCH  12  13
HETATM   13  C8  UNL     1      13.159  22.401   5.636  1.00  0.00     0.243 C 
HETATM   14  N1  UNL     1      14.324  22.168   6.362  1.00  0.00    -0.350 N 
HETATM   15  C7  UNL     1      14.990  23.031   7.278  1.00  0.00     0.126 C 
HETATM   16  C32 UNL     1      14.976  20.850   6.142  1.00  0.00     0.126 C 
HETATM   17  C6  UNL     1      15.403  22.234   8.504  1.00  0.00     0.029 C 
HETATM   18  C4  UNL     1      16.424  21.220   8.125  1.00  0.00    -0.039 C 
HETATM   19  C5  UNL     1      17.811  21.772   8.336  1.00  0.00     0.015 C 
HETATM   20  C33 UNL     1      16.396  21.009   6.561  1.00  0.00     0.029 C 
HETATM   21  O2  UNL     1      12.724  21.488   4.855  1.00  0.00    -0.271 OA
BRANCH  18  22
HETATM   22  C3  UNL     1      16.225  19.834   8.658  1.00  0.00     0.035 C 
BRANCH  22  23
HETATM   23  C2  UNL     1      15.591  19.734   9.984  1.00  0.00     0.167 C 
BRANCH  23  24
HETATM   24  O1  UNL     1      15.562  18.392  10.367  1.00  0.00    -0.396 OA
HETATM   25  C1  UNL     1      16.722  17.717  10.102  1.00  0.00     0.201 C 
ENDBRANCH  23  24
ENDBRANCH  22  23
ENDBRANCH  18  22
ENDBRANCH  12  13
BRANCH  12  26
HETATM   26  C28 UNL     1      11.445  23.728   6.826  1.00  0.00    -0.022 C 
HETATM   27  C29 UNL     1       9.980  23.933   6.396  1.00  0.00     0.017 C 
HETATM   28  C30 UNL     1      11.452  22.501   7.725  1.00  0.00     0.017 C 
HETATM   29  C31 UNL     1      11.749  24.957   7.714  1.00  0.00     0.017 C 
ENDBRANCH  12  26
ENDBRANCH   9  12
ENDBRANCH   7   8
ENDBRANCH   1   7
BRANCH   4  30
HETATM   30  C15 UNL     1       5.354  25.913   2.856  1.00  0.00     0.136 C 
BRANCH  30  31
HETATM   31  O4  UNL     1       4.888  26.451   1.724  1.00  0.00    -0.348 OA
ATOM     32  H4  UNL     1       3.942  26.519   1.668  1.00  0.00     0.219 HD
ENDBRANCH  30  31
BRANCH  30  33
HETATM   33  C16 UNL     1       4.367  25.768   3.895  1.00  0.00     0.155 C 
HETATM   34  C17 UNL     1       3.012  25.735   3.105  1.00  0.00     0.041 C 
BRANCH  33  35
HETATM   35  N4  UNL     1       4.314  26.863   4.818  1.00  0.00    -0.343 N 
HETATM   36  C18 UNL     1       4.086  26.736   6.181  1.00  0.00     0.278 C 
HETATM   37  O5  UNL     1       3.868  25.655   6.768  1.00  0.00    -0.265 OA
ATOM     38  H4  UNL     1       4.453  27.803   4.447  1.00  0.00     0.163 HD
BRANCH  36  39
HETATM   39  C19 UNL     1       4.088  28.010   7.032  1.00  0.00     0.154 C 
HETATM   40  C20 UNL     1       2.842  27.947   7.948  1.00  0.00     0.091 C 
BRANCH  39  41
HETATM   41  N5  UNL     1       5.252  28.385   7.470  1.00  0.00    -0.345 NA
HETATM   42  C21 UNL     1       6.522  28.796   7.946  1.00  0.00     0.441 C 
HETATM   43  O6  UNL     1       7.128  29.886   7.691  1.00  0.00    -0.221 OA
BRANCH  42  44
HETATM   44  O7  UNL     1       7.232  27.933   8.793  1.00  0.00    -0.282 OA
BRANCH  44  45
HETATM   45  C22 UNL     1       8.418  27.268   8.519  1.00  0.00     0.062 C 
HETATM   46  C23 UNL     1       9.578  27.706   9.393  1.00  0.00     0.046 C 
HETATM   47  C24 UNL     1       8.164  25.782   8.894  1.00  0.00     0.046 C 
HETATM   48  C25 UNL     1       8.848  27.255   7.071  1.00  0.00     0.046 C 
ENDBRANCH  44  45
ENDBRANCH  42  44
ENDBRANCH  39  41
ENDBRANCH  36  39
ENDBRANCH  33  35
ENDBRANCH  30  33
ENDBRANCH   4  30
TORSDOF 16
ENDMDL
MODEL 4
REMARK VINA RESULT: -9.095123986      2.221      4.761
REMARK  16 active torsions:
REMARK  status: ('A' for Active; 'I' for Inactive)
REMARK    1  A    between atoms: O1_2  and  C2_3 
REMARK    2  A    between atoms: C2_3  and  C3_4 
REMARK    3  A    between atoms: C3_4  and  C4_5 
REMARK       I    between atoms: N1_9  and  C8_10 
REMARK    4  A    between atoms: C8_10  and  C9_12 
REMARK    5  A    between atoms: C9_12  and  N2_13 
REMARK    6  A    between atoms: C9_12  and  C28_43 
REMARK       I    between atoms: N2_13  and  C10_15 
REMARK    7  A    between atoms: C10_15  and  C11_17 
REMARK    8  A    between atoms: C11_17  and  C12_18 
REMARK    9  A    between atoms: N3_21  and  C15_22 
REMARK   10  A    between atoms: C15_22  and  O4_23 
REMARK   11  A    between atoms: C15_22  and  C16_25 
REMARK   12  A    between atoms: C16_25  and  N4_27 
REMARK       I    between atoms: N4_27  and  C18_29 
REMARK   13  A    between atoms: C18_29  and  C19_31 
REMARK   14  A    between atoms: C19_31  and  N5_33 
REMARK       I    between atoms: N5_33  and  C21_34 
REMARK   15  A    between atoms: C21_34  and  O7_36 
REMARK   16  A    between atoms: O7_36  and  C22_37 
ROOT
HETATM    1  C12 UNL     1      14.971  21.164   7.668  1.00  0.00    -0.003 C 
HETATM    2  C13 UNL     1      16.369  21.688   8.014  1.00  0.00     0.025 C 
HETATM    3  C14 UNL     1      17.316  20.572   7.695  1.00  0.00     0.125 C 
HETATM    4  N3  UNL     1      17.210  20.222   6.291  1.00  0.00    -0.364 N 
HETATM    5  C26 UNL     1      16.091  20.716   5.520  1.00  0.00     0.125 C 
HETATM    6  C27 UNL     1      14.828  21.022   6.216  1.00  0.00     0.025 C 
ENDROOT
BRANCH   1   7
HETATM    7  C11 UNL     1      13.946  21.974   8.404  1.00  0.00     0.107 C 
BRANCH   7   8
HETATM    8  C10 UNL     1      13.212  22.959   7.617  1.00  0.00     0.218 C 
HETATM    9  N2  UNL     1      11.877  22.760   7.203  1.00  0.00    -0.347 N 
ATOM     10  H2  UNL     1      11.399  21.877   7.386  1.00  0.00     0.163 HD
HETATM   11  O3  UNL     1      13.787  24.060   7.294  1.00  0.00    -0.274 OA
BRANCH   9  12
HETATM   12  C9  UNL     1      11.185  23.868   6.496  1.00  0.00     0.184 C 
BRANCH  12  13
HETATM   13  C8  UNL     1      10.020  24.129   7.383  1.00  0.00     0.243 C 
HETATM   14  N1  UNL     1       9.413  25.361   7.612  1.00  0.00    -0.350 N 
HETATM   15  C7  UNL     1       9.754  26.635   7.076  1.00  0.00     0.126 C 
HETATM   16  C32 UNL     1       8.265  25.356   8.557  1.00  0.00     0.126 C 
HETATM   17  C6  UNL     1       8.484  27.353   6.649  1.00  0.00     0.029 C 
HETATM   18  C4  UNL     1       7.649  27.654   7.844  1.00  0.00    -0.039 C 
HETATM   19  C5  UNL     1       7.952  29.039   8.355  1.00  0.00     0.015 C 
HETATM   20  C33 UNL     1       8.123  26.754   9.052  1.00  0.00     0.029 C 
HETATM   21  O2  UNL     1       9.558  23.094   7.973  1.00  0.00    -0.271 OA
BRANCH  18  22
HETATM   22  C3  UNL     1       6.188  27.341   7.740  1.00  0.00     0.035 C 
BRANCH  22  23
HETATM   23  C2  UNL     1       5.728  26.817   6.441  1.00  0.00     0.167 C 
BRANCH  23  24
HETATM   24  O1  UNL     1       4.545  26.104   6.640  1.00  0.00    -0.396 OA
HETATM   25  C1  UNL     1       3.584  26.806   7.314  1.00  0.00     0.201 C 
ENDBRANCH  23  24
ENDBRANCH  22  23
ENDBRANCH  18  22
ENDBRANCH  12  13
BRANCH  12  26
HETATM   26  C28 UNL     1      10.822  23.482   5.135  1.00  0.00    -0.022 C 
HETATM   27  C29 UNL     1      11.680  24.227   4.095  1.00  0.00     0.017 C 
HETATM   28  C30 UNL     1      10.987  22.000   4.835  1.00  0.00     0.017 C 
HETATM   29  C31 UNL     1       9.370  23.871   4.769  1.00  0.00     0.017 C 
ENDBRANCH  12  26
ENDBRANCH   9  12
ENDBRANCH   7   8
ENDBRANCH   1   7
BRANCH   4  30
HETATM   30  C15 UNL     1      18.234  19.509   5.690  1.00  0.00     0.136 C 
BRANCH  30  31
HETATM   31  O4  UNL     1      19.290  20.237   5.311  1.00  0.00    -0.348 OA
ATOM     32  H4  UNL     1      19.963  19.761   4.841  1.00  0.00     0.219 HD
ENDBRANCH  30  31
BRANCH  30  33
HETATM   33  C16 UNL     1      18.358  18.099   5.418  1.00  0.00     0.155 C 
HETATM   34  C17 UNL     1      17.396  17.881   4.197  1.00  0.00     0.041 C 
BRANCH  33  35
HETATM   35  N4  UNL     1      17.919  17.249   6.485  1.00  0.00    -0.343 N 
HETATM   36  C18 UNL     1      18.763  16.527   7.316  1.00  0.00     0.278 C 
HETATM   37  O5  UNL     1      20.008  16.502   7.219  1.00  0.00    -0.265 OA
ATOM     38  H4  UNL     1      16.915  17.170   6.645  1.00  0.00     0.163 HD
BRANCH  36  39
HETATM   39  C19 UNL     1      18.129  15.686   8.429  1.00  0.00     0.154 C 
HETATM   40  C20 UNL     1      19.101  14.519   8.727  1.00  0.00     0.091 C 
BRANCH  39  41
HETATM   41  N5  UNL     1      17.545  16.360   9.373  1.00  0.00    -0.345 NA
HETATM   42  C21 UNL     1      16.908  17.096  10.402  1.00  0.00     0.441 C 
HETATM   43  O6  UNL     1      15.728  17.578  10.392  1.00  0.00    -0.221 OA
BRANCH  42  44
HETATM   44  O7  UNL     1      17.619  17.355  11.582  1.00  0.00    -0.282 OA
BRANCH  44  45
HETATM   45  C22 UNL     1      18.571  18.341  11.795  1.00  0.00     0.062 C 
HETATM   46  C23 UNL     1      18.766  18.695  13.257  1.00  0.00     0.046 C 
HETATM   47  C24 UNL     1      19.924  17.725  11.342  1.00  0.00     0.046 C 
HETATM   48  C25 UNL     1      18.407  19.604  10.982  1.00  0.00     0.046 C 
ENDBRANCH  44  45
ENDBRANCH  42  44
ENDBRANCH  39  41
ENDBRANCH  36  39
ENDBRANCH  33  35
ENDBRANCH  30  33
ENDBRANCH   4  30
TORSDOF 16
ENDMDL
MODEL 5
REMARK VINA RESULT: -9.076174020      2.229      4.486
REMARK  16 active torsions:
REMARK  status: ('A' for Active; 'I' for Inactive)
REMARK    1  A    between atoms: O1_2  and  C2_3 
REMARK    2  A    between atoms: C2_3  and  C3_4 
REMARK    3  A    between atoms: C3_4  and  C4_5 
REMARK       I    between atoms: N1_9  and  C8_10 
REMARK    4  A    between atoms: C8_10  and  C9_12 
REMARK    5  A    between atoms: C9_12  and  N2_13 
REMARK    6  A    between atoms: C9_12  and  C28_43 
REMARK       I    between atoms: N2_13  and  C10_15 
REMARK    7  A    between atoms: C10_15  and  C11_17 
REMARK    8  A    between atoms: C11_17  and  C12_18 
REMARK    9  A    between atoms: N3_21  and  C15_22 
REMARK   10  A    between atoms: C15_22  and  O4_23 
REMARK   11  A    between atoms: C15_22  and  C16_25 
REMARK   12  A    between atoms: C16_25  and  N4_27 
REMARK       I    between atoms: N4_27  and  C18_29 
REMARK   13  A    between atoms: C18_29  and  C19_31 
REMARK   14  A    between atoms: C19_31  and  N5_33 
REMARK       I    between atoms: N5_33  and  C21_34 
REMARK   15  A    between atoms: C21_34  and  O7_36 
REMARK   16  A    between atoms: O7_36  and  C22_37 
ROOT
HETATM    1  C12 UNL     1      14.933  21.162   7.487  1.00  0.00    -0.003 C 
HETATM    2  C13 UNL     1      16.316  21.705   7.863  1.00  0.00     0.025 C 
HETATM    3  C14 UNL     1      17.293  20.628   7.498  1.00  0.00     0.125 C 
HETATM    4  N3  UNL     1      17.200  20.340   6.079  1.00  0.00    -0.364 N 
HETATM    5  C26 UNL     1      16.072  20.842   5.326  1.00  0.00     0.125 C 
HETATM    6  C27 UNL     1      14.800  21.083   6.029  1.00  0.00     0.025 C 
ENDROOT
BRANCH   1   7
HETATM    7  C11 UNL     1      13.885  21.913   8.254  1.00  0.00     0.107 C 
BRANCH   7   8
HETATM    8  C10 UNL     1      13.157  22.940   7.518  1.00  0.00     0.218 C 
HETATM    9  N2  UNL     1      11.855  22.733   7.010  1.00  0.00    -0.347 N 
ATOM     10  H2  UNL     1      11.405  21.821   7.082  1.00  0.00     0.163 HD
HETATM   11  O3  UNL     1      13.702  24.086   7.332  1.00  0.00    -0.274 OA
BRANCH   9  12
HETATM   12  C9  UNL     1      11.159  23.878   6.368  1.00  0.00     0.184 C 
BRANCH  12  13
HETATM   13  C8  UNL     1      10.031  24.126   7.306  1.00  0.00     0.243 C 
HETATM   14  N1  UNL     1       9.428  25.353   7.569  1.00  0.00    -0.350 N 
HETATM   15  C7  UNL     1       9.738  26.632   7.027  1.00  0.00     0.126 C 
HETATM   16  C32 UNL     1       8.322  25.335   8.562  1.00  0.00     0.126 C 
HETATM   17  C6  UNL     1       8.448  27.345   6.660  1.00  0.00     0.029 C 
HETATM   18  C4  UNL     1       7.663  27.634   7.891  1.00  0.00    -0.039 C 
HETATM   19  C5  UNL     1       7.980  29.017   8.399  1.00  0.00     0.015 C 
HETATM   20  C33 UNL     1       8.193  26.729   9.072  1.00  0.00     0.029 C 
HETATM   21  O2  UNL     1       9.601  23.084   7.908  1.00  0.00    -0.271 OA
BRANCH  18  22
HETATM   22  C3  UNL     1       6.201  27.313   7.848  1.00  0.00     0.035 C 
BRANCH  22  23
HETATM   23  C2  UNL     1       5.681  26.830   6.556  1.00  0.00     0.167 C 
BRANCH  23  24
HETATM   24  O1  UNL     1       4.502  26.118   6.785  1.00  0.00    -0.396 OA
HETATM   25  C1  UNL     1       3.512  26.863   7.366  1.00  0.00     0.201 C 
ENDBRANCH  23  24
ENDBRANCH  22  23
ENDBRANCH  18  22
ENDBRANCH  12  13
BRANCH  12  26
HETATM   26  C28 UNL     1      10.740  23.547   5.009  1.00  0.00    -0.022 C 
HETATM   27  C29 UNL     1      11.530  24.361   3.966  1.00  0.00     0.017 C 
HETATM   28  C30 UNL     1      10.925  22.085   4.630  1.00  0.00     0.017 C 
HETATM   29  C31 UNL     1       9.264  23.915   4.730  1.00  0.00     0.017 C 
ENDBRANCH  12  26
ENDBRANCH   9  12
ENDBRANCH   7   8
ENDBRANCH   1   7
BRANCH   4  30
HETATM   30  C15 UNL     1      18.245  19.681   5.452  1.00  0.00     0.136 C 
BRANCH  30  31
HETATM   31  O4  UNL     1      19.401  20.351   5.414  1.00  0.00    -0.348 OA
ATOM     32  H4  UNL     1      20.077  19.964   4.871  1.00  0.00     0.219 HD
ENDBRANCH  30  31
BRANCH  30  33
HETATM   33  C16 UNL     1      18.295  18.377   4.842  1.00  0.00     0.155 C 
HETATM   34  C17 UNL     1      17.104  18.409   3.821  1.00  0.00     0.041 C 
BRANCH  33  35
HETATM   35  N4  UNL     1      18.071  17.290   5.749  1.00  0.00    -0.343 N 
HETATM   36  C18 UNL     1      18.711  16.061   5.680  1.00  0.00     0.278 C 
HETATM   37  O5  UNL     1      19.538  15.736   4.802  1.00  0.00    -0.265 OA
ATOM     38  H4  UNL     1      17.393  17.430   6.498  1.00  0.00     0.163 HD
BRANCH  36  39
HETATM   39  C19 UNL     1      18.375  15.015   6.748  1.00  0.00     0.154 C 
HETATM   40  C20 UNL     1      19.218  13.755   6.433  1.00  0.00     0.091 C 
BRANCH  39  41
HETATM   41  N5  UNL     1      18.239  15.475   7.955  1.00  0.00    -0.345 NA
HETATM   42  C21 UNL     1      18.092  15.976   9.272  1.00  0.00     0.441 C 
HETATM   43  O6  UNL     1      18.566  15.480  10.345  1.00  0.00    -0.221 OA
BRANCH  42  44
HETATM   44  O7  UNL     1      17.342  17.144   9.466  1.00  0.00    -0.282 OA
BRANCH  44  45
HETATM   45  C22 UNL     1      16.588  17.488  10.578  1.00  0.00     0.062 C 
HETATM   46  C23 UNL     1      17.421  17.922  11.769  1.00  0.00     0.046 C 
HETATM   47  C24 UNL     1      15.782  18.751  10.165  1.00  0.00     0.046 C 
HETATM   48  C25 UNL     1      15.558  16.474  11.018  1.00  0.00     0.046 C 
ENDBRANCH  44  45
ENDBRANCH  42  44
ENDBRANCH  39  41
ENDBRANCH  36  39
ENDBRANCH  33  35
ENDBRANCH  30  33
ENDBRANCH   4  30
TORSDOF 16
ENDMDL
