MODEL 1
REMARK VINA RESULT: -9.655340454      0.000      0.000
REMARK  14 active torsions:
REMARK  status: ('A' for Active; 'I' for Inactive)
REMARK       I    between atoms: C2_2  and  N1_4 
REMARK    1  A    between atoms: N1_4  and  C3_6 
REMARK    2  A    between atoms: C3_6  and  C4_7 
REMARK    3  A    between atoms: C3_6  and  C32_45 
REMARK       I    between atoms: C4_7  and  N2_9 
REMARK    4  A    between atoms: N2_9  and  C5_11 
REMARK    5  A    between atoms: C5_11  and  C6_12 
REMARK    6  A    between atoms: C5_11  and  C12_18 
REMARK    7  A    between atoms: C6_12  and  C7_13 
REMARK    8  A    between atoms: C12_18  and  O4_20 
REMARK    9  A    between atoms: O4_20  and  C13_21 
REMARK   10  A    between atoms: C16_24  and  C17_25 
REMARK   11  A    between atoms: C17_25  and  C18_26 
REMARK       I    between atoms: C18_26  and  N3_28 
REMARK   12  A    between atoms: N3_28  and  C19_29 
REMARK   13  A    between atoms: C19_29  and  C20_30 
REMARK   14  A    between atoms: C19_29  and  C25_38 
REMARK       I    between atoms: C20_30  and  N4_32 
ROOT
HETATM    1  C13 UNL     1      10.311  24.096   7.669  1.00  0.00     0.132 C 
HETATM    2  C14 UNL     1       8.895  24.166   8.223  1.00  0.00     0.033 C 
HETATM    3  C15 UNL     1       8.784  25.284   9.231  1.00  0.00     0.013 C 
HETATM    4  C16 UNL     1       9.389  26.572   8.764  1.00  0.00    -0.027 A 
HETATM    5  C29 UNL     1      10.867  26.826   9.105  1.00  0.00     0.015 A 
HETATM    6  C30 UNL     1      10.381  26.562   7.734  1.00  0.00    -0.002 A 
HETATM    7  C31 UNL     1      10.787  25.327   7.028  1.00  0.00     0.038 C 
ENDROOT
BRANCH   1   8
HETATM    8  O4  UNL     1      10.661  22.860   7.110  1.00  0.00    -0.314 OA
BRANCH   8   9
HETATM    9  C12 UNL     1      11.959  22.373   7.005  1.00  0.00     0.282 C 
HETATM   10  O3  UNL     1      12.433  21.956   8.117  1.00  0.00    -0.263 OA
BRANCH   9  11
HETATM   11  C5  UNL     1      12.794  22.304   5.817  1.00  0.00     0.184 C 
BRANCH  11  12
HETATM   12  N2  UNL     1      14.013  21.517   6.255  1.00  0.00    -0.345 N 
HETATM   13  C4  UNL     1      15.295  21.984   6.067  1.00  0.00     0.241 C 
HETATM   14  O2  UNL     1      15.375  23.103   5.434  1.00  0.00    -0.271 OA
ATOM     15  H2  UNL     1      13.880  20.611   6.703  1.00  0.00     0.163 HD
BRANCH  13  16
HETATM   16  C3  UNL     1      16.519  21.315   6.528  1.00  0.00     0.184 C 
BRANCH  16  17
HETATM   17  N1  UNL     1      16.450  19.911   6.049  1.00  0.00    -0.347 N 
HETATM   18  C2  UNL     1      17.564  19.340   5.366  1.00  0.00     0.214 C 
HETATM   19  C1  UNL     1      17.493  17.943   4.899  1.00  0.00     0.117 C 
HETATM   20  O1  UNL     1      18.598  20.007   5.152  1.00  0.00    -0.274 OA
ATOM     21  H1  UNL     1      15.609  19.357   6.209  1.00  0.00     0.163 HD
ENDBRANCH  16  17
BRANCH  16  22
HETATM   22  C32 UNL     1      16.695  21.289   8.015  1.00  0.00    -0.022 C 
HETATM   23  C33 UNL     1      18.207  21.497   8.232  1.00  0.00     0.017 C 
HETATM   24  C34 UNL     1      16.280  20.051   8.703  1.00  0.00     0.017 C 
HETATM   25  C35 UNL     1      16.062  22.505   8.692  1.00  0.00     0.017 C 
ENDBRANCH  16  22
ENDBRANCH  13  16
ENDBRANCH  11  12
BRANCH  11  26
HETATM   26  C6  UNL     1      12.214  21.511   4.658  1.00  0.00     0.040 C 
BRANCH  26  27
HETATM   27  C7  UNL     1      11.601  22.373   3.629  1.00  0.00    -0.012 C 
HETATM   28  C8  UNL     1      11.684  23.833   3.724  1.00  0.00     0.005 C 
HETATM   29  C9  UNL     1      10.443  24.305   2.906  1.00  0.00     0.000 C 
HETATM   30  C10 UNL     1       9.414  23.362   3.495  1.00  0.00     0.000 C 
HETATM   31  C11 UNL     1      10.116  22.028   3.436  1.00  0.00     0.005 C 
ENDBRANCH  26  27
ENDBRANCH  11  26
ENDBRANCH   9  11
ENDBRANCH   8   9
ENDBRANCH   1   8
BRANCH   4  32
HETATM   32  C17 UNL     1       8.582  27.766   9.198  1.00  0.00     0.128 C 
BRANCH  32  33
HETATM   33  C18 UNL     1       7.770  28.407   8.088  1.00  0.00     0.288 C 
HETATM   34  O5  UNL     1       8.025  29.612   7.820  1.00  0.00    -0.258 OA
HETATM   35  N3  UNL     1       6.869  27.633   7.494  1.00  0.00    -0.399 NA
BRANCH  35  36
HETATM   36  C19 UNL     1       5.902  26.807   6.854  1.00  0.00     0.265 C 
BRANCH  36  37
HETATM   37  C20 UNL     1       4.497  27.057   7.152  1.00  0.00     0.256 C 
HETATM   38  O6  UNL     1       3.718  26.051   7.303  1.00  0.00    -0.270 OA
HETATM   39  N4  UNL     1       3.898  28.360   7.305  1.00  0.00    -0.345 N 
HETATM   40  C21 UNL     1       4.516  29.603   7.015  1.00  0.00     0.152 C 
HETATM   41  C24 UNL     1       2.551  28.359   7.912  1.00  0.00     0.152 C 
HETATM   42  C22 UNL     1       3.477  30.646   6.622  1.00  0.00     0.187 C 
HETATM   43  O7  UNL     1       2.555  30.730   7.648  1.00  0.00    -0.388 OA
HETATM   44  C23 UNL     1       1.762  29.566   7.538  1.00  0.00     0.187 C 
ENDBRANCH  36  37
BRANCH  36  45
HETATM   45  C25 UNL     1       6.201  26.773   5.346  1.00  0.00    -0.010 C 
HETATM   46  C26 UNL     1       7.548  26.028   5.187  1.00  0.00     0.018 C 
HETATM   47  C27 UNL     1       6.403  28.081   4.691  1.00  0.00     0.018 C 
HETATM   48  C28 UNL     1       5.197  25.919   4.618  1.00  0.00     0.018 C 
ENDBRANCH  36  45
ENDBRANCH  35  36
ENDBRANCH  32  33
ENDBRANCH   4  32
TORSDOF 14
ENDMDL
MODEL 2
REMARK VINA RESULT: -9.483604020      1.816      2.446
REMARK  14 active torsions:
REMARK  status: ('A' for Active; 'I' for Inactive)
REMARK       I    between atoms: C2_2  and  N1_4 
REMARK    1  A    between atoms: N1_4  and  C3_6 
REMARK    2  A    between atoms: C3_6  and  C4_7 
REMARK    3  A    between atoms: C3_6  and  C32_45 
REMARK       I    between atoms: C4_7  and  N2_9 
REMARK    4  A    between atoms: N2_9  and  C5_11 
REMARK    5  A    between atoms: C5_11  and  C6_12 
REMARK    6  A    between atoms: C5_11  and  C12_18 
REMARK    7  A    between atoms: C6_12  and  C7_13 
REMARK    8  A    between atoms: C12_18  and  O4_20 
REMARK    9  A    between atoms: O4_20  and  C13_21 
REMARK   10  A    between atoms: C16_24  and  C17_25 
REMARK   11  A    between atoms: C17_25  and  C18_26 
REMARK       I    between atoms: C18_26  and  N3_28 
REMARK   12  A    between atoms: N3_28  and  C19_29 
REMARK   13  A    between atoms: C19_29  and  C20_30 
REMARK   14  A    between atoms: C19_29  and  C25_38 
REMARK       I    between atoms: C20_30  and  N4_32 
ROOT
HETATM    1  C13 UNL     1      11.059  24.992   8.069  1.00  0.00     0.132 C 
HETATM    2  C14 UNL     1       9.763  24.695   7.329  1.00  0.00     0.033 C 
HETATM    3  C15 UNL     1       8.585  25.238   8.099  1.00  0.00     0.013 C 
HETATM    4  C16 UNL     1       8.781  26.645   8.578  1.00  0.00    -0.027 A 
HETATM    5  C29 UNL     1       9.392  26.840   9.975  1.00  0.00     0.015 A 
HETATM    6  C30 UNL     1      10.102  27.172   8.721  1.00  0.00    -0.002 A 
HETATM    7  C31 UNL     1      11.312  26.414   8.331  1.00  0.00     0.038 C 
ENDROOT
BRANCH   1   8
HETATM    8  O4  UNL     1      12.135  24.164   7.723  1.00  0.00    -0.314 OA
BRANCH   8   9
HETATM    9  C12 UNL     1      12.025  22.968   7.024  1.00  0.00     0.282 C 
HETATM   10  O3  UNL     1      11.298  22.100   7.619  1.00  0.00    -0.263 OA
BRANCH   9  11
HETATM   11  C5  UNL     1      12.633  22.618   5.750  1.00  0.00     0.184 C 
BRANCH  11  12
HETATM   12  N2  UNL     1      13.811  21.739   6.120  1.00  0.00    -0.345 N 
HETATM   13  C4  UNL     1      15.115  22.148   5.946  1.00  0.00     0.241 C 
HETATM   14  O2  UNL     1      15.250  23.300   5.385  1.00  0.00    -0.271 OA
ATOM     15  H2  UNL     1      13.633  20.814   6.510  1.00  0.00     0.163 HD
BRANCH  13  16
HETATM   16  C3  UNL     1      16.305  21.386   6.347  1.00  0.00     0.184 C 
BRANCH  16  17
HETATM   17  N1  UNL     1      16.112  19.996   5.859  1.00  0.00    -0.347 N 
HETATM   18  C2  UNL     1      17.118  19.380   5.058  1.00  0.00     0.214 C 
HETATM   19  C1  UNL     1      16.924  17.997   4.583  1.00  0.00     0.117 C 
HETATM   20  O1  UNL     1      18.160  19.996   4.748  1.00  0.00    -0.274 OA
ATOM     21  H1  UNL     1      15.262  19.485   6.098  1.00  0.00     0.163 HD
ENDBRANCH  16  17
BRANCH  16  22
HETATM   22  C32 UNL     1      16.543  21.329   7.824  1.00  0.00    -0.022 C 
HETATM   23  C33 UNL     1      18.077  21.312   7.971  1.00  0.00     0.017 C 
HETATM   24  C34 UNL     1      15.983  20.163   8.535  1.00  0.00     0.017 C 
HETATM   25  C35 UNL     1      16.127  22.622   8.526  1.00  0.00     0.017 C 
ENDBRANCH  16  22
ENDBRANCH  13  16
ENDBRANCH  11  12
BRANCH  11  26
HETATM   26  C6  UNL     1      11.778  21.757   4.835  1.00  0.00     0.040 C 
BRANCH  26  27
HETATM   27  C7  UNL     1      10.656  22.506   4.234  1.00  0.00    -0.012 C 
HETATM   28  C8  UNL     1       9.838  21.911   3.174  1.00  0.00     0.005 C 
HETATM   29  C9  UNL     1       9.280  23.159   2.425  1.00  0.00     0.000 C 
HETATM   30  C10 UNL     1      10.568  23.949   2.315  1.00  0.00     0.000 C 
HETATM   31  C11 UNL     1      11.123  23.874   3.715  1.00  0.00     0.005 C 
ENDBRANCH  26  27
ENDBRANCH  11  26
ENDBRANCH   9  11
ENDBRANCH   8   9
ENDBRANCH   1   8
BRANCH   4  32
HETATM   32  C17 UNL     1       7.515  27.454   8.488  1.00  0.00     0.128 C 
BRANCH  32  33
HETATM   33  C18 UNL     1       7.368  28.242   7.200  1.00  0.00     0.288 C 
HETATM   34  O5  UNL     1       7.735  29.449   7.228  1.00  0.00    -0.258 OA
HETATM   35  N3  UNL     1       6.875  27.583   6.157  1.00  0.00    -0.399 NA
BRANCH  35  36
HETATM   36  C19 UNL     1       6.347  26.882   5.038  1.00  0.00     0.265 C 
BRANCH  36  37
HETATM   37  C20 UNL     1       4.987  27.201   4.620  1.00  0.00     0.256 C 
HETATM   38  O6  UNL     1       4.659  28.435   4.506  1.00  0.00    -0.270 OA
HETATM   39  N4  UNL     1       3.964  26.234   4.309  1.00  0.00    -0.345 N 
HETATM   40  C21 UNL     1       4.042  24.836   4.530  1.00  0.00     0.152 C 
HETATM   41  C24 UNL     1       2.781  26.780   3.611  1.00  0.00     0.152 C 
HETATM   42  C22 UNL     1       2.655  24.243   4.754  1.00  0.00     0.187 C 
HETATM   43  O7  UNL     1       1.875  24.574   3.661  1.00  0.00    -0.388 OA
HETATM   44  C23 UNL     1       1.566  25.944   3.819  1.00  0.00     0.187 C 
ENDBRANCH  36  37
BRANCH  36  45
HETATM   45  C25 UNL     1       7.363  26.953   3.885  1.00  0.00    -0.010 C 
HETATM   46  C26 UNL     1       8.640  26.239   4.387  1.00  0.00     0.018 C 
HETATM   47  C27 UNL     1       7.807  28.305   3.489  1.00  0.00     0.018 C 
HETATM   48  C28 UNL     1       6.899  26.137   2.708  1.00  0.00     0.018 C 
ENDBRANCH  36  45
ENDBRANCH  35  36
ENDBRANCH  32  33
ENDBRANCH   4  32
TORSDOF 14
ENDMDL
MODEL 3
REMARK VINA RESULT: -9.439861274      2.619     11.435
REMARK  14 active torsions:
REMARK  status: ('A' for Active; 'I' for Inactive)
REMARK       I    between atoms: C2_2  and  N1_4 
REMARK    1  A    between atoms: N1_4  and  C3_6 
REMARK    2  A    between atoms: C3_6  and  C4_7 
REMARK    3  A    between atoms: C3_6  and  C32_45 
REMARK       I    between atoms: C4_7  and  N2_9 
REMARK    4  A    between atoms: N2_9  and  C5_11 
REMARK    5  A    between atoms: C5_11  and  C6_12 
REMARK    6  A    between atoms: C5_11  and  C12_18 
REMARK    7  A    between atoms: C6_12  and  C7_13 
REMARK    8  A    between atoms: C12_18  and  O4_20 
REMARK    9  A    between atoms: O4_20  and  C13_21 
REMARK   10  A    between atoms: C16_24  and  C17_25 
REMARK   11  A    between atoms: C17_25  and  C18_26 
REMARK       I    between atoms: C18_26  and  N3_28 
REMARK   12  A    between atoms: N3_28  and  C19_29 
REMARK   13  A    between atoms: C19_29  and  C20_30 
REMARK   14  A    between atoms: C19_29  and  C25_38 
REMARK       I    between atoms: C20_30  and  N4_32 
ROOT
HETATM    1  C13 UNL     1      12.032  24.007   4.848  1.00  0.00     0.132 C 
HETATM    2  C14 UNL     1      11.576  22.707   5.496  1.00  0.00     0.033 C 
HETATM    3  C15 UNL     1      12.186  21.526   4.782  1.00  0.00     0.013 C 
HETATM    4  C16 UNL     1      13.656  21.674   4.529  1.00  0.00    -0.027 A 
HETATM    5  C29 UNL     1      14.085  22.309   3.197  1.00  0.00     0.015 A 
HETATM    6  C30 UNL     1      14.248  22.975   4.507  1.00  0.00    -0.002 A 
HETATM    7  C31 UNL     1      13.485  24.206   4.813  1.00  0.00     0.038 C 
ENDROOT
BRANCH   1   8
HETATM    8  O4  UNL     1      11.201  25.108   5.095  1.00  0.00    -0.314 OA
BRANCH   8   9
HETATM    9  C12 UNL     1      10.885  25.598   6.357  1.00  0.00     0.282 C 
HETATM   10  O3  UNL     1      11.875  25.583   7.167  1.00  0.00    -0.263 OA
BRANCH   9  11
HETATM   11  C5  UNL     1       9.602  26.092   6.829  1.00  0.00     0.184 C 
BRANCH  11  12
HETATM   12  N2  UNL     1       8.618  25.686   5.749  1.00  0.00    -0.345 N 
HETATM   13  C4  UNL     1       8.064  26.599   4.881  1.00  0.00     0.241 C 
HETATM   14  O2  UNL     1       8.393  27.824   5.103  1.00  0.00    -0.271 OA
ATOM     15  H2  UNL     1       8.358  24.704   5.663  1.00  0.00     0.163 HD
BRANCH  13  16
HETATM   16  C3  UNL     1       7.163  26.274   3.766  1.00  0.00     0.184 C 
BRANCH  16  17
HETATM   17  N1  UNL     1       6.046  25.475   4.333  1.00  0.00    -0.347 N 
HETATM   18  C2  UNL     1       4.712  25.976   4.265  1.00  0.00     0.214 C 
HETATM   19  C1  UNL     1       3.606  25.176   4.822  1.00  0.00     0.117 C 
HETATM   20  O1  UNL     1       4.467  27.085   3.744  1.00  0.00    -0.274 OA
ATOM     21  H1  UNL     1       6.233  24.572   4.768  1.00  0.00     0.163 HD
ENDBRANCH  16  17
BRANCH  16  22
HETATM   22  C32 UNL     1       7.793  25.473   2.667  1.00  0.00    -0.022 C 
HETATM   23  C33 UNL     1       7.040  25.903   1.393  1.00  0.00     0.017 C 
HETATM   24  C34 UNL     1       7.713  24.006   2.796  1.00  0.00     0.017 C 
HETATM   25  C35 UNL     1       9.236  25.901   2.397  1.00  0.00     0.017 C 
ENDBRANCH  16  22
ENDBRANCH  13  16
ENDBRANCH  11  12
BRANCH  11  26
HETATM   26  C6  UNL     1       9.078  25.438   8.097  1.00  0.00     0.040 C 
BRANCH  26  27
HETATM   27  C7  UNL     1       8.435  26.403   9.011  1.00  0.00    -0.012 C 
HETATM   28  C8  UNL     1       7.626  27.508   8.488  1.00  0.00     0.005 C 
HETATM   29  C9  UNL     1       7.710  28.568   9.628  1.00  0.00     0.000 C 
HETATM   30  C10 UNL     1       9.203  28.508   9.881  1.00  0.00     0.000 C 
HETATM   31  C11 UNL     1       9.464  27.025   9.967  1.00  0.00     0.005 C 
ENDBRANCH  26  27
ENDBRANCH  11  26
ENDBRANCH   9  11
ENDBRANCH   8   9
ENDBRANCH   1   8
BRANCH   4  32
HETATM   32  C17 UNL     1      14.393  20.374   4.704  1.00  0.00     0.128 C 
BRANCH  32  33
HETATM   33  C18 UNL     1      15.733  20.505   5.403  1.00  0.00     0.288 C 
HETATM   34  O5  UNL     1      16.751  20.609   4.666  1.00  0.00    -0.258 OA
HETATM   35  N3  UNL     1      15.708  20.508   6.731  1.00  0.00    -0.399 NA
BRANCH  35  36
HETATM   36  C19 UNL     1      15.686  20.512   8.154  1.00  0.00     0.265 C 
BRANCH  36  37
HETATM   37  C20 UNL     1      16.897  20.094   8.850  1.00  0.00     0.256 C 
HETATM   38  O6  UNL     1      18.012  20.624   8.505  1.00  0.00    -0.270 OA
HETATM   39  N4  UNL     1      16.951  19.127   9.918  1.00  0.00    -0.345 N 
HETATM   40  C21 UNL     1      15.886  18.292  10.344  1.00  0.00     0.152 C 
HETATM   41  C24 UNL     1      18.221  19.102  10.673  1.00  0.00     0.152 C 
HETATM   42  C22 UNL     1      16.419  16.996  10.942  1.00  0.00     0.187 C 
HETATM   43  O7  UNL     1      17.285  17.329  11.966  1.00  0.00    -0.388 OA
HETATM   44  C23 UNL     1      18.461  17.788  11.332  1.00  0.00     0.187 C 
ENDBRANCH  36  37
BRANCH  36  45
HETATM   45  C25 UNL     1      15.153  21.871   8.637  1.00  0.00    -0.010 C 
HETATM   46  C26 UNL     1      13.710  21.991   8.092  1.00  0.00     0.018 C 
HETATM   47  C27 UNL     1      15.858  23.066   8.131  1.00  0.00     0.018 C 
HETATM   48  C28 UNL     1      15.004  21.888  10.136  1.00  0.00     0.018 C 
ENDBRANCH  36  45
ENDBRANCH  35  36
ENDBRANCH  32  33
ENDBRANCH   4  32
TORSDOF 14
ENDMDL
MODEL 4
REMARK VINA RESULT: -9.413531489      2.085      4.753
REMARK  14 active torsions:
REMARK  status: ('A' for Active; 'I' for Inactive)
REMARK       I    between atoms: C2_2  and  N1_4 
REMARK    1  A    between atoms: N1_4  and  C3_6 
REMARK    2  A    between atoms: C3_6  and  C4_7 
REMARK    3  A    between atoms: C3_6  and  C32_45 
REMARK       I    between atoms: C4_7  and  N2_9 
REMARK    4  A    between atoms: N2_9  and  C5_11 
REMARK    5  A    between atoms: C5_11  and  C6_12 
REMARK    6  A    between atoms: C5_11  and  C12_18 
REMARK    7  A    between atoms: C6_12  and  C7_13 
REMARK    8  A    between atoms: C12_18  and  O4_20 
REMARK    9  A    between atoms: O4_20  and  C13_21 
REMARK   10  A    between atoms: C16_24  and  C17_25 
REMARK   11  A    between atoms: C17_25  and  C18_26 
REMARK       I    between atoms: C18_26  and  N3_28 
REMARK   12  A    between atoms: N3_28  and  C19_29 
REMARK   13  A    between atoms: C19_29  and  C20_30 
REMARK   14  A    between atoms: C19_29  and  C25_38 
REMARK       I    between atoms: C20_30  and  N4_32 
ROOT
HETATM    1  C13 UNL     1      13.234  22.585   6.449  1.00  0.00     0.132 C 
HETATM    2  C14 UNL     1      12.370  23.444   7.361  1.00  0.00     0.033 C 
HETATM    3  C15 UNL     1      12.191  24.819   6.768  1.00  0.00     0.013 C 
HETATM    4  C16 UNL     1      11.825  24.801   5.315  1.00  0.00    -0.027 A 
HETATM    5  C29 UNL     1      12.973  24.846   4.294  1.00  0.00     0.015 A 
HETATM    6  C30 UNL     1      12.129  23.653   4.517  1.00  0.00    -0.002 A 
HETATM    7  C31 UNL     1      12.721  22.421   5.083  1.00  0.00     0.038 C 
ENDROOT
BRANCH   1   8
HETATM    8  O4  UNL     1      13.849  21.494   7.079  1.00  0.00    -0.314 OA
BRANCH   8   9
HETATM    9  C12 UNL     1      15.108  21.522   7.666  1.00  0.00     0.282 C 
HETATM   10  O3  UNL     1      15.095  21.957   8.869  1.00  0.00    -0.263 OA
BRANCH   9  11
HETATM   11  C5  UNL     1      16.379  21.134   7.075  1.00  0.00     0.184 C 
BRANCH  11  12
HETATM   12  N2  UNL     1      16.627  19.732   7.594  1.00  0.00    -0.345 N 
HETATM   13  C4  UNL     1      17.570  19.463   8.560  1.00  0.00     0.241 C 
HETATM   14  O2  UNL     1      18.265  20.480   8.934  1.00  0.00    -0.271 OA
ATOM     15  H2  UNL     1      16.077  18.961   7.214  1.00  0.00     0.163 HD
BRANCH  13  16
HETATM   16  C3  UNL     1      17.817  18.146   9.164  1.00  0.00     0.184 C 
BRANCH  16  17
HETATM   17  N1  UNL     1      17.585  17.134   8.102  1.00  0.00    -0.347 N 
HETATM   18  C2  UNL     1      18.692  16.439   7.532  1.00  0.00     0.214 C 
HETATM   19  C1  UNL     1      18.455  15.429   6.483  1.00  0.00     0.117 C 
HETATM   20  O1  UNL     1      19.861  16.675   7.904  1.00  0.00    -0.274 OA
ATOM     21  H1  UNL     1      16.637  16.937   7.782  1.00  0.00     0.163 HD
ENDBRANCH  16  17
BRANCH  16  22
HETATM   22  C32 UNL     1      16.928  17.813  10.322  1.00  0.00    -0.022 C 
HETATM   23  C33 UNL     1      17.738  18.228  11.566  1.00  0.00     0.017 C 
HETATM   24  C34 UNL     1      16.533  16.398  10.461  1.00  0.00     0.017 C 
HETATM   25  C35 UNL     1      15.693  18.712  10.378  1.00  0.00     0.017 C 
ENDBRANCH  16  22
ENDBRANCH  13  16
ENDBRANCH  11  12
BRANCH  11  26
HETATM   26  C6  UNL     1      16.377  20.995   5.562  1.00  0.00     0.040 C 
BRANCH  26  27
HETATM   27  C7  UNL     1      16.709  19.627   5.117  1.00  0.00    -0.012 C 
HETATM   28  C8  UNL     1      18.073  19.278   4.710  1.00  0.00     0.005 C 
HETATM   29  C9  UNL     1      17.851  18.066   3.755  1.00  0.00     0.000 C 
HETATM   30  C10 UNL     1      16.719  18.638   2.926  1.00  0.00     0.000 C 
HETATM   31  C11 UNL     1      15.782  19.180   3.976  1.00  0.00     0.005 C 
ENDBRANCH  26  27
ENDBRANCH  11  26
ENDBRANCH   9  11
ENDBRANCH   8   9
ENDBRANCH   1   8
BRANCH   4  32
HETATM   32  C17 UNL     1      10.829  25.874   4.969  1.00  0.00     0.128 C 
BRANCH  32  33
HETATM   33  C18 UNL     1       9.501  25.751   5.693  1.00  0.00     0.288 C 
HETATM   34  O5  UNL     1       8.790  24.750   5.410  1.00  0.00    -0.258 OA
HETATM   35  N3  UNL     1       9.216  26.709   6.569  1.00  0.00    -0.399 NA
BRANCH  35  36
HETATM   36  C19 UNL     1       8.906  27.732   7.507  1.00  0.00     0.265 C 
BRANCH  36  37
HETATM   37  C20 UNL     1       7.700  28.519   7.276  1.00  0.00     0.256 C 
HETATM   38  O6  UNL     1       7.766  29.791   7.416  1.00  0.00    -0.270 OA
HETATM   39  N4  UNL     1       6.420  27.982   6.886  1.00  0.00    -0.345 N 
HETATM   40  C21 UNL     1       6.067  26.610   6.842  1.00  0.00     0.152 C 
HETATM   41  C24 UNL     1       5.445  28.984   6.405  1.00  0.00     0.152 C 
HETATM   42  C22 UNL     1       4.572  26.425   7.076  1.00  0.00     0.187 C 
HETATM   43  O7  UNL     1       3.902  27.184   6.135  1.00  0.00    -0.388 OA
HETATM   44  C23 UNL     1       4.037  28.524   6.564  1.00  0.00     0.187 C 
ENDBRANCH  36  37
BRANCH  36  45
HETATM   45  C25 UNL     1       8.976  27.141   8.925  1.00  0.00    -0.010 C 
HETATM   46  C26 UNL     1      10.479  27.001   9.264  1.00  0.00     0.018 C 
HETATM   47  C27 UNL     1       8.413  25.786   9.096  1.00  0.00     0.018 C 
HETATM   48  C28 UNL     1       8.438  28.114   9.941  1.00  0.00     0.018 C 
ENDBRANCH  36  45
ENDBRANCH  35  36
ENDBRANCH  32  33
ENDBRANCH   4  32
TORSDOF 14
ENDMDL
MODEL 5
REMARK VINA RESULT: -9.403306338      1.033      1.413
REMARK  14 active torsions:
REMARK  status: ('A' for Active; 'I' for Inactive)
REMARK       I    between atoms: C2_2  and  N1_4 
REMARK    1  A    between atoms: N1_4  and  C3_6 
REMARK    2  A    between atoms: C3_6  and  C4_7 
REMARK    3  A    between atoms: C3_6  and  C32_45 
REMARK       I    between atoms: C4_7  and  N2_9 
REMARK    4  A    between atoms: N2_9  and  C5_11 
REMARK    5  A    between atoms: C5_11  and  C6_12 
REMARK    6  A    between atoms: C5_11  and  C12_18 
REMARK    7  A    between atoms: C6_12  and  C7_13 
REMARK    8  A    between atoms: C12_18  and  O4_20 
REMARK    9  A    between atoms: O4_20  and  C13_21 
REMARK   10  A    between atoms: C16_24  and  C17_25 
REMARK   11  A    between atoms: C17_25  and  C18_26 
REMARK       I    between atoms: C18_26  and  N3_28 
REMARK   12  A    between atoms: N3_28  and  C19_29 
REMARK   13  A    between atoms: C19_29  and  C20_30 
REMARK   14  A    between atoms: C19_29  and  C25_38 
REMARK       I    between atoms: C20_30  and  N4_32 
ROOT
HETATM    1  C13 UNL     1      10.370  23.911   7.615  1.00  0.00     0.132 C 
HETATM    2  C14 UNL     1       8.925  23.925   8.094  1.00  0.00     0.033 C 
HETATM    3  C15 UNL     1       8.709  25.054   9.071  1.00  0.00     0.013 C 
HETATM    4  C16 UNL     1       9.279  26.361   8.609  1.00  0.00    -0.027 A 
HETATM    5  C29 UNL     1      10.723  26.691   9.021  1.00  0.00     0.015 A 
HETATM    6  C30 UNL     1      10.323  26.379   7.632  1.00  0.00    -0.002 A 
HETATM    7  C31 UNL     1      10.822  25.151   6.974  1.00  0.00     0.038 C 
ENDROOT
BRANCH   1   8
HETATM    8  O4  UNL     1      10.806  22.682   7.101  1.00  0.00    -0.314 OA
BRANCH   8   9
HETATM    9  C12 UNL     1      12.135  22.286   7.008  1.00  0.00     0.282 C 
HETATM   10  O3  UNL     1      12.650  21.974   8.136  1.00  0.00    -0.263 OA
BRANCH   9  11
HETATM   11  C5  UNL     1      12.961  22.205   5.814  1.00  0.00     0.184 C 
BRANCH  11  12
HETATM   12  N2  UNL     1      14.174  21.405   6.246  1.00  0.00    -0.345 N 
HETATM   13  C4  UNL     1      15.443  21.941   6.246  1.00  0.00     0.241 C 
HETATM   14  O2  UNL     1      15.523  23.142   5.788  1.00  0.00    -0.271 OA
ATOM     15  H2  UNL     1      14.047  20.439   6.545  1.00  0.00     0.163 HD
BRANCH  13  16
HETATM   16  C3  UNL     1      16.654  21.255   6.717  1.00  0.00     0.184 C 
BRANCH  16  17
HETATM   17  N1  UNL     1      16.589  19.863   6.205  1.00  0.00    -0.347 N 
HETATM   18  C2  UNL     1      17.670  19.340   5.433  1.00  0.00     0.214 C 
HETATM   19  C1  UNL     1      17.603  17.954   4.934  1.00  0.00     0.117 C 
HETATM   20  O1  UNL     1      18.669  20.041   5.171  1.00  0.00    -0.274 OA
ATOM     21  H1  UNL     1      15.775  19.282   6.405  1.00  0.00     0.163 HD
ENDBRANCH  16  17
BRANCH  16  22
HETATM   22  C32 UNL     1      16.798  21.194   8.207  1.00  0.00    -0.022 C 
HETATM   23  C33 UNL     1      18.276  21.542   8.470  1.00  0.00     0.017 C 
HETATM   24  C34 UNL     1      16.492  19.898   8.843  1.00  0.00     0.017 C 
HETATM   25  C35 UNL     1      16.032  22.317   8.907  1.00  0.00     0.017 C 
ENDBRANCH  16  22
ENDBRANCH  13  16
ENDBRANCH  11  12
BRANCH  11  26
HETATM   26  C6  UNL     1      12.364  21.414   4.662  1.00  0.00     0.040 C 
BRANCH  26  27
HETATM   27  C7  UNL     1      11.716  22.277   3.654  1.00  0.00    -0.012 C 
HETATM   28  C8  UNL     1      11.856  23.735   3.712  1.00  0.00     0.005 C 
HETATM   29  C9  UNL     1      10.583  24.235   2.965  1.00  0.00     0.000 C 
HETATM   30  C10 UNL     1       9.561  23.342   3.638  1.00  0.00     0.000 C 
HETATM   31  C11 UNL     1      10.211  21.983   3.564  1.00  0.00     0.005 C 
ENDBRANCH  26  27
ENDBRANCH  11  26
ENDBRANCH   9  11
ENDBRANCH   8   9
ENDBRANCH   1   8
BRANCH   4  32
HETATM   32  C17 UNL     1       8.396  27.524   8.975  1.00  0.00     0.128 C 
BRANCH  32  33
HETATM   33  C18 UNL     1       7.973  28.381   7.797  1.00  0.00     0.288 C 
HETATM   34  O5  UNL     1       8.556  29.491   7.664  1.00  0.00    -0.258 OA
HETATM   35  N3  UNL     1       7.030  27.877   7.008  1.00  0.00    -0.399 NA
BRANCH  35  36
HETATM   36  C19 UNL     1       6.020  27.342   6.161  1.00  0.00     0.265 C 
BRANCH  36  37
HETATM   37  C20 UNL     1       4.762  28.071   6.065  1.00  0.00     0.256 C 
HETATM   38  O6  UNL     1       4.803  29.325   5.804  1.00  0.00    -0.270 OA
HETATM   39  N4  UNL     1       3.451  27.493   6.229  1.00  0.00    -0.345 N 
HETATM   40  C21 UNL     1       3.168  26.182   6.689  1.00  0.00     0.152 C 
HETATM   41  C24 UNL     1       2.332  28.346   5.777  1.00  0.00     0.152 C 
HETATM   42  C22 UNL     1       1.812  26.131   7.382  1.00  0.00     0.187 C 
HETATM   43  O7  UNL     1       0.866  26.606   6.493  1.00  0.00    -0.388 OA
HETATM   44  C23 UNL     1       1.051  28.006   6.457  1.00  0.00     0.187 C 
ENDBRANCH  36  37
BRANCH  36  45
HETATM   45  C25 UNL     1       6.641  27.028   4.789  1.00  0.00    -0.010 C 
HETATM   46  C26 UNL     1       7.667  25.895   5.025  1.00  0.00     0.018 C 
HETATM   47  C27 UNL     1       7.409  28.119   4.156  1.00  0.00     0.018 C 
HETATM   48  C28 UNL     1       5.617  26.436   3.858  1.00  0.00     0.018 C 
ENDBRANCH  36  45
ENDBRANCH  35  36
ENDBRANCH  32  33
ENDBRANCH   4  32
TORSDOF 14
ENDMDL
