MODEL 1
REMARK VINA RESULT: -7.916944903      0.000      0.000
REMARK  14 active torsions:
REMARK  status: ('A' for Active; 'I' for Inactive)
REMARK    1  A    between atoms: N1_2  and  C3_4 
REMARK    2  A    between atoms: C3_4  and  C4_5 
REMARK    3  A    between atoms: C4_5  and  C5_6 
REMARK    4  A    between atoms: C5_6  and  C6_7 
REMARK    5  A    between atoms: C6_7  and  O1_8 
REMARK    6  A    between atoms: O1_8  and  C7_9 
REMARK       I    between atoms: C7_9  and  N2_11 
REMARK    7  A    between atoms: C12_16  and  C13_17 
REMARK       I    between atoms: C13_17  and  N3_19 
REMARK    8  A    between atoms: N3_19  and  C14_21 
REMARK    9  A    between atoms: C14_21  and  C15_22 
REMARK   10  A    between atoms: C14_21  and  C22_30 
REMARK   11  A    between atoms: C16_23  and  C17_24 
REMARK   12  A    between atoms: C17_24  and  C18_26 
REMARK   13  A    between atoms: C22_30  and  C23_31 
REMARK   14  A    between atoms: C22_30  and  C24_34 
ROOT
HETATM    1  C14 UNL     1       6.942   8.426  22.478  1.00  0.00     0.129 C 
ENDROOT
BRANCH   1   2
HETATM    2  N3  UNL     1       5.733   7.821  22.015  1.00  0.00    -0.350 N 
HETATM    3  C13 UNL     1       5.784   6.589  21.313  1.00  0.00     0.241 C 
HETATM    4  O3  UNL     1       6.896   6.050  21.111  1.00  0.00    -0.271 OA
ATOM      5  H3  UNL     1       4.836   8.274  22.189  1.00  0.00     0.163 HD
BRANCH   3   6
HETATM    6  C12 UNL     1       4.565   5.908  20.804  1.00  0.00     0.181 C 
HETATM    7  N2  UNL     1       4.762   4.493  20.767  1.00  0.00    -0.315 N 
HETATM    8  C7  UNL     1       4.921   3.832  19.518  1.00  0.00     0.363 C 
HETATM    9  C8  UNL     1       4.804   3.719  21.973  1.00  0.00     0.129 C 
HETATM   10  O2  UNL     1       4.882   4.524  18.468  1.00  0.00    -0.238 OA
HETATM   11  C9  UNL     1       3.564   4.021  22.780  1.00  0.00     0.020 C 
HETATM   12  C10 UNL     1       3.272   5.481  22.904  1.00  0.00     0.004 C 
HETATM   13  C11 UNL     1       3.336   6.225  21.606  1.00  0.00     0.035 C 
BRANCH   8  14
HETATM   14  O1  UNL     1       5.111   2.485  19.425  1.00  0.00    -0.304 OA
BRANCH  14  15
HETATM   15  C6  UNL     1       6.047   1.853  18.613  1.00  0.00     0.180 C 
BRANCH  15  16
HETATM   16  C5  UNL     1       7.416   1.904  19.200  1.00  0.00     0.028 C 
BRANCH  16  17
HETATM   17  C4  UNL     1       8.468   2.056  18.131  1.00  0.00     0.032 C 
BRANCH  17  18
HETATM   18  C3  UNL     1       9.198   0.784  17.827  1.00  0.00     0.271 C 
BRANCH  18  19
HETATM   19  N1  UNL     1       9.253   0.573  16.389  1.00  0.00     0.080 N 
HETATM   20  C1  UNL     1       9.495  -0.811  16.047  1.00  0.00     0.309 C 
HETATM   21  C2  UNL     1       8.048   1.016  15.738  1.00  0.00     0.309 C 
ENDBRANCH  18  19
ENDBRANCH  17  18
ENDBRANCH  16  17
ENDBRANCH  15  16
ENDBRANCH  14  15
ENDBRANCH   8  14
ENDBRANCH   3   6
ENDBRANCH   1   2
BRANCH   1  22
HETATM   22  C15 UNL     1       7.243   9.555  21.576  1.00  0.00     0.003 C 
HETATM   23  C16 UNL     1       6.418  10.204  20.798  1.00  0.00     0.049 C 
BRANCH  23  24
HETATM   24  C17 UNL     1       6.874  11.306  19.959  1.00  0.00     0.156 C 
HETATM   25  O4  UNL     1       8.147  11.501  19.972  1.00  0.00    -0.292 OA
BRANCH  24  26
HETATM   26  C18 UNL     1       6.053  12.183  19.135  1.00  0.00     0.013 C 
HETATM   27  C19 UNL     1       6.456  13.615  19.296  1.00  0.00     0.023 C 
HETATM   28  C20 UNL     1       4.565  11.979  19.343  1.00  0.00     0.023 C 
HETATM   29  C21 UNL     1       6.288  11.827  17.658  1.00  0.00     0.023 C 
ENDBRANCH  24  26
ENDBRANCH  23  24
ENDBRANCH   1  22
BRANCH   1  30
HETATM   30  C22 UNL     1       7.069   8.658  23.930  1.00  0.00     0.180 C 
BRANCH  30  31
HETATM   31  C23 UNL     1       5.916   8.069  24.661  1.00  0.00     0.186 C 
HETATM   32  O5  UNL     1       5.793   6.854  24.952  1.00  0.00    -0.647 OA
HETATM   33  O6  UNL     1       4.861   8.895  25.081  1.00  0.00    -0.647 OA
ENDBRANCH  30  31
BRANCH  30  34
HETATM   34  C24 UNL     1       8.347   8.436  24.585  1.00  0.00     0.089 C 
HETATM   35  N4  UNL     1       9.445   8.832  24.097  1.00  0.00    -0.379 N 
HETATM   36  C25 UNL     1      10.758   8.680  24.633  1.00  0.00     0.122 C 
ATOM     37  H4  UNL     1       9.383   9.323  23.206  1.00  0.00     0.160 HD
HETATM   38  C26 UNL     1      10.742   8.265  26.096  1.00  0.00     0.039 C 
HETATM   39  C27 UNL     1       9.692   7.158  26.201  1.00  0.00     0.122 C 
HETATM   40  N5  UNL     1       8.416   7.745  25.865  1.00  0.00    -0.379 N 
ATOM     41  H5  UNL     1       7.610   7.680  26.487  1.00  0.00     0.160 HD
ENDBRANCH  30  34
ENDBRANCH   1  30
TORSDOF 14
ENDMDL
MODEL 2
REMARK VINA RESULT: -7.661437703      3.055      9.239
REMARK  14 active torsions:
REMARK  status: ('A' for Active; 'I' for Inactive)
REMARK    1  A    between atoms: N1_2  and  C3_4 
REMARK    2  A    between atoms: C3_4  and  C4_5 
REMARK    3  A    between atoms: C4_5  and  C5_6 
REMARK    4  A    between atoms: C5_6  and  C6_7 
REMARK    5  A    between atoms: C6_7  and  O1_8 
REMARK    6  A    between atoms: O1_8  and  C7_9 
REMARK       I    between atoms: C7_9  and  N2_11 
REMARK    7  A    between atoms: C12_16  and  C13_17 
REMARK       I    between atoms: C13_17  and  N3_19 
REMARK    8  A    between atoms: N3_19  and  C14_21 
REMARK    9  A    between atoms: C14_21  and  C15_22 
REMARK   10  A    between atoms: C14_21  and  C22_30 
REMARK   11  A    between atoms: C16_23  and  C17_24 
REMARK   12  A    between atoms: C17_24  and  C18_26 
REMARK   13  A    between atoms: C22_30  and  C23_31 
REMARK   14  A    between atoms: C22_30  and  C24_34 
ROOT
HETATM    1  C14 UNL     1       6.606   7.664  20.386  1.00  0.00     0.129 C 
ENDROOT
BRANCH   1   2
HETATM    2  N3  UNL     1       5.982   8.451  19.368  1.00  0.00    -0.350 N 
HETATM    3  C13 UNL     1       5.223   9.595  19.724  1.00  0.00     0.241 C 
HETATM    4  O3  UNL     1       5.113   9.898  20.935  1.00  0.00    -0.271 OA
ATOM      5  H3  UNL     1       6.083   8.189  18.388  1.00  0.00     0.163 HD
BRANCH   3   6
HETATM    6  C12 UNL     1       4.550  10.454  18.716  1.00  0.00     0.181 C 
HETATM    7  N2  UNL     1       5.243  11.696  18.576  1.00  0.00    -0.315 N 
HETATM    8  C7  UNL     1       4.669  12.890  19.091  1.00  0.00     0.363 C 
HETATM    9  C8  UNL     1       6.515  11.764  17.919  1.00  0.00     0.129 C 
HETATM   10  O2  UNL     1       3.551  12.815  19.664  1.00  0.00    -0.238 OA
HETATM   11  C9  UNL     1       6.390  11.114  16.562  1.00  0.00     0.020 C 
HETATM   12  C10 UNL     1       5.698   9.791  16.593  1.00  0.00     0.004 C 
HETATM   13  C11 UNL     1       4.419   9.794  17.374  1.00  0.00     0.035 C 
BRANCH   8  14
HETATM   14  O1  UNL     1       5.286  14.102  18.984  1.00  0.00    -0.304 OA
BRANCH  14  15
HETATM   15  C6  UNL     1       6.055  14.709  19.970  1.00  0.00     0.180 C 
BRANCH  15  16
HETATM   16  C5  UNL     1       5.329  15.835  20.625  1.00  0.00     0.028 C 
BRANCH  16  17
HETATM   17  C4  UNL     1       4.739  16.777  19.606  1.00  0.00     0.032 C 
BRANCH  17  18
HETATM   18  C3  UNL     1       3.243  16.826  19.636  1.00  0.00     0.271 C 
BRANCH  18  19
HETATM   19  N1  UNL     1       2.716  16.787  18.281  1.00  0.00     0.080 N 
HETATM   20  C1  UNL     1       3.760  16.886  17.285  1.00  0.00     0.309 C 
HETATM   21  C2  UNL     1       1.948  15.594  18.041  1.00  0.00     0.309 C 
ENDBRANCH  18  19
ENDBRANCH  17  18
ENDBRANCH  16  17
ENDBRANCH  15  16
ENDBRANCH  14  15
ENDBRANCH   8  14
ENDBRANCH   3   6
ENDBRANCH   1   2
BRANCH   1  22
HETATM   22  C15 UNL     1       6.318   6.248  20.086  1.00  0.00     0.003 C 
HETATM   23  C16 UNL     1       7.066   5.206  20.333  1.00  0.00     0.049 C 
BRANCH  23  24
HETATM   24  C17 UNL     1       6.637   3.860  19.973  1.00  0.00     0.156 C 
HETATM   25  O4  UNL     1       5.758   3.346  20.763  1.00  0.00    -0.292 OA
BRANCH  24  26
HETATM   26  C18 UNL     1       7.092   3.064  18.841  1.00  0.00     0.013 C 
HETATM   27  C19 UNL     1       6.179   3.220  17.665  1.00  0.00     0.023 C 
HETATM   28  C20 UNL     1       7.333   1.609  19.192  1.00  0.00     0.023 C 
HETATM   29  C21 UNL     1       8.467   3.587  18.397  1.00  0.00     0.023 C 
ENDBRANCH  24  26
ENDBRANCH  23  24
ENDBRANCH   1  22
BRANCH   1  30
HETATM   30  C22 UNL     1       7.989   8.017  20.761  1.00  0.00     0.180 C 
BRANCH  30  31
HETATM   31  C23 UNL     1       8.525   9.075  19.865  1.00  0.00     0.186 C 
HETATM   32  O5  UNL     1       8.679  10.279  20.184  1.00  0.00    -0.647 OA
HETATM   33  O6  UNL     1       8.902   8.752  18.551  1.00  0.00    -0.647 OA
ENDBRANCH  30  31
BRANCH  30  34
HETATM   34  C24 UNL     1       8.326   8.215  22.161  1.00  0.00     0.089 C 
HETATM   35  N4  UNL     1       7.641   7.728  23.106  1.00  0.00    -0.379 N 
HETATM   36  C25 UNL     1       7.861   7.846  24.510  1.00  0.00     0.122 C 
ATOM     37  H4  UNL     1       6.826   7.182  22.828  1.00  0.00     0.160 HD
HETATM   38  C26 UNL     1       9.254   8.360  24.837  1.00  0.00     0.039 C 
HETATM   39  C27 UNL     1       9.501   9.525  23.879  1.00  0.00     0.122 C 
HETATM   40  N5  UNL     1       9.502   8.985  22.539  1.00  0.00    -0.379 N 
ATOM     41  H5  UNL     1      10.280   9.135  21.896  1.00  0.00     0.160 HD
ENDBRANCH  30  34
ENDBRANCH   1  30
TORSDOF 14
ENDMDL
MODEL 3
REMARK VINA RESULT: -7.659226073      2.710      5.996
REMARK  14 active torsions:
REMARK  status: ('A' for Active; 'I' for Inactive)
REMARK    1  A    between atoms: N1_2  and  C3_4 
REMARK    2  A    between atoms: C3_4  and  C4_5 
REMARK    3  A    between atoms: C4_5  and  C5_6 
REMARK    4  A    between atoms: C5_6  and  C6_7 
REMARK    5  A    between atoms: C6_7  and  O1_8 
REMARK    6  A    between atoms: O1_8  and  C7_9 
REMARK       I    between atoms: C7_9  and  N2_11 
REMARK    7  A    between atoms: C12_16  and  C13_17 
REMARK       I    between atoms: C13_17  and  N3_19 
REMARK    8  A    between atoms: N3_19  and  C14_21 
REMARK    9  A    between atoms: C14_21  and  C15_22 
REMARK   10  A    between atoms: C14_21  and  C22_30 
REMARK   11  A    between atoms: C16_23  and  C17_24 
REMARK   12  A    between atoms: C17_24  and  C18_26 
REMARK   13  A    between atoms: C22_30  and  C23_31 
REMARK   14  A    between atoms: C22_30  and  C24_34 
ROOT
HETATM    1  C14 UNL     1       6.423   9.167  22.495  1.00  0.00     0.129 C 
ENDROOT
BRANCH   1   2
HETATM    2  N3  UNL     1       6.483   9.649  21.151  1.00  0.00    -0.350 N 
HETATM    3  C13 UNL     1       7.302  10.763  20.835  1.00  0.00     0.241 C 
HETATM    4  O3  UNL     1       7.965  11.308  21.747  1.00  0.00    -0.271 OA
ATOM      5  H3  UNL     1       5.936   9.192  20.421  1.00  0.00     0.163 HD
BRANCH   3   6
HETATM    6  C12 UNL     1       7.408  11.313  19.459  1.00  0.00     0.181 C 
HETATM    7  N2  UNL     1       6.258  10.958  18.689  1.00  0.00    -0.315 N 
HETATM    8  C7  UNL     1       6.368   9.983  17.659  1.00  0.00     0.363 C 
HETATM    9  C8  UNL     1       4.984  11.569  18.934  1.00  0.00     0.129 C 
HETATM   10  O2  UNL     1       7.492   9.456  17.455  1.00  0.00    -0.238 OA
HETATM   11  C9  UNL     1       5.157  13.069  18.897  1.00  0.00     0.020 C 
HETATM   12  C10 UNL     1       6.323  13.556  19.692  1.00  0.00     0.004 C 
HETATM   13  C11 UNL     1       7.592  12.803  19.433  1.00  0.00     0.035 C 
BRANCH   8  14
HETATM   14  O1  UNL     1       5.303   9.607  16.894  1.00  0.00    -0.304 OA
BRANCH  14  15
HETATM   15  C6  UNL     1       4.656   8.378  16.954  1.00  0.00     0.180 C 
BRANCH  15  16
HETATM   16  C5  UNL     1       4.394   7.956  18.359  1.00  0.00     0.028 C 
BRANCH  16  17
HETATM   17  C4  UNL     1       4.854   6.541  18.605  1.00  0.00     0.032 C 
BRANCH  17  18
HETATM   18  C3  UNL     1       6.246   6.274  18.123  1.00  0.00     0.271 C 
BRANCH  18  19
HETATM   19  N1  UNL     1       6.498   4.843  18.102  1.00  0.00     0.080 N 
HETATM   20  C1  UNL     1       7.852   4.519  18.495  1.00  0.00     0.309 C 
HETATM   21  C2  UNL     1       5.579   4.126  18.945  1.00  0.00     0.309 C 
ENDBRANCH  18  19
ENDBRANCH  17  18
ENDBRANCH  16  17
ENDBRANCH  15  16
ENDBRANCH  14  15
ENDBRANCH   8  14
ENDBRANCH   3   6
ENDBRANCH   1   2
BRANCH   1  22
HETATM   22  C15 UNL     1       4.998   9.042  22.856  1.00  0.00     0.003 C 
HETATM   23  C16 UNL     1       4.419   8.080  23.525  1.00  0.00     0.049 C 
BRANCH  23  24
HETATM   24  C17 UNL     1       2.988   8.102  23.801  1.00  0.00     0.156 C 
HETATM   25  O4  UNL     1       2.237   7.973  22.762  1.00  0.00    -0.292 OA
BRANCH  24  26
HETATM   26  C18 UNL     1       2.344   8.252  25.100  1.00  0.00     0.013 C 
HETATM   27  C19 UNL     1       3.211   9.017  26.051  1.00  0.00     0.023 C 
HETATM   28  C20 UNL     1       1.869   6.937  25.687  1.00  0.00     0.023 C 
HETATM   29  C21 UNL     1       1.062   9.079  24.917  1.00  0.00     0.023 C 
ENDBRANCH  24  26
ENDBRANCH  23  24
ENDBRANCH   1  22
BRANCH   1  30
HETATM   30  C22 UNL     1       7.321   8.052  22.855  1.00  0.00     0.180 C 
BRANCH  30  31
HETATM   31  C23 UNL     1       7.601   7.198  21.670  1.00  0.00     0.186 C 
HETATM   32  O5  UNL     1       7.185   6.025  21.513  1.00  0.00    -0.647 OA
HETATM   33  O6  UNL     1       8.386   7.701  20.619  1.00  0.00    -0.647 OA
ENDBRANCH  30  31
BRANCH  30  34
HETATM   34  C24 UNL     1       8.491   8.307  23.678  1.00  0.00     0.089 C 
HETATM   35  N4  UNL     1       8.609   7.866  24.857  1.00  0.00    -0.379 N 
HETATM   36  C25 UNL     1       9.696   8.041  25.763  1.00  0.00     0.122 C 
ATOM     37  H4  UNL     1       7.826   7.313  25.205  1.00  0.00     0.160 HD
HETATM   38  C26 UNL     1      10.948   8.560  25.072  1.00  0.00     0.039 C 
HETATM   39  C27 UNL     1      10.476   9.682  24.147  1.00  0.00     0.122 C 
HETATM   40  N5  UNL     1       9.607   9.086  23.160  1.00  0.00    -0.379 N 
ATOM     41  H5  UNL     1       9.765   9.203  22.159  1.00  0.00     0.160 HD
ENDBRANCH  30  34
ENDBRANCH   1  30
TORSDOF 14
ENDMDL
MODEL 4
REMARK VINA RESULT: -7.601358432      3.325      6.892
REMARK  14 active torsions:
REMARK  status: ('A' for Active; 'I' for Inactive)
REMARK    1  A    between atoms: N1_2  and  C3_4 
REMARK    2  A    between atoms: C3_4  and  C4_5 
REMARK    3  A    between atoms: C4_5  and  C5_6 
REMARK    4  A    between atoms: C5_6  and  C6_7 
REMARK    5  A    between atoms: C6_7  and  O1_8 
REMARK    6  A    between atoms: O1_8  and  C7_9 
REMARK       I    between atoms: C7_9  and  N2_11 
REMARK    7  A    between atoms: C12_16  and  C13_17 
REMARK       I    between atoms: C13_17  and  N3_19 
REMARK    8  A    between atoms: N3_19  and  C14_21 
REMARK    9  A    between atoms: C14_21  and  C15_22 
REMARK   10  A    between atoms: C14_21  and  C22_30 
REMARK   11  A    between atoms: C16_23  and  C17_24 
REMARK   12  A    between atoms: C17_24  and  C18_26 
REMARK   13  A    between atoms: C22_30  and  C23_31 
REMARK   14  A    between atoms: C22_30  and  C24_34 
ROOT
HETATM    1  C14 UNL     1       6.761   9.750  21.869  1.00  0.00     0.129 C 
ENDROOT
BRANCH   1   2
HETATM    2  N3  UNL     1       6.697  10.540  20.680  1.00  0.00    -0.350 N 
HETATM    3  C13 UNL     1       7.396  11.774  20.613  1.00  0.00     0.241 C 
HETATM    4  O3  UNL     1       8.061  12.149  21.605  1.00  0.00    -0.271 OA
ATOM      5  H3  UNL     1       6.151  10.218  19.881  1.00  0.00     0.163 HD
BRANCH   3   6
HETATM    6  C12 UNL     1       7.371  12.642  19.408  1.00  0.00     0.181 C 
HETATM    7  N2  UNL     1       6.097  12.567  18.764  1.00  0.00    -0.315 N 
HETATM    8  C7  UNL     1       5.968  11.876  17.528  1.00  0.00     0.363 C 
HETATM    9  C8  UNL     1       4.937  13.179  19.342  1.00  0.00     0.129 C 
HETATM   10  O2  UNL     1       6.995  11.345  17.032  1.00  0.00    -0.238 OA
HETATM   11  C9  UNL     1       5.254  14.625  19.637  1.00  0.00     0.020 C 
HETATM   12  C10 UNL     1       6.560  14.822  20.334  1.00  0.00     0.004 C 
HETATM   13  C11 UNL     1       7.699  14.076  19.710  1.00  0.00     0.035 C 
BRANCH   8  14
HETATM   14  O1  UNL     1       4.778  11.774  16.870  1.00  0.00    -0.304 OA
BRANCH  14  15
HETATM   15  C6  UNL     1       4.099  10.590  16.603  1.00  0.00     0.180 C 
BRANCH  15  16
HETATM   16  C5  UNL     1       3.913   9.767  17.832  1.00  0.00     0.028 C 
BRANCH  16  17
HETATM   17  C4  UNL     1       4.555   8.410  17.689  1.00  0.00     0.032 C 
BRANCH  17  18
HETATM   18  C3  UNL     1       4.933   7.788  18.997  1.00  0.00     0.271 C 
BRANCH  18  19
HETATM   19  N1  UNL     1       4.881   6.339  18.892  1.00  0.00     0.080 N 
HETATM   20  C1  UNL     1       5.784   5.829  17.884  1.00  0.00     0.309 C 
HETATM   21  C2  UNL     1       5.171   5.702  20.149  1.00  0.00     0.309 C 
ENDBRANCH  18  19
ENDBRANCH  17  18
ENDBRANCH  16  17
ENDBRANCH  15  16
ENDBRANCH  14  15
ENDBRANCH   8  14
ENDBRANCH   3   6
ENDBRANCH   1   2
BRANCH   1  22
HETATM   22  C15 UNL     1       5.383   9.333  22.194  1.00  0.00     0.003 C 
HETATM   23  C16 UNL     1       5.001   8.304  22.904  1.00  0.00     0.049 C 
BRANCH  23  24
HETATM   24  C17 UNL     1       3.589   8.025  23.137  1.00  0.00     0.156 C 
HETATM   25  O4  UNL     1       2.854   8.051  22.079  1.00  0.00    -0.292 OA
BRANCH  24  26
HETATM   26  C18 UNL     1       2.949   7.730  24.412  1.00  0.00     0.013 C 
HETATM   27  C19 UNL     1       2.589   6.281  24.517  1.00  0.00     0.023 C 
HETATM   28  C20 UNL     1       1.772   8.637  24.714  1.00  0.00     0.023 C 
HETATM   29  C21 UNL     1       3.953   8.013  25.540  1.00  0.00     0.023 C 
ENDBRANCH  24  26
ENDBRANCH  23  24
ENDBRANCH   1  22
BRANCH   1  30
HETATM   30  C22 UNL     1       7.822   8.726  21.945  1.00  0.00     0.180 C 
BRANCH  30  31
HETATM   31  C23 UNL     1       8.490   8.561  20.627  1.00  0.00     0.186 C 
HETATM   32  O5  UNL     1       9.272   9.393  20.106  1.00  0.00    -0.647 OA
HETATM   33  O6  UNL     1       8.261   7.399  19.871  1.00  0.00    -0.647 OA
ENDBRANCH  30  31
BRANCH  30  34
HETATM   34  C24 UNL     1       8.744   8.729  23.068  1.00  0.00     0.089 C 
HETATM   35  N4  UNL     1       8.486   8.161  24.168  1.00  0.00    -0.379 N 
HETATM   36  C25 UNL     1       9.297   8.088  25.338  1.00  0.00     0.122 C 
ATOM     37  H4  UNL     1       7.581   7.693  24.225  1.00  0.00     0.160 HD
HETATM   38  C26 UNL     1      10.740   8.489  25.069  1.00  0.00     0.039 C 
HETATM   39  C27 UNL     1      10.665   9.753  24.213  1.00  0.00     0.122 C 
HETATM   40  N5  UNL     1      10.038   9.388  22.964  1.00  0.00    -0.379 N 
ATOM     41  H5  UNL     1      10.476   9.580  22.063  1.00  0.00     0.160 HD
ENDBRANCH  30  34
ENDBRANCH   1  30
TORSDOF 14
ENDMDL
MODEL 5
REMARK VINA RESULT: -7.598816790      1.681      2.151
REMARK  14 active torsions:
REMARK  status: ('A' for Active; 'I' for Inactive)
REMARK    1  A    between atoms: N1_2  and  C3_4 
REMARK    2  A    between atoms: C3_4  and  C4_5 
REMARK    3  A    between atoms: C4_5  and  C5_6 
REMARK    4  A    between atoms: C5_6  and  C6_7 
REMARK    5  A    between atoms: C6_7  and  O1_8 
REMARK    6  A    between atoms: O1_8  and  C7_9 
REMARK       I    between atoms: C7_9  and  N2_11 
REMARK    7  A    between atoms: C12_16  and  C13_17 
REMARK       I    between atoms: C13_17  and  N3_19 
REMARK    8  A    between atoms: N3_19  and  C14_21 
REMARK    9  A    between atoms: C14_21  and  C15_22 
REMARK   10  A    between atoms: C14_21  and  C22_30 
REMARK   11  A    between atoms: C16_23  and  C17_24 
REMARK   12  A    between atoms: C17_24  and  C18_26 
REMARK   13  A    between atoms: C22_30  and  C23_31 
REMARK   14  A    between atoms: C22_30  and  C24_34 
ROOT
HETATM    1  C14 UNL     1       7.551   9.317  21.419  1.00  0.00     0.129 C 
ENDROOT
BRANCH   1   2
HETATM    2  N3  UNL     1       6.904   8.309  20.638  1.00  0.00    -0.350 N 
HETATM    3  C13 UNL     1       7.612   7.664  19.591  1.00  0.00     0.241 C 
HETATM    4  O3  UNL     1       8.800   7.993  19.368  1.00  0.00    -0.271 OA
ATOM      5  H3  UNL     1       5.936   8.055  20.834  1.00  0.00     0.163 HD
BRANCH   3   6
HETATM    6  C12 UNL     1       6.998   6.610  18.742  1.00  0.00     0.181 C 
HETATM    7  N2  UNL     1       6.709   5.447  19.520  1.00  0.00    -0.315 N 
HETATM    8  C7  UNL     1       7.495   4.274  19.359  1.00  0.00     0.363 C 
HETATM    9  C8  UNL     1       5.634   5.439  20.469  1.00  0.00     0.129 C 
HETATM   10  O2  UNL     1       8.435   4.296  18.522  1.00  0.00    -0.238 OA
HETATM   11  C9  UNL     1       4.374   5.888  19.769  1.00  0.00     0.020 C 
HETATM   12  C10 UNL     1       4.555   7.116  18.939  1.00  0.00     0.004 C 
HETATM   13  C11 UNL     1       5.753   7.071  18.041  1.00  0.00     0.035 C 
BRANCH   8  14
HETATM   14  O1  UNL     1       7.263   3.136  20.075  1.00  0.00    -0.304 OA
BRANCH  14  15
HETATM   15  C6  UNL     1       6.686   1.972  19.581  1.00  0.00     0.180 C 
BRANCH  15  16
HETATM   16  C5  UNL     1       6.002   2.201  18.276  1.00  0.00     0.028 C 
BRANCH  16  17
HETATM   17  C4  UNL     1       6.412   1.173  17.252  1.00  0.00     0.032 C 
BRANCH  17  18
HETATM   18  C3  UNL     1       7.726   1.471  16.600  1.00  0.00     0.271 C 
BRANCH  18  19
HETATM   19  N1  UNL     1       8.738   0.539  17.072  1.00  0.00     0.080 N 
HETATM   20  C1  UNL     1       9.187  -0.357  16.030  1.00  0.00     0.309 C 
HETATM   21  C2  UNL     1       9.876   1.223  17.628  1.00  0.00     0.309 C 
ENDBRANCH  18  19
ENDBRANCH  17  18
ENDBRANCH  16  17
ENDBRANCH  15  16
ENDBRANCH  14  15
ENDBRANCH   8  14
ENDBRANCH   3   6
ENDBRANCH   1   2
BRANCH   1  22
HETATM   22  C15 UNL     1       7.258  10.618  20.788  1.00  0.00     0.003 C 
HETATM   23  C16 UNL     1       6.799  10.843  19.586  1.00  0.00     0.049 C 
BRANCH  23  24
HETATM   24  C17 UNL     1       6.560  12.199  19.106  1.00  0.00     0.156 C 
HETATM   25  O4  UNL     1       7.625  12.899  18.918  1.00  0.00    -0.292 OA
BRANCH  24  26
HETATM   26  C18 UNL     1       5.272  12.821  18.828  1.00  0.00     0.013 C 
HETATM   27  C19 UNL     1       5.229  14.230  19.330  1.00  0.00     0.023 C 
HETATM   28  C20 UNL     1       4.094  12.001  19.318  1.00  0.00     0.023 C 
HETATM   29  C21 UNL     1       5.083  12.895  17.304  1.00  0.00     0.023 C 
ENDBRANCH  24  26
ENDBRANCH  23  24
ENDBRANCH   1  22
BRANCH   1  30
HETATM   30  C22 UNL     1       7.421   9.223  22.886  1.00  0.00     0.180 C 
BRANCH  30  31
HETATM   31  C23 UNL     1       6.275   8.352  23.259  1.00  0.00     0.186 C 
HETATM   32  O5  UNL     1       6.369   7.153  23.618  1.00  0.00    -0.647 OA
HETATM   33  O6  UNL     1       4.968   8.865  23.225  1.00  0.00    -0.647 OA
ENDBRANCH  30  31
BRANCH  30  34
HETATM   34  C24 UNL     1       8.605   9.007  23.701  1.00  0.00     0.089 C 
HETATM   35  N4  UNL     1       9.769   9.315  23.314  1.00  0.00    -0.379 N 
HETATM   36  C25 UNL     1      11.003   9.158  24.009  1.00  0.00     0.122 C 
ATOM     37  H4  UNL     1       9.832   9.731  22.384  1.00  0.00     0.160 HD
HETATM   38  C26 UNL     1      10.802   8.871  25.489  1.00  0.00     0.039 C 
HETATM   39  C27 UNL     1       9.694   7.820  25.560  1.00  0.00     0.122 C 
HETATM   40  N5  UNL     1       8.494   8.426  25.032  1.00  0.00    -0.379 N 
ATOM     41  H5  UNL     1       7.621   8.447  25.559  1.00  0.00     0.160 HD
ENDBRANCH  30  34
ENDBRANCH   1  30
TORSDOF 14
ENDMDL
