MODEL 1
REMARK VINA RESULT: -7.280135602      0.000      0.000
REMARK  16 active torsions:
REMARK  status: ('A' for Active; 'I' for Inactive)
REMARK    1  A    between atoms: C3_3  and  C4_4 
REMARK    2  A    between atoms: C4_4  and  C5_5 
REMARK    3  A    between atoms: C5_5  and  C6_6 
REMARK    4  A    between atoms: C6_6  and  C7_7 
REMARK    5  A    between atoms: C7_7  and  C8_8 
REMARK    6  A    between atoms: C8_8  and  C9_9 
REMARK    7  A    between atoms: C9_9  and  C10_10 
REMARK    8  A    between atoms: C10_10  and  C11_11 
REMARK    9  A    between atoms: C11_11  and  C12_12 
REMARK   10  A    between atoms: C12_12  and  C13_13 
REMARK   11  A    between atoms: C15_15  and  N1_16 
REMARK   12  A    between atoms: N3_23  and  C18_24 
REMARK   13  A    between atoms: N5_30  and  C20_31 
REMARK   14  A    between atoms: C20_31  and  C22_34 
REMARK   15  A    between atoms: C22_34  and  O3_35 
REMARK   16  A    between atoms: C24_39  and  C25_40 
ROOT
HETATM    1  C1  UNL     1      18.911 -12.509  20.886  1.00  0.00     0.012 C 
HETATM    2  C2  UNL     1      19.626 -13.114  21.647  1.00  0.00    -0.117 C 
HETATM    3  C3  UNL     1      20.477 -13.861  22.569  1.00  0.00     0.093 C 
ENDROOT
BRANCH   3   4
HETATM    4  C4  UNL     1      19.810 -15.167  22.917  1.00  0.00     0.012 C 
BRANCH   4   5
HETATM    5  C5  UNL     1      18.963 -14.979  24.156  1.00  0.00     0.001 C 
BRANCH   5   6
HETATM    6  C6  UNL     1      19.805 -14.636  25.356  1.00  0.00     0.000 C 
BRANCH   6   7
HETATM    7  C7  UNL     1      19.575 -15.541  26.532  1.00  0.00     0.000 C 
BRANCH   7   8
HETATM    8  C8  UNL     1      18.300 -16.321  26.431  1.00  0.00     0.001 C 
BRANCH   8   9
HETATM    9  C9  UNL     1      18.589 -17.748  26.818  1.00  0.00     0.012 C 
BRANCH   9  10
HETATM   10  C10 UNL     1      18.938 -18.594  25.602  1.00  0.00     0.094 C 
BRANCH  10  11
HETATM   11  C11 UNL     1      17.777 -18.762  24.730  1.00  0.00    -0.100 C 
BRANCH  11  12
HETATM   12  C12 UNL     1      16.797 -18.906  24.017  1.00  0.00    -0.049 C 
BRANCH  12  13
HETATM   13  C13 UNL     1      15.633 -19.065  23.187  1.00  0.00     0.090 A 
HETATM   14  C14 UNL     1      15.066 -20.305  22.982  1.00  0.00     0.070 A 
HETATM   15  C15 UNL     1      13.950 -20.512  22.197  1.00  0.00     0.059 A 
HETATM   16  C16 UNL     1      13.389 -19.411  21.594  1.00  0.00     0.104 A 
HETATM   17  N2  UNL     1      12.330 -19.233  20.783  1.00  0.00    -0.347 N 
HETATM   18  C27 UNL     1      13.951 -18.169  21.794  1.00  0.00     0.144 A 
HETATM   19  C17 UNL     1      12.252 -17.926  20.500  1.00  0.00     0.192 A 
ATOM     20  H2  UNL     1      11.702 -19.961  20.445  1.00  0.00     0.167 HD
HETATM   21  N3  UNL     1      13.236 -17.246  21.108  1.00  0.00    -0.279 N 
HETATM   22  N7  UNL     1      15.043 -18.028  22.574  1.00  0.00    -0.333 N 
ATOM     23  H7  UNL     1      15.435 -17.096  22.703  1.00  0.00     0.168 HD
BRANCH  15  24
HETATM   24  N1  UNL     1      13.437 -21.689  22.020  1.00  0.00    -0.397 N 
ATOM     25  H12 UNL     1      13.998 -22.442  21.621  1.00  0.00     0.156 HD
ATOM     26  H11 UNL     1      12.472 -21.905  22.270  1.00  0.00     0.156 HD
ENDBRANCH  15  24
BRANCH  21  27
HETATM   27  C18 UNL     1      13.533 -15.838  21.085  1.00  0.00     0.124 C 
HETATM   28  N4  UNL     1      12.758 -15.213  21.917  1.00  0.00    -0.242 N 
HETATM   29  O1  UNL     1      12.757 -13.862  22.162  1.00  0.00    -0.179 OA
ATOM     30  H4  UNL     1      12.087 -15.779  22.438  1.00  0.00     0.196 HD
HETATM   31  C19 UNL     1      13.013 -12.882  21.207  1.00  0.00     0.393 C 
HETATM   32  O2  UNL     1      12.343 -11.797  21.312  1.00  0.00    -0.236 OA
HETATM   33  N5  UNL     1      13.934 -12.946  20.127  1.00  0.00    -0.241 N 
HETATM   34  C23 UNL     1      14.447 -14.125  19.531  1.00  0.00     0.241 C 
HETATM   35  O4  UNL     1      14.818 -14.025  18.306  1.00  0.00    -0.272 OA
HETATM   36  C24 UNL     1      14.597 -15.449  20.167  1.00  0.00     0.148 C 
BRANCH  33  37
HETATM   37  C20 UNL     1      14.392 -11.696  19.591  1.00  0.00     0.228 C 
HETATM   38  C21 UNL     1      14.155 -11.671  18.143  1.00  0.00     0.087 C 
HETATM   39  N6  UNL     1      13.957 -11.628  16.982  1.00  0.00    -0.195 NA
BRANCH  37  40
HETATM   40  C22 UNL     1      15.878 -11.543  19.843  1.00  0.00     0.205 C 
BRANCH  40  41
HETATM   41  O3  UNL     1      16.555 -11.526  18.601  1.00  0.00    -0.398 OA
ATOM     42  H3  UNL     1      15.922 -11.381  17.907  1.00  0.00     0.209 HD
ENDBRANCH  40  41
ENDBRANCH  37  40
ENDBRANCH  33  37
BRANCH  36  43
HETATM   43  C25 UNL     1      15.982 -15.632  20.730  1.00  0.00     0.017 C 
HETATM   44  C26 UNL     1      16.334 -14.681  21.818  1.00  0.00     0.006 C 
ENDBRANCH  36  43
ENDBRANCH  21  27
ENDBRANCH  12  13
ENDBRANCH  11  12
ENDBRANCH  10  11
ENDBRANCH   9  10
ENDBRANCH   8   9
ENDBRANCH   7   8
ENDBRANCH   6   7
ENDBRANCH   5   6
ENDBRANCH   4   5
ENDBRANCH   3   4
TORSDOF 16
ENDMDL
MODEL 2
REMARK VINA RESULT: -7.187019922      3.323      6.532
REMARK  16 active torsions:
REMARK  status: ('A' for Active; 'I' for Inactive)
REMARK    1  A    between atoms: C3_3  and  C4_4 
REMARK    2  A    between atoms: C4_4  and  C5_5 
REMARK    3  A    between atoms: C5_5  and  C6_6 
REMARK    4  A    between atoms: C6_6  and  C7_7 
REMARK    5  A    between atoms: C7_7  and  C8_8 
REMARK    6  A    between atoms: C8_8  and  C9_9 
REMARK    7  A    between atoms: C9_9  and  C10_10 
REMARK    8  A    between atoms: C10_10  and  C11_11 
REMARK    9  A    between atoms: C11_11  and  C12_12 
REMARK   10  A    between atoms: C12_12  and  C13_13 
REMARK   11  A    between atoms: C15_15  and  N1_16 
REMARK   12  A    between atoms: N3_23  and  C18_24 
REMARK   13  A    between atoms: N5_30  and  C20_31 
REMARK   14  A    between atoms: C20_31  and  C22_34 
REMARK   15  A    between atoms: C22_34  and  O3_35 
REMARK   16  A    between atoms: C24_39  and  C25_40 
ROOT
HETATM    1  C1  UNL     1      20.060 -12.267  20.148  1.00  0.00     0.012 C 
HETATM    2  C2  UNL     1      19.151 -12.608  20.866  1.00  0.00    -0.117 C 
HETATM    3  C3  UNL     1      18.039 -13.019  21.718  1.00  0.00     0.093 C 
ENDROOT
BRANCH   3   4
HETATM    4  C4  UNL     1      16.793 -13.158  20.882  1.00  0.00     0.012 C 
BRANCH   4   5
HETATM    5  C5  UNL     1      16.531 -11.854  20.160  1.00  0.00     0.001 C 
BRANCH   5   6
HETATM    6  C6  UNL     1      15.056 -11.579  20.031  1.00  0.00     0.000 C 
BRANCH   6   7
HETATM    7  C7  UNL     1      14.503 -10.724  21.135  1.00  0.00     0.000 C 
BRANCH   7   8
HETATM    8  C8  UNL     1      13.007 -10.749  21.203  1.00  0.00     0.001 C 
BRANCH   8   9
HETATM    9  C9  UNL     1      12.604 -10.901  22.646  1.00  0.00     0.012 C 
BRANCH   9  10
HETATM   10  C10 UNL     1      11.869 -12.212  22.883  1.00  0.00     0.094 C 
BRANCH  10  11
HETATM   11  C11 UNL     1      12.477 -13.300  22.119  1.00  0.00    -0.100 C 
BRANCH  11  12
HETATM   12  C12 UNL     1      12.979 -14.220  21.492  1.00  0.00    -0.049 C 
BRANCH  12  13
HETATM   13  C13 UNL     1      13.559 -15.299  20.740  1.00  0.00     0.090 A 
HETATM   14  C14 UNL     1      13.015 -15.706  19.540  1.00  0.00     0.070 A 
HETATM   15  C15 UNL     1      13.532 -16.735  18.778  1.00  0.00     0.059 A 
HETATM   16  C16 UNL     1      14.650 -17.376  19.259  1.00  0.00     0.104 A 
HETATM   17  N2  UNL     1      15.407 -18.391  18.806  1.00  0.00    -0.347 N 
HETATM   18  C27 UNL     1      15.198 -16.975  20.458  1.00  0.00     0.144 A 
HETATM   19  C17 UNL     1      16.384 -18.600  19.699  1.00  0.00     0.192 A 
ATOM     20  H2  UNL     1      15.264 -18.909  17.939  1.00  0.00     0.167 HD
HETATM   21  N3  UNL     1      16.280 -17.742  20.726  1.00  0.00    -0.279 N 
HETATM   22  N7  UNL     1      14.648 -15.961  21.158  1.00  0.00    -0.333 N 
ATOM     23  H7  UNL     1      15.077 -15.687  22.041  1.00  0.00     0.168 HD
BRANCH  15  24
HETATM   24  N1  UNL     1      13.001 -17.098  17.654  1.00  0.00    -0.397 N 
ATOM     25  H12 UNL     1      12.318 -16.500  17.189  1.00  0.00     0.156 HD
ATOM     26  H11 UNL     1      13.240 -17.978  17.198  1.00  0.00     0.156 HD
ENDBRANCH  15  24
BRANCH  21  27
HETATM   27  C18 UNL     1      17.105 -17.607  21.898  1.00  0.00     0.124 C 
HETATM   28  N4  UNL     1      16.368 -17.679  22.963  1.00  0.00    -0.242 N 
HETATM   29  O1  UNL     1      16.812 -17.592  24.261  1.00  0.00    -0.179 OA
ATOM     30  H4  UNL     1      15.367 -17.813  22.824  1.00  0.00     0.196 HD
HETATM   31  C19 UNL     1      17.867 -16.790  24.686  1.00  0.00     0.393 C 
HETATM   32  O2  UNL     1      17.744 -16.258  25.844  1.00  0.00    -0.236 OA
HETATM   33  N5  UNL     1      19.067 -16.493  23.985  1.00  0.00    -0.241 N 
HETATM   34  C23 UNL     1      19.259 -16.567  22.583  1.00  0.00     0.241 C 
HETATM   35  O4  UNL     1      20.166 -15.802  22.094  1.00  0.00    -0.272 OA
HETATM   36  C24 UNL     1      18.528 -17.428  21.631  1.00  0.00     0.148 C 
BRANCH  33  37
HETATM   37  C20 UNL     1      20.193 -16.083  24.774  1.00  0.00     0.228 C 
HETATM   38  C21 UNL     1      20.369 -14.631  24.651  1.00  0.00     0.087 C 
HETATM   39  N6  UNL     1      20.515 -13.463  24.576  1.00  0.00    -0.195 NA
BRANCH  37  40
HETATM   40  C22 UNL     1      21.447 -16.768  24.273  1.00  0.00     0.205 C 
BRANCH  40  41
HETATM   41  O3  UNL     1      22.412 -15.783  23.952  1.00  0.00    -0.398 OA
ATOM     42  H3  UNL     1      23.244 -16.029  24.340  1.00  0.00     0.209 HD
ENDBRANCH  40  41
ENDBRANCH  37  40
ENDBRANCH  33  37
BRANCH  36  43
HETATM   43  C25 UNL     1      19.266 -18.717  21.379  1.00  0.00     0.017 C 
HETATM   44  C26 UNL     1      19.223 -19.681  22.511  1.00  0.00     0.006 C 
ENDBRANCH  36  43
ENDBRANCH  21  27
ENDBRANCH  12  13
ENDBRANCH  11  12
ENDBRANCH  10  11
ENDBRANCH   9  10
ENDBRANCH   8   9
ENDBRANCH   7   8
ENDBRANCH   6   7
ENDBRANCH   5   6
ENDBRANCH   4   5
ENDBRANCH   3   4
TORSDOF 16
ENDMDL
MODEL 3
REMARK VINA RESULT: -7.135328676      2.144      3.274
REMARK  16 active torsions:
REMARK  status: ('A' for Active; 'I' for Inactive)
REMARK    1  A    between atoms: C3_3  and  C4_4 
REMARK    2  A    between atoms: C4_4  and  C5_5 
REMARK    3  A    between atoms: C5_5  and  C6_6 
REMARK    4  A    between atoms: C6_6  and  C7_7 
REMARK    5  A    between atoms: C7_7  and  C8_8 
REMARK    6  A    between atoms: C8_8  and  C9_9 
REMARK    7  A    between atoms: C9_9  and  C10_10 
REMARK    8  A    between atoms: C10_10  and  C11_11 
REMARK    9  A    between atoms: C11_11  and  C12_12 
REMARK   10  A    between atoms: C12_12  and  C13_13 
REMARK   11  A    between atoms: C15_15  and  N1_16 
REMARK   12  A    between atoms: N3_23  and  C18_24 
REMARK   13  A    between atoms: N5_30  and  C20_31 
REMARK   14  A    between atoms: C20_31  and  C22_34 
REMARK   15  A    between atoms: C22_34  and  O3_35 
REMARK   16  A    between atoms: C24_39  and  C25_40 
ROOT
HETATM    1  C1  UNL     1      16.893 -13.414  21.643  1.00  0.00     0.012 C 
HETATM    2  C2  UNL     1      18.098 -13.469  21.614  1.00  0.00    -0.117 C 
HETATM    3  C3  UNL     1      19.556 -13.548  21.595  1.00  0.00     0.093 C 
ENDROOT
BRANCH   3   4
HETATM    4  C4  UNL     1      20.022 -14.452  22.708  1.00  0.00     0.012 C 
BRANCH   4   5
HETATM    5  C5  UNL     1      21.251 -13.853  23.354  1.00  0.00     0.001 C 
BRANCH   5   6
HETATM    6  C6  UNL     1      21.512 -14.453  24.711  1.00  0.00     0.000 C 
BRANCH   6   7
HETATM    7  C7  UNL     1      20.625 -13.907  25.792  1.00  0.00     0.000 C 
BRANCH   7   8
HETATM    8  C8  UNL     1      20.268 -14.928  26.829  1.00  0.00     0.001 C 
BRANCH   8   9
HETATM    9  C9  UNL     1      19.631 -16.102  26.134  1.00  0.00     0.012 C 
BRANCH   9  10
HETATM   10  C10 UNL     1      18.178 -15.818  25.783  1.00  0.00     0.094 C 
BRANCH  10  11
HETATM   11  C11 UNL     1      17.814 -16.441  24.512  1.00  0.00    -0.100 C 
BRANCH  11  12
HETATM   12  C12 UNL     1      17.520 -16.949  23.441  1.00  0.00    -0.049 C 
BRANCH  12  13
HETATM   13  C13 UNL     1      17.190 -17.555  22.180  1.00  0.00     0.090 A 
HETATM   14  C14 UNL     1      17.710 -18.781  21.819  1.00  0.00     0.070 A 
HETATM   15  C15 UNL     1      17.427 -19.407  20.622  1.00  0.00     0.059 A 
HETATM   16  C16 UNL     1      16.579 -18.757  19.755  1.00  0.00     0.104 A 
HETATM   17  N2  UNL     1      16.091 -19.051  18.537  1.00  0.00    -0.347 N 
HETATM   18  C27 UNL     1      16.056 -17.532  20.109  1.00  0.00     0.144 A 
HETATM   19  C17 UNL     1      15.297 -18.039  18.162  1.00  0.00     0.192 A 
ATOM     20  H2  UNL     1      16.289 -19.892  17.995  1.00  0.00     0.167 HD
HETATM   21  N3  UNL     1      15.257 -17.089  19.110  1.00  0.00    -0.279 N 
HETATM   22  N7  UNL     1      16.370 -16.970  21.295  1.00  0.00    -0.333 N 
ATOM     23  H7  UNL     1      15.967 -16.063  21.528  1.00  0.00     0.168 HD
BRANCH  15  24
HETATM   24  N1  UNL     1      17.929 -20.559  20.308  1.00  0.00    -0.397 N 
ATOM     25  H12 UNL     1      17.537 -21.417  20.696  1.00  0.00     0.156 HD
ATOM     26  H11 UNL     1      18.721 -20.652  19.672  1.00  0.00     0.156 HD
ENDBRANCH  15  24
BRANCH  21  27
HETATM   27  C18 UNL     1      14.541 -15.841  19.133  1.00  0.00     0.124 C 
HETATM   28  N4  UNL     1      14.914 -15.104  18.133  1.00  0.00    -0.242 N 
HETATM   29  O1  UNL     1      14.444 -13.848  17.835  1.00  0.00    -0.179 OA
ATOM     30  H4  UNL     1      15.623 -15.493  17.511  1.00  0.00     0.196 HD
HETATM   31  C19 UNL     1      14.069 -12.896  18.778  1.00  0.00     0.393 C 
HETATM   32  O2  UNL     1      14.332 -11.677  18.491  1.00  0.00    -0.236 OA
HETATM   33  N5  UNL     1      13.427 -13.120  20.026  1.00  0.00    -0.241 N 
HETATM   34  C23 UNL     1      13.430 -14.329  20.766  1.00  0.00     0.241 C 
HETATM   35  O4  UNL     1      13.275 -14.217  22.035  1.00  0.00    -0.272 OA
HETATM   36  C24 UNL     1      13.593 -15.696  20.232  1.00  0.00     0.148 C 
BRANCH  33  37
HETATM   37  C20 UNL     1      12.703 -12.016  20.589  1.00  0.00     0.228 C 
HETATM   38  C21 UNL     1      13.642 -11.113  21.265  1.00  0.00     0.087 C 
HETATM   39  N6  UNL     1      14.384 -10.368  21.798  1.00  0.00    -0.195 NA
BRANCH  37  40
HETATM   40  C22 UNL     1      11.702 -12.525  21.605  1.00  0.00     0.205 C 
BRANCH  40  41
HETATM   41  O3  UNL     1      11.883 -11.822  22.820  1.00  0.00    -0.398 OA
ATOM     42  H3  UNL     1      11.050 -11.772  23.275  1.00  0.00     0.209 HD
ENDBRANCH  40  41
ENDBRANCH  37  40
ENDBRANCH  33  37
BRANCH  36  43
HETATM   43  C25 UNL     1      12.259 -16.346  19.974  1.00  0.00     0.017 C 
HETATM   44  C26 UNL     1      12.115 -17.708  20.554  1.00  0.00     0.006 C 
ENDBRANCH  36  43
ENDBRANCH  21  27
ENDBRANCH  12  13
ENDBRANCH  11  12
ENDBRANCH  10  11
ENDBRANCH   9  10
ENDBRANCH   8   9
ENDBRANCH   7   8
ENDBRANCH   6   7
ENDBRANCH   5   6
ENDBRANCH   4   5
ENDBRANCH   3   4
TORSDOF 16
ENDMDL
MODEL 4
REMARK VINA RESULT: -7.105256911      1.577      2.340
REMARK  16 active torsions:
REMARK  status: ('A' for Active; 'I' for Inactive)
REMARK    1  A    between atoms: C3_3  and  C4_4 
REMARK    2  A    between atoms: C4_4  and  C5_5 
REMARK    3  A    between atoms: C5_5  and  C6_6 
REMARK    4  A    between atoms: C6_6  and  C7_7 
REMARK    5  A    between atoms: C7_7  and  C8_8 
REMARK    6  A    between atoms: C8_8  and  C9_9 
REMARK    7  A    between atoms: C9_9  and  C10_10 
REMARK    8  A    between atoms: C10_10  and  C11_11 
REMARK    9  A    between atoms: C11_11  and  C12_12 
REMARK   10  A    between atoms: C12_12  and  C13_13 
REMARK   11  A    between atoms: C15_15  and  N1_16 
REMARK   12  A    between atoms: N3_23  and  C18_24 
REMARK   13  A    between atoms: N5_30  and  C20_31 
REMARK   14  A    between atoms: C20_31  and  C22_34 
REMARK   15  A    between atoms: C22_34  and  O3_35 
REMARK   16  A    between atoms: C24_39  and  C25_40 
ROOT
HETATM    1  C1  UNL     1      20.060 -12.292  20.171  1.00  0.00     0.012 C 
HETATM    2  C2  UNL     1      19.930 -13.254  20.887  1.00  0.00    -0.117 C 
HETATM    3  C3  UNL     1      19.773 -14.406  21.771  1.00  0.00     0.093 C 
ENDROOT
BRANCH   3   4
HETATM    4  C4  UNL     1      19.639 -13.929  23.195  1.00  0.00     0.012 C 
BRANCH   4   5
HETATM    5  C5  UNL     1      20.996 -13.964  23.861  1.00  0.00     0.001 C 
BRANCH   5   6
HETATM    6  C6  UNL     1      20.920 -14.559  25.243  1.00  0.00     0.000 C 
BRANCH   6   7
HETATM    7  C7  UNL     1      19.732 -15.455  25.448  1.00  0.00     0.000 C 
BRANCH   7   8
HETATM    8  C8  UNL     1      19.944 -16.841  24.921  1.00  0.00     0.001 C 
BRANCH   8   9
HETATM    9  C9  UNL     1      20.100 -17.772  26.094  1.00  0.00     0.012 C 
BRANCH   9  10
HETATM   10  C10 UNL     1      18.758 -18.073  26.747  1.00  0.00     0.094 C 
BRANCH  10  11
HETATM   11  C11 UNL     1      17.738 -18.361  25.741  1.00  0.00    -0.100 C 
BRANCH  11  12
HETATM   12  C12 UNL     1      16.883 -18.619  24.908  1.00  0.00    -0.049 C 
BRANCH  12  13
HETATM   13  C13 UNL     1      15.885 -18.912  23.915  1.00  0.00     0.090 A 
HETATM   14  C14 UNL     1      15.300 -20.158  23.837  1.00  0.00     0.070 A 
HETATM   15  C15 UNL     1      14.339 -20.492  22.905  1.00  0.00     0.059 A 
HETATM   16  C16 UNL     1      13.957 -19.515  22.014  1.00  0.00     0.104 A 
HETATM   17  N2  UNL     1      13.077 -19.476  20.998  1.00  0.00    -0.347 N 
HETATM   18  C27 UNL     1      14.539 -18.268  22.086  1.00  0.00     0.144 A 
HETATM   19  C17 UNL     1      13.121 -18.246  20.470  1.00  0.00     0.192 A 
ATOM     20  H2  UNL     1      12.484 -20.244  20.685  1.00  0.00     0.167 HD
HETATM   21  N3  UNL     1      14.012 -17.480  21.119  1.00  0.00    -0.279 N 
HETATM   22  N7  UNL     1      15.474 -18.001  23.021  1.00  0.00    -0.333 N 
ATOM     23  H7  UNL     1      15.885 -17.068  23.049  1.00  0.00     0.168 HD
BRANCH  15  24
HETATM   24  N1  UNL     1      13.805 -21.671  22.853  1.00  0.00    -0.397 N 
ATOM     25  H12 UNL     1      12.841 -21.788  22.541  1.00  0.00     0.156 HD
ATOM     26  H11 UNL     1      14.317 -22.512  23.118  1.00  0.00     0.156 HD
ENDBRANCH  15  24
BRANCH  21  27
HETATM   27  C18 UNL     1      14.382 -16.108  20.894  1.00  0.00     0.124 C 
HETATM   28  N4  UNL     1      15.617 -15.924  21.246  1.00  0.00    -0.242 N 
HETATM   29  O1  UNL     1      16.312 -14.741  21.172  1.00  0.00    -0.179 OA
ATOM     30  H4  UNL     1      16.119 -16.734  21.612  1.00  0.00     0.196 HD
HETATM   31  C19 UNL     1      15.757 -13.481  21.378  1.00  0.00     0.393 C 
HETATM   32  O2  UNL     1      16.503 -12.621  21.961  1.00  0.00    -0.236 OA
HETATM   33  N5  UNL     1      14.457 -13.038  21.015  1.00  0.00    -0.241 N 
HETATM   34  C23 UNL     1      13.325 -13.859  20.784  1.00  0.00     0.241 C 
HETATM   35  O4  UNL     1      12.179 -13.315  20.983  1.00  0.00    -0.272 OA
HETATM   36  C24 UNL     1      13.325 -15.269  20.343  1.00  0.00     0.148 C 
BRANCH  33  37
HETATM   37  C20 UNL     1      14.274 -11.623  20.863  1.00  0.00     0.228 C 
HETATM   38  C21 UNL     1      13.396 -11.130  21.931  1.00  0.00     0.087 C 
HETATM   39  N6  UNL     1      12.706 -10.713  22.791  1.00  0.00    -0.195 NA
BRANCH  37  40
HETATM   40  C22 UNL     1      13.625 -11.330  19.527  1.00  0.00     0.205 C 
BRANCH  40  41
HETATM   41  O3  UNL     1      12.589 -10.385  19.716  1.00  0.00    -0.398 OA
ATOM     42  H3  UNL     1      11.894 -10.787  20.224  1.00  0.00     0.209 HD
ENDBRANCH  40  41
ENDBRANCH  37  40
ENDBRANCH  33  37
BRANCH  36  43
HETATM   43  C25 UNL     1      13.184 -15.374  18.846  1.00  0.00     0.017 C 
HETATM   44  C26 UNL     1      14.422 -15.050  18.088  1.00  0.00     0.006 C 
ENDBRANCH  36  43
ENDBRANCH  21  27
ENDBRANCH  12  13
ENDBRANCH  11  12
ENDBRANCH  10  11
ENDBRANCH   9  10
ENDBRANCH   8   9
ENDBRANCH   7   8
ENDBRANCH   6   7
ENDBRANCH   5   6
ENDBRANCH   4   5
ENDBRANCH   3   4
TORSDOF 16
ENDMDL
MODEL 5
REMARK VINA RESULT: -7.081083504      1.535      2.066
REMARK  16 active torsions:
REMARK  status: ('A' for Active; 'I' for Inactive)
REMARK    1  A    between atoms: C3_3  and  C4_4 
REMARK    2  A    between atoms: C4_4  and  C5_5 
REMARK    3  A    between atoms: C5_5  and  C6_6 
REMARK    4  A    between atoms: C6_6  and  C7_7 
REMARK    5  A    between atoms: C7_7  and  C8_8 
REMARK    6  A    between atoms: C8_8  and  C9_9 
REMARK    7  A    between atoms: C9_9  and  C10_10 
REMARK    8  A    between atoms: C10_10  and  C11_11 
REMARK    9  A    between atoms: C11_11  and  C12_12 
REMARK   10  A    between atoms: C12_12  and  C13_13 
REMARK   11  A    between atoms: C15_15  and  N1_16 
REMARK   12  A    between atoms: N3_23  and  C18_24 
REMARK   13  A    between atoms: N5_30  and  C20_31 
REMARK   14  A    between atoms: C20_31  and  C22_34 
REMARK   15  A    between atoms: C22_34  and  O3_35 
REMARK   16  A    between atoms: C24_39  and  C25_40 
ROOT
HETATM    1  C1  UNL     1      19.999 -11.913  19.788  1.00  0.00     0.012 C 
HETATM    2  C2  UNL     1      20.033 -12.737  20.669  1.00  0.00    -0.117 C 
HETATM    3  C3  UNL     1      20.055 -13.734  21.736  1.00  0.00     0.093 C 
ENDROOT
BRANCH   3   4
HETATM    4  C4  UNL     1      18.644 -14.163  22.048  1.00  0.00     0.012 C 
BRANCH   4   5
HETATM    5  C5  UNL     1      18.549 -14.536  23.511  1.00  0.00     0.001 C 
BRANCH   5   6
HETATM    6  C6  UNL     1      19.905 -14.836  24.095  1.00  0.00     0.000 C 
BRANCH   6   7
HETATM    7  C7  UNL     1      20.145 -14.185  25.426  1.00  0.00     0.000 C 
BRANCH   7   8
HETATM    8  C8  UNL     1      20.294 -15.172  26.544  1.00  0.00     0.001 C 
BRANCH   8   9
HETATM    9  C9  UNL     1      18.984 -15.897  26.708  1.00  0.00     0.012 C 
BRANCH   9  10
HETATM   10  C10 UNL     1      19.159 -17.401  26.551  1.00  0.00     0.094 C 
BRANCH  10  11
HETATM   11  C11 UNL     1      18.103 -17.967  25.713  1.00  0.00    -0.100 C 
BRANCH  11  12
HETATM   12  C12 UNL     1      17.235 -18.447  25.002  1.00  0.00    -0.049 C 
BRANCH  12  13
HETATM   13  C13 UNL     1      16.201 -18.999  24.169  1.00  0.00     0.090 A 
HETATM   14  C14 UNL     1      15.771 -20.300  24.332  1.00  0.00     0.070 A 
HETATM   15  C15 UNL     1      14.783 -20.878  23.561  1.00  0.00     0.059 A 
HETATM   16  C16 UNL     1      14.209 -20.100  22.582  1.00  0.00     0.104 A 
HETATM   17  N2  UNL     1      13.248 -20.317  21.666  1.00  0.00    -0.347 N 
HETATM   18  C27 UNL     1      14.634 -18.800  22.414  1.00  0.00     0.144 A 
HETATM   19  C17 UNL     1      13.094 -19.186  20.965  1.00  0.00     0.192 A 
ATOM     20  H2  UNL     1      12.731 -21.185  21.530  1.00  0.00     0.167 HD
HETATM   21  N3  UNL     1      13.934 -18.235  21.403  1.00  0.00    -0.279 N 
HETATM   22  N7  UNL     1      15.605 -18.290  23.200  1.00  0.00    -0.333 N 
ATOM     23  H7  UNL     1      15.897 -17.324  23.051  1.00  0.00     0.168 HD
BRANCH  15  24
HETATM   24  N1  UNL     1      14.398 -22.103  23.734  1.00  0.00    -0.397 N 
ATOM     25  H12 UNL     1      13.686 -22.512  23.128  1.00  0.00     0.156 HD
ATOM     26  H11 UNL     1      14.784 -22.696  24.469  1.00  0.00     0.156 HD
ENDBRANCH  15  24
BRANCH  21  27
HETATM   27  C18 UNL     1      14.110 -16.882  20.947  1.00  0.00     0.124 C 
HETATM   28  N4  UNL     1      15.069 -16.316  21.612  1.00  0.00    -0.242 N 
HETATM   29  O1  UNL     1      15.517 -15.028  21.447  1.00  0.00    -0.179 OA
ATOM     30  H4  UNL     1      15.534 -16.881  22.323  1.00  0.00     0.196 HD
HETATM   31  C19 UNL     1      14.711 -13.944  21.116  1.00  0.00     0.393 C 
HETATM   32  O2  UNL     1      15.018 -12.823  21.651  1.00  0.00    -0.236 OA
HETATM   33  N5  UNL     1      13.584 -13.935  20.250  1.00  0.00    -0.241 N 
HETATM   34  C23 UNL     1      12.787 -15.054  19.900  1.00  0.00     0.241 C 
HETATM   35  O4  UNL     1      11.573 -14.802  19.566  1.00  0.00    -0.272 OA
HETATM   36  C24 UNL     1      13.204 -16.470  19.880  1.00  0.00     0.148 C 
BRANCH  33  37
HETATM   37  C20 UNL     1      13.221 -12.673  19.671  1.00  0.00     0.228 C 
HETATM   38  C21 UNL     1      14.359 -12.141  18.913  1.00  0.00     0.087 C 
HETATM   39  N6  UNL     1      15.258 -11.707  18.285  1.00  0.00    -0.195 NA
BRANCH  37  40
HETATM   40  C22 UNL     1      12.865 -11.690  20.766  1.00  0.00     0.205 C 
BRANCH  40  41
HETATM   41  O3  UNL     1      13.597 -10.495  20.567  1.00  0.00    -0.398 OA
ATOM     42  H3  UNL     1      14.231 -10.634  19.873  1.00  0.00     0.209 HD
ENDBRANCH  40  41
ENDBRANCH  37  40
ENDBRANCH  33  37
BRANCH  36  43
HETATM   43  C25 UNL     1      13.655 -16.889  18.505  1.00  0.00     0.017 C 
HETATM   44  C26 UNL     1      14.681 -16.001  17.897  1.00  0.00     0.006 C 
ENDBRANCH  36  43
ENDBRANCH  21  27
ENDBRANCH  12  13
ENDBRANCH  11  12
ENDBRANCH  10  11
ENDBRANCH   9  10
ENDBRANCH   8   9
ENDBRANCH   7   8
ENDBRANCH   6   7
ENDBRANCH   5   6
ENDBRANCH   4   5
ENDBRANCH   3   4
TORSDOF 16
ENDMDL
