MODEL 1
REMARK VINA RESULT: -9.735653586      0.000      0.000
REMARK  12 active torsions:
REMARK  status: ('A' for Active; 'I' for Inactive)
REMARK    1  A    between atoms: O1_2  and  C2_3 
REMARK    2  A    between atoms: C3_4  and  C4_5 
REMARK       I    between atoms: C4_5  and  N1_7 
REMARK    3  A    between atoms: N1_7  and  C5_9 
REMARK    4  A    between atoms: C12_17  and  C13_18 
REMARK    5  A    between atoms: C13_18  and  N2_19 
REMARK    6  A    between atoms: N2_19  and  O4_20 
REMARK    7  A    between atoms: N2_19  and  C14_22 
REMARK    8  A    between atoms: C18_27  and  C19_28 
REMARK       I    between atoms: C19_28  and  N3_30 
REMARK    9  A    between atoms: C20_32  and  C22_34 
REMARK   10  A    between atoms: C22_34  and  C23_36 
REMARK   11  A    between atoms: C23_36  and  N4_38 
REMARK       I    between atoms: N4_38  and  C25_40 
REMARK   12  A    between atoms: C25_40  and  C26_42 
ROOT
HETATM    1  C2  UNL     1      11.382  24.231   4.527  1.00  0.00     0.190 C 
HETATM    2  C3  UNL     1      12.493  23.876   5.436  1.00  0.00     0.245 C 
HETATM    3  O3  UNL     1      12.189  24.134   6.731  1.00  0.00    -0.362 OA
HETATM    4  C10 UNL     1      10.910  24.702   6.829  1.00  0.00     0.177 C 
HETATM    5  C11 UNL     1      10.897  25.807   7.810  1.00  0.00     0.012 C 
HETATM    6  C12 UNL     1       9.923  26.454   8.369  1.00  0.00    -0.057 C 
HETATM    7  C15 UNL     1       8.453  26.305   8.167  1.00  0.00     0.013 C 
HETATM    8  C16 UNL     1       7.893  24.965   8.490  1.00  0.00     0.015 C 
HETATM    9  C17 UNL     1       8.017  26.889   6.846  1.00  0.00     0.025 C 
HETATM   10  C18 UNL     1       7.291  25.977   5.925  1.00  0.00     0.102 C 
HETATM   11  C34 UNL     1       8.262  25.579   4.834  1.00  0.00     0.182 C 
HETATM   12  O9  UNL     1       9.118  24.589   5.213  1.00  0.00    -0.379 OA
HETATM   13  C35 UNL     1      10.437  25.018   5.460  1.00  0.00     0.186 C 
ENDROOT
BRANCH  10  14
HETATM   14  C19 UNL     1       6.098  26.673   5.296  1.00  0.00     0.228 C 
HETATM   15  O6  UNL     1       6.359  27.675   4.594  1.00  0.00    -0.273 OA
HETATM   16  N3  UNL     1       4.803  26.234   5.484  1.00  0.00    -0.327 N 
HETATM   17  C20 UNL     1       3.811  26.043   4.743  1.00  0.00     0.056 C 
ATOM     18  H3  UNL     1       4.606  26.013   6.460  1.00  0.00     0.168 HD
HETATM   19  C21 UNL     1       2.535  25.533   5.403  1.00  0.00     0.072 C 
BRANCH  17  20
HETATM   20  C22 UNL     1       3.701  26.239   3.312  1.00  0.00     0.193 C 
HETATM   21  O7  UNL     1       3.242  27.308   2.865  1.00  0.00    -0.289 OA
BRANCH  20  22
HETATM   22  C23 UNL     1       4.110  25.216   2.307  1.00  0.00     0.156 C 
HETATM   23  C24 UNL     1       5.552  25.297   1.923  1.00  0.00     0.041 C 
BRANCH  22  24
HETATM   24  N4  UNL     1       3.833  23.921   2.825  1.00  0.00    -0.349 N 
HETATM   25  C25 UNL     1       2.620  23.254   2.537  1.00  0.00     0.227 C 
HETATM   26  O8  UNL     1       1.770  23.818   1.809  1.00  0.00    -0.273 OA
ATOM     27  H4  UNL     1       4.525  23.462   3.418  1.00  0.00     0.163 HD
BRANCH  25  28
HETATM   28  C26 UNL     1       2.355  21.894   3.094  1.00  0.00     0.044 C 
HETATM   29  C27 UNL     1       0.885  21.728   3.424  1.00  0.00     0.020 C 
HETATM   30  C28 UNL     1       0.291  20.820   2.388  1.00  0.00     0.002 C 
HETATM   31  C29 UNL     1       1.358  20.672   1.327  1.00  0.00     0.006 C 
HETATM   32  C30 UNL     1       2.679  20.880   2.045  1.00  0.00     0.003 C 
HETATM   33  C31 UNL     1       2.940  19.620   2.846  1.00  0.00     0.006 C 
HETATM   34  C32 UNL     1       3.573  20.113   4.132  1.00  0.00     0.002 C 
HETATM   35  C33 UNL     1       3.244  21.569   4.248  1.00  0.00     0.020 C 
ENDBRANCH  25  28
ENDBRANCH  22  24
ENDBRANCH  20  22
ENDBRANCH  17  20
ENDBRANCH  10  14
BRANCH   6  36
HETATM   36  C13 UNL     1      10.329  27.548   9.351  1.00  0.00     0.193 C 
BRANCH  36  37
HETATM   37  N2  UNL     1       9.423  28.665   9.316  1.00  0.00    -0.232 N 
BRANCH  37  38
HETATM   38  O4  UNL     1       9.272  29.412   8.209  1.00  0.00    -0.285 OA
ATOM     39  H4  UNL     1       8.412  29.626   7.869  1.00  0.00     0.245 HD
ENDBRANCH  37  38
BRANCH  37  40
HETATM   40  C14 UNL     1       8.683  28.990  10.478  1.00  0.00     0.376 C 
HETATM   41  O5  UNL     1       9.224  29.371  11.542  1.00  0.00    -0.281 OA
ENDBRANCH  37  40
ENDBRANCH  36  37
ENDBRANCH   6  36
BRANCH   1  42
HETATM   42  O1  UNL     1      11.852  25.044   3.513  1.00  0.00    -0.385 OA
HETATM   43  C1  UNL     1      11.061  24.985   2.369  1.00  0.00     0.202 C 
ENDBRANCH   1  42
BRANCH   2  44
HETATM   44  C4  UNL     1      12.935  22.450   5.238  1.00  0.00     0.249 C 
HETATM   45  O2  UNL     1      12.207  21.495   5.595  1.00  0.00    -0.271 OA
HETATM   46  N1  UNL     1      14.187  22.147   4.643  1.00  0.00    -0.354 N 
ATOM     47  H1  UNL     1      14.773  22.930   4.355  1.00  0.00     0.162 HD
BRANCH  46  48
HETATM   48  C5  UNL     1      14.690  20.823   4.416  1.00  0.00     0.084 C 
HETATM   49  C6  UNL     1      16.061  20.593   4.952  1.00  0.00     0.025 C 
HETATM   50  C7  UNL     1      16.556  19.388   4.185  1.00  0.00     0.002 C 
HETATM   51  C8  UNL     1      15.599  19.202   3.013  1.00  0.00     0.002 C 
HETATM   52  C9  UNL     1      14.887  20.558   2.917  1.00  0.00     0.025 C 
ENDBRANCH  46  48
ENDBRANCH   2  44
TORSDOF 12
ENDMDL
MODEL 2
REMARK VINA RESULT: -9.561019552      4.439      9.507
REMARK  12 active torsions:
REMARK  status: ('A' for Active; 'I' for Inactive)
REMARK    1  A    between atoms: O1_2  and  C2_3 
REMARK    2  A    between atoms: C3_4  and  C4_5 
REMARK       I    between atoms: C4_5  and  N1_7 
REMARK    3  A    between atoms: N1_7  and  C5_9 
REMARK    4  A    between atoms: C12_17  and  C13_18 
REMARK    5  A    between atoms: C13_18  and  N2_19 
REMARK    6  A    between atoms: N2_19  and  O4_20 
REMARK    7  A    between atoms: N2_19  and  C14_22 
REMARK    8  A    between atoms: C18_27  and  C19_28 
REMARK       I    between atoms: C19_28  and  N3_30 
REMARK    9  A    between atoms: C20_32  and  C22_34 
REMARK   10  A    between atoms: C22_34  and  C23_36 
REMARK   11  A    between atoms: C23_36  and  N4_38 
REMARK       I    between atoms: N4_38  and  C25_40 
REMARK   12  A    between atoms: C25_40  and  C26_42 
ROOT
HETATM    1  C2  UNL     1      15.924  20.398   9.354  1.00  0.00     0.190 C 
HETATM    2  C3  UNL     1      17.236  19.797   9.031  1.00  0.00     0.245 C 
HETATM    3  O3  UNL     1      17.589  20.017   7.740  1.00  0.00    -0.362 OA
HETATM    4  C10 UNL     1      16.579  20.726   7.072  1.00  0.00     0.177 C 
HETATM    5  C11 UNL     1      16.367  20.187   5.712  1.00  0.00     0.012 C 
HETATM    6  C12 UNL     1      15.714  20.648   4.693  1.00  0.00    -0.057 C 
HETATM    7  C15 UNL     1      14.913  21.900   4.574  1.00  0.00     0.013 C 
HETATM    8  C16 UNL     1      15.660  23.165   4.806  1.00  0.00     0.015 C 
HETATM    9  C17 UNL     1      13.595  21.783   5.300  1.00  0.00     0.025 C 
HETATM   10  C18 UNL     1      13.316  22.811   6.335  1.00  0.00     0.102 C 
HETATM   11  C34 UNL     1      13.522  22.155   7.684  1.00  0.00     0.182 C 
HETATM   12  O9  UNL     1      14.833  22.079   8.049  1.00  0.00    -0.379 OA
HETATM   13  C35 UNL     1      15.393  20.790   7.959  1.00  0.00     0.186 C 
ENDROOT
BRANCH  10  14
HETATM   14  C19 UNL     1      11.884  23.305   6.240  1.00  0.00     0.228 C 
HETATM   15  O6  UNL     1      11.513  24.080   7.149  1.00  0.00    -0.273 OA
HETATM   16  N3  UNL     1      11.037  22.924   5.219  1.00  0.00    -0.327 N 
HETATM   17  C20 UNL     1      10.231  23.515   4.463  1.00  0.00     0.056 C 
ATOM     18  H3  UNL     1      11.076  21.921   5.037  1.00  0.00     0.168 HD
HETATM   19  C21 UNL     1       9.481  22.665   3.443  1.00  0.00     0.072 C 
BRANCH  17  20
HETATM   20  C22 UNL     1       9.905  24.924   4.416  1.00  0.00     0.193 C 
HETATM   21  O7  UNL     1      10.798  25.762   4.182  1.00  0.00    -0.289 OA
BRANCH  20  22
HETATM   22  C23 UNL     1       8.530  25.460   4.636  1.00  0.00     0.156 C 
HETATM   23  C24 UNL     1       7.449  24.548   4.156  1.00  0.00     0.041 C 
BRANCH  22  24
HETATM   24  N4  UNL     1       8.350  25.713   6.025  1.00  0.00    -0.349 N 
HETATM   25  C25 UNL     1       8.446  27.020   6.555  1.00  0.00     0.227 C 
HETATM   26  O8  UNL     1       8.697  27.976   5.785  1.00  0.00    -0.273 OA
ATOM     27  H4  UNL     1       8.146  24.935   6.652  1.00  0.00     0.163 HD
BRANCH  25  28
HETATM   28  C26 UNL     1       8.252  27.258   8.017  1.00  0.00     0.044 C 
HETATM   29  C27 UNL     1       8.410  25.966   8.794  1.00  0.00     0.020 C 
HETATM   30  C28 UNL     1       9.724  26.033   9.516  1.00  0.00     0.002 C 
HETATM   31  C29 UNL     1      10.428  27.247   8.953  1.00  0.00     0.006 C 
HETATM   32  C30 UNL     1       9.325  28.182   8.495  1.00  0.00     0.003 C 
HETATM   33  C31 UNL     1       8.727  28.794   9.747  1.00  0.00     0.006 C 
HETATM   34  C32 UNL     1       7.243  28.888   9.450  1.00  0.00     0.002 C 
HETATM   35  C33 UNL     1       6.966  27.953   8.314  1.00  0.00     0.020 C 
ENDBRANCH  25  28
ENDBRANCH  22  24
ENDBRANCH  20  22
ENDBRANCH  17  20
ENDBRANCH  10  14
BRANCH   6  36
HETATM   36  C13 UNL     1      15.735  19.777   3.441  1.00  0.00     0.193 C 
BRANCH  36  37
HETATM   37  N2  UNL     1      16.309  18.483   3.697  1.00  0.00    -0.232 N 
BRANCH  37  38
HETATM   38  O4  UNL     1      15.624  17.528   4.350  1.00  0.00    -0.285 OA
ATOM     39  H4  UNL     1      14.683  17.441   4.257  1.00  0.00     0.245 HD
ENDBRANCH  37  38
BRANCH  37  40
HETATM   40  C14 UNL     1      17.628  18.213   3.260  1.00  0.00     0.376 C 
HETATM   41  O5  UNL     1      18.105  18.696   2.208  1.00  0.00    -0.281 OA
ENDBRANCH  37  40
ENDBRANCH  36  37
ENDBRANCH   6  36
BRANCH   1  42
HETATM   42  O1  UNL     1      15.107  19.446   9.934  1.00  0.00    -0.385 OA
HETATM   43  C1  UNL     1      15.807  18.311  10.333  1.00  0.00     0.202 C 
ENDBRANCH   1  42
BRANCH   2  44
HETATM   44  C4  UNL     1      18.305  20.254   9.988  1.00  0.00     0.249 C 
HETATM   45  O2  UNL     1      18.827  21.387   9.876  1.00  0.00    -0.271 OA
HETATM   46  N1  UNL     1      18.749  19.417  11.044  1.00  0.00    -0.354 N 
ATOM     47  H1  UNL     1      18.317  18.497  11.129  1.00  0.00     0.162 HD
BRANCH  46  48
HETATM   48  C5  UNL     1      19.758  19.766  12.001  1.00  0.00     0.084 C 
HETATM   49  C6  UNL     1      20.955  18.880  11.974  1.00  0.00     0.025 C 
HETATM   50  C7  UNL     1      21.600  19.095  13.324  1.00  0.00     0.002 C 
HETATM   51  C8  UNL     1      20.567  19.814  14.184  1.00  0.00     0.002 C 
HETATM   52  C9  UNL     1      19.250  19.569  13.435  1.00  0.00     0.025 C 
ENDBRANCH  46  48
ENDBRANCH   2  44
TORSDOF 12
ENDMDL
MODEL 3
REMARK VINA RESULT: -9.530702883      4.228      8.374
REMARK  12 active torsions:
REMARK  status: ('A' for Active; 'I' for Inactive)
REMARK    1  A    between atoms: O1_2  and  C2_3 
REMARK    2  A    between atoms: C3_4  and  C4_5 
REMARK       I    between atoms: C4_5  and  N1_7 
REMARK    3  A    between atoms: N1_7  and  C5_9 
REMARK    4  A    between atoms: C12_17  and  C13_18 
REMARK    5  A    between atoms: C13_18  and  N2_19 
REMARK    6  A    between atoms: N2_19  and  O4_20 
REMARK    7  A    between atoms: N2_19  and  C14_22 
REMARK    8  A    between atoms: C18_27  and  C19_28 
REMARK       I    between atoms: C19_28  and  N3_30 
REMARK    9  A    between atoms: C20_32  and  C22_34 
REMARK   10  A    between atoms: C22_34  and  C23_36 
REMARK   11  A    between atoms: C23_36  and  N4_38 
REMARK       I    between atoms: N4_38  and  C25_40 
REMARK   12  A    between atoms: C25_40  and  C26_42 
ROOT
HETATM    1  C2  UNL     1      15.495  21.307   9.346  1.00  0.00     0.190 C 
HETATM    2  C3  UNL     1      16.478  20.262   8.985  1.00  0.00     0.245 C 
HETATM    3  O3  UNL     1      16.672  20.191   7.646  1.00  0.00    -0.362 OA
HETATM    4  C10 UNL     1      15.849  21.114   6.983  1.00  0.00     0.177 C 
HETATM    5  C11 UNL     1      15.261  20.518   5.764  1.00  0.00     0.012 C 
HETATM    6  C12 UNL     1      14.636  21.046   4.761  1.00  0.00    -0.057 C 
HETATM    7  C15 UNL     1      14.269  22.471   4.522  1.00  0.00     0.013 C 
HETATM    8  C16 UNL     1      15.408  23.426   4.455  1.00  0.00     0.015 C 
HETATM    9  C17 UNL     1      13.116  22.897   5.398  1.00  0.00     0.025 C 
HETATM   10  C18 UNL     1      13.348  24.077   6.270  1.00  0.00     0.102 C 
HETATM   11  C34 UNL     1      13.546  23.559   7.679  1.00  0.00     0.182 C 
HETATM   12  O9  UNL     1      14.805  23.087   7.905  1.00  0.00    -0.379 OA
HETATM   13  C35 UNL     1      14.902  21.683   7.971  1.00  0.00     0.186 C 
ENDROOT
BRANCH  10  14
HETATM   14  C19 UNL     1      12.153  25.012   6.252  1.00  0.00     0.228 C 
HETATM   15  O6  UNL     1      11.498  25.039   5.187  1.00  0.00    -0.273 OA
HETATM   16  N3  UNL     1      11.807  25.791   7.338  1.00  0.00    -0.327 N 
HETATM   17  C20 UNL     1      10.740  26.061   7.936  1.00  0.00     0.056 C 
ATOM     18  H3  UNL     1      12.614  26.258   7.752  1.00  0.00     0.168 HD
HETATM   19  C21 UNL     1      10.830  27.003   9.132  1.00  0.00     0.072 C 
BRANCH  17  20
HETATM   20  C22 UNL     1       9.400  25.593   7.649  1.00  0.00     0.193 C 
HETATM   21  O7  UNL     1       8.942  24.606   8.258  1.00  0.00    -0.289 OA
BRANCH  20  22
HETATM   22  C23 UNL     1       8.504  26.229   6.640  1.00  0.00     0.156 C 
HETATM   23  C24 UNL     1       8.698  27.704   6.513  1.00  0.00     0.041 C 
BRANCH  22  24
HETATM   24  N4  UNL     1       8.721  25.614   5.376  1.00  0.00    -0.349 N 
HETATM   25  C25 UNL     1       7.686  25.512   4.417  1.00  0.00     0.227 C 
HETATM   26  O8  UNL     1       6.553  25.973   4.688  1.00  0.00    -0.273 OA
ATOM     27  H4  UNL     1       9.643  25.239   5.155  1.00  0.00     0.163 HD
BRANCH  25  28
HETATM   28  C26 UNL     1       7.943  24.863   3.096  1.00  0.00     0.044 C 
HETATM   29  C27 UNL     1       6.726  24.977   2.200  1.00  0.00     0.020 C 
HETATM   30  C28 UNL     1       7.040  25.995   1.142  1.00  0.00     0.002 C 
HETATM   31  C29 UNL     1       8.333  26.643   1.583  1.00  0.00     0.006 C 
HETATM   32  C30 UNL     1       9.052  25.596   2.414  1.00  0.00     0.003 C 
HETATM   33  C31 UNL     1       9.600  24.572   1.440  1.00  0.00     0.006 C 
HETATM   34  C32 UNL     1       9.433  23.244   2.154  1.00  0.00     0.002 C 
HETATM   35  C33 UNL     1       8.423  23.457   3.238  1.00  0.00     0.020 C 
ENDBRANCH  25  28
ENDBRANCH  22  24
ENDBRANCH  20  22
ENDBRANCH  17  20
ENDBRANCH  10  14
BRANCH   6  36
HETATM   36  C13 UNL     1      14.179  20.074   3.677  1.00  0.00     0.193 C 
BRANCH  36  37
HETATM   37  N2  UNL     1      15.111  18.993   3.497  1.00  0.00    -0.232 N 
BRANCH  37  38
HETATM   38  O4  UNL     1      14.987  17.839   4.175  1.00  0.00    -0.285 OA
ATOM     39  H4  UNL     1      15.727  17.444   4.621  1.00  0.00     0.245 HD
ENDBRANCH  37  38
BRANCH  37  40
HETATM   40  C14 UNL     1      16.189  19.153   2.594  1.00  0.00     0.376 C 
HETATM   41  O5  UNL     1      17.386  19.151   2.960  1.00  0.00    -0.281 OA
ENDBRANCH  37  40
ENDBRANCH  36  37
ENDBRANCH   6  36
BRANCH   1  42
HETATM   42  O1  UNL     1      14.520  20.767  10.164  1.00  0.00    -0.385 OA
HETATM   43  C1  UNL     1      13.868  21.730  10.928  1.00  0.00     0.202 C 
ENDBRANCH   1  42
BRANCH   2  44
HETATM   44  C4  UNL     1      17.774  20.442   9.730  1.00  0.00     0.249 C 
HETATM   45  O2  UNL     1      18.576  21.351   9.415  1.00  0.00    -0.271 OA
HETATM   46  N1  UNL     1      18.124  19.590  10.808  1.00  0.00    -0.354 N 
ATOM     47  H1  UNL     1      17.465  18.853  11.059  1.00  0.00     0.162 HD
BRANCH  46  48
HETATM   48  C5  UNL     1      19.334  19.685  11.573  1.00  0.00     0.084 C 
HETATM   49  C6  UNL     1      20.242  18.514  11.424  1.00  0.00     0.025 C 
HETATM   50  C7  UNL     1      21.136  18.586  12.640  1.00  0.00     0.002 C 
HETATM   51  C8  UNL     1      20.479  19.574  13.598  1.00  0.00     0.002 C 
HETATM   52  C9  UNL     1      19.037  19.666  13.078  1.00  0.00     0.025 C 
ENDBRANCH  46  48
ENDBRANCH   2  44
TORSDOF 12
ENDMDL
MODEL 4
REMARK VINA RESULT: -9.530153590      3.550     11.271
REMARK  12 active torsions:
REMARK  status: ('A' for Active; 'I' for Inactive)
REMARK    1  A    between atoms: O1_2  and  C2_3 
REMARK    2  A    between atoms: C3_4  and  C4_5 
REMARK       I    between atoms: C4_5  and  N1_7 
REMARK    3  A    between atoms: N1_7  and  C5_9 
REMARK    4  A    between atoms: C12_17  and  C13_18 
REMARK    5  A    between atoms: C13_18  and  N2_19 
REMARK    6  A    between atoms: N2_19  and  O4_20 
REMARK    7  A    between atoms: N2_19  and  C14_22 
REMARK    8  A    between atoms: C18_27  and  C19_28 
REMARK       I    between atoms: C19_28  and  N3_30 
REMARK    9  A    between atoms: C20_32  and  C22_34 
REMARK   10  A    between atoms: C22_34  and  C23_36 
REMARK   11  A    between atoms: C23_36  and  N4_38 
REMARK       I    between atoms: N4_38  and  C25_40 
REMARK   12  A    between atoms: C25_40  and  C26_42 
ROOT
HETATM    1  C2  UNL     1       7.613  27.984   7.344  1.00  0.00     0.190 C 
HETATM    2  C3  UNL     1       6.505  28.510   6.518  1.00  0.00     0.245 C 
HETATM    3  O3  UNL     1       6.389  27.844   5.343  1.00  0.00    -0.362 OA
HETATM    4  C10 UNL     1       7.387  26.865   5.236  1.00  0.00     0.177 C 
HETATM    5  C11 UNL     1       7.953  26.832   3.871  1.00  0.00     0.012 C 
HETATM    6  C12 UNL     1       8.716  25.973   3.273  1.00  0.00    -0.057 C 
HETATM    7  C15 UNL     1       9.316  24.715   3.802  1.00  0.00     0.013 C 
HETATM    8  C16 UNL     1       8.347  23.690   4.272  1.00  0.00     0.015 C 
HETATM    9  C17 UNL     1      10.462  25.004   4.741  1.00  0.00     0.025 C 
HETATM   10  C18 UNL     1      10.361  24.426   6.106  1.00  0.00     0.102 C 
HETATM   11  C34 UNL     1       9.994  25.557   7.043  1.00  0.00     0.182 C 
HETATM   12  O9  UNL     1       8.665  25.859   7.024  1.00  0.00    -0.379 OA
HETATM   13  C35 UNL     1       8.346  27.056   6.352  1.00  0.00     0.186 C 
ENDROOT
BRANCH  10  14
HETATM   14  C19 UNL     1      11.686  23.831   6.545  1.00  0.00     0.228 C 
HETATM   15  O6  UNL     1      11.677  23.233   7.643  1.00  0.00    -0.273 OA
HETATM   16  N3  UNL     1      12.835  23.943   5.787  1.00  0.00    -0.327 N 
HETATM   17  C20 UNL     1      13.746  23.161   5.432  1.00  0.00     0.056 C 
ATOM     18  H3  UNL     1      12.974  24.890   5.432  1.00  0.00     0.168 HD
HETATM   19  C21 UNL     1      14.860  23.738   4.564  1.00  0.00     0.072 C 
BRANCH  17  20
HETATM   20  C22 UNL     1      13.896  21.753   5.731  1.00  0.00     0.193 C 
HETATM   21  O7  UNL     1      12.938  20.975   5.558  1.00  0.00    -0.289 OA
BRANCH  20  22
HETATM   22  C23 UNL     1      15.158  21.151   6.252  1.00  0.00     0.156 C 
HETATM   23  C24 UNL     1      15.134  20.891   7.723  1.00  0.00     0.041 C 
BRANCH  22  24
HETATM   24  N4  UNL     1      15.408  19.932   5.562  1.00  0.00    -0.349 N 
HETATM   25  C25 UNL     1      16.711  19.573   5.146  1.00  0.00     0.227 C 
HETATM   26  O8  UNL     1      17.666  20.346   5.390  1.00  0.00    -0.273 OA
ATOM     27  H4  UNL     1      14.630  19.303   5.363  1.00  0.00     0.163 HD
BRANCH  25  28
HETATM   28  C26 UNL     1      16.945  18.286   4.424  1.00  0.00     0.044 C 
HETATM   29  C27 UNL     1      15.651  17.763   3.831  1.00  0.00     0.020 C 
HETATM   30  C28 UNL     1      15.719  17.975   2.347  1.00  0.00     0.002 C 
HETATM   31  C29 UNL     1      16.934  18.845   2.122  1.00  0.00     0.006 C 
HETATM   32  C30 UNL     1      17.870  18.546   3.279  1.00  0.00     0.003 C 
HETATM   33  C31 UNL     1      18.478  17.185   3.006  1.00  0.00     0.006 C 
HETATM   34  C32 UNL     1      18.571  16.531   4.370  1.00  0.00     0.002 C 
HETATM   35  C33 UNL     1      17.638  17.275   5.274  1.00  0.00     0.020 C 
ENDBRANCH  25  28
ENDBRANCH  22  24
ENDBRANCH  20  22
ENDBRANCH  17  20
ENDBRANCH  10  14
BRANCH   6  36
HETATM   36  C13 UNL     1       9.085  26.305   1.830  1.00  0.00     0.193 C 
BRANCH  36  37
HETATM   37  N2  UNL     1       7.925  26.388   0.984  1.00  0.00    -0.232 N 
BRANCH  37  38
HETATM   38  O4  UNL     1       7.906  27.174  -0.106  1.00  0.00    -0.285 OA
ATOM     39  H4  UNL     1       7.089  27.461  -0.497  1.00  0.00     0.245 HD
ENDBRANCH  37  38
BRANCH  37  40
HETATM   40  C14 UNL     1       6.773  25.634   1.315  1.00  0.00     0.376 C 
HETATM   41  O5  UNL     1       5.615  26.106   1.260  1.00  0.00    -0.281 OA
ENDBRANCH  37  40
ENDBRANCH  36  37
ENDBRANCH   6  36
BRANCH   1  42
HETATM   42  O1  UNL     1       8.436  29.023   7.734  1.00  0.00    -0.385 OA
HETATM   43  C1  UNL     1       8.808  28.938   9.073  1.00  0.00     0.202 C 
ENDBRANCH   1  42
BRANCH   2  44
HETATM   44  C4  UNL     1       5.207  28.528   7.281  1.00  0.00     0.249 C 
HETATM   45  O2  UNL     1       5.027  29.329   8.227  1.00  0.00    -0.271 OA
HETATM   46  N1  UNL     1       4.151  27.640   6.950  1.00  0.00    -0.354 N 
ATOM     47  H1  UNL     1       4.304  26.992   6.178  1.00  0.00     0.162 HD
BRANCH  46  48
HETATM   48  C5  UNL     1       2.883  27.584   7.619  1.00  0.00     0.084 C 
HETATM   49  C6  UNL     1       2.138  26.312   7.407  1.00  0.00     0.025 C 
HETATM   50  C7  UNL     1       0.708  26.665   7.743  1.00  0.00     0.002 C 
HETATM   51  C8  UNL     1       0.640  28.188   7.789  1.00  0.00     0.002 C 
HETATM   52  C9  UNL     1       1.910  28.621   7.043  1.00  0.00     0.025 C 
ENDBRANCH  46  48
ENDBRANCH   2  44
TORSDOF 12
ENDMDL
MODEL 5
REMARK VINA RESULT: -9.402518194      1.402      2.119
REMARK  12 active torsions:
REMARK  status: ('A' for Active; 'I' for Inactive)
REMARK    1  A    between atoms: O1_2  and  C2_3 
REMARK    2  A    between atoms: C3_4  and  C4_5 
REMARK       I    between atoms: C4_5  and  N1_7 
REMARK    3  A    between atoms: N1_7  and  C5_9 
REMARK    4  A    between atoms: C12_17  and  C13_18 
REMARK    5  A    between atoms: C13_18  and  N2_19 
REMARK    6  A    between atoms: N2_19  and  O4_20 
REMARK    7  A    between atoms: N2_19  and  C14_22 
REMARK    8  A    between atoms: C18_27  and  C19_28 
REMARK       I    between atoms: C19_28  and  N3_30 
REMARK    9  A    between atoms: C20_32  and  C22_34 
REMARK   10  A    between atoms: C22_34  and  C23_36 
REMARK   11  A    between atoms: C23_36  and  N4_38 
REMARK       I    between atoms: N4_38  and  C25_40 
REMARK   12  A    between atoms: C25_40  and  C26_42 
ROOT
HETATM    1  C2  UNL     1      11.151  24.319   4.388  1.00  0.00     0.190 C 
HETATM    2  C3  UNL     1      12.324  23.955   5.212  1.00  0.00     0.245 C 
HETATM    3  O3  UNL     1      12.103  24.172   6.531  1.00  0.00    -0.362 OA
HETATM    4  C10 UNL     1      10.826  24.719   6.728  1.00  0.00     0.177 C 
HETATM    5  C11 UNL     1      10.863  25.797   7.739  1.00  0.00     0.012 C 
HETATM    6  C12 UNL     1       9.920  26.414   8.378  1.00  0.00    -0.057 C 
HETATM    7  C15 UNL     1       8.442  26.249   8.268  1.00  0.00     0.013 C 
HETATM    8  C16 UNL     1       7.921  24.894   8.589  1.00  0.00     0.015 C 
HETATM    9  C17 UNL     1       7.913  26.864   6.996  1.00  0.00     0.025 C 
HETATM   10  C18 UNL     1       7.139  25.967   6.099  1.00  0.00     0.102 C 
HETATM   11  C34 UNL     1       8.042  25.613   4.936  1.00  0.00     0.182 C 
HETATM   12  O9  UNL     1       8.934  24.625   5.230  1.00  0.00    -0.379 OA
HETATM   13  C35 UNL     1      10.260  25.066   5.403  1.00  0.00     0.186 C 
ENDROOT
BRANCH  10  14
HETATM   14  C19 UNL     1       5.899  26.662   5.569  1.00  0.00     0.228 C 
HETATM   15  O6  UNL     1       5.506  26.291   4.441  1.00  0.00    -0.273 OA
HETATM   16  N3  UNL     1       5.243  27.647   6.279  1.00  0.00    -0.327 N 
HETATM   17  C20 UNL     1       4.047  27.902   6.551  1.00  0.00     0.056 C 
ATOM     18  H3  UNL     1       5.886  28.331   6.679  1.00  0.00     0.168 HD
HETATM   19  C21 UNL     1       3.773  29.141   7.398  1.00  0.00     0.072 C 
BRANCH  17  20
HETATM   20  C22 UNL     1       2.858  27.170   6.168  1.00  0.00     0.193 C 
HETATM   21  O7  UNL     1       2.313  26.400   6.982  1.00  0.00    -0.289 OA
BRANCH  20  22
HETATM   22  C23 UNL     1       2.223  27.276   4.823  1.00  0.00     0.156 C 
HETATM   23  C24 UNL     1       2.364  28.626   4.198  1.00  0.00     0.041 C 
BRANCH  22  24
HETATM   24  N4  UNL     1       2.795  26.298   3.962  1.00  0.00    -0.349 N 
HETATM   25  C25 UNL     1       2.171  25.047   3.749  1.00  0.00     0.227 C 
HETATM   26  O8  UNL     1       1.091  24.795   4.331  1.00  0.00    -0.273 OA
ATOM     27  H4  UNL     1       3.674  26.503   3.489  1.00  0.00     0.163 HD
BRANCH  25  28
HETATM   28  C26 UNL     1       2.793  24.039   2.839  1.00  0.00     0.044 C 
HETATM   29  C27 UNL     1       3.775  23.169   3.599  1.00  0.00     0.020 C 
HETATM   30  C28 UNL     1       3.143  21.818   3.767  1.00  0.00     0.002 C 
HETATM   31  C29 UNL     1       1.706  21.992   3.330  1.00  0.00     0.006 C 
HETATM   32  C30 UNL     1       1.719  23.133   2.329  1.00  0.00     0.003 C 
HETATM   33  C31 UNL     1       2.310  22.579   1.047  1.00  0.00     0.006 C 
HETATM   34  C32 UNL     1       3.146  23.716   0.494  1.00  0.00     0.002 C 
HETATM   35  C33 UNL     1       3.397  24.663   1.626  1.00  0.00     0.020 C 
ENDBRANCH  25  28
ENDBRANCH  22  24
ENDBRANCH  20  22
ENDBRANCH  17  20
ENDBRANCH  10  14
BRANCH   6  36
HETATM   36  C13 UNL     1      10.376  27.487   9.363  1.00  0.00     0.193 C 
BRANCH  36  37
HETATM   37  N2  UNL     1       9.512  28.636   9.343  1.00  0.00    -0.232 N 
BRANCH  37  38
HETATM   38  O4  UNL     1       9.412  29.421   8.257  1.00  0.00    -0.285 OA
ATOM     39  H4  UNL     1       9.677  30.333   8.278  1.00  0.00     0.245 HD
ENDBRANCH  37  38
BRANCH  37  40
HETATM   40  C14 UNL     1       8.758  28.953  10.499  1.00  0.00     0.376 C 
HETATM   41  O5  UNL     1       9.286  29.333  11.569  1.00  0.00    -0.281 OA
ENDBRANCH  37  40
ENDBRANCH  36  37
ENDBRANCH   6  36
BRANCH   1  42
HETATM   42  O1  UNL     1      11.543  25.166   3.369  1.00  0.00    -0.385 OA
HETATM   43  C1  UNL     1      10.809  24.976   2.202  1.00  0.00     0.202 C 
ENDBRANCH   1  42
BRANCH   2  44
HETATM   44  C4  UNL     1      12.770  22.541   4.946  1.00  0.00     0.249 C 
HETATM   45  O2  UNL     1      11.945  21.599   4.926  1.00  0.00    -0.271 OA
HETATM   46  N1  UNL     1      14.135  22.236   4.708  1.00  0.00    -0.354 N 
ATOM     47  H1  UNL     1      14.801  23.009   4.725  1.00  0.00     0.162 HD
BRANCH  46  48
HETATM   48  C5  UNL     1      14.651  20.924   4.447  1.00  0.00     0.084 C 
HETATM   49  C6  UNL     1      16.043  20.709   4.932  1.00  0.00     0.025 C 
HETATM   50  C7  UNL     1      16.530  19.522   4.134  1.00  0.00     0.002 C 
HETATM   51  C8  UNL     1      15.536  19.334   2.994  1.00  0.00     0.002 C 
HETATM   52  C9  UNL     1      14.800  20.680   2.940  1.00  0.00     0.025 C 
ENDBRANCH  46  48
ENDBRANCH   2  44
TORSDOF 12
ENDMDL
