MODEL 1
REMARK VINA RESULT: -8.135155300      0.000      0.000
REMARK  8 active torsions:
REMARK  status: ('A' for Active; 'I' for Inactive)
REMARK    1  A    between atoms: C2_2  and  C3_3 
REMARK    2  A    between atoms: C2_2  and  C12_21 
REMARK       I    between atoms: C3_3  and  N1_5 
REMARK    3  A    between atoms: N1_5  and  C4_7 
REMARK    4  A    between atoms: C4_7  and  C5_8 
REMARK    5  A    between atoms: C8_11  and  C9_12 
REMARK    6  A    between atoms: C9_12  and  N2_13 
REMARK    7  A    between atoms: N2_13  and  N3_15 
REMARK    8  A    between atoms: N3_15  and  N4_16 
ROOT
HETATM    1  C1  UNL     1      -1.393   3.525  26.406  1.00  0.00     0.022 C 
HETATM    2  C2  UNL     1      -2.690   4.260  26.737  1.00  0.00     0.096 C 
ENDROOT
BRANCH   2   3
HETATM    3  C3  UNL     1      -3.484   4.244  25.502  1.00  0.00     0.223 C 
HETATM    4  O1  UNL     1      -4.718   4.096  25.537  1.00  0.00    -0.273 OA
HETATM    5  N1  UNL     1      -2.834   4.401  24.255  1.00  0.00    -0.360 N 
ATOM      6  H1  UNL     1      -1.822   4.523  24.228  1.00  0.00     0.162 HD
BRANCH   5   7
HETATM    7  C4  UNL     1      -3.586   4.392  23.021  1.00  0.00     0.127 C 
BRANCH   7   8
HETATM    8  C5  UNL     1      -3.232   5.576  22.149  1.00  0.00     0.003 C 
HETATM    9  C6  UNL     1      -2.082   5.192  21.259  1.00  0.00     0.007 C 
HETATM   10  C7  UNL     1      -1.655   6.461  20.523  1.00  0.00     0.007 C 
HETATM   11  C8  UNL     1      -2.747   6.995  19.664  1.00  0.00     0.006 C 
HETATM   12  C10 UNL     1      -4.085   6.354  19.913  1.00  0.00     0.007 C 
HETATM   13  C11 UNL     1      -4.376   6.068  21.339  1.00  0.00     0.007 C 
BRANCH  11  14
HETATM   14  C9  UNL     1      -2.884   8.510  19.785  1.00  0.00     0.160 C 
BRANCH  14  15
HETATM   15  N2  UNL     1      -1.792   9.169  19.093  1.00  0.00    -0.252 N 
ATOM     16  H2  UNL     1      -1.642   8.963  18.106  1.00  0.00     0.196 HD
BRANCH  15  17
HETATM   17  N3  UNL     1      -1.039   9.967  19.653  1.00  0.00    -0.249 NA
BRANCH  17  18
HETATM   18  N4  UNL     1      -0.243  10.837  19.959  1.00  0.00    -0.261 N 
ATOM     19  H42 UNL     1       0.499  10.146  20.072  1.00  0.00     0.193 HD
ATOM     20  H41 UNL     1       0.250  11.701  20.185  1.00  0.00     0.193 HD
ENDBRANCH  17  18
ENDBRANCH  15  17
ENDBRANCH  14  15
ENDBRANCH  11  14
ENDBRANCH   7   8
ENDBRANCH   5   7
ENDBRANCH   2   3
BRANCH   2  21
HETATM   21  C12 UNL     1      -2.378   5.596  27.308  1.00  0.00     0.098 C 
HETATM   22  C13 UNL     1      -3.518   6.326  27.904  1.00  0.00     0.026 C 
HETATM   23  C14 UNL     1      -4.054   5.561  29.096  1.00  0.00     0.009 C 
HETATM   24  C15 UNL     1      -4.171   6.455  30.281  1.00  0.00     0.094 C 
HETATM   25  C16 UNL     1      -2.863   6.854  30.912  1.00  0.00     0.251 C 
HETATM   26  N5  UNL     1      -1.790   5.936  30.708  1.00  0.00    -0.288 N 
HETATM   27  O3  UNL     1      -3.128   6.978  32.291  1.00  0.00    -0.338 OA
HETATM   28  O4  UNL     1      -2.568   8.142  30.459  1.00  0.00    -0.338 OA
HETATM   29  C17 UNL     1      -1.031   5.482  29.615  1.00  0.00     0.320 C 
ATOM     30  H5  UNL     1      -1.498   5.496  31.581  1.00  0.00     0.169 HD
HETATM   31  O2  UNL     1       0.080   5.038  29.938  1.00  0.00    -0.247 OA
HETATM   32  N6  UNL     1      -1.263   5.422  28.226  1.00  0.00    -0.338 N 
ATOM     33  H6  UNL     1      -0.407   5.192  27.722  1.00  0.00     0.164 HD
HETATM   34  C18 UNL     1      -2.046   7.427  33.002  1.00  0.00     0.175 C 
HETATM   35  C19 UNL     1      -1.305   8.561  32.378  1.00  0.00     0.053 C 
HETATM   36  C20 UNL     1      -1.314   8.565  30.885  1.00  0.00     0.175 C 
ENDBRANCH   2  21
TORSDOF 8
ENDMDL
MODEL 2
REMARK VINA RESULT: -8.072227431      1.066      1.111
REMARK  8 active torsions:
REMARK  status: ('A' for Active; 'I' for Inactive)
REMARK    1  A    between atoms: C2_2  and  C3_3 
REMARK    2  A    between atoms: C2_2  and  C12_21 
REMARK       I    between atoms: C3_3  and  N1_5 
REMARK    3  A    between atoms: N1_5  and  C4_7 
REMARK    4  A    between atoms: C4_7  and  C5_8 
REMARK    5  A    between atoms: C8_11  and  C9_12 
REMARK    6  A    between atoms: C9_12  and  N2_13 
REMARK    7  A    between atoms: N2_13  and  N3_15 
REMARK    8  A    between atoms: N3_15  and  N4_16 
ROOT
HETATM    1  C1  UNL     1      -2.045   2.441  26.745  1.00  0.00     0.022 C 
HETATM    2  C2  UNL     1      -2.719   3.662  26.123  1.00  0.00     0.096 C 
ENDROOT
BRANCH   2   3
HETATM    3  C3  UNL     1      -2.621   3.476  24.670  1.00  0.00     0.223 C 
HETATM    4  O1  UNL     1      -3.083   2.461  24.123  1.00  0.00    -0.273 OA
HETATM    5  N1  UNL     1      -1.992   4.471  23.884  1.00  0.00    -0.360 N 
ATOM      6  H1  UNL     1      -1.614   5.304  24.334  1.00  0.00     0.162 HD
BRANCH   5   7
HETATM    7  C4  UNL     1      -1.881   4.320  22.450  1.00  0.00     0.127 C 
BRANCH   7   8
HETATM    8  C5  UNL     1      -2.163   5.622  21.734  1.00  0.00     0.003 C 
HETATM    9  C6  UNL     1      -1.478   5.594  20.396  1.00  0.00     0.007 C 
HETATM   10  C7  UNL     1      -1.651   6.985  19.787  1.00  0.00     0.007 C 
HETATM   11  C8  UNL     1      -3.085   7.315  19.565  1.00  0.00     0.006 C 
HETATM   12  C10 UNL     1      -4.039   6.359  20.227  1.00  0.00     0.007 C 
HETATM   13  C11 UNL     1      -3.614   5.895  21.570  1.00  0.00     0.007 C 
BRANCH  11  14
HETATM   14  C9  UNL     1      -3.420   8.740  19.997  1.00  0.00     0.160 C 
BRANCH  14  15
HETATM   15  N2  UNL     1      -2.738   9.696  19.145  1.00  0.00    -0.252 N 
ATOM     16  H2  UNL     1      -3.059   9.811  18.184  1.00  0.00     0.196 HD
BRANCH  15  17
HETATM   17  N3  UNL     1      -1.787  10.373  19.538  1.00  0.00    -0.249 NA
BRANCH  17  18
HETATM   18  N4  UNL     1      -0.720  10.808  19.934  1.00  0.00    -0.261 N 
ATOM     19  H42 UNL     1      -1.012  11.764  19.732  1.00  0.00     0.193 HD
ATOM     20  H41 UNL     1       0.220  10.957  20.302  1.00  0.00     0.193 HD
ENDBRANCH  17  18
ENDBRANCH  15  17
ENDBRANCH  14  15
ENDBRANCH  11  14
ENDBRANCH   7   8
ENDBRANCH   5   7
ENDBRANCH   2   3
BRANCH   2  21
HETATM   21  C12 UNL     1      -2.117   4.903  26.677  1.00  0.00     0.098 C 
HETATM   22  C13 UNL     1      -3.064   5.995  26.993  1.00  0.00     0.026 C 
HETATM   23  C14 UNL     1      -4.012   5.555  28.090  1.00  0.00     0.009 C 
HETATM   24  C15 UNL     1      -4.056   6.569  29.179  1.00  0.00     0.094 C 
HETATM   25  C16 UNL     1      -2.822   6.636  30.039  1.00  0.00     0.251 C 
HETATM   26  N5  UNL     1      -2.064   5.429  30.104  1.00  0.00    -0.288 N 
HETATM   27  O3  UNL     1      -3.275   6.983  31.329  1.00  0.00    -0.338 OA
HETATM   28  O4  UNL     1      -2.069   7.724  29.590  1.00  0.00    -0.338 OA
HETATM   29  C17 UNL     1      -1.301   4.655  29.210  1.00  0.00     0.320 C 
ATOM     30  H5  UNL     1      -2.081   5.021  31.039  1.00  0.00     0.169 HD
HETATM   31  O2  UNL     1      -0.456   3.945  29.774  1.00  0.00    -0.247 OA
HETATM   32  N6  UNL     1      -1.291   4.514  27.809  1.00  0.00    -0.338 N 
ATOM     33  H6  UNL     1      -0.472   3.990  27.500  1.00  0.00     0.164 HD
HETATM   34  C18 UNL     1      -2.250   7.172  32.219  1.00  0.00     0.175 C 
HETATM   35  C19 UNL     1      -1.099   7.965  31.700  1.00  0.00     0.053 C 
HETATM   36  C20 UNL     1      -0.842   7.807  30.238  1.00  0.00     0.175 C 
ENDBRANCH   2  21
TORSDOF 8
ENDMDL
MODEL 3
REMARK VINA RESULT: -8.005938628      1.483      2.332
REMARK  8 active torsions:
REMARK  status: ('A' for Active; 'I' for Inactive)
REMARK    1  A    between atoms: C2_2  and  C3_3 
REMARK    2  A    between atoms: C2_2  and  C12_21 
REMARK       I    between atoms: C3_3  and  N1_5 
REMARK    3  A    between atoms: N1_5  and  C4_7 
REMARK    4  A    between atoms: C4_7  and  C5_8 
REMARK    5  A    between atoms: C8_11  and  C9_12 
REMARK    6  A    between atoms: C9_12  and  N2_13 
REMARK    7  A    between atoms: N2_13  and  N3_15 
REMARK    8  A    between atoms: N3_15  and  N4_16 
ROOT
HETATM    1  C1  UNL     1      -6.373   4.002  26.651  1.00  0.00     0.022 C 
HETATM    2  C2  UNL     1      -5.025   4.720  26.643  1.00  0.00     0.096 C 
ENDROOT
BRANCH   2   3
HETATM    3  C3  UNL     1      -4.286   4.170  25.499  1.00  0.00     0.223 C 
HETATM    4  O1  UNL     1      -4.106   2.946  25.383  1.00  0.00    -0.273 OA
HETATM    5  N1  UNL     1      -3.775   5.049  24.515  1.00  0.00    -0.360 N 
ATOM      6  H1  UNL     1      -3.924   6.053  24.611  1.00  0.00     0.162 HD
BRANCH   5   7
HETATM    7  C4  UNL     1      -3.045   4.540  23.375  1.00  0.00     0.127 C 
BRANCH   7   8
HETATM    8  C5  UNL     1      -2.824   5.616  22.335  1.00  0.00     0.003 C 
HETATM    9  C6  UNL     1      -1.766   5.148  21.375  1.00  0.00     0.007 C 
HETATM   10  C7  UNL     1      -1.461   6.326  20.452  1.00  0.00     0.007 C 
HETATM   11  C8  UNL     1      -2.656   6.732  19.662  1.00  0.00     0.006 C 
HETATM   12  C10 UNL     1      -3.938   6.102  20.132  1.00  0.00     0.007 C 
HETATM   13  C11 UNL     1      -4.064   5.985  21.605  1.00  0.00     0.007 C 
BRANCH  11  14
HETATM   14  C9  UNL     1      -2.826   8.248  19.617  1.00  0.00     0.160 C 
BRANCH  14  15
HETATM   15  N2  UNL     1      -1.638   8.870  19.064  1.00  0.00    -0.252 N 
ATOM     16  H2  UNL     1      -1.165   8.416  18.284  1.00  0.00     0.196 HD
BRANCH  15  17
HETATM   17  N3  UNL     1      -1.179   9.926  19.502  1.00  0.00    -0.249 NA
BRANCH  17  18
HETATM   18  N4  UNL     1      -0.493  10.839  19.926  1.00  0.00    -0.261 N 
ATOM     19  H42 UNL     1       0.169  10.180  20.335  1.00  0.00     0.193 HD
ATOM     20  H41 UNL     1      -0.074  11.733  20.186  1.00  0.00     0.193 HD
ENDBRANCH  17  18
ENDBRANCH  15  17
ENDBRANCH  14  15
ENDBRANCH  11  14
ENDBRANCH   7   8
ENDBRANCH   5   7
ENDBRANCH   2   3
BRANCH   2  21
HETATM   21  C12 UNL     1      -4.379   4.590  27.975  1.00  0.00     0.098 C 
HETATM   22  C13 UNL     1      -2.901   4.552  27.975  1.00  0.00     0.026 C 
HETATM   23  C14 UNL     1      -2.350   5.863  27.453  1.00  0.00     0.009 C 
HETATM   24  C15 UNL     1      -1.326   6.408  28.387  1.00  0.00     0.094 C 
HETATM   25  C16 UNL     1      -1.868   6.956  29.680  1.00  0.00     0.251 C 
HETATM   26  N5  UNL     1      -3.219   7.412  29.623  1.00  0.00    -0.288 N 
HETATM   27  O3  UNL     1      -1.018   8.026  30.026  1.00  0.00    -0.338 OA
HETATM   28  O4  UNL     1      -1.668   5.975  30.655  1.00  0.00    -0.338 OA
HETATM   29  C17 UNL     1      -4.485   6.829  29.434  1.00  0.00     0.320 C 
ATOM     30  H5  UNL     1      -3.283   8.422  29.754  1.00  0.00     0.169 HD
HETATM   31  O2  UNL     1      -5.412   7.504  29.903  1.00  0.00    -0.247 OA
HETATM   32  N6  UNL     1      -4.927   5.638  28.823  1.00  0.00    -0.338 N 
ATOM     33  H6  UNL     1      -5.908   5.461  29.036  1.00  0.00     0.164 HD
HETATM   34  C18 UNL     1      -1.330   8.582  31.240  1.00  0.00     0.175 C 
HETATM   35  C19 UNL     1      -1.618   7.604  32.328  1.00  0.00     0.053 C 
HETATM   36  C20 UNL     1      -2.245   6.328  31.870  1.00  0.00     0.175 C 
ENDBRANCH   2  21
TORSDOF 8
ENDMDL
MODEL 4
REMARK VINA RESULT: -7.931120058      0.936      1.137
REMARK  8 active torsions:
REMARK  status: ('A' for Active; 'I' for Inactive)
REMARK    1  A    between atoms: C2_2  and  C3_3 
REMARK    2  A    between atoms: C2_2  and  C12_21 
REMARK       I    between atoms: C3_3  and  N1_5 
REMARK    3  A    between atoms: N1_5  and  C4_7 
REMARK    4  A    between atoms: C4_7  and  C5_8 
REMARK    5  A    between atoms: C8_11  and  C9_12 
REMARK    6  A    between atoms: C9_12  and  N2_13 
REMARK    7  A    between atoms: N2_13  and  N3_15 
REMARK    8  A    between atoms: N3_15  and  N4_16 
ROOT
HETATM    1  C1  UNL     1      -1.488   3.424  26.140  1.00  0.00     0.022 C 
HETATM    2  C2  UNL     1      -2.720   4.290  26.400  1.00  0.00     0.096 C 
ENDROOT
BRANCH   2   3
HETATM    3  C3  UNL     1      -3.412   4.397  25.110  1.00  0.00     0.223 C 
HETATM    4  O1  UNL     1      -4.650   4.486  25.054  1.00  0.00    -0.273 OA
HETATM    5  N1  UNL     1      -2.656   4.400  23.914  1.00  0.00    -0.360 N 
ATOM      6  H1  UNL     1      -1.640   4.326  23.960  1.00  0.00     0.162 HD
BRANCH   5   7
HETATM    7  C4  UNL     1      -3.307   4.506  22.626  1.00  0.00     0.127 C 
BRANCH   7   8
HETATM    8  C5  UNL     1      -2.767   5.672  21.829  1.00  0.00     0.003 C 
HETATM    9  C6  UNL     1      -1.845   5.144  20.766  1.00  0.00     0.007 C 
HETATM   10  C7  UNL     1      -1.200   6.360  20.102  1.00  0.00     0.007 C 
HETATM   11  C8  UNL     1      -2.212   7.231  19.445  1.00  0.00     0.006 C 
HETATM   12  C10 UNL     1      -3.632   6.891  19.805  1.00  0.00     0.007 C 
HETATM   13  C11 UNL     1      -3.835   6.509  21.224  1.00  0.00     0.007 C 
BRANCH  11  14
HETATM   14  C9  UNL     1      -1.963   8.711  19.722  1.00  0.00     0.160 C 
BRANCH  14  15
HETATM   15  N2  UNL     1      -2.978   9.520  19.076  1.00  0.00    -0.252 N 
ATOM     16  H2  UNL     1      -2.919   9.668  18.069  1.00  0.00     0.196 HD
BRANCH  15  17
HETATM   17  N3  UNL     1      -3.909  10.036  19.697  1.00  0.00    -0.249 NA
BRANCH  17  18
HETATM   18  N4  UNL     1      -4.956  10.319  20.252  1.00  0.00    -0.261 N 
ATOM     19  H42 UNL     1      -5.495   9.938  19.474  1.00  0.00     0.193 HD
ATOM     20  H41 UNL     1      -5.698  10.635  20.876  1.00  0.00     0.193 HD
ENDBRANCH  17  18
ENDBRANCH  15  17
ENDBRANCH  14  15
ENDBRANCH  11  14
ENDBRANCH   7   8
ENDBRANCH   5   7
ENDBRANCH   2   3
BRANCH   2  21
HETATM   21  C12 UNL     1      -2.310   5.566  27.041  1.00  0.00     0.098 C 
HETATM   22  C13 UNL     1      -3.409   6.421  27.539  1.00  0.00     0.026 C 
HETATM   23  C14 UNL     1      -4.159   5.706  28.645  1.00  0.00     0.009 C 
HETATM   24  C15 UNL     1      -4.291   6.586  29.839  1.00  0.00     0.094 C 
HETATM   25  C16 UNL     1      -3.019   6.808  30.613  1.00  0.00     0.251 C 
HETATM   26  N5  UNL     1      -2.050   5.768  30.493  1.00  0.00    -0.288 N 
HETATM   27  O3  UNL     1      -3.413   6.939  31.961  1.00  0.00    -0.338 OA
HETATM   28  O4  UNL     1      -2.523   8.058  30.234  1.00  0.00    -0.338 OA
HETATM   29  C17 UNL     1      -1.240   5.243  29.470  1.00  0.00     0.320 C 
ATOM     30  H5  UNL     1      -1.908   5.279  31.378  1.00  0.00     0.169 HD
HETATM   31  O2  UNL     1      -0.232   4.658  29.893  1.00  0.00    -0.247 OA
HETATM   32  N6  UNL     1      -1.328   5.238  28.064  1.00  0.00    -0.338 N 
ATOM     33  H6  UNL     1      -0.458   4.913  27.645  1.00  0.00     0.164 HD
HETATM   34  C18 UNL     1      -2.365   7.237  32.794  1.00  0.00     0.175 C 
HETATM   35  C19 UNL     1      -1.430   8.282  32.285  1.00  0.00     0.053 C 
HETATM   36  C20 UNL     1      -1.279   8.313  30.800  1.00  0.00     0.175 C 
ENDBRANCH   2  21
TORSDOF 8
ENDMDL
MODEL 5
REMARK VINA RESULT: -7.606572209      1.805      2.068
REMARK  8 active torsions:
REMARK  status: ('A' for Active; 'I' for Inactive)
REMARK    1  A    between atoms: C2_2  and  C3_3 
REMARK    2  A    between atoms: C2_2  and  C12_21 
REMARK       I    between atoms: C3_3  and  N1_5 
REMARK    3  A    between atoms: N1_5  and  C4_7 
REMARK    4  A    between atoms: C4_7  and  C5_8 
REMARK    5  A    between atoms: C8_11  and  C9_12 
REMARK    6  A    between atoms: C9_12  and  N2_13 
REMARK    7  A    between atoms: N2_13  and  N3_15 
REMARK    8  A    between atoms: N3_15  and  N4_16 
ROOT
HETATM    1  C1  UNL     1      -2.090   2.536  25.833  1.00  0.00     0.022 C 
HETATM    2  C2  UNL     1      -2.803   3.800  25.358  1.00  0.00     0.096 C 
ENDROOT
BRANCH   2   3
HETATM    3  C3  UNL     1      -2.725   3.776  23.892  1.00  0.00     0.223 C 
HETATM    4  O1  UNL     1      -3.310   2.899  23.235  1.00  0.00    -0.273 OA
HETATM    5  N1  UNL     1      -1.974   4.769  23.220  1.00  0.00    -0.360 N 
ATOM      6  H1  UNL     1      -1.494   5.489  23.760  1.00  0.00     0.162 HD
BRANCH   5   7
HETATM    7  C4  UNL     1      -1.878   4.775  21.777  1.00  0.00     0.127 C 
BRANCH   7   8
HETATM    8  C5  UNL     1      -2.094   6.163  21.215  1.00  0.00     0.003 C 
HETATM    9  C6  UNL     1      -1.364   6.271  19.905  1.00  0.00     0.007 C 
HETATM   10  C7  UNL     1      -1.471   7.729  19.463  1.00  0.00     0.007 C 
HETATM   11  C8  UNL     1      -2.885   8.135  19.240  1.00  0.00     0.006 C 
HETATM   12  C10 UNL     1      -3.892   7.142  19.752  1.00  0.00     0.007 C 
HETATM   13  C11 UNL     1      -3.528   6.506  21.042  1.00  0.00     0.007 C 
BRANCH  11  14
HETATM   14  C9  UNL     1      -3.189   9.509  19.830  1.00  0.00     0.160 C 
BRANCH  14  15
HETATM   15  N2  UNL     1      -4.604   9.806  19.710  1.00  0.00    -0.252 N 
ATOM     16  H2  UNL     1      -5.137   9.358  18.965  1.00  0.00     0.196 HD
BRANCH  15  17
HETATM   17  N3  UNL     1      -5.186  10.578  20.474  1.00  0.00    -0.249 NA
BRANCH  17  18
HETATM   18  N4  UNL     1      -5.963  11.312  21.058  1.00  0.00    -0.261 N 
ATOM     19  H42 UNL     1      -5.191  11.817  21.492  1.00  0.00     0.193 HD
ATOM     20  H41 UNL     1      -6.769  11.805  21.443  1.00  0.00     0.193 HD
ENDBRANCH  17  18
ENDBRANCH  15  17
ENDBRANCH  14  15
ENDBRANCH  11  14
ENDBRANCH   7   8
ENDBRANCH   5   7
ENDBRANCH   2   3
BRANCH   2  21
HETATM   21  C12 UNL     1      -2.221   4.989  26.034  1.00  0.00     0.098 C 
HETATM   22  C13 UNL     1      -3.191   5.999  26.512  1.00  0.00     0.026 C 
HETATM   23  C14 UNL     1      -4.080   5.397  27.581  1.00  0.00     0.009 C 
HETATM   24  C15 UNL     1      -4.114   6.272  28.785  1.00  0.00     0.094 C 
HETATM   25  C16 UNL     1      -2.850   6.283  29.603  1.00  0.00     0.251 C 
HETATM   26  N5  UNL     1      -2.052   5.106  29.496  1.00  0.00    -0.288 N 
HETATM   27  O3  UNL     1      -3.264   6.457  30.940  1.00  0.00    -0.338 OA
HETATM   28  O4  UNL     1      -2.152   7.444  29.261  1.00  0.00    -0.338 OA
HETATM   29  C17 UNL     1      -1.299   4.473  28.490  1.00  0.00     0.320 C 
ATOM     30  H5  UNL     1      -2.018   4.589  30.375  1.00  0.00     0.169 HD
HETATM   31  O2  UNL     1      -0.409   3.733  28.935  1.00  0.00    -0.247 OA
HETATM   32  N6  UNL     1      -1.338   4.499  27.082  1.00  0.00    -0.338 N 
ATOM     33  H6  UNL     1      -0.515   4.047  26.685  1.00  0.00     0.164 HD
HETATM   34  C18 UNL     1      -2.212   6.578  31.810  1.00  0.00     0.175 C 
HETATM   35  C19 UNL     1      -1.108   7.469  31.350  1.00  0.00     0.053 C 
HETATM   36  C20 UNL     1      -0.904   7.495  29.871  1.00  0.00     0.175 C 
ENDBRANCH   2  21
TORSDOF 8
ENDMDL
