MODEL 1
REMARK VINA RESULT: -5.687441479      0.000      0.000
REMARK  7 active torsions:
REMARK  status: ('A' for Active; 'I' for Inactive)
REMARK    1  A    between atoms: C4_7  and  C5_8 
REMARK    2  A    between atoms: C5_8  and  N2_9 
REMARK    3  A    between atoms: N2_9  and  C6_11 
REMARK    4  A    between atoms: C6_11  and  N3_13 
REMARK    5  A    between atoms: N3_13  and  C7_15 
REMARK    6  A    between atoms: C7_15  and  C8_16 
REMARK    7  A    between atoms: C8_16  and  O1_17 
ROOT
HETATM    1  C5  UNL     1      43.489  -1.658  29.753  1.00  0.00     0.154 C 
ENDROOT
BRANCH   1   2
HETATM    2  C4  UNL     1      43.664  -2.248  28.401  1.00  0.00     0.140 C 
HETATM    3  C3  UNL     1      44.232  -1.374  27.340  1.00  0.00     0.039 C 
HETATM    4  C2  UNL     1      44.206  -2.147  26.015  1.00  0.00     0.057 C 
HETATM    5  C1  UNL     1      43.908  -3.588  26.231  1.00  0.00     0.004 C 
HETATM    6  N1  UNL     1      44.491  -4.525  25.610  1.00  0.00    -0.404 N 
HETATM    7  C9  UNL     1      42.866  -3.994  27.220  1.00  0.00     0.220 C 
ATOM      8  H12 UNL     1      45.203  -4.248  24.935  1.00  0.00     0.155 HD
ATOM      9  H11 UNL     1      44.287  -5.514  25.758  1.00  0.00     0.155 HD
HETATM   10  O2  UNL     1      42.477  -2.888  27.969  1.00  0.00    -0.379 OA
ENDBRANCH   1   2
BRANCH   1  11
HETATM   11  N2  UNL     1      42.703  -0.449  29.777  1.00  0.00    -0.365 N 
ATOM     12  H2  UNL     1      43.012   0.394  29.293  1.00  0.00     0.161 HD
BRANCH  11  13
HETATM   13  C6  UNL     1      41.488  -0.480  30.501  1.00  0.00     0.167 C 
HETATM   14  S1  UNL     1      41.567  -0.382  32.169  1.00  0.00    -0.041 SA
BRANCH  13  15
HETATM   15  N3  UNL     1      40.213  -0.587  29.899  1.00  0.00    -0.365 N 
ATOM     16  H3  UNL     1      40.045  -0.153  28.991  1.00  0.00     0.161 HD
BRANCH  15  17
HETATM   17  C7  UNL     1      39.153  -1.301  30.553  1.00  0.00     0.148 C 
BRANCH  17  18
HETATM   18  C8  UNL     1      38.637  -2.360  29.576  1.00  0.00     0.183 C 
BRANCH  18  19
HETATM   19  O1  UNL     1      39.689  -3.005  28.927  1.00  0.00    -0.399 OA
ATOM     20  H1  UNL     1      39.408  -3.829  28.549  1.00  0.00     0.209 HD
ENDBRANCH  18  19
ENDBRANCH  17  18
ENDBRANCH  15  17
ENDBRANCH  13  15
ENDBRANCH  11  13
ENDBRANCH   1  11
TORSDOF 7
ENDMDL
MODEL 2
REMARK VINA RESULT: -5.647278226      2.237      3.117
REMARK  7 active torsions:
REMARK  status: ('A' for Active; 'I' for Inactive)
REMARK    1  A    between atoms: C4_7  and  C5_8 
REMARK    2  A    between atoms: C5_8  and  N2_9 
REMARK    3  A    between atoms: N2_9  and  C6_11 
REMARK    4  A    between atoms: C6_11  and  N3_13 
REMARK    5  A    between atoms: N3_13  and  C7_15 
REMARK    6  A    between atoms: C7_15  and  C8_16 
REMARK    7  A    between atoms: C8_16  and  O1_17 
ROOT
HETATM    1  C5  UNL     1      43.693  -1.681  29.801  1.00  0.00     0.154 C 
ENDROOT
BRANCH   1   2
HETATM    2  C4  UNL     1      43.810  -2.256  28.436  1.00  0.00     0.140 C 
HETATM    3  C3  UNL     1      44.374  -1.386  27.371  1.00  0.00     0.039 C 
HETATM    4  C2  UNL     1      44.284  -2.137  26.038  1.00  0.00     0.057 C 
HETATM    5  C1  UNL     1      43.946  -3.571  26.242  1.00  0.00     0.004 C 
HETATM    6  N1  UNL     1      44.480  -4.517  25.592  1.00  0.00    -0.404 N 
HETATM    7  C9  UNL     1      42.922  -3.958  27.256  1.00  0.00     0.220 C 
ATOM      8  H12 UNL     1      45.181  -4.253  24.899  1.00  0.00     0.155 HD
ATOM      9  H11 UNL     1      44.249  -5.501  25.732  1.00  0.00     0.155 HD
HETATM   10  O2  UNL     1      42.591  -2.852  28.031  1.00  0.00    -0.379 OA
ENDBRANCH   1   2
BRANCH   1  11
HETATM   11  N2  UNL     1      42.769  -0.578  29.905  1.00  0.00    -0.365 N 
ATOM     12  H2  UNL     1      42.709   0.134  29.178  1.00  0.00     0.161 HD
BRANCH  11  13
HETATM   13  C6  UNL     1      41.950  -0.525  31.058  1.00  0.00     0.167 C 
HETATM   14  S1  UNL     1      40.360  -0.043  30.866  1.00  0.00    -0.041 SA
BRANCH  13  15
HETATM   15  N3  UNL     1      42.394  -0.857  32.358  1.00  0.00    -0.365 N 
ATOM     16  H3  UNL     1      42.259  -1.805  32.712  1.00  0.00     0.161 HD
BRANCH  15  17
HETATM   17  C7  UNL     1      43.032   0.127  33.187  1.00  0.00     0.148 C 
BRANCH  17  18
HETATM   18  C8  UNL     1      44.411  -0.416  33.570  1.00  0.00     0.183 C 
BRANCH  18  19
HETATM   19  O1  UNL     1      45.358  -0.131  32.587  1.00  0.00    -0.399 OA
ATOM     20  H1  UNL     1      46.195   0.098  32.972  1.00  0.00     0.209 HD
ENDBRANCH  18  19
ENDBRANCH  17  18
ENDBRANCH  15  17
ENDBRANCH  13  15
ENDBRANCH  11  13
ENDBRANCH   1  11
TORSDOF 7
ENDMDL
MODEL 3
REMARK VINA RESULT: -5.592069450      1.038      1.087
REMARK  7 active torsions:
REMARK  status: ('A' for Active; 'I' for Inactive)
REMARK    1  A    between atoms: C4_7  and  C5_8 
REMARK    2  A    between atoms: C5_8  and  N2_9 
REMARK    3  A    between atoms: N2_9  and  C6_11 
REMARK    4  A    between atoms: C6_11  and  N3_13 
REMARK    5  A    between atoms: N3_13  and  C7_15 
REMARK    6  A    between atoms: C7_15  and  C8_16 
REMARK    7  A    between atoms: C8_16  and  O1_17 
ROOT
HETATM    1  C5  UNL     1      43.798  -1.674  29.569  1.00  0.00     0.154 C 
ENDROOT
BRANCH   1   2
HETATM    2  C4  UNL     1      43.872  -2.305  28.226  1.00  0.00     0.140 C 
HETATM    3  C3  UNL     1      44.430  -1.490  27.115  1.00  0.00     0.039 C 
HETATM    4  C2  UNL     1      44.294  -2.291  25.815  1.00  0.00     0.057 C 
HETATM    5  C1  UNL     1      43.931  -3.709  26.084  1.00  0.00     0.004 C 
HETATM    6  N1  UNL     1      44.431  -4.691  25.460  1.00  0.00    -0.404 N 
HETATM    7  C9  UNL     1      42.923  -4.033  27.134  1.00  0.00     0.220 C 
ATOM      8  H12 UNL     1      45.121  -4.469  24.742  1.00  0.00     0.155 HD
ATOM      9  H11 UNL     1      44.183  -5.663  25.645  1.00  0.00     0.155 HD
HETATM   10  O2  UNL     1      42.632  -2.890  27.872  1.00  0.00    -0.379 OA
ENDBRANCH   1   2
BRANCH   1  11
HETATM   11  N2  UNL     1      42.998  -0.475  29.620  1.00  0.00    -0.365 N 
ATOM     12  H2  UNL     1      43.207   0.328  29.029  1.00  0.00     0.161 HD
BRANCH  11  13
HETATM   13  C6  UNL     1      41.911  -0.460  30.526  1.00  0.00     0.167 C 
HETATM   14  S1  UNL     1      42.254  -0.527  32.162  1.00  0.00    -0.041 SA
BRANCH  13  15
HETATM   15  N3  UNL     1      40.555  -0.391  30.131  1.00  0.00    -0.365 N 
ATOM     16  H3  UNL     1      40.249  -0.876  29.287  1.00  0.00     0.161 HD
BRANCH  15  17
HETATM   17  C7  UNL     1      39.604   0.354  30.907  1.00  0.00     0.148 C 
BRANCH  17  18
HETATM   18  C8  UNL     1      38.469  -0.600  31.287  1.00  0.00     0.183 C 
BRANCH  18  19
HETATM   19  O1  UNL     1      38.885  -1.930  31.230  1.00  0.00    -0.399 OA
ATOM     20  H1  UNL     1      39.046  -2.278  32.099  1.00  0.00     0.209 HD
ENDBRANCH  18  19
ENDBRANCH  17  18
ENDBRANCH  15  17
ENDBRANCH  13  15
ENDBRANCH  11  13
ENDBRANCH   1  11
TORSDOF 7
ENDMDL
MODEL 4
REMARK VINA RESULT: -5.505026139      1.550      1.712
REMARK  7 active torsions:
REMARK  status: ('A' for Active; 'I' for Inactive)
REMARK    1  A    between atoms: C4_7  and  C5_8 
REMARK    2  A    between atoms: C5_8  and  N2_9 
REMARK    3  A    between atoms: N2_9  and  C6_11 
REMARK    4  A    between atoms: C6_11  and  N3_13 
REMARK    5  A    between atoms: N3_13  and  C7_15 
REMARK    6  A    between atoms: C7_15  and  C8_16 
REMARK    7  A    between atoms: C8_16  and  O1_17 
ROOT
HETATM    1  C5  UNL     1      44.187  -1.396  29.394  1.00  0.00     0.154 C 
ENDROOT
BRANCH   1   2
HETATM    2  C4  UNL     1      44.097  -2.148  28.115  1.00  0.00     0.140 C 
HETATM    3  C3  UNL     1      44.551  -1.457  26.880  1.00  0.00     0.039 C 
HETATM    4  C2  UNL     1      44.252  -2.366  25.682  1.00  0.00     0.057 C 
HETATM    5  C1  UNL     1      43.884  -3.740  26.119  1.00  0.00     0.004 C 
HETATM    6  N1  UNL     1      44.286  -4.792  25.540  1.00  0.00    -0.404 N 
HETATM    7  C9  UNL     1      42.988  -3.931  27.297  1.00  0.00     0.220 C 
ATOM      8  H12 UNL     1      44.899  -4.661  24.735  1.00  0.00     0.155 HD
ATOM      9  H11 UNL     1      44.034  -5.733  25.840  1.00  0.00     0.155 HD
HETATM   10  O2  UNL     1      42.810  -2.717  27.951  1.00  0.00    -0.379 OA
ENDBRANCH   1   2
BRANCH   1  11
HETATM   11  N2  UNL     1      43.641  -2.092  30.533  1.00  0.00    -0.365 N 
ATOM     12  H2  UNL     1      43.563  -3.108  30.547  1.00  0.00     0.161 HD
BRANCH  11  13
HETATM   13  C6  UNL     1      43.217  -1.305  31.630  1.00  0.00     0.167 C 
HETATM   14  S1  UNL     1      43.784  -1.713  33.150  1.00  0.00    -0.041 SA
BRANCH  13  15
HETATM   15  N3  UNL     1      42.346  -0.197  31.518  1.00  0.00    -0.365 N 
ATOM     16  H3  UNL     1      42.712   0.704  31.209  1.00  0.00     0.161 HD
BRANCH  15  17
HETATM   17  C7  UNL     1      40.951  -0.328  31.835  1.00  0.00     0.148 C 
BRANCH  17  18
HETATM   18  C8  UNL     1      40.174  -0.300  30.517  1.00  0.00     0.183 C 
BRANCH  18  19
HETATM   19  O1  UNL     1      40.717  -1.189  29.590  1.00  0.00    -0.399 OA
ATOM     20  H1  UNL     1      40.075  -1.441  28.938  1.00  0.00     0.209 HD
ENDBRANCH  18  19
ENDBRANCH  17  18
ENDBRANCH  15  17
ENDBRANCH  13  15
ENDBRANCH  11  13
ENDBRANCH   1  11
TORSDOF 7
ENDMDL
MODEL 5
REMARK VINA RESULT: -5.463500951      2.460      3.586
REMARK  7 active torsions:
REMARK  status: ('A' for Active; 'I' for Inactive)
REMARK    1  A    between atoms: C4_7  and  C5_8 
REMARK    2  A    between atoms: C5_8  and  N2_9 
REMARK    3  A    between atoms: N2_9  and  C6_11 
REMARK    4  A    between atoms: C6_11  and  N3_13 
REMARK    5  A    between atoms: N3_13  and  C7_15 
REMARK    6  A    between atoms: C7_15  and  C8_16 
REMARK    7  A    between atoms: C8_16  and  O1_17 
ROOT
HETATM    1  C5  UNL     1      42.314  -2.064  29.107  1.00  0.00     0.154 C 
ENDROOT
BRANCH   1   2
HETATM    2  C4  UNL     1      43.010  -2.424  27.844  1.00  0.00     0.140 C 
HETATM    3  C3  UNL     1      42.954  -3.845  27.411  1.00  0.00     0.039 C 
HETATM    4  C2  UNL     1      43.835  -4.004  26.166  1.00  0.00     0.057 C 
HETATM    5  C1  UNL     1      44.233  -2.684  25.608  1.00  0.00     0.004 C 
HETATM    6  N1  UNL     1      44.265  -2.427  24.368  1.00  0.00    -0.404 N 
HETATM    7  C9  UNL     1      44.629  -1.576  26.526  1.00  0.00     0.220 C 
ATOM      8  H12 UNL     1      43.993  -3.184  23.741  1.00  0.00     0.155 HD
ATOM      9  H11 UNL     1      44.537  -1.522  23.985  1.00  0.00     0.155 HD
HETATM   10  O2  UNL     1      44.337  -1.929  27.839  1.00  0.00    -0.379 OA
ENDBRANCH   1   2
BRANCH   1  11
HETATM   11  N2  UNL     1      42.660  -0.764  29.627  1.00  0.00    -0.365 N 
ATOM     12  H2  UNL     1      43.266  -0.129  29.109  1.00  0.00     0.161 HD
BRANCH  11  13
HETATM   13  C6  UNL     1      42.123  -0.407  30.886  1.00  0.00     0.167 C 
HETATM   14  S1  UNL     1      40.476  -0.126  30.984  1.00  0.00    -0.041 SA
BRANCH  13  15
HETATM   15  N3  UNL     1      42.892  -0.274  32.065  1.00  0.00    -0.365 N 
ATOM     16  H3  UNL     1      42.798   0.565  32.638  1.00  0.00     0.161 HD
BRANCH  15  17
HETATM   17  C7  UNL     1      43.805  -1.309  32.464  1.00  0.00     0.148 C 
BRANCH  17  18
HETATM   18  C8  UNL     1      44.776  -0.702  33.479  1.00  0.00     0.183 C 
BRANCH  18  19
HETATM   19  O1  UNL     1      45.665   0.180  32.865  1.00  0.00    -0.399 OA
ATOM     20  H1  UNL     1      46.536   0.103  33.234  1.00  0.00     0.209 HD
ENDBRANCH  18  19
ENDBRANCH  17  18
ENDBRANCH  15  17
ENDBRANCH  13  15
ENDBRANCH  11  13
ENDBRANCH   1  11
TORSDOF 7
ENDMDL
