MODEL 1
REMARK VINA RESULT: -7.664759914      0.000      0.000
REMARK  5 active torsions:
REMARK  status: ('A' for Active; 'I' for Inactive)
REMARK    1  A    between atoms: C1_2  and  C2_3 
REMARK       I    between atoms: C1_2  and  N1_10 
REMARK    2  A    between atoms: C2_3  and  C3_4 
REMARK    3  A    between atoms: C9_12  and  C10_13 
REMARK    4  A    between atoms: C10_13  and  C11_14 
REMARK       I    between atoms: C11_14  and  N2_16 
REMARK    5  A    between atoms: C14_22  and  C15_23 
ROOT
HETATM    1  C10 UNL     1      -2.525   2.684  11.049  1.00  0.00     0.147 C 
ENDROOT
BRANCH   1   2
HETATM    2  C9  UNL     1      -2.586   1.346  11.689  1.00  0.00     0.073 C 
HETATM    3  N1  UNL     1      -3.557   1.084  12.475  1.00  0.00    -0.340 N 
HETATM    4  C1  UNL     1      -4.582   1.995  12.773  1.00  0.00     0.221 C 
ATOM      5  H1  UNL     1      -3.590   0.162  12.911  1.00  0.00     0.167 HD
HETATM    6  O1  UNL     1      -5.593   2.024  12.024  1.00  0.00    -0.273 OA
BRANCH   4   7
HETATM    7  C2  UNL     1      -4.535   2.928  13.933  1.00  0.00     0.107 C 
BRANCH   7   8
HETATM    8  C3  UNL     1      -5.349   2.375  15.058  1.00  0.00    -0.006 C 
HETATM    9  C4  UNL     1      -6.058   3.465  15.812  1.00  0.00     0.005 C 
HETATM   10  C5  UNL     1      -6.904   2.972  16.931  1.00  0.00     0.000 C 
HETATM   11  C6  UNL     1      -6.494   1.729  17.598  1.00  0.00     0.000 C 
HETATM   12  C7  UNL     1      -5.408   0.929  16.985  1.00  0.00     0.000 C 
HETATM   13  C8  UNL     1      -4.468   1.675  16.096  1.00  0.00     0.005 C 
ENDBRANCH   7   8
ENDBRANCH   4   7
ENDBRANCH   1   2
BRANCH   1  14
HETATM   14  C11 UNL     1      -1.475   3.533  11.656  1.00  0.00     0.224 C 
HETATM   15  O2  UNL     1      -1.428   3.575  12.931  1.00  0.00    -0.273 OA
HETATM   16  N2  UNL     1      -0.524   4.300  10.946  1.00  0.00    -0.348 N 
HETATM   17  C12 UNL     1      -0.494   4.338   9.515  1.00  0.00     0.153 C 
HETATM   18  C16 UNL     1       0.468   5.080  11.692  1.00  0.00     0.164 C 
HETATM   19  C13 UNL     1       0.940   4.096   9.042  1.00  0.00     0.253 C 
HETATM   20  N3  UNL     1       1.812   5.029   9.729  1.00  0.00    -0.063 N 
HETATM   21  C14 UNL     1       1.826   4.696  11.151  1.00  0.00     0.268 C 
ATOM     22  H32 UNL     1       2.748   5.058   9.325  1.00  0.00     0.277 HD
ATOM     23  H31 UNL     1       1.555   6.001   9.558  1.00  0.00     0.277 HD
BRANCH  21  24
HETATM   24  C15 UNL     1       2.876   5.578  11.810  1.00  0.00     0.385 C 
HETATM   25  F1  UNL     1       3.611   4.866  12.740  1.00  0.00    -0.212 F 
HETATM   26  F2  UNL     1       2.212   6.613  12.451  1.00  0.00    -0.212 F 
ENDBRANCH  21  24
ENDBRANCH   1  14
TORSDOF 5
ENDMDL
MODEL 2
REMARK VINA RESULT: -7.654802073      4.578      6.601
REMARK  5 active torsions:
REMARK  status: ('A' for Active; 'I' for Inactive)
REMARK    1  A    between atoms: C1_2  and  C2_3 
REMARK       I    between atoms: C1_2  and  N1_10 
REMARK    2  A    between atoms: C2_3  and  C3_4 
REMARK    3  A    between atoms: C9_12  and  C10_13 
REMARK    4  A    between atoms: C10_13  and  C11_14 
REMARK       I    between atoms: C11_14  and  N2_16 
REMARK    5  A    between atoms: C14_22  and  C15_23 
ROOT
HETATM    1  C10 UNL     1      -4.670   2.441  16.163  1.00  0.00     0.147 C 
ENDROOT
BRANCH   1   2
HETATM    2  C9  UNL     1      -6.020   2.554  16.770  1.00  0.00     0.073 C 
HETATM    3  N1  UNL     1      -6.827   3.431  16.314  1.00  0.00    -0.340 N 
HETATM    4  C1  UNL     1      -6.512   4.304  15.263  1.00  0.00     0.221 C 
ATOM      5  H1  UNL     1      -7.753   3.502  16.739  1.00  0.00     0.167 HD
HETATM    6  O1  UNL     1      -6.736   3.926  14.083  1.00  0.00    -0.273 OA
BRANCH   4   7
HETATM    7  C2  UNL     1      -5.928   5.659  15.471  1.00  0.00     0.107 C 
BRANCH   7   8
HETATM    8  C3  UNL     1      -6.201   6.514  14.275  1.00  0.00    -0.006 C 
HETATM    9  C4  UNL     1      -4.926   6.969  13.622  1.00  0.00     0.005 C 
HETATM   10  C5  UNL     1      -5.134   7.806  12.411  1.00  0.00     0.000 C 
HETATM   11  C6  UNL     1      -6.354   8.624  12.350  1.00  0.00     0.000 C 
HETATM   12  C7  UNL     1      -7.399   8.402  13.376  1.00  0.00     0.000 C 
HETATM   13  C8  UNL     1      -6.936   7.800  14.663  1.00  0.00     0.005 C 
ENDBRANCH   7   8
ENDBRANCH   4   7
ENDBRANCH   1   2
BRANCH   1  14
HETATM   14  C11 UNL     1      -4.628   1.402  15.110  1.00  0.00     0.224 C 
HETATM   15  O2  UNL     1      -5.059   0.241  15.422  1.00  0.00    -0.273 OA
HETATM   16  N2  UNL     1      -4.154   1.585  13.792  1.00  0.00    -0.348 N 
HETATM   17  C12 UNL     1      -3.637   2.840  13.337  1.00  0.00     0.153 C 
HETATM   18  C16 UNL     1      -4.193   0.459  12.853  1.00  0.00     0.164 C 
HETATM   19  C13 UNL     1      -4.292   3.194  12.002  1.00  0.00     0.253 C 
HETATM   20  N3  UNL     1      -4.133   2.068  11.102  1.00  0.00    -0.063 N 
HETATM   21  C14 UNL     1      -4.911   0.945  11.615  1.00  0.00     0.268 C 
ATOM     22  H32 UNL     1      -4.372   2.302  10.138  1.00  0.00     0.277 HD
ATOM     23  H31 UNL     1      -3.153   1.827  10.949  1.00  0.00     0.277 HD
BRANCH  21  24
HETATM   24  C15 UNL     1      -4.861  -0.155  10.565  1.00  0.00     0.385 C 
HETATM   25  F1  UNL     1      -4.533  -1.372  11.135  1.00  0.00    -0.212 F 
HETATM   26  F2  UNL     1      -3.887   0.191   9.640  1.00  0.00    -0.212 F 
ENDBRANCH  21  24
ENDBRANCH   1  14
TORSDOF 5
ENDMDL
MODEL 3
REMARK VINA RESULT: -7.561006835      1.452      1.836
REMARK  5 active torsions:
REMARK  status: ('A' for Active; 'I' for Inactive)
REMARK    1  A    between atoms: C1_2  and  C2_3 
REMARK       I    between atoms: C1_2  and  N1_10 
REMARK    2  A    between atoms: C2_3  and  C3_4 
REMARK    3  A    between atoms: C9_12  and  C10_13 
REMARK    4  A    between atoms: C10_13  and  C11_14 
REMARK       I    between atoms: C11_14  and  N2_16 
REMARK    5  A    between atoms: C14_22  and  C15_23 
ROOT
HETATM    1  C10 UNL     1      -2.832   2.526  10.786  1.00  0.00     0.147 C 
ENDROOT
BRANCH   1   2
HETATM    2  C9  UNL     1      -2.922   1.192  11.434  1.00  0.00     0.073 C 
HETATM    3  N1  UNL     1      -3.810   1.004  12.332  1.00  0.00    -0.340 N 
HETATM    4  C1  UNL     1      -4.715   1.991  12.747  1.00  0.00     0.221 C 
ATOM      5  H1  UNL     1      -3.863   0.085  12.772  1.00  0.00     0.167 HD
HETATM    6  O1  UNL     1      -5.804   2.105  12.126  1.00  0.00    -0.273 OA
BRANCH   4   7
HETATM    7  C2  UNL     1      -4.456   2.911  13.890  1.00  0.00     0.107 C 
BRANCH   7   8
HETATM    8  C3  UNL     1      -5.274   2.493  15.070  1.00  0.00    -0.006 C 
HETATM    9  C4  UNL     1      -6.016   3.657  15.663  1.00  0.00     0.005 C 
HETATM   10  C5  UNL     1      -6.868   3.298  16.828  1.00  0.00     0.000 C 
HETATM   11  C6  UNL     1      -6.441   2.163  17.659  1.00  0.00     0.000 C 
HETATM   12  C7  UNL     1      -5.330   1.314  17.170  1.00  0.00     0.000 C 
HETATM   13  C8  UNL     1      -4.393   1.957  16.201  1.00  0.00     0.005 C 
ENDBRANCH   7   8
ENDBRANCH   4   7
ENDBRANCH   1   2
BRANCH   1  14
HETATM   14  C11 UNL     1      -1.439   2.862  10.418  1.00  0.00     0.224 C 
HETATM   15  O2  UNL     1      -1.005   2.406   9.308  1.00  0.00    -0.273 OA
HETATM   16  N2  UNL     1      -0.550   3.645  11.190  1.00  0.00    -0.348 N 
HETATM   17  C12 UNL     1      -0.927   4.196  12.456  1.00  0.00     0.153 C 
HETATM   18  C16 UNL     1       0.800   3.907  10.681  1.00  0.00     0.164 C 
HETATM   19  C13 UNL     1      -0.551   5.679  12.484  1.00  0.00     0.253 C 
HETATM   20  N3  UNL     1       0.846   5.804  12.118  1.00  0.00    -0.063 N 
HETATM   21  C14 UNL     1       1.001   5.405  10.721  1.00  0.00     0.268 C 
ATOM     22  H32 UNL     1       1.215   6.736  12.301  1.00  0.00     0.277 HD
ATOM     23  H31 UNL     1       1.461   5.283  12.743  1.00  0.00     0.277 HD
BRANCH  21  24
HETATM   24  C15 UNL     1       2.437   5.710  10.322  1.00  0.00     0.385 C 
HETATM   25  F1  UNL     1       2.688   5.309   9.023  1.00  0.00    -0.212 F 
HETATM   26  F2  UNL     1       3.270   5.010  11.183  1.00  0.00    -0.212 F 
ENDBRANCH  21  24
ENDBRANCH   1  14
TORSDOF 5
ENDMDL
MODEL 4
REMARK VINA RESULT: -7.528835219      4.637      7.281
REMARK  5 active torsions:
REMARK  status: ('A' for Active; 'I' for Inactive)
REMARK    1  A    between atoms: C1_2  and  C2_3 
REMARK       I    between atoms: C1_2  and  N1_10 
REMARK    2  A    between atoms: C2_3  and  C3_4 
REMARK    3  A    between atoms: C9_12  and  C10_13 
REMARK    4  A    between atoms: C10_13  and  C11_14 
REMARK       I    between atoms: C11_14  and  N2_16 
REMARK    5  A    between atoms: C14_22  and  C15_23 
ROOT
HETATM    1  C10 UNL     1      -3.956   3.409  12.428  1.00  0.00     0.147 C 
ENDROOT
BRANCH   1   2
HETATM    2  C9  UNL     1      -2.533   3.213  12.052  1.00  0.00     0.073 C 
HETATM    3  N1  UNL     1      -1.634   3.852  12.694  1.00  0.00    -0.340 N 
HETATM    4  C1  UNL     1      -1.912   4.737  13.746  1.00  0.00     0.221 C 
ATOM      5  H1  UNL     1      -0.659   3.711  12.427  1.00  0.00     0.167 HD
HETATM    6  O1  UNL     1      -1.987   4.274  14.914  1.00  0.00    -0.273 OA
BRANCH   4   7
HETATM    7  C2  UNL     1      -2.119   6.199  13.551  1.00  0.00     0.107 C 
BRANCH   7   8
HETATM    8  C3  UNL     1      -3.446   6.599  14.114  1.00  0.00    -0.006 C 
HETATM    9  C4  UNL     1      -4.362   7.121  13.044  1.00  0.00     0.005 C 
HETATM   10  C5  UNL     1      -5.707   7.514  13.541  1.00  0.00     0.000 C 
HETATM   11  C6  UNL     1      -5.808   7.990  14.928  1.00  0.00     0.000 C 
HETATM   12  C7  UNL     1      -4.626   7.840  15.809  1.00  0.00     0.000 C 
HETATM   13  C8  UNL     1      -3.305   7.745  15.120  1.00  0.00     0.005 C 
ENDBRANCH   7   8
ENDBRANCH   4   7
ENDBRANCH   1   2
BRANCH   1  14
HETATM   14  C11 UNL     1      -4.363   2.500  13.522  1.00  0.00     0.224 C 
HETATM   15  O2  UNL     1      -3.700   1.417  13.653  1.00  0.00    -0.273 OA
HETATM   16  N2  UNL     1      -5.420   2.728  14.432  1.00  0.00    -0.348 N 
HETATM   17  C12 UNL     1      -6.236   3.903  14.370  1.00  0.00     0.153 C 
HETATM   18  C16 UNL     1      -5.691   1.737  15.478  1.00  0.00     0.164 C 
HETATM   19  C13 UNL     1      -6.332   4.516  15.768  1.00  0.00     0.253 C 
HETATM   20  N3  UNL     1      -6.761   3.483  16.691  1.00  0.00    -0.063 N 
HETATM   21  C14 UNL     1      -5.704   2.481  16.795  1.00  0.00     0.268 C 
ATOM     22  H32 UNL     1      -7.032   3.860  17.599  1.00  0.00     0.277 HD
ATOM     23  H31 UNL     1      -7.660   3.077  16.432  1.00  0.00     0.277 HD
BRANCH  21  24
HETATM   24  C15 UNL     1      -6.110   1.510  17.893  1.00  0.00     0.385 C 
HETATM   25  F1  UNL     1      -7.329   0.922  17.612  1.00  0.00    -0.212 F 
HETATM   26  F2  UNL     1      -6.214   2.231  19.073  1.00  0.00    -0.212 F 
ENDBRANCH  21  24
ENDBRANCH   1  14
TORSDOF 5
ENDMDL
MODEL 5
REMARK VINA RESULT: -7.475009477      4.306      7.515
REMARK  5 active torsions:
REMARK  status: ('A' for Active; 'I' for Inactive)
REMARK    1  A    between atoms: C1_2  and  C2_3 
REMARK       I    between atoms: C1_2  and  N1_10 
REMARK    2  A    between atoms: C2_3  and  C3_4 
REMARK    3  A    between atoms: C9_12  and  C10_13 
REMARK    4  A    between atoms: C10_13  and  C11_14 
REMARK       I    between atoms: C11_14  and  N2_16 
REMARK    5  A    between atoms: C14_22  and  C15_23 
ROOT
HETATM    1  C10 UNL     1      -4.066   3.185  12.580  1.00  0.00     0.147 C 
ENDROOT
BRANCH   1   2
HETATM    2  C9  UNL     1      -2.786   3.890  12.845  1.00  0.00     0.073 C 
HETATM    3  N1  UNL     1      -1.888   3.895  11.938  1.00  0.00    -0.340 N 
HETATM    4  C1  UNL     1      -2.039   3.268  10.693  1.00  0.00     0.221 C 
ATOM      5  H1  UNL     1      -1.012   4.381  12.130  1.00  0.00     0.167 HD
HETATM    6  O1  UNL     1      -2.561   3.923   9.753  1.00  0.00    -0.273 OA
BRANCH   4   7
HETATM    7  C2  UNL     1      -1.610   1.867  10.424  1.00  0.00     0.107 C 
BRANCH   7   8
HETATM    8  C3  UNL     1      -2.609   0.915  10.999  1.00  0.00    -0.006 C 
HETATM    9  C4  UNL     1      -2.008  -0.445  11.217  1.00  0.00     0.005 C 
HETATM   10  C5  UNL     1      -2.949  -1.432  11.812  1.00  0.00     0.000 C 
HETATM   11  C6  UNL     1      -4.380  -1.270  11.518  1.00  0.00     0.000 C 
HETATM   12  C7  UNL     1      -4.821  -0.026  10.844  1.00  0.00     0.000 C 
HETATM   13  C8  UNL     1      -3.783   0.689  10.044  1.00  0.00     0.005 C 
ENDBRANCH   7   8
ENDBRANCH   4   7
ENDBRANCH   1   2
BRANCH   1  14
HETATM   14  C11 UNL     1      -4.502   2.385  13.746  1.00  0.00     0.224 C 
HETATM   15  O2  UNL     1      -3.886   1.287  13.960  1.00  0.00    -0.273 OA
HETATM   16  N2  UNL     1      -5.539   2.731  14.641  1.00  0.00    -0.348 N 
HETATM   17  C12 UNL     1      -6.304   3.932  14.489  1.00  0.00     0.153 C 
HETATM   18  C16 UNL     1      -5.844   1.840  15.764  1.00  0.00     0.164 C 
HETATM   19  C13 UNL     1      -6.361   4.658  15.833  1.00  0.00     0.253 C 
HETATM   20  N3  UNL     1      -6.826   3.723  16.839  1.00  0.00    -0.063 N 
HETATM   21  C14 UNL     1      -5.812   2.686  17.017  1.00  0.00     0.268 C 
ATOM     22  H32 UNL     1      -7.072   4.182  17.716  1.00  0.00     0.277 HD
ATOM     23  H31 UNL     1      -7.744   3.337  16.619  1.00  0.00     0.277 HD
BRANCH  21  24
HETATM   24  C15 UNL     1      -6.250   1.825  18.192  1.00  0.00     0.385 C 
HETATM   25  F1  UNL     1      -7.444   1.183  17.921  1.00  0.00    -0.212 F 
HETATM   26  F2  UNL     1      -6.422   2.661  19.285  1.00  0.00    -0.212 F 
ENDBRANCH  21  24
ENDBRANCH   1  14
TORSDOF 5
ENDMDL
