MODEL 1
REMARK VINA RESULT: -6.222590792      0.000      0.000
REMARK  6 active torsions:
REMARK  status: ('A' for Active; 'I' for Inactive)
REMARK    1  A    between atoms: C2_2  and  C4_4 
REMARK    2  A    between atoms: C4_4  and  C5_5 
REMARK    3  A    between atoms: C5_5  and  N1_6 
REMARK    4  A    between atoms: C5_5  and  C6_10 
REMARK       I    between atoms: C6_10  and  N2_12 
REMARK    5  A    between atoms: C10_18  and  C11_19 
REMARK    6  A    between atoms: C11_19  and  O2_20 
ROOT
HETATM    1  C6  UNL     1      -4.316   1.387  13.930  1.00  0.00     0.251 C 
HETATM    2  O1  UNL     1      -4.593   0.205  13.528  1.00  0.00    -0.271 OA
HETATM    3  N2  UNL     1      -3.801   2.316  13.008  1.00  0.00    -0.341 N 
HETATM    4  C7  UNL     1      -3.413   3.687  13.273  1.00  0.00     0.129 C 
HETATM    5  C8  UNL     1      -2.277   3.903  12.293  1.00  0.00     0.059 C 
HETATM    6  C9  UNL     1      -2.792   3.186  11.069  1.00  0.00     0.118 C 
HETATM    7 CL1  UNL     1      -3.783   4.324  10.139  1.00  0.00    -0.104 Cl
HETATM    8 BR1  UNL     1      -1.264   2.597  10.043  1.00  0.00    -0.066 Br
HETATM    9  C10 UNL     1      -3.570   2.033  11.601  1.00  0.00     0.145 C 
ENDROOT
BRANCH   1  10
HETATM   10  C5  UNL     1      -4.566   1.682  15.360  1.00  0.00     0.275 C 
BRANCH  10  11
HETATM   11  C4  UNL     1      -5.983   2.109  15.528  1.00  0.00     0.046 C 
BRANCH  11  12
HETATM   12  C2  UNL     1      -6.438   2.258  16.953  1.00  0.00    -0.020 C 
HETATM   13  C1  UNL     1      -7.293   1.130  17.429  1.00  0.00     0.009 C 
HETATM   14  C3  UNL     1      -6.964   3.613  17.284  1.00  0.00     0.009 C 
ENDBRANCH  11  12
ENDBRANCH  10  11
BRANCH  10  15
HETATM   15  N1  UNL     1      -4.234   0.495  16.121  1.00  0.00    -0.066 N 
ATOM     16  H13 UNL     1      -3.639  -0.130  15.577  1.00  0.00     0.275 HD
ATOM     17  H12 UNL     1      -3.593   0.719  16.881  1.00  0.00     0.275 HD
ATOM     18  H11 UNL     1      -5.055   0.000  16.471  1.00  0.00     0.275 HD
ENDBRANCH  10  15
ENDBRANCH   1  10
BRANCH   9  19
HETATM   19  C11 UNL     1      -4.881   1.820  10.877  1.00  0.00     0.192 C 
BRANCH  19  20
HETATM   20  O2  UNL     1      -5.130   0.499  10.600  1.00  0.00    -0.399 OA
ATOM     21  H2  UNL     1      -5.388   0.002  11.368  1.00  0.00     0.209 HD
ENDBRANCH  19  20
ENDBRANCH   9  19
TORSDOF 6
ENDMDL
MODEL 2
REMARK VINA RESULT: -6.158497028      0.705      1.015
REMARK  6 active torsions:
REMARK  status: ('A' for Active; 'I' for Inactive)
REMARK    1  A    between atoms: C2_2  and  C4_4 
REMARK    2  A    between atoms: C4_4  and  C5_5 
REMARK    3  A    between atoms: C5_5  and  N1_6 
REMARK    4  A    between atoms: C5_5  and  C6_10 
REMARK       I    between atoms: C6_10  and  N2_12 
REMARK    5  A    between atoms: C10_18  and  C11_19 
REMARK    6  A    between atoms: C11_19  and  O2_20 
ROOT
HETATM    1  C6  UNL     1      -4.534   1.656  14.285  1.00  0.00     0.251 C 
HETATM    2  O1  UNL     1      -4.906   0.458  14.035  1.00  0.00    -0.271 OA
HETATM    3  N2  UNL     1      -3.953   2.416  13.254  1.00  0.00    -0.341 N 
HETATM    4  C7  UNL     1      -3.455   3.775  13.345  1.00  0.00     0.129 C 
HETATM    5  C8  UNL     1      -2.313   3.774  12.348  1.00  0.00     0.059 C 
HETATM    6  C9  UNL     1      -2.891   2.951  11.224  1.00  0.00     0.118 C 
HETATM    7 CL1  UNL     1      -3.795   4.037  10.154  1.00  0.00    -0.104 Cl
HETATM    8 BR1  UNL     1      -1.423   2.117  10.286  1.00  0.00    -0.066 Br
HETATM    9  C10 UNL     1      -3.754   1.940  11.895  1.00  0.00     0.145 C 
ENDROOT
BRANCH   1  10
HETATM   10  C5  UNL     1      -4.749   2.148  15.665  1.00  0.00     0.275 C 
BRANCH  10  11
HETATM   11  C4  UNL     1      -5.980   1.517  16.220  1.00  0.00     0.046 C 
BRANCH  11  12
HETATM   12  C2  UNL     1      -6.751   2.370  17.188  1.00  0.00    -0.020 C 
HETATM   13  C1  UNL     1      -6.794   3.814  16.809  1.00  0.00     0.009 C 
HETATM   14  C3  UNL     1      -6.419   2.117  18.618  1.00  0.00     0.009 C 
ENDBRANCH  11  12
ENDBRANCH  10  11
BRANCH  10  15
HETATM   15  N1  UNL     1      -3.558   1.847  16.433  1.00  0.00    -0.066 N 
ATOM     16  H13 UNL     1      -3.783   1.730  17.421  1.00  0.00     0.275 HD
ATOM     17  H12 UNL     1      -3.221   0.907  16.226  1.00  0.00     0.275 HD
ATOM     18  H11 UNL     1      -2.816   2.535  16.309  1.00  0.00     0.275 HD
ENDBRANCH  10  15
ENDBRANCH   1  10
BRANCH   9  19
HETATM   19  C11 UNL     1      -5.084   1.742  11.200  1.00  0.00     0.192 C 
BRANCH  19  20
HETATM   20  O2  UNL     1      -5.293   0.443  10.809  1.00  0.00    -0.399 OA
ATOM     21  H2  UNL     1      -5.636   0.373   9.926  1.00  0.00     0.209 HD
ENDBRANCH  19  20
ENDBRANCH   9  19
TORSDOF 6
ENDMDL
MODEL 3
REMARK VINA RESULT: -6.055588279      1.918      2.148
REMARK  6 active torsions:
REMARK  status: ('A' for Active; 'I' for Inactive)
REMARK    1  A    between atoms: C2_2  and  C4_4 
REMARK    2  A    between atoms: C4_4  and  C5_5 
REMARK    3  A    between atoms: C5_5  and  N1_6 
REMARK    4  A    between atoms: C5_5  and  C6_10 
REMARK       I    between atoms: C6_10  and  N2_12 
REMARK    5  A    between atoms: C10_18  and  C11_19 
REMARK    6  A    between atoms: C11_19  and  O2_20 
ROOT
HETATM    1  C6  UNL     1      -4.510   0.939  14.793  1.00  0.00     0.251 C 
HETATM    2  O1  UNL     1      -3.922  -0.088  15.279  1.00  0.00    -0.271 OA
HETATM    3  N2  UNL     1      -4.359   1.223  13.423  1.00  0.00    -0.341 N 
HETATM    4  C7  UNL     1      -4.927   2.341  12.695  1.00  0.00     0.129 C 
HETATM    5  C8  UNL     1      -3.881   2.606  11.632  1.00  0.00     0.059 C 
HETATM    6  C9  UNL     1      -3.483   1.205  11.240  1.00  0.00     0.118 C 
HETATM    7 CL1  UNL     1      -4.596   0.649   9.977  1.00  0.00    -0.104 Cl
HETATM    8 BR1  UNL     1      -1.666   1.266  10.587  1.00  0.00    -0.066 Br
HETATM    9  C10 UNL     1      -3.584   0.413  12.497  1.00  0.00     0.145 C 
ENDROOT
BRANCH   1  10
HETATM   10  C5  UNL     1      -5.313   1.756  15.731  1.00  0.00     0.275 C 
BRANCH  10  11
HETATM   11  C4  UNL     1      -5.283   1.119  17.078  1.00  0.00     0.046 C 
BRANCH  11  12
HETATM   12  C2  UNL     1      -6.537   1.289  17.889  1.00  0.00    -0.020 C 
HETATM   13  C1  UNL     1      -7.783   1.309  17.067  1.00  0.00     0.009 C 
HETATM   14  C3  UNL     1      -6.456   2.371  18.912  1.00  0.00     0.009 C 
ENDBRANCH  11  12
ENDBRANCH  10  11
BRANCH  10  15
HETATM   15  N1  UNL     1      -4.770   3.099  15.724  1.00  0.00    -0.066 N 
ATOM     16  H13 UNL     1      -4.976   3.579  16.600  1.00  0.00     0.275 HD
ATOM     17  H12 UNL     1      -3.751   3.078  15.779  1.00  0.00     0.275 HD
ATOM     18  H11 UNL     1      -5.080   3.652  14.925  1.00  0.00     0.275 HD
ENDBRANCH  10  15
ENDBRANCH   1  10
BRANCH   9  19
HETATM   19  C11 UNL     1      -4.236  -0.937  12.296  1.00  0.00     0.192 C 
BRANCH  19  20
HETATM   20  O2  UNL     1      -3.367  -1.883  11.810  1.00  0.00    -0.399 OA
ATOM     21  H2  UNL     1      -3.122  -1.729  10.905  1.00  0.00     0.209 HD
ENDBRANCH  19  20
ENDBRANCH   9  19
TORSDOF 6
ENDMDL
MODEL 4
REMARK VINA RESULT: -5.735931074      1.051      1.055
REMARK  6 active torsions:
REMARK  status: ('A' for Active; 'I' for Inactive)
REMARK    1  A    between atoms: C2_2  and  C4_4 
REMARK    2  A    between atoms: C4_4  and  C5_5 
REMARK    3  A    between atoms: C5_5  and  N1_6 
REMARK    4  A    between atoms: C5_5  and  C6_10 
REMARK       I    between atoms: C6_10  and  N2_12 
REMARK    5  A    between atoms: C10_18  and  C11_19 
REMARK    6  A    between atoms: C11_19  and  O2_20 
ROOT
HETATM    1  C6  UNL     1      -4.333   2.027  14.263  1.00  0.00     0.251 C 
HETATM    2  O1  UNL     1      -4.894   1.035  13.680  1.00  0.00    -0.271 OA
HETATM    3  N2  UNL     1      -3.688   3.000  13.478  1.00  0.00    -0.341 N 
HETATM    4  C7  UNL     1      -2.986   4.177  13.950  1.00  0.00     0.129 C 
HETATM    5  C8  UNL     1      -1.901   4.354  12.907  1.00  0.00     0.059 C 
HETATM    6  C9  UNL     1      -2.645   4.026  11.636  1.00  0.00     0.118 C 
HETATM    7 CL1  UNL     1      -3.418   5.510  11.052  1.00  0.00    -0.104 Cl
HETATM    8 BR1  UNL     1      -1.361   3.361  10.355  1.00  0.00    -0.066 Br
HETATM    9  C10 UNL     1      -3.622   2.972  12.026  1.00  0.00     0.145 C 
ENDROOT
BRANCH   1  10
HETATM   10  C5  UNL     1      -4.413   2.064  15.741  1.00  0.00     0.275 C 
BRANCH  10  11
HETATM   11  C4  UNL     1      -5.787   2.474  16.144  1.00  0.00     0.046 C 
BRANCH  11  12
HETATM   12  C2  UNL     1      -6.359   1.718  17.311  1.00  0.00    -0.020 C 
HETATM   13  C1  UNL     1      -7.690   1.102  17.030  1.00  0.00     0.009 C 
HETATM   14  C3  UNL     1      -6.281   2.452  18.606  1.00  0.00     0.009 C 
ENDBRANCH  11  12
ENDBRANCH  10  11
BRANCH  10  15
HETATM   15  N1  UNL     1      -4.039   0.756  16.238  1.00  0.00    -0.066 N 
ATOM     16  H13 UNL     1      -3.941   0.767  17.253  1.00  0.00     0.275 HD
ATOM     17  H12 UNL     1      -4.815   0.100  16.152  1.00  0.00     0.275 HD
ATOM     18  H11 UNL     1      -3.198   0.384  15.796  1.00  0.00     0.275 HD
ENDBRANCH  10  15
ENDBRANCH   1  10
BRANCH   9  19
HETATM   19  C11 UNL     1      -4.995   3.187  11.427  1.00  0.00     0.192 C 
BRANCH  19  20
HETATM   20  O2  UNL     1      -5.557   2.028  10.952  1.00  0.00    -0.399 OA
ATOM     21  H2  UNL     1      -6.216   1.671  11.535  1.00  0.00     0.209 HD
ENDBRANCH  19  20
ENDBRANCH   9  19
TORSDOF 6
ENDMDL
MODEL 5
REMARK VINA RESULT: -5.402032599      3.668      5.223
REMARK  6 active torsions:
REMARK  status: ('A' for Active; 'I' for Inactive)
REMARK    1  A    between atoms: C2_2  and  C4_4 
REMARK    2  A    between atoms: C4_4  and  C5_5 
REMARK    3  A    between atoms: C5_5  and  N1_6 
REMARK    4  A    between atoms: C5_5  and  C6_10 
REMARK       I    between atoms: C6_10  and  N2_12 
REMARK    5  A    between atoms: C10_18  and  C11_19 
REMARK    6  A    between atoms: C11_19  and  O2_20 
ROOT
HETATM    1  C6  UNL     1      -4.414   3.292  13.127  1.00  0.00     0.251 C 
HETATM    2  O1  UNL     1      -3.391   3.564  12.409  1.00  0.00    -0.271 OA
HETATM    3  N2  UNL     1      -5.093   4.344  13.768  1.00  0.00    -0.341 N 
HETATM    4  C7  UNL     1      -6.253   4.237  14.631  1.00  0.00     0.129 C 
HETATM    5  C8  UNL     1      -6.050   5.384  15.599  1.00  0.00     0.059 C 
HETATM    6  C9  UNL     1      -5.531   6.466  14.684  1.00  0.00     0.118 C 
HETATM    7 CL1  UNL     1      -6.922   7.321  13.996  1.00  0.00    -0.104 Cl
HETATM    8 BR1  UNL     1      -4.436   7.657  15.739  1.00  0.00    -0.066 Br
HETATM    9  C10 UNL     1      -4.723   5.745  13.661  1.00  0.00     0.145 C 
ENDROOT
BRANCH   1  10
HETATM   10  C5  UNL     1      -4.801   1.866  13.224  1.00  0.00     0.275 C 
BRANCH  10  11
HETATM   11  C4  UNL     1      -4.501   1.191  11.930  1.00  0.00     0.046 C 
BRANCH  11  12
HETATM   12  C2  UNL     1      -3.470   0.099  12.007  1.00  0.00    -0.020 C 
HETATM   13  C1  UNL     1      -2.214   0.408  11.263  1.00  0.00     0.009 C 
HETATM   14  C3  UNL     1      -4.014  -1.267  11.758  1.00  0.00     0.009 C 
ENDBRANCH  11  12
ENDBRANCH  10  11
BRANCH  10  15
HETATM   15  N1  UNL     1      -4.090   1.290  14.346  1.00  0.00    -0.066 N 
ATOM     16  H13 UNL     1      -4.561   0.449  14.682  1.00  0.00     0.275 HD
ATOM     17  H12 UNL     1      -3.207   0.878  14.044  1.00  0.00     0.275 HD
ATOM     18  H11 UNL     1      -3.941   1.951  15.109  1.00  0.00     0.275 HD
ENDBRANCH  10  15
ENDBRANCH   1  10
BRANCH   9  19
HETATM   19  C11 UNL     1      -4.959   6.254  12.256  1.00  0.00     0.192 C 
BRANCH  19  20
HETATM   20  O2  UNL     1      -3.796   6.416  11.544  1.00  0.00    -0.399 OA
ATOM     21  H2  UNL     1      -3.857   6.084  10.656  1.00  0.00     0.209 HD
ENDBRANCH  19  20
ENDBRANCH   9  19
TORSDOF 6
ENDMDL
