MODEL 1
REMARK VINA RESULT: -7.005914935      0.000      0.000
REMARK  5 active torsions:
REMARK  status: ('A' for Active; 'I' for Inactive)
REMARK       I    between atoms: N1_5  and  C5_6 
REMARK    1  A    between atoms: C5_6  and  C6_8 
REMARK    2  A    between atoms: C6_8  and  C7_9 
REMARK    3  A    between atoms: C7_9  and  C8_10 
REMARK    4  A    between atoms: C8_10  and  O2_11 
REMARK    5  A    between atoms: C8_10  and  C9_13 
ROOT
HETATM    1  C1  UNL     1      -2.578  -0.285  11.222  1.00  0.00     0.016 C 
HETATM    2  C2  UNL     1      -3.015   1.166  11.270  1.00  0.00    -0.031 C 
HETATM    3  C3  UNL     1      -4.304   1.266  10.482  1.00  0.00     0.016 C 
HETATM    4  C4  UNL     1      -3.320   1.524  12.700  1.00  0.00     0.134 C 
HETATM    5  N1  UNL     1      -3.705   2.911  12.735  1.00  0.00    -0.351 N 
HETATM    6  C5  UNL     1      -4.771   3.300  13.576  1.00  0.00     0.219 C 
HETATM    7  O1  UNL     1      -5.103   4.500  13.602  1.00  0.00    -0.273 OA
HETATM    8  C12 UNL     1      -3.029   3.864  11.943  1.00  0.00     0.137 C 
HETATM    9  C13 UNL     1      -1.851   3.394  11.189  1.00  0.00     0.002 C 
HETATM   10  C14 UNL     1      -1.518   4.299  10.005  1.00  0.00     0.040 C 
HETATM   11  C15 UNL     1      -0.034   4.008   9.838  1.00  0.00     0.233 C 
HETATM   12  N2  UNL     1       0.491   3.744  11.147  1.00  0.00    -0.074 N 
ATOM     13  H21 UNL     1       1.154   4.456  11.456  1.00  0.00     0.277 HD
ATOM     14  H22 UNL     1       1.127   2.947  11.163  1.00  0.00     0.277 HD
HETATM   15  C16 UNL     1      -0.618   3.588  12.052  1.00  0.00     0.243 C 
HETATM   16  C17 UNL     1      -1.910   1.992  10.684  1.00  0.00     0.023 C 
ENDROOT
BRANCH   6  17
HETATM   17  C6  UNL     1      -5.476   2.299  14.400  1.00  0.00     0.105 C 
BRANCH  17  18
HETATM   18  C7  UNL     1      -5.006   2.349  15.826  1.00  0.00     0.041 C 
BRANCH  18  19
HETATM   19  C8  UNL     1      -4.973   0.983  16.408  1.00  0.00     0.122 C 
BRANCH  19  20
HETATM   20  O2  UNL     1      -5.141   0.086  15.339  1.00  0.00    -0.395 OA
ATOM     21  H2  UNL     1      -5.705  -0.610  15.653  1.00  0.00     0.210 HD
ENDBRANCH  19  20
BRANCH  19  22
HETATM   22  C9  UNL     1      -6.004   0.729  17.481  1.00  0.00     0.014 A 
HETATM   23  C10 UNL     1      -7.413   1.152  17.310  1.00  0.00     0.007 A 
HETATM   24  C11 UNL     1      -6.479   1.858  18.269  1.00  0.00     0.007 A 
ENDBRANCH  19  22
ENDBRANCH  18  19
ENDBRANCH  17  18
ENDBRANCH   6  17
TORSDOF 5
ENDMDL
MODEL 2
REMARK VINA RESULT: -6.865170510      3.402      4.778
REMARK  5 active torsions:
REMARK  status: ('A' for Active; 'I' for Inactive)
REMARK       I    between atoms: N1_5  and  C5_6 
REMARK    1  A    between atoms: C5_6  and  C6_8 
REMARK    2  A    between atoms: C6_8  and  C7_9 
REMARK    3  A    between atoms: C7_9  and  C8_10 
REMARK    4  A    between atoms: C8_10  and  O2_11 
REMARK    5  A    between atoms: C8_10  and  C9_13 
ROOT
HETATM    1  C1  UNL     1      -7.155   7.249  13.592  1.00  0.00     0.016 C 
HETATM    2  C2  UNL     1      -5.860   6.844  14.266  1.00  0.00    -0.031 C 
HETATM    3  C3  UNL     1      -6.146   6.743  15.749  1.00  0.00     0.016 C 
HETATM    4  C4  UNL     1      -5.476   5.473  13.776  1.00  0.00     0.134 C 
HETATM    5  N1  UNL     1      -4.230   5.114  14.402  1.00  0.00    -0.351 N 
HETATM    6  C5  UNL     1      -4.052   3.787  14.852  1.00  0.00     0.219 C 
HETATM    7  O1  UNL     1      -2.975   3.480  15.394  1.00  0.00    -0.273 OA
HETATM    8  C12 UNL     1      -3.205   6.071  14.563  1.00  0.00     0.137 C 
HETATM    9  C13 UNL     1      -3.425   7.397  13.955  1.00  0.00     0.002 C 
HETATM   10  C14 UNL     1      -2.563   8.482  14.596  1.00  0.00     0.040 C 
HETATM   11  C15 UNL     1      -2.489   9.490  13.459  1.00  0.00     0.233 C 
HETATM   12  N2  UNL     1      -2.509   8.742  12.234  1.00  0.00    -0.074 N 
ATOM     13  H21 UNL     1      -1.632   8.811  11.716  1.00  0.00     0.277 HD
ATOM     14  H22 UNL     1      -3.119   9.156  11.530  1.00  0.00     0.277 HD
HETATM   15  C16 UNL     1      -2.864   7.382  12.546  1.00  0.00     0.243 C 
HETATM   16  C17 UNL     1      -4.834   7.889  13.942  1.00  0.00     0.023 C 
ENDROOT
BRANCH   6  17
HETATM   17  C6  UNL     1      -5.128   2.791  14.682  1.00  0.00     0.105 C 
BRANCH  17  18
HETATM   18  C7  UNL     1      -4.648   1.414  15.039  1.00  0.00     0.041 C 
BRANCH  18  19
HETATM   19  C8  UNL     1      -5.137   1.028  16.388  1.00  0.00     0.122 C 
BRANCH  19  20
HETATM   20  O2  UNL     1      -5.467  -0.337  16.321  1.00  0.00    -0.395 OA
ATOM     21  H2  UNL     1      -4.796  -0.802  16.807  1.00  0.00     0.210 HD
ENDBRANCH  19  20
BRANCH  19  22
HETATM   22  C9  UNL     1      -6.311   1.835  16.888  1.00  0.00     0.014 A 
HETATM   23  C10 UNL     1      -6.630   1.916  18.333  1.00  0.00     0.007 A 
HETATM   24  C11 UNL     1      -7.487   1.124  17.370  1.00  0.00     0.007 A 
ENDBRANCH  19  22
ENDBRANCH  18  19
ENDBRANCH  17  18
ENDBRANCH   6  17
TORSDOF 5
ENDMDL
MODEL 3
REMARK VINA RESULT: -6.862346017      2.519      6.025
REMARK  5 active torsions:
REMARK  status: ('A' for Active; 'I' for Inactive)
REMARK       I    between atoms: N1_5  and  C5_6 
REMARK    1  A    between atoms: C5_6  and  C6_8 
REMARK    2  A    between atoms: C6_8  and  C7_9 
REMARK    3  A    between atoms: C7_9  and  C8_10 
REMARK    4  A    between atoms: C8_10  and  O2_11 
REMARK    5  A    between atoms: C8_10  and  C9_13 
ROOT
HETATM    1  C1  UNL     1      -2.240   4.551  14.780  1.00  0.00     0.016 C 
HETATM    2  C2  UNL     1      -3.609   4.119  14.292  1.00  0.00    -0.031 C 
HETATM    3  C3  UNL     1      -4.209   5.299  13.557  1.00  0.00     0.016 C 
HETATM    4  C4  UNL     1      -3.432   3.000  13.301  1.00  0.00     0.134 C 
HETATM    5  N1  UNL     1      -4.739   2.581  12.869  1.00  0.00    -0.351 N 
HETATM    6  C5  UNL     1      -4.938   2.267  11.506  1.00  0.00     0.219 C 
HETATM    7  O1  UNL     1      -6.070   1.908  11.135  1.00  0.00    -0.273 OA
HETATM    8  C12 UNL     1      -5.804   2.487  13.791  1.00  0.00     0.137 C 
HETATM    9  C13 UNL     1      -5.482   2.714  15.212  1.00  0.00     0.002 C 
HETATM   10  C14 UNL     1      -6.708   3.106  16.033  1.00  0.00     0.040 C 
HETATM   11  C15 UNL     1      -6.273   2.658  17.420  1.00  0.00     0.233 C 
HETATM   12  N2  UNL     1      -5.445   1.499  17.245  1.00  0.00    -0.074 N 
ATOM     13  H21 UNL     1      -5.868   0.652  17.626  1.00  0.00     0.277 HD
ATOM     14  H22 UNL     1      -4.613   1.516  17.836  1.00  0.00     0.277 HD
HETATM   15  C16 UNL     1      -5.129   1.381  15.846  1.00  0.00     0.243 C 
HETATM   16  C17 UNL     1      -4.412   3.714  15.493  1.00  0.00     0.023 C 
ENDROOT
BRANCH   6  17
HETATM   17  C6  UNL     1      -3.821   2.370  10.546  1.00  0.00     0.105 C 
BRANCH  17  18
HETATM   18  C7  UNL     1      -2.894   1.195  10.672  1.00  0.00     0.041 C 
BRANCH  18  19
HETATM   19  C8  UNL     1      -3.421   0.036   9.909  1.00  0.00     0.122 C 
BRANCH  19  20
HETATM   20  O2  UNL     1      -4.353   0.550   8.990  1.00  0.00    -0.395 OA
ATOM     21  H2  UNL     1      -5.165   0.673   9.466  1.00  0.00     0.210 HD
ENDBRANCH  19  20
BRANCH  19  22
HETATM   22  C9  UNL     1      -4.051  -1.044  10.756  1.00  0.00     0.014 A 
HETATM   23  C10 UNL     1      -3.962  -1.012  12.234  1.00  0.00     0.007 A 
HETATM   24  C11 UNL     1      -3.179  -2.011  11.409  1.00  0.00     0.007 A 
ENDBRANCH  19  22
ENDBRANCH  18  19
ENDBRANCH  17  18
ENDBRANCH   6  17
TORSDOF 5
ENDMDL
MODEL 4
REMARK VINA RESULT: -6.818470204      1.920      2.702
REMARK  5 active torsions:
REMARK  status: ('A' for Active; 'I' for Inactive)
REMARK       I    between atoms: N1_5  and  C5_6 
REMARK    1  A    between atoms: C5_6  and  C6_8 
REMARK    2  A    between atoms: C6_8  and  C7_9 
REMARK    3  A    between atoms: C7_9  and  C8_10 
REMARK    4  A    between atoms: C8_10  and  O2_11 
REMARK    5  A    between atoms: C8_10  and  C9_13 
ROOT
HETATM    1  C1  UNL     1      -4.734   5.644  10.441  1.00  0.00     0.016 C 
HETATM    2  C2  UNL     1      -3.661   5.486  11.500  1.00  0.00    -0.031 C 
HETATM    3  C3  UNL     1      -3.709   6.727  12.366  1.00  0.00     0.016 C 
HETATM    4  C4  UNL     1      -4.017   4.306  12.367  1.00  0.00     0.134 C 
HETATM    5  N1  UNL     1      -2.976   4.150  13.349  1.00  0.00    -0.351 N 
HETATM    6  C5  UNL     1      -3.335   3.817  14.673  1.00  0.00     0.219 C 
HETATM    7  O1  UNL     1      -2.433   3.686  15.521  1.00  0.00    -0.273 OA
HETATM    8  C12 UNL     1      -1.621   4.328  12.994  1.00  0.00     0.137 C 
HETATM    9  C13 UNL     1      -1.326   4.552  11.566  1.00  0.00     0.002 C 
HETATM   10  C14 UNL     1       0.023   5.234  11.349  1.00  0.00     0.040 C 
HETATM   11  C15 UNL     1       0.346   4.774   9.936  1.00  0.00     0.233 C 
HETATM   12  N2  UNL     1      -0.211   3.460   9.786  1.00  0.00    -0.074 N 
ATOM     13  H21 UNL     1       0.504   2.741   9.670  1.00  0.00     0.277 HD
ATOM     14  H22 UNL     1      -0.681   3.332   8.890  1.00  0.00     0.277 HD
HETATM   15  C16 UNL     1      -1.076   3.208  10.908  1.00  0.00     0.243 C 
HETATM   16  C17 UNL     1      -2.348   5.319  10.796  1.00  0.00     0.023 C 
ENDROOT
BRANCH   6  17
HETATM   17  C6  UNL     1      -4.754   3.635  15.039  1.00  0.00     0.105 C 
BRANCH  17  18
HETATM   18  C7  UNL     1      -5.085   2.179  15.200  1.00  0.00     0.041 C 
BRANCH  18  19
HETATM   19  C8  UNL     1      -4.711   1.711  16.559  1.00  0.00     0.122 C 
BRANCH  19  20
HETATM   20  O2  UNL     1      -3.632   0.824  16.396  1.00  0.00    -0.395 OA
ATOM     21  H2  UNL     1      -3.167   1.102  15.616  1.00  0.00     0.210 HD
ENDBRANCH  19  20
BRANCH  19  22
HETATM   22  C9  UNL     1      -5.830   1.051  17.330  1.00  0.00     0.014 A 
HETATM   23  C10 UNL     1      -7.249   1.368  17.049  1.00  0.00     0.007 A 
HETATM   24  C11 UNL     1      -6.560   1.844  18.309  1.00  0.00     0.007 A 
ENDBRANCH  19  22
ENDBRANCH  18  19
ENDBRANCH  17  18
ENDBRANCH   6  17
TORSDOF 5
ENDMDL
MODEL 5
REMARK VINA RESULT: -6.797891104      3.731      5.330
REMARK  5 active torsions:
REMARK  status: ('A' for Active; 'I' for Inactive)
REMARK       I    between atoms: N1_5  and  C5_6 
REMARK    1  A    between atoms: C5_6  and  C6_8 
REMARK    2  A    between atoms: C6_8  and  C7_9 
REMARK    3  A    between atoms: C7_9  and  C8_10 
REMARK    4  A    between atoms: C8_10  and  O2_11 
REMARK    5  A    between atoms: C8_10  and  C9_13 
ROOT
HETATM    1  C1  UNL     1      -7.148   8.318  15.503  1.00  0.00     0.016 C 
HETATM    2  C2  UNL     1      -5.939   7.676  14.852  1.00  0.00    -0.031 C 
HETATM    3  C3  UNL     1      -4.820   7.704  15.872  1.00  0.00     0.016 C 
HETATM    4  C4  UNL     1      -6.262   6.234  14.562  1.00  0.00     0.134 C 
HETATM    5  N1  UNL     1      -5.117   5.646  13.919  1.00  0.00    -0.351 N 
HETATM    6  C5  UNL     1      -4.736   4.333  14.274  1.00  0.00     0.219 C 
HETATM    7  O1  UNL     1      -3.744   3.827  13.717  1.00  0.00    -0.273 OA
HETATM    8  C12 UNL     1      -4.386   6.369  12.950  1.00  0.00     0.137 C 
HETATM    9  C13 UNL     1      -4.923   7.683  12.550  1.00  0.00     0.002 C 
HETATM   10  C14 UNL     1      -3.856   8.587  11.938  1.00  0.00     0.040 C 
HETATM   11  C15 UNL     1      -4.719   9.504  11.086  1.00  0.00     0.233 C 
HETATM   12  N2  UNL     1      -5.834   8.724  10.628  1.00  0.00    -0.074 N 
ATOM     13  H21 UNL     1      -5.826   8.582   9.617  1.00  0.00     0.277 HD
ATOM     14  H22 UNL     1      -6.719   9.227  10.690  1.00  0.00     0.277 HD
HETATM   15  C16 UNL     1      -5.846   7.487  11.362  1.00  0.00     0.243 C 
HETATM   16  C17 UNL     1      -5.618   8.462  13.616  1.00  0.00     0.023 C 
ENDROOT
BRANCH   6  17
HETATM   17  C6  UNL     1      -5.502   3.582  15.288  1.00  0.00     0.105 C 
BRANCH  17  18
HETATM   18  C7  UNL     1      -5.174   2.118  15.236  1.00  0.00     0.041 C 
BRANCH  18  19
HETATM   19  C8  UNL     1      -4.748   1.636  16.575  1.00  0.00     0.122 C 
BRANCH  19  20
HETATM   20  O2  UNL     1      -3.661   0.769  16.363  1.00  0.00    -0.395 OA
ATOM     21  H2  UNL     1      -4.026  -0.100  16.240  1.00  0.00     0.210 HD
ENDBRANCH  19  20
BRANCH  19  22
HETATM   22  C9  UNL     1      -5.830   0.946  17.371  1.00  0.00     0.014 A 
HETATM   23  C10 UNL     1      -7.259   1.290  17.187  1.00  0.00     0.007 A 
HETATM   24  C11 UNL     1      -6.495   1.693  18.430  1.00  0.00     0.007 A 
ENDBRANCH  19  22
ENDBRANCH  18  19
ENDBRANCH  17  18
ENDBRANCH   6  17
TORSDOF 5
ENDMDL
