MODEL 1
REMARK VINA RESULT: -6.348435951      0.000      0.000
REMARK  5 active torsions:
REMARK  status: ('A' for Active; 'I' for Inactive)
REMARK    1  A    between atoms: N2_10  and  C6_11 
REMARK    2  A    between atoms: C6_11  and  C7_12 
REMARK    3  A    between atoms: C7_12  and  C8_13 
REMARK    4  A    between atoms: C8_13  and  C9_14 
REMARK    5  A    between atoms: C12_18  and  O2_19 
ROOT
HETATM    1  C6  UNL     1      -3.556   3.414  11.117  1.00  0.00     0.275 C 
ENDROOT
BRANCH   1   2
HETATM    2  N2  UNL     1      -2.186   3.377  11.456  1.00  0.00     0.122 N 
HETATM    3  C2  UNL     1      -1.547   4.588  11.809  1.00  0.00     0.247 C 
HETATM    4  C1  UNL     1      -1.550   4.949  13.267  1.00  0.00     0.069 C 
HETATM    5 CL1  UNL     1      -2.299   5.984  10.948  1.00  0.00    -0.084 Cl
HETATM    6  C3  UNL     1      -0.053   4.578  11.419  1.00  0.00     0.180 C 
HETATM    7  N1  UNL     1      -0.034   4.481   9.981  1.00  0.00    -0.356 N 
HETATM    8  C4  UNL     1      -0.826   3.442   9.431  1.00  0.00     0.246 C 
ATOM      9  H1  UNL     1       0.512   5.117   9.399  1.00  0.00     0.162 HD
HETATM   10  O1  UNL     1      -0.971   3.265   8.217  1.00  0.00    -0.272 OA
HETATM   11  C5  UNL     1      -1.468   2.583  10.494  1.00  0.00     0.377 C 
ENDBRANCH   1   2
BRANCH   1  12
HETATM   12  C7  UNL     1      -4.505   2.698  12.048  1.00  0.00     0.032 C 
BRANCH  12  13
HETATM   13  C8  UNL     1      -4.898   3.526  13.222  1.00  0.00     0.027 C 
BRANCH  13  14
HETATM   14  C9  UNL     1      -4.863   2.736  14.486  1.00  0.00     0.037 C 
HETATM   15 CL2  UNL     1      -3.547   3.237  15.574  1.00  0.00    -0.119 Cl
HETATM   16  C10 UNL     1      -4.716   1.263  14.255  1.00  0.00     0.028 C 
HETATM   17  C11 UNL     1      -4.613   0.516  15.569  1.00  0.00     0.033 C 
HETATM   18  C12 UNL     1      -5.565   0.946  16.621  1.00  0.00     0.118 C 
HETATM   19  C13 UNL     1      -5.948   2.391  16.622  1.00  0.00     0.033 C 
HETATM   20  C14 UNL     1      -6.206   2.892  15.233  1.00  0.00     0.028 C 
BRANCH  18  21
HETATM   21  O2  UNL     1      -6.714   0.159  16.683  1.00  0.00    -0.396 OA
ATOM     22  H2  UNL     1      -7.210   0.277  17.485  1.00  0.00     0.210 HD
ENDBRANCH  18  21
ENDBRANCH  13  14
ENDBRANCH  12  13
ENDBRANCH   1  12
TORSDOF 5
ENDMDL
MODEL 2
REMARK VINA RESULT: -6.100352379      1.052      1.177
REMARK  5 active torsions:
REMARK  status: ('A' for Active; 'I' for Inactive)
REMARK    1  A    between atoms: N2_10  and  C6_11 
REMARK    2  A    between atoms: C6_11  and  C7_12 
REMARK    3  A    between atoms: C7_12  and  C8_13 
REMARK    4  A    between atoms: C8_13  and  C9_14 
REMARK    5  A    between atoms: C12_18  and  O2_19 
ROOT
HETATM    1  C6  UNL     1      -3.067   4.887  11.733  1.00  0.00     0.275 C 
ENDROOT
BRANCH   1   2
HETATM    2  N2  UNL     1      -1.724   4.518  11.963  1.00  0.00     0.122 N 
HETATM    3  C2  UNL     1      -0.701   5.321  11.406  1.00  0.00     0.247 C 
HETATM    4  C1  UNL     1      -0.186   6.441  12.262  1.00  0.00     0.069 C 
HETATM    5 CL1  UNL     1      -1.252   6.083   9.866  1.00  0.00    -0.084 Cl
HETATM    6  C3  UNL     1       0.555   4.489  11.065  1.00  0.00     0.180 C 
HETATM    7  N1  UNL     1       0.133   3.558  10.049  1.00  0.00    -0.356 N 
HETATM    8  C4  UNL     1      -1.040   2.818  10.350  1.00  0.00     0.246 C 
ATOM      9  H1  UNL     1       0.642   3.439   9.173  1.00  0.00     0.162 HD
HETATM   10  O1  UNL     1      -1.570   2.030   9.561  1.00  0.00    -0.272 OA
HETATM   11  C5  UNL     1      -1.561   3.105  11.738  1.00  0.00     0.377 C 
ENDBRANCH   1   2
BRANCH   1  12
HETATM   12  C7  UNL     1      -4.012   4.769  12.905  1.00  0.00     0.032 C 
BRANCH  12  13
HETATM   13  C8  UNL     1      -4.817   3.516  12.874  1.00  0.00     0.027 C 
BRANCH  13  14
HETATM   14  C9  UNL     1      -4.809   2.828  14.197  1.00  0.00     0.037 C 
HETATM   15 CL2  UNL     1      -3.559   3.461  15.293  1.00  0.00    -0.119 Cl
HETATM   16  C10 UNL     1      -4.604   1.349  14.089  1.00  0.00     0.028 C 
HETATM   17  C11 UNL     1      -4.531   0.710  15.461  1.00  0.00     0.033 C 
HETATM   18  C12 UNL     1      -5.541   1.185  16.438  1.00  0.00     0.118 C 
HETATM   19  C13 UNL     1      -5.972   2.611  16.308  1.00  0.00     0.033 C 
HETATM   20  C14 UNL     1      -6.187   2.993  14.875  1.00  0.00     0.028 C 
BRANCH  18  21
HETATM   21  O2  UNL     1      -6.665   0.363  16.516  1.00  0.00    -0.396 OA
ATOM     22  H2  UNL     1      -7.117   0.420  17.350  1.00  0.00     0.210 HD
ENDBRANCH  18  21
ENDBRANCH  13  14
ENDBRANCH  12  13
ENDBRANCH   1  12
TORSDOF 5
ENDMDL
MODEL 3
REMARK VINA RESULT: -6.056717241      1.463      1.928
REMARK  5 active torsions:
REMARK  status: ('A' for Active; 'I' for Inactive)
REMARK    1  A    between atoms: N2_10  and  C6_11 
REMARK    2  A    between atoms: C6_11  and  C7_12 
REMARK    3  A    between atoms: C7_12  and  C8_13 
REMARK    4  A    between atoms: C8_13  and  C9_14 
REMARK    5  A    between atoms: C12_18  and  O2_19 
ROOT
HETATM    1  C6  UNL     1      -2.631   4.241  12.746  1.00  0.00     0.275 C 
ENDROOT
BRANCH   1   2
HETATM    2  N2  UNL     1      -1.291   4.314  12.309  1.00  0.00     0.122 N 
HETATM    3  C2  UNL     1      -0.891   5.439  11.551  1.00  0.00     0.247 C 
HETATM    4  C1  UNL     1      -0.349   6.609  12.320  1.00  0.00     0.069 C 
HETATM    5 CL1  UNL     1      -2.269   6.077  10.577  1.00  0.00    -0.084 Cl
HETATM    6  C3  UNL     1       0.232   5.082  10.552  1.00  0.00     0.180 C 
HETATM    7  N1  UNL     1      -0.355   4.132   9.641  1.00  0.00    -0.356 N 
HETATM    8  C4  UNL     1      -1.016   3.034  10.249  1.00  0.00     0.246 C 
ATOM      9  H1  UNL     1      -0.298   4.241   8.628  1.00  0.00     0.162 HD
HETATM   10  O1  UNL     1      -1.627   2.169   9.613  1.00  0.00    -0.272 OA
HETATM   11  C5  UNL     1      -0.890   3.048  11.753  1.00  0.00     0.377 C 
ENDBRANCH   1   2
BRANCH   1  12
HETATM   12  C7  UNL     1      -2.868   4.374  14.232  1.00  0.00     0.032 C 
BRANCH  12  13
HETATM   13  C8  UNL     1      -4.305   4.569  14.572  1.00  0.00     0.027 C 
BRANCH  13  14
HETATM   14  C9  UNL     1      -4.948   3.288  14.982  1.00  0.00     0.037 C 
HETATM   15 CL2  UNL     1      -5.498   2.320  13.593  1.00  0.00    -0.119 Cl
HETATM   16  C10 UNL     1      -6.126   3.483  15.886  1.00  0.00     0.028 C 
HETATM   17  C11 UNL     1      -6.786   2.159  16.212  1.00  0.00     0.033 C 
HETATM   18  C12 UNL     1      -5.857   1.050  16.539  1.00  0.00     0.118 C 
HETATM   19  C13 UNL     1      -4.533   1.065  15.844  1.00  0.00     0.033 C 
HETATM   20  C14 UNL     1      -3.949   2.444  15.803  1.00  0.00     0.028 C 
BRANCH  18  21
HETATM   21  O2  UNL     1      -5.664   0.875  17.908  1.00  0.00    -0.396 OA
ATOM     22  H2  UNL     1      -5.934   0.019  18.222  1.00  0.00     0.210 HD
ENDBRANCH  18  21
ENDBRANCH  13  14
ENDBRANCH  12  13
ENDBRANCH   1  12
TORSDOF 5
ENDMDL
MODEL 4
REMARK VINA RESULT: -6.041928780      3.236      6.549
REMARK  5 active torsions:
REMARK  status: ('A' for Active; 'I' for Inactive)
REMARK    1  A    between atoms: N2_10  and  C6_11 
REMARK    2  A    between atoms: C6_11  and  C7_12 
REMARK    3  A    between atoms: C7_12  and  C8_13 
REMARK    4  A    between atoms: C8_13  and  C9_14 
REMARK    5  A    between atoms: C12_18  and  O2_19 
ROOT
HETATM    1  C6  UNL     1      -6.432   3.929  15.244  1.00  0.00     0.275 C 
ENDROOT
BRANCH   1   2
HETATM    2  N2  UNL     1      -5.548   3.220  16.086  1.00  0.00     0.122 N 
HETATM    3  C2  UNL     1      -4.510   2.467  15.490  1.00  0.00     0.247 C 
HETATM    4  C1  UNL     1      -3.203   3.174  15.279  1.00  0.00     0.069 C 
HETATM    5 CL1  UNL     1      -5.012   1.853  13.869  1.00  0.00    -0.084 Cl
HETATM    6  C3  UNL     1      -4.144   1.230  16.339  1.00  0.00     0.180 C 
HETATM    7  N1  UNL     1      -5.328   0.407  16.346  1.00  0.00    -0.356 N 
HETATM    8  C4  UNL     1      -6.529   1.072  16.703  1.00  0.00     0.246 C 
ATOM      9  H1  UNL     1      -5.303  -0.586  16.110  1.00  0.00     0.162 HD
HETATM   10  O1  UNL     1      -7.638   0.528  16.692  1.00  0.00    -0.272 OA
HETATM   11  C5  UNL     1      -6.296   2.512  17.092  1.00  0.00     0.377 C 
ENDBRANCH   1   2
BRANCH   1  12
HETATM   12  C7  UNL     1      -6.179   5.409  15.088  1.00  0.00     0.032 C 
BRANCH  12  13
HETATM   13  C8  UNL     1      -6.209   5.853  13.667  1.00  0.00     0.027 C 
BRANCH  13  14
HETATM   14  C9  UNL     1      -4.838   6.127  13.150  1.00  0.00     0.037 C 
HETATM   15 CL2  UNL     1      -4.788   7.510  12.030  1.00  0.00    -0.119 Cl
HETATM   16  C10 UNL     1      -4.230   4.955  12.442  1.00  0.00     0.028 C 
HETATM   17  C11 UNL     1      -2.871   5.309  11.875  1.00  0.00     0.033 C 
HETATM   18  C12 UNL     1      -1.988   6.087  12.778  1.00  0.00     0.118 C 
HETATM   19  C13 UNL     1      -2.666   7.033  13.717  1.00  0.00     0.033 C 
HETATM   20  C14 UNL     1      -3.886   6.418  14.332  1.00  0.00     0.028 C 
BRANCH  18  21
HETATM   21  O2  UNL     1      -1.083   5.296  13.484  1.00  0.00    -0.396 OA
ATOM     22  H2  UNL     1      -0.800   4.527  13.004  1.00  0.00     0.210 HD
ENDBRANCH  18  21
ENDBRANCH  13  14
ENDBRANCH  12  13
ENDBRANCH   1  12
TORSDOF 5
ENDMDL
MODEL 5
REMARK VINA RESULT: -6.005806335      1.676      2.340
REMARK  5 active torsions:
REMARK  status: ('A' for Active; 'I' for Inactive)
REMARK    1  A    between atoms: N2_10  and  C6_11 
REMARK    2  A    between atoms: C6_11  and  C7_12 
REMARK    3  A    between atoms: C7_12  and  C8_13 
REMARK    4  A    between atoms: C8_13  and  C9_14 
REMARK    5  A    between atoms: C12_18  and  O2_19 
ROOT
HETATM    1  C6  UNL     1      -4.560   5.567  12.797  1.00  0.00     0.275 C 
ENDROOT
BRANCH   1   2
HETATM    2  N2  UNL     1      -3.597   4.538  12.704  1.00  0.00     0.122 N 
HETATM    3  C2  UNL     1      -2.231   4.884  12.814  1.00  0.00     0.247 C 
HETATM    4  C1  UNL     1      -1.639   4.850  14.194  1.00  0.00     0.069 C 
HETATM    5 CL1  UNL     1      -1.938   6.550  12.187  1.00  0.00    -0.084 Cl
HETATM    6  C3  UNL     1      -1.335   3.935  11.988  1.00  0.00     0.180 C 
HETATM    7  N1  UNL     1      -1.724   4.139  10.616  1.00  0.00    -0.356 N 
HETATM    8  C4  UNL     1      -3.116   4.058  10.360  1.00  0.00     0.246 C 
ATOM      9  H1  UNL     1      -1.044   4.330   9.879  1.00  0.00     0.162 HD
HETATM   10  O1  UNL     1      -3.619   4.274   9.252  1.00  0.00    -0.272 OA
HETATM   11  C5  UNL     1      -3.907   3.681  11.589  1.00  0.00     0.377 C 
ENDBRANCH   1   2
BRANCH   1  12
HETATM   12  C7  UNL     1      -5.674   5.366  13.796  1.00  0.00     0.032 C 
BRANCH  12  13
HETATM   13  C8  UNL     1      -5.184   4.884  15.117  1.00  0.00     0.027 C 
BRANCH  13  14
HETATM   14  C9  UNL     1      -5.605   3.477  15.376  1.00  0.00     0.037 C 
HETATM   15 CL2  UNL     1      -6.333   2.703  13.948  1.00  0.00    -0.119 Cl
HETATM   16  C10 UNL     1      -6.587   3.354  16.501  1.00  0.00     0.028 C 
HETATM   17  C11 UNL     1      -7.036   1.918  16.674  1.00  0.00     0.033 C 
HETATM   18  C12 UNL     1      -5.959   0.901  16.600  1.00  0.00     0.118 C 
HETATM   19  C13 UNL     1      -4.812   1.212  15.692  1.00  0.00     0.033 C 
HETATM   20  C14 UNL     1      -4.383   2.642  15.818  1.00  0.00     0.028 C 
BRANCH  18  21
HETATM   21  O2  UNL     1      -5.474   0.516  17.849  1.00  0.00    -0.396 OA
ATOM     22  H2  UNL     1      -4.835   1.121  18.209  1.00  0.00     0.210 HD
ENDBRANCH  18  21
ENDBRANCH  13  14
ENDBRANCH  12  13
ENDBRANCH   1  12
TORSDOF 5
ENDMDL
