MODEL 1
REMARK VINA RESULT: -6.630881230      0.000      0.000
REMARK  4 active torsions:
REMARK  status: ('A' for Active; 'I' for Inactive)
REMARK    1  A    between atoms: N2_5  and  C4_6 
REMARK    2  A    between atoms: C4_6  and  C5_7 
REMARK    3  A    between atoms: C5_7  and  N3_8 
REMARK       I    between atoms: N3_8  and  C6_10 
REMARK       I    between atoms: C6_10  and  N4_12 
REMARK    4  A    between atoms: N4_12  and  C7_14 
ROOT
HETATM    1  N3  UNL     1      -3.004   2.126  12.519  1.00  0.00    -0.342 N 
ATOM      2  H3  UNL     1      -2.210   2.576  12.974  1.00  0.00     0.164 HD
HETATM    3  C6  UNL     1      -4.149   1.840  13.287  1.00  0.00     0.316 C 
HETATM    4  O1  UNL     1      -5.126   1.298  12.709  1.00  0.00    -0.247 OA
HETATM    5  N4  UNL     1      -4.188   2.159  14.682  1.00  0.00    -0.337 N 
ATOM      6  H4  UNL     1      -3.371   2.598  15.107  1.00  0.00     0.164 HD
ENDROOT
BRANCH   1   7
HETATM    7  C5  UNL     1      -2.908   1.812  11.125  1.00  0.00     0.143 C 
BRANCH   7   8
HETATM    8  C4  UNL     1      -1.529   1.915  10.561  1.00  0.00     0.136 C 
BRANCH   8   9
HETATM    9  N2  UNL     1      -1.012   3.245  10.524  1.00  0.00    -0.408 N 
HETATM   10  C3  UNL     1       0.024   3.555  11.445  1.00  0.00     0.147 C 
HETATM   11  C2  UNL     1       0.099   5.088  11.519  1.00  0.00     0.291 C 
HETATM   12  N1  UNL     1       0.512   5.579  10.237  1.00  0.00     0.087 N 
HETATM   13  C1  UNL     1       1.794   6.223  10.297  1.00  0.00     0.310 C 
HETATM   14  C14 UNL     1       0.471   4.630   9.171  1.00  0.00     0.291 C 
HETATM   15  C13 UNL     1      -0.807   3.791   9.221  1.00  0.00     0.147 C 
ENDBRANCH   8   9
ENDBRANCH   7   8
ENDBRANCH   1   7
BRANCH   5  16
HETATM   16  C7  UNL     1      -5.325   1.886  15.502  1.00  0.00     0.104 C 
HETATM   17  C8  UNL     1      -4.954   0.820  16.507  1.00  0.00     0.027 C 
HETATM   18  C9  UNL     1      -6.102   0.490  17.433  1.00  0.00     0.002 C 
HETATM   19  C10 UNL     1      -6.757   1.739  17.982  1.00  0.00     0.002 C 
HETATM   20  C11 UNL     1      -7.182   2.681  16.885  1.00  0.00     0.022 C 
HETATM   21  C12 UNL     1      -5.960   3.090  16.114  1.00  0.00     0.105 C 
HETATM   22 CL1  UNL     1      -6.508   4.142  14.771  1.00  0.00    -0.123 Cl
ENDBRANCH   5  16
TORSDOF 4
ENDMDL
MODEL 2
REMARK VINA RESULT: -6.545221524      0.979      1.153
REMARK  4 active torsions:
REMARK  status: ('A' for Active; 'I' for Inactive)
REMARK    1  A    between atoms: N2_5  and  C4_6 
REMARK    2  A    between atoms: C4_6  and  C5_7 
REMARK    3  A    between atoms: C5_7  and  N3_8 
REMARK       I    between atoms: N3_8  and  C6_10 
REMARK       I    between atoms: C6_10  and  N4_12 
REMARK    4  A    between atoms: N4_12  and  C7_14 
ROOT
HETATM    1  N3  UNL     1      -2.848   2.770  12.505  1.00  0.00    -0.342 N 
ATOM      2  H3  UNL     1      -2.032   3.081  13.032  1.00  0.00     0.164 HD
HETATM    3  C6  UNL     1      -4.005   2.392  13.213  1.00  0.00     0.316 C 
HETATM    4  O1  UNL     1      -5.008   2.024  12.550  1.00  0.00    -0.247 OA
HETATM    5  N4  UNL     1      -4.027   2.426  14.644  1.00  0.00    -0.337 N 
ATOM      6  H4  UNL     1      -3.188   2.732  15.139  1.00  0.00     0.164 HD
ENDROOT
BRANCH   1   7
HETATM    7  C5  UNL     1      -2.769   2.737  11.076  1.00  0.00     0.143 C 
BRANCH   7   8
HETATM    8  C4  UNL     1      -2.662   4.078  10.429  1.00  0.00     0.136 C 
BRANCH   8   9
HETATM    9  N2  UNL     1      -1.333   4.599  10.384  1.00  0.00    -0.408 N 
HETATM   10  C3  UNL     1      -0.995   5.579  11.355  1.00  0.00     0.147 C 
HETATM   11  C2  UNL     1       0.275   6.279  10.848  1.00  0.00     0.291 C 
HETATM   12  N1  UNL     1       1.339   5.318  10.830  1.00  0.00     0.087 N 
HETATM   13  C1  UNL     1       2.381   5.654  11.758  1.00  0.00     0.310 C 
HETATM   14  C14 UNL     1       0.941   3.955  10.985  1.00  0.00     0.291 C 
HETATM   15  C13 UNL     1      -0.302   3.638  10.153  1.00  0.00     0.147 C 
ENDBRANCH   8   9
ENDBRANCH   7   8
ENDBRANCH   1   7
BRANCH   5  16
HETATM   16  C7  UNL     1      -5.174   2.051  15.406  1.00  0.00     0.104 C 
HETATM   17  C8  UNL     1      -4.784   0.945  16.359  1.00  0.00     0.027 C 
HETATM   18  C9  UNL     1      -5.943   0.505  17.222  1.00  0.00     0.002 C 
HETATM   19  C10 UNL     1      -6.678   1.686  17.820  1.00  0.00     0.002 C 
HETATM   20  C11 UNL     1      -7.113   2.671  16.766  1.00  0.00     0.022 C 
HETATM   21  C12 UNL     1      -5.889   3.184  16.064  1.00  0.00     0.105 C 
HETATM   22 CL1  UNL     1      -6.444   4.287  14.766  1.00  0.00    -0.123 Cl
ENDBRANCH   5  16
TORSDOF 4
ENDMDL
MODEL 3
REMARK VINA RESULT: -6.530077916      0.770      1.249
REMARK  4 active torsions:
REMARK  status: ('A' for Active; 'I' for Inactive)
REMARK    1  A    between atoms: N2_5  and  C4_6 
REMARK    2  A    between atoms: C4_6  and  C5_7 
REMARK    3  A    between atoms: C5_7  and  N3_8 
REMARK       I    between atoms: N3_8  and  C6_10 
REMARK       I    between atoms: C6_10  and  N4_12 
REMARK    4  A    between atoms: N4_12  and  C7_14 
ROOT
HETATM    1  N3  UNL     1      -3.018   2.153  12.541  1.00  0.00    -0.342 N 
ATOM      2  H3  UNL     1      -2.212   2.570  13.007  1.00  0.00     0.164 HD
HETATM    3  C6  UNL     1      -4.166   1.870  13.305  1.00  0.00     0.316 C 
HETATM    4  O1  UNL     1      -5.158   1.370  12.714  1.00  0.00    -0.247 OA
HETATM    5  N4  UNL     1      -4.193   2.146  14.709  1.00  0.00    -0.337 N 
ATOM      6  H4  UNL     1      -3.365   2.553  15.144  1.00  0.00     0.164 HD
ENDROOT
BRANCH   1   7
HETATM    7  C5  UNL     1      -2.934   1.880  11.138  1.00  0.00     0.143 C 
BRANCH   7   8
HETATM    8  C4  UNL     1      -1.543   1.852  10.594  1.00  0.00     0.136 C 
BRANCH   8   9
HETATM    9  N2  UNL     1      -0.984   3.144  10.354  1.00  0.00    -0.408 N 
HETATM   10  C3  UNL     1      -1.881   4.159   9.926  1.00  0.00     0.147 C 
HETATM   11  C2  UNL     1      -1.017   5.281   9.329  1.00  0.00     0.291 C 
HETATM   12  N1  UNL     1      -0.218   5.839  10.380  1.00  0.00     0.087 N 
HETATM   13  C1  UNL     1      -0.556   7.209  10.643  1.00  0.00     0.310 C 
HETATM   14  C14 UNL     1      -0.180   5.084  11.592  1.00  0.00     0.291 C 
HETATM   15  C13 UNL     1      -0.026   3.588  11.314  1.00  0.00     0.147 C 
ENDBRANCH   8   9
ENDBRANCH   7   8
ENDBRANCH   1   7
BRANCH   5  16
HETATM   16  C7  UNL     1      -5.333   1.875  15.525  1.00  0.00     0.104 C 
HETATM   17  C8  UNL     1      -4.967   0.809  16.532  1.00  0.00     0.027 C 
HETATM   18  C9  UNL     1      -6.119   0.481  17.454  1.00  0.00     0.002 C 
HETATM   19  C10 UNL     1      -6.775   1.730  18.000  1.00  0.00     0.002 C 
HETATM   20  C11 UNL     1      -7.195   2.672  16.900  1.00  0.00     0.022 C 
HETATM   21  C12 UNL     1      -5.970   3.080  16.134  1.00  0.00     0.105 C 
HETATM   22 CL1  UNL     1      -6.512   4.131  14.788  1.00  0.00    -0.123 Cl
ENDBRANCH   5  16
TORSDOF 4
ENDMDL
MODEL 4
REMARK VINA RESULT: -6.476874573      3.210      3.547
REMARK  4 active torsions:
REMARK  status: ('A' for Active; 'I' for Inactive)
REMARK    1  A    between atoms: N2_5  and  C4_6 
REMARK    2  A    between atoms: C4_6  and  C5_7 
REMARK    3  A    between atoms: C5_7  and  N3_8 
REMARK       I    between atoms: N3_8  and  C6_10 
REMARK       I    between atoms: C6_10  and  N4_12 
REMARK    4  A    between atoms: N4_12  and  C7_14 
ROOT
HETATM    1  N3  UNL     1      -2.969   2.920  12.470  1.00  0.00    -0.342 N 
ATOM      2  H3  UNL     1      -2.100   3.097  12.975  1.00  0.00     0.164 HD
HETATM    3  C6  UNL     1      -4.118   2.576  13.207  1.00  0.00     0.316 C 
HETATM    4  O1  UNL     1      -5.186   2.376  12.573  1.00  0.00    -0.247 OA
HETATM    5  N4  UNL     1      -4.062   2.460  14.633  1.00  0.00    -0.337 N 
ATOM      6  H4  UNL     1      -3.174   2.633  15.103  1.00  0.00     0.164 HD
ENDROOT
BRANCH   1   7
HETATM    7  C5  UNL     1      -2.967   3.032  11.043  1.00  0.00     0.143 C 
BRANCH   7   8
HETATM    8  C4  UNL     1      -2.838   4.429  10.531  1.00  0.00     0.136 C 
BRANCH   8   9
HETATM    9  N2  UNL     1      -3.978   5.251  10.786  1.00  0.00    -0.408 N 
HETATM   10  C3  UNL     1      -3.813   6.299  11.730  1.00  0.00     0.147 C 
HETATM   11  C2  UNL     1      -5.225   6.737  12.149  1.00  0.00     0.291 C 
HETATM   12  N1  UNL     1      -5.879   7.298  11.003  1.00  0.00     0.087 N 
HETATM   13  C1  UNL     1      -6.165   8.694  11.179  1.00  0.00     0.310 C 
HETATM   14  C14 UNL     1      -5.233   7.067   9.750  1.00  0.00     0.291 C 
HETATM   15  C13 UNL     1      -4.737   5.624   9.636  1.00  0.00     0.147 C 
ENDBRANCH   8   9
ENDBRANCH   7   8
ENDBRANCH   1   7
BRANCH   5  16
HETATM   16  C7  UNL     1      -5.200   2.112  15.422  1.00  0.00     0.104 C 
HETATM   17  C8  UNL     1      -4.847   0.925  16.286  1.00  0.00     0.027 C 
HETATM   18  C9  UNL     1      -5.997   0.507  17.174  1.00  0.00     0.002 C 
HETATM   19  C10 UNL     1      -6.623   1.693  17.876  1.00  0.00     0.002 C 
HETATM   20  C11 UNL     1      -7.034   2.769  16.905  1.00  0.00     0.022 C 
HETATM   21  C12 UNL     1      -5.808   3.245  16.180  1.00  0.00     0.105 C 
HETATM   22 CL1  UNL     1      -6.340   4.463  14.979  1.00  0.00    -0.123 Cl
ENDBRANCH   5  16
TORSDOF 4
ENDMDL
MODEL 5
REMARK VINA RESULT: -6.454722952      0.896      1.191
REMARK  4 active torsions:
REMARK  status: ('A' for Active; 'I' for Inactive)
REMARK    1  A    between atoms: N2_5  and  C4_6 
REMARK    2  A    between atoms: C4_6  and  C5_7 
REMARK    3  A    between atoms: C5_7  and  N3_8 
REMARK       I    between atoms: N3_8  and  C6_10 
REMARK       I    between atoms: C6_10  and  N4_12 
REMARK    4  A    between atoms: N4_12  and  C7_14 
ROOT
HETATM    1  N3  UNL     1      -2.942   2.554  12.436  1.00  0.00    -0.342 N 
ATOM      2  H3  UNL     1      -2.087   2.798  12.936  1.00  0.00     0.164 HD
HETATM    3  C6  UNL     1      -4.099   2.258  13.184  1.00  0.00     0.316 C 
HETATM    4  O1  UNL     1      -5.150   1.974  12.554  1.00  0.00    -0.247 OA
HETATM    5  N4  UNL     1      -4.067   2.283  14.615  1.00  0.00    -0.337 N 
ATOM      6  H4  UNL     1      -3.191   2.520  15.081  1.00  0.00     0.164 HD
ENDROOT
BRANCH   1   7
HETATM    7  C5  UNL     1      -2.916   2.526  11.005  1.00  0.00     0.143 C 
BRANCH   7   8
HETATM    8  C4  UNL     1      -2.417   3.782  10.370  1.00  0.00     0.136 C 
BRANCH   8   9
HETATM    9  N2  UNL     1      -1.157   4.229  10.873  1.00  0.00    -0.408 N 
HETATM   10  C3  UNL     1      -0.007   3.897  10.107  1.00  0.00     0.147 C 
HETATM   11  C2  UNL     1       1.204   4.084  11.034  1.00  0.00     0.291 C 
HETATM   12  N1  UNL     1       1.304   5.475  11.366  1.00  0.00     0.087 N 
HETATM   13  C1  UNL     1       2.506   6.065  10.849  1.00  0.00     0.310 C 
HETATM   14  C14 UNL     1       0.165   6.271  11.034  1.00  0.00     0.291 C 
HETATM   15  C13 UNL     1      -1.139   5.557  11.395  1.00  0.00     0.147 C 
ENDBRANCH   8   9
ENDBRANCH   7   8
ENDBRANCH   1   7
BRANCH   5  16
HETATM   16  C7  UNL     1      -5.212   1.989  15.415  1.00  0.00     0.104 C 
HETATM   17  C8  UNL     1      -4.859   0.883  16.381  1.00  0.00     0.027 C 
HETATM   18  C9  UNL     1      -6.017   0.527  17.284  1.00  0.00     0.002 C 
HETATM   19  C10 UNL     1      -6.666   1.760  17.876  1.00  0.00     0.002 C 
HETATM   20  C11 UNL     1      -7.074   2.746  16.812  1.00  0.00     0.022 C 
HETATM   21  C12 UNL     1      -5.843   3.174  16.067  1.00  0.00     0.105 C 
HETATM   22 CL1  UNL     1      -6.371   4.281  14.761  1.00  0.00    -0.123 Cl
ENDBRANCH   5  16
TORSDOF 4
ENDMDL
