MODEL 1
REMARK VINA RESULT: -7.845961810      0.000      0.000
REMARK  17 active torsions:
REMARK  status: ('A' for Active; 'I' for Inactive)
REMARK    1  A    between atoms: N1_1  and  C1_4 
REMARK    2  A    between atoms: C7_18  and  C8_19 
REMARK       I    between atoms: C8_19  and  N5_21 
REMARK    3  A    between atoms: N5_21  and  C9_23 
REMARK    4  A    between atoms: C9_23  and  C10_24 
REMARK    5  A    between atoms: C10_24  and  C11_25 
REMARK    6  A    between atoms: C11_25  and  C12_26 
REMARK    7  A    between atoms: C12_26  and  C13_27 
REMARK    8  A    between atoms: C13_27  and  C14_28 
REMARK    9  A    between atoms: C14_28  and  C15_29 
REMARK   10  A    between atoms: C15_29  and  C16_30 
REMARK   11  A    between atoms: C16_30  and  C17_31 
REMARK   12  A    between atoms: C17_31  and  C18_32 
REMARK   13  A    between atoms: C18_32  and  C19_33 
REMARK   14  A    between atoms: C19_33  and  C20_34 
REMARK   15  A    between atoms: C20_34  and  C21_35 
REMARK       I    between atoms: C21_35  and  N6_37 
REMARK   16  A    between atoms: N6_37  and  C22_39 
REMARK   17  A    between atoms: C22_39  and  C23_40 
REMARK       I    between atoms: C23_40  and  N7_42 
ROOT
HETATM    1  C10 UNL     1      14.565  15.394  13.394  1.00  0.00     0.020 C 
ENDROOT
BRANCH   1   2
HETATM    2  C9  UNL     1      15.605  16.057  14.218  1.00  0.00     0.122 C 
BRANCH   2   3
HETATM    3  N5  UNL     1      15.771  17.409  13.688  1.00  0.00    -0.359 N 
HETATM    4  C8  UNL     1      15.231  18.572  14.306  1.00  0.00     0.254 C 
HETATM    5  O2  UNL     1      14.585  18.442  15.369  1.00  0.00    -0.271 OA
ATOM      6  H5  UNL     1      16.304  17.526  12.826  1.00  0.00     0.162 HD
BRANCH   4   7
HETATM    7  C7  UNL     1      15.434  19.918  13.696  1.00  0.00     0.327 C 
HETATM    8  C2  UNL     1      16.637  20.542  14.334  1.00  0.00     0.078 A 
HETATM    9  N2  UNL     1      17.223  20.126  15.459  1.00  0.00    -0.192 N 
HETATM   10  C3  UNL     1      17.180  21.620  13.655  1.00  0.00     0.038 A 
HETATM   11  C1  UNL     1      18.340  20.743  15.940  1.00  0.00     0.679 A 
ATOM     12  H2  UNL     1      16.829  19.334  15.968  1.00  0.00     0.184 HD
HETATM   13  N3  UNL     1      18.857  21.783  15.275  1.00  0.00    -0.156 N 
HETATM   14  C4  UNL     1      18.310  22.251  14.137  1.00  0.00     0.268 A 
ATOM     15  H3  UNL     1      19.693  22.237  15.643  1.00  0.00     0.187 HD
HETATM   16  O1  UNL     1      18.819  23.243  13.520  1.00  0.00    -0.267 OA
HETATM   17  C5  UNL     1      16.533  22.086  12.411  1.00  0.00     0.074 C 
HETATM   18  C6  UNL     1      15.940  20.987  11.618  1.00  0.00     0.238 C 
HETATM   19  N4  UNL     1      15.876  19.719  12.314  1.00  0.00    -0.057 N 
ATOM     20  H42 UNL     1      15.292  19.043  11.821  1.00  0.00     0.278 HD
ATOM     21  H41 UNL     1      16.762  19.215  12.266  1.00  0.00     0.278 HD
BRANCH  11  22
HETATM   22  N1  UNL     1      18.896  20.307  17.028  1.00  0.00    -0.234 N 
ATOM     23  H12 UNL     1      18.837  20.840  17.895  1.00  0.00     0.174 HD
ATOM     24  H11 UNL     1      19.407  19.425  17.014  1.00  0.00     0.174 HD
ENDBRANCH  11  22
ENDBRANCH   4   7
ENDBRANCH   2   3
ENDBRANCH   1   2
BRANCH   1  25
HETATM   25  C11 UNL     1      14.869  15.019  11.999  1.00  0.00     0.002 C 
BRANCH  25  26
HETATM   26  C12 UNL     1      14.924  16.013  10.933  1.00  0.00     0.000 C 
BRANCH  26  27
HETATM   27  C13 UNL     1      13.723  16.603  10.335  1.00  0.00     0.000 C 
BRANCH  27  28
HETATM   28  C14 UNL     1      13.261  17.922  10.851  1.00  0.00     0.000 C 
BRANCH  28  29
HETATM   29  C15 UNL     1      12.095  17.786  11.828  1.00  0.00     0.000 C 
BRANCH  29  30
HETATM   30  C16 UNL     1      10.829  17.545  11.044  1.00  0.00     0.000 C 
BRANCH  30  31
HETATM   31  C17 UNL     1       9.896  18.735  11.073  1.00  0.00     0.000 C 
BRANCH  31  32
HETATM   32  C18 UNL     1       9.640  19.184   9.666  1.00  0.00     0.000 C 
BRANCH  32  33
HETATM   33  C19 UNL     1      10.041  18.141   8.675  1.00  0.00     0.009 C 
BRANCH  33  34
HETATM   34  C20 UNL     1      10.830  18.688   7.507  1.00  0.00     0.103 C 
BRANCH  34  35
HETATM   35  C21 UNL     1      11.574  17.599   6.819  1.00  0.00     0.217 C 
HETATM   36  O3  UNL     1      12.323  16.849   7.464  1.00  0.00    -0.274 OA
HETATM   37  N6  UNL     1      11.432  17.421   5.422  1.00  0.00    -0.352 N 
ATOM     38  H6  UNL     1      10.806  18.062   4.934  1.00  0.00     0.162 HD
BRANCH  37  39
HETATM   39  C22 UNL     1      12.087  16.423   4.630  1.00  0.00     0.225 C 
BRANCH  39  40
HETATM   40  C23 UNL     1      13.184  16.918   3.793  1.00  0.00     0.237 C 
HETATM   41  O4  UNL     1      14.032  17.702   4.273  1.00  0.00    -0.272 OA
HETATM   42  N7  UNL     1      13.323  16.531   2.428  1.00  0.00    -0.351 N 
HETATM   43  C24 UNL     1      12.303  15.674   1.872  1.00  0.00     0.126 C 
HETATM   44  C28 UNL     1      14.467  17.003   1.708  1.00  0.00     0.126 C 
HETATM   45  C25 UNL     1      12.874  14.550   1.056  1.00  0.00     0.020 C 
HETATM   46  C26 UNL     1      14.322  14.766   0.713  1.00  0.00     0.003 C 
HETATM   47  C27 UNL     1      14.653  16.209   0.454  1.00  0.00     0.020 C 
ENDBRANCH  39  40
ENDBRANCH  37  39
ENDBRANCH  34  35
ENDBRANCH  33  34
ENDBRANCH  32  33
ENDBRANCH  31  32
ENDBRANCH  30  31
ENDBRANCH  29  30
ENDBRANCH  28  29
ENDBRANCH  27  28
ENDBRANCH  26  27
ENDBRANCH  25  26
ENDBRANCH   1  25
TORSDOF 17
ENDMDL
MODEL 2
REMARK VINA RESULT: -7.785682602      4.877      6.510
REMARK  17 active torsions:
REMARK  status: ('A' for Active; 'I' for Inactive)
REMARK    1  A    between atoms: N1_1  and  C1_4 
REMARK    2  A    between atoms: C7_18  and  C8_19 
REMARK       I    between atoms: C8_19  and  N5_21 
REMARK    3  A    between atoms: N5_21  and  C9_23 
REMARK    4  A    between atoms: C9_23  and  C10_24 
REMARK    5  A    between atoms: C10_24  and  C11_25 
REMARK    6  A    between atoms: C11_25  and  C12_26 
REMARK    7  A    between atoms: C12_26  and  C13_27 
REMARK    8  A    between atoms: C13_27  and  C14_28 
REMARK    9  A    between atoms: C14_28  and  C15_29 
REMARK   10  A    between atoms: C15_29  and  C16_30 
REMARK   11  A    between atoms: C16_30  and  C17_31 
REMARK   12  A    between atoms: C17_31  and  C18_32 
REMARK   13  A    between atoms: C18_32  and  C19_33 
REMARK   14  A    between atoms: C19_33  and  C20_34 
REMARK   15  A    between atoms: C20_34  and  C21_35 
REMARK       I    between atoms: C21_35  and  N6_37 
REMARK   16  A    between atoms: N6_37  and  C22_39 
REMARK   17  A    between atoms: C22_39  and  C23_40 
REMARK       I    between atoms: C23_40  and  N7_42 
ROOT
HETATM    1  C10 UNL     1      12.312  18.031  15.076  1.00  0.00     0.020 C 
ENDROOT
BRANCH   1   2
HETATM    2  C9  UNL     1      13.135  18.565  16.188  1.00  0.00     0.122 C 
BRANCH   2   3
HETATM    3  N5  UNL     1      13.595  19.891  15.778  1.00  0.00    -0.359 N 
HETATM    4  C8  UNL     1      13.929  20.930  16.693  1.00  0.00     0.254 C 
HETATM    5  O2  UNL     1      13.838  20.702  17.920  1.00  0.00    -0.271 OA
ATOM      6  H5  UNL     1      13.682  20.083  14.780  1.00  0.00     0.162 HD
BRANCH   4   7
HETATM    7  C7  UNL     1      14.381  22.261  16.195  1.00  0.00     0.327 C 
HETATM    8  C2  UNL     1      15.858  22.193  15.954  1.00  0.00     0.078 A 
HETATM    9  N2  UNL     1      16.675  21.238  16.405  1.00  0.00    -0.192 N 
HETATM   10  C3  UNL     1      16.380  23.204  15.166  1.00  0.00     0.038 A 
HETATM   11  C1  UNL     1      18.004  21.247  16.098  1.00  0.00     0.679 A 
ATOM     12  H2  UNL     1      16.299  20.490  16.988  1.00  0.00     0.184 HD
HETATM   13  N3  UNL     1      18.498  22.228  15.335  1.00  0.00    -0.156 N 
HETATM   14  C4  UNL     1      17.726  23.220  14.853  1.00  0.00     0.268 A 
ATOM     15  H3  UNL     1      19.493  22.225  15.111  1.00  0.00     0.187 HD
HETATM   16  O1  UNL     1      18.218  24.146  14.128  1.00  0.00    -0.267 OA
HETATM   17  C5  UNL     1      15.481  24.265  14.667  1.00  0.00     0.074 C 
HETATM   18  C6  UNL     1      14.118  23.776  14.364  1.00  0.00     0.238 C 
HETATM   19  N4  UNL     1      13.847  22.436  14.842  1.00  0.00    -0.057 N 
ATOM     20  H42 UNL     1      12.854  22.208  14.793  1.00  0.00     0.278 HD
ATOM     21  H41 UNL     1      14.197  21.725  14.200  1.00  0.00     0.278 HD
BRANCH  11  22
HETATM   22  N1  UNL     1      18.770  20.297  16.539  1.00  0.00    -0.234 N 
ATOM     23  H12 UNL     1      19.122  20.311  17.496  1.00  0.00     0.174 HD
ATOM     24  H11 UNL     1      19.032  19.531  15.918  1.00  0.00     0.174 HD
ENDBRANCH  11  22
ENDBRANCH   4   7
ENDBRANCH   2   3
ENDBRANCH   1   2
BRANCH   1  25
HETATM   25  C11 UNL     1      12.523  18.535  13.705  1.00  0.00     0.002 C 
BRANCH  25  26
HETATM   26  C12 UNL     1      11.482  18.444  12.687  1.00  0.00     0.000 C 
BRANCH  26  27
HETATM   27  C13 UNL     1      11.349  17.293  11.788  1.00  0.00     0.000 C 
BRANCH  27  28
HETATM   28  C14 UNL     1      10.565  17.473  10.534  1.00  0.00     0.000 C 
BRANCH  28  29
HETATM   29  C15 UNL     1       9.845  18.820  10.490  1.00  0.00     0.000 C 
BRANCH  29  30
HETATM   30  C16 UNL     1      10.410  19.637   9.355  1.00  0.00     0.000 C 
BRANCH  30  31
HETATM   31  C17 UNL     1      11.196  20.835   9.841  1.00  0.00     0.000 C 
BRANCH  31  32
HETATM   32  C18 UNL     1      12.651  20.477   9.876  1.00  0.00     0.000 C 
BRANCH  32  33
HETATM   33  C19 UNL     1      13.517  21.694   9.883  1.00  0.00     0.009 C 
BRANCH  33  34
HETATM   34  C20 UNL     1      14.068  22.038  11.248  1.00  0.00     0.103 C 
BRANCH  34  35
HETATM   35  C21 UNL     1      15.338  21.307  11.501  1.00  0.00     0.217 C 
HETATM   36  O3  UNL     1      16.288  21.411  10.711  1.00  0.00    -0.274 OA
HETATM   37  N6  UNL     1      15.462  20.486  12.648  1.00  0.00    -0.352 N 
ATOM     38  H6  UNL     1      14.655  20.431  13.269  1.00  0.00     0.162 HD
BRANCH  37  39
HETATM   39  C22 UNL     1      16.619  19.725  13.015  1.00  0.00     0.225 C 
BRANCH  39  40
HETATM   40  C23 UNL     1      16.353  18.578  13.891  1.00  0.00     0.237 C 
HETATM   41  O4  UNL     1      16.349  18.728  15.132  1.00  0.00    -0.272 OA
HETATM   42  N7  UNL     1      16.095  17.277  13.369  1.00  0.00    -0.351 N 
HETATM   43  C24 UNL     1      16.163  17.108  11.937  1.00  0.00     0.126 C 
HETATM   44  C28 UNL     1      15.770  16.233  14.295  1.00  0.00     0.126 C 
HETATM   45  C25 UNL     1      15.018  16.302  11.395  1.00  0.00     0.020 C 
HETATM   46  C26 UNL     1      14.269  15.569  12.472  1.00  0.00     0.003 C 
HETATM   47  C27 UNL     1      15.164  15.072  13.573  1.00  0.00     0.020 C 
ENDBRANCH  39  40
ENDBRANCH  37  39
ENDBRANCH  34  35
ENDBRANCH  33  34
ENDBRANCH  32  33
ENDBRANCH  31  32
ENDBRANCH  30  31
ENDBRANCH  29  30
ENDBRANCH  28  29
ENDBRANCH  27  28
ENDBRANCH  26  27
ENDBRANCH  25  26
ENDBRANCH   1  25
TORSDOF 17
ENDMDL
MODEL 3
REMARK VINA RESULT: -7.548766586      1.472      1.884
REMARK  17 active torsions:
REMARK  status: ('A' for Active; 'I' for Inactive)
REMARK    1  A    between atoms: N1_1  and  C1_4 
REMARK    2  A    between atoms: C7_18  and  C8_19 
REMARK       I    between atoms: C8_19  and  N5_21 
REMARK    3  A    between atoms: N5_21  and  C9_23 
REMARK    4  A    between atoms: C9_23  and  C10_24 
REMARK    5  A    between atoms: C10_24  and  C11_25 
REMARK    6  A    between atoms: C11_25  and  C12_26 
REMARK    7  A    between atoms: C12_26  and  C13_27 
REMARK    8  A    between atoms: C13_27  and  C14_28 
REMARK    9  A    between atoms: C14_28  and  C15_29 
REMARK   10  A    between atoms: C15_29  and  C16_30 
REMARK   11  A    between atoms: C16_30  and  C17_31 
REMARK   12  A    between atoms: C17_31  and  C18_32 
REMARK   13  A    between atoms: C18_32  and  C19_33 
REMARK   14  A    between atoms: C19_33  and  C20_34 
REMARK   15  A    between atoms: C20_34  and  C21_35 
REMARK       I    between atoms: C21_35  and  N6_37 
REMARK   16  A    between atoms: N6_37  and  C22_39 
REMARK   17  A    between atoms: C22_39  and  C23_40 
REMARK       I    between atoms: C23_40  and  N7_42 
ROOT
HETATM    1  C10 UNL     1      16.052  15.981  13.186  1.00  0.00     0.020 C 
ENDROOT
BRANCH   1   2
HETATM    2  C9  UNL     1      15.941  17.056  14.201  1.00  0.00     0.122 C 
BRANCH   2   3
HETATM    3  N5  UNL     1      16.456  18.278  13.586  1.00  0.00    -0.359 N 
HETATM    4  C8  UNL     1      17.460  19.097  14.176  1.00  0.00     0.254 C 
HETATM    5  O2  UNL     1      17.944  18.755  15.278  1.00  0.00    -0.271 OA
ATOM      6  H5  UNL     1      16.075  18.560  12.683  1.00  0.00     0.162 HD
BRANCH   4   7
HETATM    7  C7  UNL     1      17.926  20.337  13.489  1.00  0.00     0.327 C 
HETATM    8  C2  UNL     1      17.367  21.516  14.226  1.00  0.00     0.078 A 
HETATM    9  N2  UNL     1      16.378  21.474  15.122  1.00  0.00    -0.192 N 
HETATM   10  C3  UNL     1      17.973  22.730  13.953  1.00  0.00     0.038 A 
HETATM   11  C1  UNL     1      15.966  22.603  15.767  1.00  0.00     0.679 A 
ATOM     12  H2  UNL     1      15.924  20.584  15.328  1.00  0.00     0.184 HD
HETATM   13  N3  UNL     1      16.559  23.771  15.497  1.00  0.00    -0.156 N 
HETATM   14  C4  UNL     1      17.558  23.878  14.601  1.00  0.00     0.268 A 
ATOM     15  H3  UNL     1      16.243  24.609  15.985  1.00  0.00     0.187 HD
HETATM   16  O1  UNL     1      18.110  25.001  14.359  1.00  0.00    -0.267 OA
HETATM   17  C5  UNL     1      19.065  22.782  12.960  1.00  0.00     0.074 C 
HETATM   18  C6  UNL     1      19.907  21.565  12.957  1.00  0.00     0.238 C 
HETATM   19  N4  UNL     1      19.364  20.466  13.729  1.00  0.00    -0.057 N 
ATOM     20  H42 UNL     1      19.860  19.594  13.549  1.00  0.00     0.278 HD
ATOM     21  H41 UNL     1      19.578  20.558  14.723  1.00  0.00     0.278 HD
BRANCH  11  22
HETATM   22  N1  UNL     1      15.012  22.528  16.644  1.00  0.00    -0.234 N 
ATOM     23  H12 UNL     1      14.165  23.087  16.543  1.00  0.00     0.174 HD
ATOM     24  H11 UNL     1      15.115  21.912  17.450  1.00  0.00     0.174 HD
ENDBRANCH  11  22
ENDBRANCH   4   7
ENDBRANCH   2   3
ENDBRANCH   1   2
BRANCH   1  25
HETATM   25  C11 UNL     1      15.919  16.313  11.754  1.00  0.00     0.002 C 
BRANCH  25  26
HETATM   26  C12 UNL     1      14.646  16.187  11.053  1.00  0.00     0.000 C 
BRANCH  26  27
HETATM   27  C13 UNL     1      13.640  17.252  11.036  1.00  0.00     0.000 C 
BRANCH  27  28
HETATM   28  C14 UNL     1      12.244  16.900  11.419  1.00  0.00     0.000 C 
BRANCH  28  29
HETATM   29  C15 UNL     1      11.796  17.611  12.695  1.00  0.00     0.000 C 
BRANCH  29  30
HETATM   30  C16 UNL     1      10.809  18.691  12.331  1.00  0.00     0.000 C 
BRANCH  30  31
HETATM   31  C17 UNL     1      10.281  18.539  10.922  1.00  0.00     0.000 C 
BRANCH  31  32
HETATM   32  C18 UNL     1      10.610  19.778  10.145  1.00  0.00     0.000 C 
BRANCH  32  33
HETATM   33  C19 UNL     1      11.351  19.460   8.888  1.00  0.00     0.009 C 
BRANCH  33  34
HETATM   34  C20 UNL     1      10.563  18.606   7.920  1.00  0.00     0.103 C 
BRANCH  34  35
HETATM   35  C21 UNL     1      11.451  17.626   7.241  1.00  0.00     0.217 C 
HETATM   36  O3  UNL     1      12.276  16.969   7.895  1.00  0.00    -0.274 OA
HETATM   37  N6  UNL     1      11.359  17.444   5.840  1.00  0.00    -0.352 N 
ATOM     38  H6  UNL     1      10.667  18.006   5.344  1.00  0.00     0.162 HD
BRANCH  37  39
HETATM   39  C22 UNL     1      12.149  16.543   5.055  1.00  0.00     0.225 C 
BRANCH  39  40
HETATM   40  C23 UNL     1      13.025  17.185   4.069  1.00  0.00     0.237 C 
HETATM   41  O4  UNL     1      13.734  18.158   4.404  1.00  0.00    -0.272 OA
HETATM   42  N7  UNL     1      13.099  16.731   2.720  1.00  0.00    -0.351 N 
HETATM   43  C24 UNL     1      12.230  15.645   2.334  1.00  0.00     0.126 C 
HETATM   44  C28 UNL     1      14.038  17.369   1.847  1.00  0.00     0.126 C 
HETATM   45  C25 UNL     1      12.936  14.602   1.517  1.00  0.00     0.020 C 
HETATM   46  C26 UNL     1      14.263  15.079   0.996  1.00  0.00     0.003 C 
HETATM   47  C27 UNL     1      14.255  16.536   0.623  1.00  0.00     0.020 C 
ENDBRANCH  39  40
ENDBRANCH  37  39
ENDBRANCH  34  35
ENDBRANCH  33  34
ENDBRANCH  32  33
ENDBRANCH  31  32
ENDBRANCH  30  31
ENDBRANCH  29  30
ENDBRANCH  28  29
ENDBRANCH  27  28
ENDBRANCH  26  27
ENDBRANCH  25  26
ENDBRANCH   1  25
TORSDOF 17
ENDMDL
MODEL 4
REMARK VINA RESULT: -7.451113544      4.455      6.821
REMARK  17 active torsions:
REMARK  status: ('A' for Active; 'I' for Inactive)
REMARK    1  A    between atoms: N1_1  and  C1_4 
REMARK    2  A    between atoms: C7_18  and  C8_19 
REMARK       I    between atoms: C8_19  and  N5_21 
REMARK    3  A    between atoms: N5_21  and  C9_23 
REMARK    4  A    between atoms: C9_23  and  C10_24 
REMARK    5  A    between atoms: C10_24  and  C11_25 
REMARK    6  A    between atoms: C11_25  and  C12_26 
REMARK    7  A    between atoms: C12_26  and  C13_27 
REMARK    8  A    between atoms: C13_27  and  C14_28 
REMARK    9  A    between atoms: C14_28  and  C15_29 
REMARK   10  A    between atoms: C15_29  and  C16_30 
REMARK   11  A    between atoms: C16_30  and  C17_31 
REMARK   12  A    between atoms: C17_31  and  C18_32 
REMARK   13  A    between atoms: C18_32  and  C19_33 
REMARK   14  A    between atoms: C19_33  and  C20_34 
REMARK   15  A    between atoms: C20_34  and  C21_35 
REMARK       I    between atoms: C21_35  and  N6_37 
REMARK   16  A    between atoms: N6_37  and  C22_39 
REMARK   17  A    between atoms: C22_39  and  C23_40 
REMARK       I    between atoms: C23_40  and  N7_42 
ROOT
HETATM    1  C10 UNL     1      13.013  20.584  10.079  1.00  0.00     0.020 C 
ENDROOT
BRANCH   1   2
HETATM    2  C9  UNL     1      13.529  21.852  10.649  1.00  0.00     0.122 C 
BRANCH   2   3
HETATM    3  N5  UNL     1      14.809  21.545  11.284  1.00  0.00    -0.359 N 
HETATM    4  C8  UNL     1      15.610  22.510  11.957  1.00  0.00     0.254 C 
HETATM    5  O2  UNL     1      15.199  23.690  12.024  1.00  0.00    -0.271 OA
ATOM      6  H5  UNL     1      15.148  20.583  11.242  1.00  0.00     0.162 HD
BRANCH   4   7
HETATM    7  C7  UNL     1      16.912  22.119  12.570  1.00  0.00     0.327 C 
HETATM    8  C2  UNL     1      16.680  21.847  14.025  1.00  0.00     0.078 A 
HETATM    9  N2  UNL     1      15.594  22.201  14.717  1.00  0.00    -0.192 N 
HETATM   10  C3  UNL     1      17.682  21.139  14.666  1.00  0.00     0.038 A 
HETATM   11  C1  UNL     1      15.463  21.873  16.034  1.00  0.00     0.679 A 
ATOM     12  H2  UNL     1      14.852  22.726  14.253  1.00  0.00     0.184 HD
HETATM   13  N3  UNL     1      16.436  21.188  16.644  1.00  0.00    -0.156 N 
HETATM   14  C4  UNL     1      17.555  20.805  16.001  1.00  0.00     0.268 A 
ATOM     15  H3  UNL     1      16.327  20.947  17.629  1.00  0.00     0.187 HD
HETATM   16  O1  UNL     1      18.471  20.152  16.601  1.00  0.00    -0.267 OA
HETATM   17  C5  UNL     1      18.886  20.747  13.905  1.00  0.00     0.074 C 
HETATM   18  C6  UNL     1      18.600  20.427  12.489  1.00  0.00     0.238 C 
HETATM   19  N4  UNL     1      17.269  20.795  12.054  1.00  0.00    -0.057 N 
ATOM     20  H42 UNL     1      17.173  20.744  11.040  1.00  0.00     0.278 HD
ATOM     21  H41 UNL     1      16.578  20.089  12.307  1.00  0.00     0.278 HD
BRANCH  11  22
HETATM   22  N1  UNL     1      14.389  22.218  16.677  1.00  0.00    -0.234 N 
ATOM     23  H12 UNL     1      13.945  21.577  17.334  1.00  0.00     0.174 HD
ATOM     24  H11 UNL     1      13.979  23.138  16.517  1.00  0.00     0.174 HD
ENDBRANCH  11  22
ENDBRANCH   4   7
ENDBRANCH   2   3
ENDBRANCH   1   2
BRANCH   1  25
HETATM   25  C11 UNL     1      13.307  19.307  10.757  1.00  0.00     0.002 C 
BRANCH  25  26
HETATM   26  C12 UNL     1      12.880  18.028  10.200  1.00  0.00     0.000 C 
BRANCH  26  27
HETATM   27  C13 UNL     1      12.200  17.911   8.907  1.00  0.00     0.000 C 
BRANCH  27  28
HETATM   28  C14 UNL     1      10.731  18.153   8.866  1.00  0.00     0.000 C 
BRANCH  28  29
HETATM   29  C15 UNL     1      10.023  17.631  10.115  1.00  0.00     0.000 C 
BRANCH  29  30
HETATM   30  C16 UNL     1       9.561  18.806  10.940  1.00  0.00     0.000 C 
BRANCH  30  31
HETATM   31  C17 UNL     1       9.345  20.049  10.105  1.00  0.00     0.000 C 
BRANCH  31  32
HETATM   32  C18 UNL     1       9.538  21.254  10.974  1.00  0.00     0.000 C 
BRANCH  32  33
HETATM   33  C19 UNL     1       9.716  20.877  12.408  1.00  0.00     0.009 C 
BRANCH  33  34
HETATM   34  C20 UNL     1      10.807  21.655  13.108  1.00  0.00     0.103 C 
BRANCH  34  35
HETATM   35  C21 UNL     1      11.789  20.733  13.738  1.00  0.00     0.217 C 
HETATM   36  O3  UNL     1      12.962  21.096  13.918  1.00  0.00    -0.274 OA
HETATM   37  N6  UNL     1      11.386  19.434  14.131  1.00  0.00    -0.352 N 
ATOM     38  H6  UNL     1      10.412  19.180  13.963  1.00  0.00     0.162 HD
BRANCH  37  39
HETATM   39  C22 UNL     1      12.220  18.443  14.742  1.00  0.00     0.225 C 
BRANCH  39  40
HETATM   40  C23 UNL     1      12.606  17.332  13.866  1.00  0.00     0.237 C 
HETATM   41  O4  UNL     1      11.739  16.750  13.177  1.00  0.00    -0.272 OA
HETATM   42  N7  UNL     1      13.955  16.883  13.770  1.00  0.00    -0.351 N 
HETATM   43  C24 UNL     1      14.933  17.524  14.617  1.00  0.00     0.126 C 
HETATM   44  C28 UNL     1      14.252  15.842  12.832  1.00  0.00     0.126 C 
HETATM   45  C25 UNL     1      16.199  17.863  13.884  1.00  0.00     0.020 C 
HETATM   46  C26 UNL     1      16.303  17.158  12.560  1.00  0.00     0.003 C 
HETATM   47  C27 UNL     1      15.726  15.771  12.587  1.00  0.00     0.020 C 
ENDBRANCH  39  40
ENDBRANCH  37  39
ENDBRANCH  34  35
ENDBRANCH  33  34
ENDBRANCH  32  33
ENDBRANCH  31  32
ENDBRANCH  30  31
ENDBRANCH  29  30
ENDBRANCH  28  29
ENDBRANCH  27  28
ENDBRANCH  26  27
ENDBRANCH  25  26
ENDBRANCH   1  25
TORSDOF 17
ENDMDL
MODEL 5
REMARK VINA RESULT: -7.397996610      1.914     11.367
REMARK  17 active torsions:
REMARK  status: ('A' for Active; 'I' for Inactive)
REMARK    1  A    between atoms: N1_1  and  C1_4 
REMARK    2  A    between atoms: C7_18  and  C8_19 
REMARK       I    between atoms: C8_19  and  N5_21 
REMARK    3  A    between atoms: N5_21  and  C9_23 
REMARK    4  A    between atoms: C9_23  and  C10_24 
REMARK    5  A    between atoms: C10_24  and  C11_25 
REMARK    6  A    between atoms: C11_25  and  C12_26 
REMARK    7  A    between atoms: C12_26  and  C13_27 
REMARK    8  A    between atoms: C13_27  and  C14_28 
REMARK    9  A    between atoms: C14_28  and  C15_29 
REMARK   10  A    between atoms: C15_29  and  C16_30 
REMARK   11  A    between atoms: C16_30  and  C17_31 
REMARK   12  A    between atoms: C17_31  and  C18_32 
REMARK   13  A    between atoms: C18_32  and  C19_33 
REMARK   14  A    between atoms: C19_33  and  C20_34 
REMARK   15  A    between atoms: C20_34  and  C21_35 
REMARK       I    between atoms: C21_35  and  N6_37 
REMARK   16  A    between atoms: N6_37  and  C22_39 
REMARK   17  A    between atoms: C22_39  and  C23_40 
REMARK       I    between atoms: C23_40  and  N7_42 
ROOT
HETATM    1  C10 UNL     1      10.268  18.945   8.213  1.00  0.00     0.020 C 
ENDROOT
BRANCH   1   2
HETATM    2  C9  UNL     1      11.620  19.162   7.644  1.00  0.00     0.122 C 
BRANCH   2   3
HETATM    3  N5  UNL     1      11.487  19.090   6.190  1.00  0.00    -0.359 N 
HETATM    4  C8  UNL     1      11.768  17.922   5.426  1.00  0.00     0.254 C 
HETATM    5  O2  UNL     1      12.141  16.889   6.026  1.00  0.00    -0.271 OA
ATOM      6  H5  UNL     1      11.174  19.925   5.693  1.00  0.00     0.162 HD
BRANCH   4   7
HETATM    7  C7  UNL     1      11.618  17.932   3.943  1.00  0.00     0.327 C 
HETATM    8  C2  UNL     1      12.868  17.363   3.344  1.00  0.00     0.078 A 
HETATM    9  N2  UNL     1      14.025  17.184   3.985  1.00  0.00    -0.192 N 
HETATM   10  C3  UNL     1      12.767  16.969   2.020  1.00  0.00     0.038 A 
HETATM   11  C1  UNL     1      15.097  16.621   3.357  1.00  0.00     0.679 A 
ATOM     12  H2  UNL     1      14.109  17.473   4.960  1.00  0.00     0.184 HD
HETATM   13  N3  UNL     1      14.989  16.243   2.078  1.00  0.00    -0.156 N 
HETATM   14  C4  UNL     1      13.850  16.400   1.378  1.00  0.00     0.268 A 
ATOM     15  H3  UNL     1      15.796  15.823   1.619  1.00  0.00     0.187 HD
HETATM   16  O1  UNL     1      13.770  16.033   0.160  1.00  0.00    -0.267 OA
HETATM   17  C5  UNL     1      11.490  17.167   1.305  1.00  0.00     0.074 C 
HETATM   18  C6  UNL     1      10.305  17.001   2.175  1.00  0.00     0.238 C 
HETATM   19  N4  UNL     1      10.611  16.929   3.589  1.00  0.00    -0.057 N 
ATOM     20  H42 UNL     1       9.773  17.012   4.164  1.00  0.00     0.278 HD
ATOM     21  H41 UNL     1      10.895  15.991   3.869  1.00  0.00     0.278 HD
BRANCH  11  22
HETATM   22  N1  UNL     1      16.204  16.447   4.011  1.00  0.00    -0.234 N 
ATOM     23  H12 UNL     1      16.241  16.582   5.021  1.00  0.00     0.174 HD
ATOM     24  H11 UNL     1      17.050  16.180   3.508  1.00  0.00     0.174 HD
ENDBRANCH  11  22
ENDBRANCH   4   7
ENDBRANCH   2   3
ENDBRANCH   1   2
BRANCH   1  25
HETATM   25  C11 UNL     1       9.912  17.623   8.763  1.00  0.00     0.002 C 
BRANCH  25  26
HETATM   26  C12 UNL     1      10.289  17.229  10.116  1.00  0.00     0.000 C 
BRANCH  26  27
HETATM   27  C13 UNL     1      10.624  18.200  11.162  1.00  0.00     0.000 C 
BRANCH  27  28
HETATM   28  C14 UNL     1      12.065  18.457  11.440  1.00  0.00     0.000 C 
BRANCH  28  29
HETATM   29  C15 UNL     1      12.842  17.170  11.707  1.00  0.00     0.000 C 
BRANCH  29  30
HETATM   30  C16 UNL     1      13.678  16.845  10.494  1.00  0.00     0.000 C 
BRANCH  30  31
HETATM   31  C17 UNL     1      14.876  15.985  10.831  1.00  0.00     0.000 C 
BRANCH  31  32
HETATM   32  C18 UNL     1      14.874  15.710  12.304  1.00  0.00     0.000 C 
BRANCH  32  33
HETATM   33  C19 UNL     1      16.177  16.079  12.935  1.00  0.00     0.009 C 
BRANCH  33  34
HETATM   34  C20 UNL     1      16.584  17.514  12.688  1.00  0.00     0.103 C 
BRANCH  34  35
HETATM   35  C21 UNL     1      16.737  18.246  13.973  1.00  0.00     0.217 C 
HETATM   36  O3  UNL     1      15.957  18.031  14.913  1.00  0.00    -0.274 OA
HETATM   37  N6  UNL     1      17.775  19.198  14.123  1.00  0.00    -0.352 N 
ATOM     38  H6  UNL     1      18.391  19.342  13.323  1.00  0.00     0.162 HD
BRANCH  37  39
HETATM   39  C22 UNL     1      18.038  19.976  15.296  1.00  0.00     0.225 C 
BRANCH  39  40
HETATM   40  C23 UNL     1      17.847  21.422  15.136  1.00  0.00     0.237 C 
HETATM   41  O4  UNL     1      18.721  22.108  14.562  1.00  0.00    -0.272 OA
HETATM   42  N7  UNL     1      16.681  22.084  15.617  1.00  0.00    -0.351 N 
HETATM   43  C24 UNL     1      15.709  21.289  16.330  1.00  0.00     0.126 C 
HETATM   44  C28 UNL     1      16.543  23.484  15.349  1.00  0.00     0.126 C 
HETATM   45  C25 UNL     1      14.299  21.576  15.900  1.00  0.00     0.020 C 
HETATM   46  C26 UNL     1      14.189  22.845  15.101  1.00  0.00     0.003 C 
HETATM   47  C27 UNL     1      15.129  23.918  15.573  1.00  0.00     0.020 C 
ENDBRANCH  39  40
ENDBRANCH  37  39
ENDBRANCH  34  35
ENDBRANCH  33  34
ENDBRANCH  32  33
ENDBRANCH  31  32
ENDBRANCH  30  31
ENDBRANCH  29  30
ENDBRANCH  28  29
ENDBRANCH  27  28
ENDBRANCH  26  27
ENDBRANCH  25  26
ENDBRANCH   1  25
TORSDOF 17
ENDMDL
