MODEL 1
REMARK VINA RESULT: -7.624770099      0.000      0.000
REMARK  10 active torsions:
REMARK  status: ('A' for Active; 'I' for Inactive)
REMARK       I    between atoms: C1_4  and  N2_5 
REMARK       I    between atoms: C1_4  and  N4_10 
REMARK    1  A    between atoms: N2_5  and  N3_7 
REMARK    2  A    between atoms: N4_10  and  C2_11 
REMARK    3  A    between atoms: N4_10  and  C5_16 
REMARK    4  A    between atoms: C2_11  and  C3_12 
REMARK    5  A    between atoms: C3_12  and  C4_13 
REMARK    6  A    between atoms: C4_13  and  O1_14 
REMARK    7  A    between atoms: C5_16  and  C6_17 
REMARK    8  A    between atoms: C6_17  and  C7_18 
REMARK    9  A    between atoms: C7_18  and  N5_19 
REMARK   10  A    between atoms: C8_24  and  N8_25 
ROOT
HETATM    1  N1  UNL     1      14.742  10.905  29.917  1.00  0.00    -0.233 N 
ATOM      2  H11 UNL     1      15.343  11.275  30.653  1.00  0.00     0.174 HD
ATOM      3  H12 UNL     1      13.816  10.538  30.133  1.00  0.00     0.174 HD
HETATM    4  C1  UNL     1      15.217  10.931  28.729  1.00  0.00     0.688 C 
HETATM    5  N2  UNL     1      14.376  10.412  27.697  1.00  0.00    -0.139 N 
ATOM      6  H2  UNL     1      14.336  10.897  26.801  1.00  0.00     0.205 HD
HETATM    7  N4  UNL     1      16.502  11.440  28.430  1.00  0.00    -0.217 N 
ENDROOT
BRANCH   7   8
HETATM    8  C2  UNL     1      16.609  12.738  27.836  1.00  0.00     0.143 C 
BRANCH   8   9
HETATM    9  C3  UNL     1      17.193  12.799  26.473  1.00  0.00     0.046 C 
BRANCH   9  10
HETATM   10  C4  UNL     1      16.249  13.319  25.427  1.00  0.00     0.165 C 
BRANCH  10  11
HETATM   11  O1  UNL     1      14.992  12.767  25.653  1.00  0.00    -0.401 OA
ATOM     12  H1  UNL     1      14.335  13.421  25.447  1.00  0.00     0.209 HD
ENDBRANCH  10  11
ENDBRANCH   9  10
ENDBRANCH   8   9
ENDBRANCH   7   8
BRANCH   7  13
HETATM   13  C5  UNL     1      17.669  10.674  28.699  1.00  0.00     0.143 C 
BRANCH  13  14
HETATM   14  C6  UNL     1      17.442   9.240  29.008  1.00  0.00     0.044 C 
BRANCH  14  15
HETATM   15  C7  UNL     1      17.841   8.959  30.417  1.00  0.00     0.173 C 
BRANCH  15  16
HETATM   16  N5  UNL     1      19.130   8.405  30.626  1.00  0.00    -0.205 N 
HETATM   17  N6  UNL     1      20.259   9.081  30.558  1.00  0.00    -0.211 N 
HETATM   18  N7  UNL     1      21.284   8.314  30.796  1.00  0.00    -0.115 N 
ATOM     19  H6  UNL     1      20.323  10.077  30.346  1.00  0.00     0.210 HD
HETATM   20  C8  UNL     1      20.809   7.080  31.031  1.00  0.00     0.707 A 
ATOM     21  H7  UNL     1      22.264   8.597  30.804  1.00  0.00     0.207 HD
HETATM   22  N9  UNL     1      19.483   7.157  30.921  1.00  0.00    -0.113 N 
ATOM     23  H9  UNL     1      18.838   6.376  31.044  1.00  0.00     0.207 HD
BRANCH  20  24
HETATM   24  N8  UNL     1      21.471   6.012  31.308  1.00  0.00    -0.232 N 
ATOM     25  H82 UNL     1      22.465   5.977  31.533  1.00  0.00     0.174 HD
ATOM     26  H81 UNL     1      21.129   5.052  31.350  1.00  0.00     0.174 HD
ENDBRANCH  20  24
ENDBRANCH  15  16
ENDBRANCH  14  15
ENDBRANCH  13  14
ENDBRANCH   7  13
BRANCH   5  27
HETATM   27  N3  UNL     1      13.617   9.276  27.875  1.00  0.00    -0.331 N 
ATOM     28  H32 UNL     1      13.653   8.814  28.784  1.00  0.00     0.177 HD
ATOM     29  H31 UNL     1      13.030   8.896  27.133  1.00  0.00     0.177 HD
ENDBRANCH   5  27
TORSDOF 10
ENDMDL
MODEL 2
REMARK VINA RESULT: -7.524016331      1.105      1.112
REMARK  10 active torsions:
REMARK  status: ('A' for Active; 'I' for Inactive)
REMARK       I    between atoms: C1_4  and  N2_5 
REMARK       I    between atoms: C1_4  and  N4_10 
REMARK    1  A    between atoms: N2_5  and  N3_7 
REMARK    2  A    between atoms: N4_10  and  C2_11 
REMARK    3  A    between atoms: N4_10  and  C5_16 
REMARK    4  A    between atoms: C2_11  and  C3_12 
REMARK    5  A    between atoms: C3_12  and  C4_13 
REMARK    6  A    between atoms: C4_13  and  O1_14 
REMARK    7  A    between atoms: C5_16  and  C6_17 
REMARK    8  A    between atoms: C6_17  and  C7_18 
REMARK    9  A    between atoms: C7_18  and  N5_19 
REMARK   10  A    between atoms: C8_24  and  N8_25 
ROOT
HETATM    1  N1  UNL     1      14.737  11.710  29.484  1.00  0.00    -0.233 N 
ATOM      2  H11 UNL     1      15.289  12.493  29.836  1.00  0.00     0.174 HD
ATOM      3  H12 UNL     1      13.889  11.410  29.965  1.00  0.00     0.174 HD
HETATM    4  C1  UNL     1      15.170  11.141  28.423  1.00  0.00     0.688 C 
HETATM    5  N2  UNL     1      14.397  10.045  27.930  1.00  0.00    -0.139 N 
ATOM      6  H2  UNL     1      14.255   9.953  26.924  1.00  0.00     0.205 HD
HETATM    7  N4  UNL     1      16.345  11.557  27.757  1.00  0.00    -0.217 N 
ENDROOT
BRANCH   7   8
HETATM    8  C2  UNL     1      16.223  12.323  26.553  1.00  0.00     0.143 C 
BRANCH   8   9
HETATM    9  C3  UNL     1      17.137  13.483  26.407  1.00  0.00     0.046 C 
BRANCH   9  10
HETATM   10  C4  UNL     1      16.680  14.499  25.400  1.00  0.00     0.165 C 
BRANCH  10  11
HETATM   11  O1  UNL     1      16.856  15.768  25.943  1.00  0.00    -0.401 OA
ATOM     12  H1  UNL     1      16.205  16.348  25.568  1.00  0.00     0.209 HD
ENDBRANCH  10  11
ENDBRANCH   9  10
ENDBRANCH   8   9
ENDBRANCH   7   8
BRANCH   7  13
HETATM   13  C5  UNL     1      17.629  11.213  28.263  1.00  0.00     0.143 C 
BRANCH  13  14
HETATM   14  C6  UNL     1      17.947   9.763  28.281  1.00  0.00     0.044 C 
BRANCH  14  15
HETATM   15  C7  UNL     1      17.986   9.274  29.688  1.00  0.00     0.173 C 
BRANCH  15  16
HETATM   16  N5  UNL     1      19.193   8.676  30.132  1.00  0.00    -0.205 N 
HETATM   17  N6  UNL     1      20.357   9.293  30.202  1.00  0.00    -0.211 N 
HETATM   18  N7  UNL     1      21.287   8.497  30.645  1.00  0.00    -0.115 N 
ATOM     19  H6  UNL     1      20.508  10.268  29.942  1.00  0.00     0.210 HD
HETATM   20  C8  UNL     1      20.712   7.306  30.876  1.00  0.00     0.707 A 
ATOM     21  H7  UNL     1      22.268   8.734  30.790  1.00  0.00     0.207 HD
HETATM   22  N9  UNL     1      19.426   7.436  30.554  1.00  0.00    -0.113 N 
ATOM     23  H9  UNL     1      18.726   6.697  30.621  1.00  0.00     0.207 HD
BRANCH  20  24
HETATM   24  N8  UNL     1      21.262   6.230  31.319  1.00  0.00    -0.232 N 
ATOM     25  H82 UNL     1      20.802   5.530  31.901  1.00  0.00     0.174 HD
ATOM     26  H81 UNL     1      22.217   5.903  31.170  1.00  0.00     0.174 HD
ENDBRANCH  20  24
ENDBRANCH  15  16
ENDBRANCH  14  15
ENDBRANCH  13  14
ENDBRANCH   7  13
BRANCH   5  27
HETATM   27  N3  UNL     1      13.839   9.108  28.771  1.00  0.00    -0.331 N 
ATOM     28  H32 UNL     1      12.827   9.123  28.901  1.00  0.00     0.177 HD
ATOM     29  H31 UNL     1      14.405   8.412  29.258  1.00  0.00     0.177 HD
ENDBRANCH   5  27
TORSDOF 10
ENDMDL
MODEL 3
REMARK VINA RESULT: -7.464032762      0.824      1.141
REMARK  10 active torsions:
REMARK  status: ('A' for Active; 'I' for Inactive)
REMARK       I    between atoms: C1_4  and  N2_5 
REMARK       I    between atoms: C1_4  and  N4_10 
REMARK    1  A    between atoms: N2_5  and  N3_7 
REMARK    2  A    between atoms: N4_10  and  C2_11 
REMARK    3  A    between atoms: N4_10  and  C5_16 
REMARK    4  A    between atoms: C2_11  and  C3_12 
REMARK    5  A    between atoms: C3_12  and  C4_13 
REMARK    6  A    between atoms: C4_13  and  O1_14 
REMARK    7  A    between atoms: C5_16  and  C6_17 
REMARK    8  A    between atoms: C6_17  and  C7_18 
REMARK    9  A    between atoms: C7_18  and  N5_19 
REMARK   10  A    between atoms: C8_24  and  N8_25 
ROOT
HETATM    1  N1  UNL     1      14.925  10.452  29.939  1.00  0.00    -0.233 N 
ATOM      2  H11 UNL     1      15.637  10.728  30.614  1.00  0.00     0.174 HD
ATOM      3  H12 UNL     1      14.022  10.091  30.248  1.00  0.00     0.174 HD
HETATM    4  C1  UNL     1      15.230  10.585  28.703  1.00  0.00     0.688 C 
HETATM    5  N2  UNL     1      14.232  10.198  27.757  1.00  0.00    -0.139 N 
ATOM      6  H2  UNL     1      14.088  10.773  26.927  1.00  0.00     0.205 HD
HETATM    7  N4  UNL     1      16.480  11.086  28.275  1.00  0.00    -0.217 N 
ENDROOT
BRANCH   7   8
HETATM    8  C2  UNL     1      16.559  12.435  27.800  1.00  0.00     0.143 C 
BRANCH   8   9
HETATM    9  C3  UNL     1      16.989  12.620  26.392  1.00  0.00     0.046 C 
BRANCH   9  10
HETATM   10  C4  UNL     1      15.932  13.209  25.503  1.00  0.00     0.165 C 
BRANCH  10  11
HETATM   11  O1  UNL     1      14.773  12.451  25.633  1.00  0.00    -0.401 OA
ATOM     12  H1  UNL     1      14.365  12.376  24.779  1.00  0.00     0.209 HD
ENDBRANCH  10  11
ENDBRANCH   9  10
ENDBRANCH   8   9
ENDBRANCH   7   8
BRANCH   7  13
HETATM   13  C5  UNL     1      17.641  10.264  28.299  1.00  0.00     0.143 C 
BRANCH  13  14
HETATM   14  C6  UNL     1      18.807  10.817  29.032  1.00  0.00     0.044 C 
BRANCH  14  15
HETATM   15  C7  UNL     1      19.965   9.887  28.910  1.00  0.00     0.173 C 
BRANCH  15  16
HETATM   16  N5  UNL     1      20.082   8.867  29.888  1.00  0.00    -0.205 N 
HETATM   17  N6  UNL     1      19.342   8.780  30.976  1.00  0.00    -0.211 N 
HETATM   18  N7  UNL     1      19.671   7.741  31.689  1.00  0.00    -0.115 N 
ATOM     19  H6  UNL     1      18.606   9.440  31.226  1.00  0.00     0.210 HD
HETATM   20  C8  UNL     1      20.671   7.118  31.044  1.00  0.00     0.707 A 
ATOM     21  H7  UNL     1      19.249   7.454  32.572  1.00  0.00     0.207 HD
HETATM   22  N9  UNL     1      20.909   7.826  29.941  1.00  0.00    -0.113 N 
ATOM     23  H9  UNL     1      21.618   7.603  29.242  1.00  0.00     0.207 HD
BRANCH  20  24
HETATM   24  N8  UNL     1      21.299   6.051  31.393  1.00  0.00    -0.232 N 
ATOM     25  H82 UNL     1      22.294   5.879  31.248  1.00  0.00     0.174 HD
ATOM     26  H81 UNL     1      20.925   5.223  31.858  1.00  0.00     0.174 HD
ENDBRANCH  20  24
ENDBRANCH  15  16
ENDBRANCH  14  15
ENDBRANCH  13  14
ENDBRANCH   7  13
BRANCH   5  27
HETATM   27  N3  UNL     1      13.458   9.071  27.931  1.00  0.00    -0.331 N 
ATOM     28  H32 UNL     1      13.934   8.185  28.098  1.00  0.00     0.177 HD
ATOM     29  H31 UNL     1      12.439   9.105  27.897  1.00  0.00     0.177 HD
ENDBRANCH   5  27
TORSDOF 10
ENDMDL
MODEL 4
REMARK VINA RESULT: -7.436769709      2.222      3.349
REMARK  10 active torsions:
REMARK  status: ('A' for Active; 'I' for Inactive)
REMARK       I    between atoms: C1_4  and  N2_5 
REMARK       I    between atoms: C1_4  and  N4_10 
REMARK    1  A    between atoms: N2_5  and  N3_7 
REMARK    2  A    between atoms: N4_10  and  C2_11 
REMARK    3  A    between atoms: N4_10  and  C5_16 
REMARK    4  A    between atoms: C2_11  and  C3_12 
REMARK    5  A    between atoms: C3_12  and  C4_13 
REMARK    6  A    between atoms: C4_13  and  O1_14 
REMARK    7  A    between atoms: C5_16  and  C6_17 
REMARK    8  A    between atoms: C6_17  and  C7_18 
REMARK    9  A    between atoms: C7_18  and  N5_19 
REMARK   10  A    between atoms: C8_24  and  N8_25 
ROOT
HETATM    1  N1  UNL     1      18.006  13.906  27.015  1.00  0.00    -0.233 N 
ATOM      2  H11 UNL     1      17.905  13.581  26.054  1.00  0.00     0.174 HD
ATOM      3  H12 UNL     1      18.392  14.828  27.218  1.00  0.00     0.174 HD
HETATM    4  C1  UNL     1      17.625  13.099  27.932  1.00  0.00     0.688 C 
HETATM    5  N2  UNL     1      17.768  13.555  29.279  1.00  0.00    -0.139 N 
ATOM      6  H2  UNL     1      17.025  13.355  29.950  1.00  0.00     0.205 HD
HETATM    7  N4  UNL     1      17.090  11.821  27.652  1.00  0.00    -0.217 N 
ENDROOT
BRANCH   7   8
HETATM    8  C2  UNL     1      15.675  11.627  27.755  1.00  0.00     0.143 C 
BRANCH   8   9
HETATM    9  C3  UNL     1      15.206  10.716  28.828  1.00  0.00     0.046 C 
BRANCH   9  10
HETATM   10  C4  UNL     1      14.757   9.370  28.335  1.00  0.00     0.165 C 
BRANCH  10  11
HETATM   11  O1  UNL     1      13.686   8.949  29.117  1.00  0.00    -0.401 OA
ATOM     12  H1  UNL     1      12.955   8.751  28.544  1.00  0.00     0.209 HD
ENDBRANCH  10  11
ENDBRANCH   9  10
ENDBRANCH   8   9
ENDBRANCH   7   8
BRANCH   7  13
HETATM   13  C5  UNL     1      17.939  10.740  27.288  1.00  0.00     0.143 C 
BRANCH  13  14
HETATM   14  C6  UNL     1      19.087  10.487  28.195  1.00  0.00     0.044 C 
BRANCH  14  15
HETATM   15  C7  UNL     1      18.649   9.628  29.332  1.00  0.00     0.173 C 
BRANCH  15  16
HETATM   16  N5  UNL     1      19.641   8.835  29.964  1.00  0.00    -0.205 N 
HETATM   17  N6  UNL     1      20.859   9.246  30.254  1.00  0.00    -0.211 N 
HETATM   18  N7  UNL     1      21.550   8.304  30.831  1.00  0.00    -0.115 N 
ATOM     19  H6  UNL     1      21.215  10.180  30.053  1.00  0.00     0.210 HD
HETATM   20  C8  UNL     1      20.752   7.228  30.923  1.00  0.00     0.707 A 
ATOM     21  H7  UNL     1      22.515   8.372  31.152  1.00  0.00     0.207 HD
HETATM   22  N9  UNL     1      19.584   7.574  30.384  1.00  0.00    -0.113 N 
ATOM     23  H9  UNL     1      18.770   6.964  30.306  1.00  0.00     0.207 HD
BRANCH  20  24
HETATM   24  N8  UNL     1      21.027   6.076  31.424  1.00  0.00    -0.232 N 
ATOM     25  H82 UNL     1      20.605   5.684  32.266  1.00  0.00     0.174 HD
ATOM     26  H81 UNL     1      21.688   5.379  31.079  1.00  0.00     0.174 HD
ENDBRANCH  20  24
ENDBRANCH  15  16
ENDBRANCH  14  15
ENDBRANCH  13  14
ENDBRANCH   7  13
BRANCH   5  27
HETATM   27  N3  UNL     1      18.877  14.255  29.700  1.00  0.00    -0.331 N 
ATOM     28  H32 UNL     1      19.237  14.065  30.636  1.00  0.00     0.177 HD
ATOM     29  H31 UNL     1      19.338  14.945  29.108  1.00  0.00     0.177 HD
ENDBRANCH   5  27
TORSDOF 10
ENDMDL
MODEL 5
REMARK VINA RESULT: -7.331815018      1.713      2.044
REMARK  10 active torsions:
REMARK  status: ('A' for Active; 'I' for Inactive)
REMARK       I    between atoms: C1_4  and  N2_5 
REMARK       I    between atoms: C1_4  and  N4_10 
REMARK    1  A    between atoms: N2_5  and  N3_7 
REMARK    2  A    between atoms: N4_10  and  C2_11 
REMARK    3  A    between atoms: N4_10  and  C5_16 
REMARK    4  A    between atoms: C2_11  and  C3_12 
REMARK    5  A    between atoms: C3_12  and  C4_13 
REMARK    6  A    between atoms: C4_13  and  O1_14 
REMARK    7  A    between atoms: C5_16  and  C6_17 
REMARK    8  A    between atoms: C6_17  and  C7_18 
REMARK    9  A    between atoms: C7_18  and  N5_19 
REMARK   10  A    between atoms: C8_24  and  N8_25 
ROOT
HETATM    1  N1  UNL     1      15.782  10.456  30.140  1.00  0.00    -0.233 N 
ATOM      2  H11 UNL     1      16.685  10.706  30.543  1.00  0.00     0.174 HD
ATOM      3  H12 UNL     1      14.948  10.394  30.725  1.00  0.00     0.174 HD
HETATM    4  C1  UNL     1      15.763  10.230  28.881  1.00  0.00     0.688 C 
HETATM    5  N2  UNL     1      14.498   9.879  28.317  1.00  0.00    -0.139 N 
ATOM      6  H2  UNL     1      14.236  10.267  27.411  1.00  0.00     0.205 HD
HETATM    7  N4  UNL     1      16.919  10.316  28.072  1.00  0.00    -0.217 N 
ENDROOT
BRANCH   7   8
HETATM    8  C2  UNL     1      17.092  11.466  27.235  1.00  0.00     0.143 C 
BRANCH   8   9
HETATM    9  C3  UNL     1      16.934  12.791  27.885  1.00  0.00     0.046 C 
BRANCH   9  10
HETATM   10  C4  UNL     1      18.016  13.121  28.873  1.00  0.00     0.165 C 
BRANCH  10  11
HETATM   11  O1  UNL     1      17.462  13.121  30.149  1.00  0.00    -0.401 OA
ATOM     12  H1  UNL     1      17.227  12.230  30.375  1.00  0.00     0.209 HD
ENDBRANCH  10  11
ENDBRANCH   9  10
ENDBRANCH   8   9
ENDBRANCH   7   8
BRANCH   7  13
HETATM   13  C5  UNL     1      17.888   9.276  28.073  1.00  0.00     0.143 C 
BRANCH  13  14
HETATM   14  C6  UNL     1      19.300   9.711  27.931  1.00  0.00     0.044 C 
BRANCH  14  15
HETATM   15  C7  UNL     1      19.881   9.983  29.277  1.00  0.00     0.173 C 
BRANCH  15  16
HETATM   16  N5  UNL     1      20.053   8.874  30.144  1.00  0.00    -0.205 N 
HETATM   17  N6  UNL     1      19.354   8.663  31.242  1.00  0.00    -0.211 N 
HETATM   18  N7  UNL     1      19.729   7.567  31.836  1.00  0.00    -0.115 N 
ATOM     19  H6  UNL     1      18.614   9.278  31.581  1.00  0.00     0.210 HD
HETATM   20  C8  UNL     1      20.718   7.035  31.100  1.00  0.00     0.707 A 
ATOM     21  H7  UNL     1      19.345   7.184  32.700  1.00  0.00     0.207 HD
HETATM   22  N9  UNL     1      20.902   7.853  30.065  1.00  0.00    -0.113 N 
ATOM     23  H9  UNL     1      21.590   7.718  29.324  1.00  0.00     0.207 HD
BRANCH  20  24
HETATM   24  N8  UNL     1      21.379   5.953  31.318  1.00  0.00    -0.232 N 
ATOM     25  H82 UNL     1      22.032   5.807  32.089  1.00  0.00     0.174 HD
ATOM     26  H81 UNL     1      21.365   5.086  30.781  1.00  0.00     0.174 HD
ENDBRANCH  20  24
ENDBRANCH  15  16
ENDBRANCH  14  15
ENDBRANCH  13  14
ENDBRANCH   7  13
BRANCH   5  27
HETATM   27  N3  UNL     1      13.621   9.033  28.960  1.00  0.00    -0.331 N 
ATOM     28  H32 UNL     1      13.975   8.478  29.739  1.00  0.00     0.177 HD
ATOM     29  H31 UNL     1      12.644   8.951  28.679  1.00  0.00     0.177 HD
ENDBRANCH   5  27
TORSDOF 10
ENDMDL
