MODEL 1
REMARK VINA RESULT: -7.513853123      0.000      0.000
REMARK  10 active torsions:
REMARK  status: ('A' for Active; 'I' for Inactive)
REMARK    1  A    between atoms: N1_1  and  C1_4 
REMARK    2  A    between atoms: C2_9  and  C3_10 
REMARK    3  A    between atoms: C3_10  and  C4_11 
REMARK    4  A    between atoms: C4_11  and  N4_12 
REMARK    5  A    between atoms: N4_12  and  C5_13 
REMARK    6  A    between atoms: N4_12  and  N5_17 
REMARK    7  A    between atoms: C5_13  and  C6_14 
REMARK    8  A    between atoms: C6_14  and  O1_15 
REMARK       I    between atoms: C7_19  and  N7_21 
REMARK    9  A    between atoms: N7_21  and  N8_23 
REMARK   10  A    between atoms: N9_26  and  N10_27 
ROOT
HETATM    1  C4  UNL     1      18.493  10.756  27.719  1.00  0.00     0.150 C 
ENDROOT
BRANCH   1   2
HETATM    2  C3  UNL     1      19.761  10.721  28.547  1.00  0.00     0.102 C 
BRANCH   2   3
HETATM    3  C2  UNL     1      19.784   9.447  29.318  1.00  0.00     0.137 A 
HETATM    4  N3  UNL     1      18.830   8.496  29.318  1.00  0.00    -0.273 N 
HETATM    5  N2  UNL     1      19.142   7.492  30.100  1.00  0.00    -0.129 N 
ATOM      6  H3  UNL     1      17.968   8.550  28.776  1.00  0.00     0.189 HD
HETATM    7  C1  UNL     1      20.336   7.796  30.626  1.00  0.00     0.712 A 
ATOM      8  H2  UNL     1      18.591   6.652  30.272  1.00  0.00     0.205 HD
HETATM    9  N9  UNL     1      20.735   8.991  30.153  1.00  0.00    -0.078 N 
BRANCH   7  10
HETATM   10  N1  UNL     1      21.005   7.066  31.455  1.00  0.00    -0.232 N 
ATOM     11  H12 UNL     1      20.758   6.915  32.433  1.00  0.00     0.174 HD
ATOM     12  H11 UNL     1      21.860   6.552  31.242  1.00  0.00     0.174 HD
ENDBRANCH   7  10
BRANCH   9  13
HETATM   13  N10 UNL     1      21.902   9.676  30.437  1.00  0.00    -0.323 N 
ATOM     14 2H10 UNL     1      22.346   9.685  31.356  1.00  0.00     0.178 HD
ATOM     15 1H10 UNL     1      22.468  10.246  29.808  1.00  0.00     0.178 HD
ENDBRANCH   9  13
ENDBRANCH   2   3
ENDBRANCH   1   2
BRANCH   1  16
HETATM   16  N4  UNL     1      17.485  11.606  28.278  1.00  0.00    -0.323 N 
BRANCH  16  17
HETATM   17  C5  UNL     1      17.500  13.030  27.988  1.00  0.00     0.168 C 
BRANCH  17  18
HETATM   18  C6  UNL     1      17.422  13.228  26.483  1.00  0.00     0.185 C 
BRANCH  18  19
HETATM   19  O1  UNL     1      16.089  13.276  26.069  1.00  0.00    -0.399 OA
ATOM     20  H1  UNL     1      15.649  14.020  26.462  1.00  0.00     0.209 HD
ENDBRANCH  18  19
ENDBRANCH  17  18
ENDBRANCH  16  17
BRANCH  16  21
HETATM   21  N5  UNL     1      16.507  11.032  29.095  1.00  0.00    -0.275 N 
HETATM   22  C7  UNL     1      15.352  10.665  28.684  1.00  0.00     0.221 C 
HETATM   23  N6  UNL     1      14.942  10.809  27.308  1.00  0.00    -0.061 NA
HETATM   24  N7  UNL     1      14.408  10.093  29.561  1.00  0.00    -0.279 N 
ATOM     25  H7  UNL     1      14.249  10.511  30.478  1.00  0.00     0.189 HD
ATOM     26  H5  UNL     1      16.728  10.897  30.081  1.00  0.00     0.189 HD
BRANCH  24  27
HETATM   27  N8  UNL     1      13.693   8.963  29.185  1.00  0.00    -0.343 N 
ATOM     28  H82 UNL     1      13.898   8.529  28.285  1.00  0.00     0.176 HD
ATOM     29  H81 UNL     1      12.977   8.578  29.800  1.00  0.00     0.176 HD
ENDBRANCH  24  27
ENDBRANCH  16  21
ENDBRANCH   1  16
TORSDOF 10
ENDMDL
MODEL 2
REMARK VINA RESULT: -7.389240877      2.069      3.057
REMARK  10 active torsions:
REMARK  status: ('A' for Active; 'I' for Inactive)
REMARK    1  A    between atoms: N1_1  and  C1_4 
REMARK    2  A    between atoms: C2_9  and  C3_10 
REMARK    3  A    between atoms: C3_10  and  C4_11 
REMARK    4  A    between atoms: C4_11  and  N4_12 
REMARK    5  A    between atoms: N4_12  and  C5_13 
REMARK    6  A    between atoms: N4_12  and  N5_17 
REMARK    7  A    between atoms: C5_13  and  C6_14 
REMARK    8  A    between atoms: C6_14  and  O1_15 
REMARK       I    between atoms: C7_19  and  N7_21 
REMARK    9  A    between atoms: N7_21  and  N8_23 
REMARK   10  A    between atoms: N9_26  and  N10_27 
ROOT
HETATM    1  C4  UNL     1      17.638   9.376  28.281  1.00  0.00     0.150 C 
ENDROOT
BRANCH   1   2
HETATM    2  C3  UNL     1      18.902   9.874  28.950  1.00  0.00     0.102 C 
BRANCH   2   3
HETATM    3  C2  UNL     1      19.475   8.762  29.759  1.00  0.00     0.137 A 
HETATM    4  N3  UNL     1      18.866   7.600  30.065  1.00  0.00    -0.273 N 
HETATM    5  N2  UNL     1      19.632   6.825  30.791  1.00  0.00    -0.129 N 
ATOM      6  H3  UNL     1      17.923   7.353  29.768  1.00  0.00     0.189 HD
HETATM    7  C1  UNL     1      20.776   7.500  30.964  1.00  0.00     0.712 A 
ATOM      8  H2  UNL     1      19.405   5.898  31.151  1.00  0.00     0.205 HD
HETATM    9  N9  UNL     1      20.688   8.686  30.336  1.00  0.00    -0.078 N 
BRANCH   7  10
HETATM   10  N1  UNL     1      21.805   7.087  31.627  1.00  0.00    -0.232 N 
ATOM     11  H12 UNL     1      21.860   7.024  32.643  1.00  0.00     0.174 HD
ATOM     12  H11 UNL     1      22.689   6.774  31.224  1.00  0.00     0.174 HD
ENDBRANCH   7  10
BRANCH   9  13
HETATM   13  N10 UNL     1      21.640   9.687  30.262  1.00  0.00    -0.323 N 
ATOM     14 2H10 UNL     1      22.634   9.539  30.437  1.00  0.00     0.178 HD
ATOM     15 1H10 UNL     1      21.503  10.672  30.034  1.00  0.00     0.178 HD
ENDBRANCH   9  13
ENDBRANCH   2   3
ENDBRANCH   1   2
BRANCH   1  16
HETATM   16  N4  UNL     1      16.472  10.108  28.675  1.00  0.00    -0.323 N 
BRANCH  16  17
HETATM   17  C5  UNL     1      16.161  10.263  30.087  1.00  0.00     0.168 C 
BRANCH  17  18
HETATM   18  C6  UNL     1      15.506   8.988  30.591  1.00  0.00     0.185 C 
BRANCH  18  19
HETATM   19  O1  UNL     1      14.426   8.644  29.776  1.00  0.00    -0.399 OA
ATOM     20  H1  UNL     1      14.734   8.271  28.959  1.00  0.00     0.209 HD
ENDBRANCH  18  19
ENDBRANCH  17  18
ENDBRANCH  16  17
BRANCH  16  21
HETATM   21  N5  UNL     1      15.659  10.655  27.678  1.00  0.00    -0.275 N 
HETATM   22  C7  UNL     1      15.695  11.882  27.315  1.00  0.00     0.221 C 
HETATM   23  N6  UNL     1      16.598  12.835  27.911  1.00  0.00    -0.061 NA
HETATM   24  N7  UNL     1      14.845  12.372  26.302  1.00  0.00    -0.279 N 
ATOM     25  H7  UNL     1      13.857  12.118  26.302  1.00  0.00     0.189 HD
ATOM     26  H5  UNL     1      14.996  10.038  27.210  1.00  0.00     0.189 HD
BRANCH  24  27
HETATM   27  N8  UNL     1      15.345  13.200  25.305  1.00  0.00    -0.343 N 
ATOM     28  H82 UNL     1      16.302  13.058  24.982  1.00  0.00     0.176 HD
ATOM     29  H81 UNL     1      14.763  13.935  24.905  1.00  0.00     0.176 HD
ENDBRANCH  24  27
ENDBRANCH  16  21
ENDBRANCH   1  16
TORSDOF 10
ENDMDL
MODEL 3
REMARK VINA RESULT: -7.388348410      1.943      3.266
REMARK  10 active torsions:
REMARK  status: ('A' for Active; 'I' for Inactive)
REMARK    1  A    between atoms: N1_1  and  C1_4 
REMARK    2  A    between atoms: C2_9  and  C3_10 
REMARK    3  A    between atoms: C3_10  and  C4_11 
REMARK    4  A    between atoms: C4_11  and  N4_12 
REMARK    5  A    between atoms: N4_12  and  C5_13 
REMARK    6  A    between atoms: N4_12  and  N5_17 
REMARK    7  A    between atoms: C5_13  and  C6_14 
REMARK    8  A    between atoms: C6_14  and  O1_15 
REMARK       I    between atoms: C7_19  and  N7_21 
REMARK    9  A    between atoms: N7_21  and  N8_23 
REMARK   10  A    between atoms: N9_26  and  N10_27 
ROOT
HETATM    1  C4  UNL     1      17.401   9.595  28.522  1.00  0.00     0.150 C 
ENDROOT
BRANCH   1   2
HETATM    2  C3  UNL     1      18.895   9.800  28.667  1.00  0.00     0.102 C 
BRANCH   2   3
HETATM    3  C2  UNL     1      19.426   8.748  29.578  1.00  0.00     0.137 A 
HETATM    4  N3  UNL     1      18.797   7.614  29.944  1.00  0.00    -0.273 N 
HETATM    5  N2  UNL     1      19.527   6.891  30.755  1.00  0.00    -0.129 N 
ATOM      6  H3  UNL     1      17.865   7.350  29.626  1.00  0.00     0.189 HD
HETATM    7  C1  UNL     1      20.668   7.572  30.925  1.00  0.00     0.712 A 
ATOM      8  H2  UNL     1      19.279   5.994  31.172  1.00  0.00     0.205 HD
HETATM    9  N9  UNL     1      20.614   8.709  30.209  1.00  0.00    -0.078 N 
BRANCH   7  10
HETATM   10  N1  UNL     1      21.666   7.204  31.658  1.00  0.00    -0.232 N 
ATOM     11  H12 UNL     1      21.591   6.832  32.604  1.00  0.00     0.174 HD
ATOM     12  H11 UNL     1      22.650   7.239  31.388  1.00  0.00     0.174 HD
ENDBRANCH   7  10
BRANCH   9  13
HETATM   13  N10 UNL     1      21.575   9.698  30.100  1.00  0.00    -0.323 N 
ATOM     14 2H10 UNL     1      21.858  10.300  30.873  1.00  0.00     0.178 HD
ATOM     15 1H10 UNL     1      22.118   9.963  29.278  1.00  0.00     0.178 HD
ENDBRANCH   9  13
ENDBRANCH   2   3
ENDBRANCH   1   2
BRANCH   1  16
HETATM   16  N4  UNL     1      16.710  10.786  28.130  1.00  0.00    -0.323 N 
BRANCH  16  17
HETATM   17  C5  UNL     1      15.284  10.735  27.852  1.00  0.00     0.168 C 
BRANCH  17  18
HETATM   18  C6  UNL     1      14.704   9.480  28.481  1.00  0.00     0.185 C 
BRANCH  18  19
HETATM   19  O1  UNL     1      13.560   9.075  27.789  1.00  0.00    -0.399 OA
ATOM     20  H1  UNL     1      13.018   8.525  28.341  1.00  0.00     0.209 HD
ENDBRANCH  18  19
ENDBRANCH  17  18
ENDBRANCH  16  17
BRANCH  16  21
HETATM   21  N5  UNL     1      17.438  11.976  28.026  1.00  0.00    -0.275 N 
HETATM   22  C7  UNL     1      17.518  12.853  28.954  1.00  0.00     0.221 C 
HETATM   23  N6  UNL     1      16.854  12.693  30.224  1.00  0.00    -0.061 NA
HETATM   24  N7  UNL     1      18.268  14.035  28.784  1.00  0.00    -0.279 N 
ATOM     25  H7  UNL     1      18.190  14.565  27.917  1.00  0.00     0.189 HD
ATOM     26  H5  UNL     1      17.936  12.156  27.154  1.00  0.00     0.189 HD
BRANCH  24  27
HETATM   27  N8  UNL     1      19.113  14.481  29.792  1.00  0.00    -0.343 N 
ATOM     28  H82 UNL     1      19.373  13.836  30.537  1.00  0.00     0.176 HD
ATOM     29  H81 UNL     1      19.465  15.438  29.784  1.00  0.00     0.176 HD
ENDBRANCH  24  27
ENDBRANCH  16  21
ENDBRANCH   1  16
TORSDOF 10
ENDMDL
MODEL 4
REMARK VINA RESULT: -7.266221902      1.801      3.206
REMARK  10 active torsions:
REMARK  status: ('A' for Active; 'I' for Inactive)
REMARK    1  A    between atoms: N1_1  and  C1_4 
REMARK    2  A    between atoms: C2_9  and  C3_10 
REMARK    3  A    between atoms: C3_10  and  C4_11 
REMARK    4  A    between atoms: C4_11  and  N4_12 
REMARK    5  A    between atoms: N4_12  and  C5_13 
REMARK    6  A    between atoms: N4_12  and  N5_17 
REMARK    7  A    between atoms: C5_13  and  C6_14 
REMARK    8  A    between atoms: C6_14  and  O1_15 
REMARK       I    between atoms: C7_19  and  N7_21 
REMARK    9  A    between atoms: N7_21  and  N8_23 
REMARK   10  A    between atoms: N9_26  and  N10_27 
ROOT
HETATM    1  C4  UNL     1      17.709  10.724  28.076  1.00  0.00     0.150 C 
ENDROOT
BRANCH   1   2
HETATM    2  C3  UNL     1      19.168  10.733  28.481  1.00  0.00     0.102 C 
BRANCH   2   3
HETATM    3  C2  UNL     1      19.451   9.487  29.247  1.00  0.00     0.137 A 
HETATM    4  N3  UNL     1      18.651   8.407  29.342  1.00  0.00    -0.273 N 
HETATM    5  N2  UNL     1      19.180   7.472  30.090  1.00  0.00    -0.129 N 
ATOM      6  H3  UNL     1      17.742   8.327  28.885  1.00  0.00     0.189 HD
HETATM    7  C1  UNL     1      20.361   7.954  30.496  1.00  0.00     0.712 A 
ATOM      8  H2  UNL     1      18.776   6.563  30.316  1.00  0.00     0.205 HD
HETATM    9  N9  UNL     1      20.535   9.187  29.986  1.00  0.00    -0.078 N 
BRANCH   7  10
HETATM   10  N1  UNL     1      21.207   7.342  31.257  1.00  0.00    -0.232 N 
ATOM     11  H12 UNL     1      21.094   6.392  31.612  1.00  0.00     0.174 HD
ATOM     12  H11 UNL     1      22.089   7.724  31.599  1.00  0.00     0.174 HD
ENDBRANCH   7  10
BRANCH   9  13
HETATM   13  N10 UNL     1      21.611  10.038  30.154  1.00  0.00    -0.323 N 
ATOM     14 2H10 UNL     1      22.437  10.034  29.554  1.00  0.00     0.178 HD
ATOM     15 1H10 UNL     1      21.739  10.761  30.862  1.00  0.00     0.178 HD
ENDBRANCH   9  13
ENDBRANCH   2   3
ENDBRANCH   1   2
BRANCH   1  16
HETATM   16  N4  UNL     1      17.006  11.898  28.496  1.00  0.00    -0.323 N 
BRANCH  16  17
HETATM   17  C5  UNL     1      15.575  11.834  28.745  1.00  0.00     0.168 C 
BRANCH  17  18
HETATM   18  C6  UNL     1      14.902  11.139  27.573  1.00  0.00     0.185 C 
BRANCH  18  19
HETATM   19  O1  UNL     1      14.820  12.003  26.479  1.00  0.00    -0.399 OA
ATOM     20  H1  UNL     1      14.657  11.512  25.682  1.00  0.00     0.209 HD
ENDBRANCH  18  19
ENDBRANCH  17  18
ENDBRANCH  16  17
BRANCH  16  21
HETATM   21  N5  UNL     1      17.727  13.086  28.654  1.00  0.00    -0.275 N 
HETATM   22  C7  UNL     1      17.835  13.987  27.751  1.00  0.00     0.221 C 
HETATM   23  N6  UNL     1      17.209  13.860  26.458  1.00  0.00    -0.061 NA
HETATM   24  N7  UNL     1      18.580  15.163  27.973  1.00  0.00    -0.279 N 
ATOM     25  H7  UNL     1      19.500  15.106  28.412  1.00  0.00     0.189 HD
ATOM     26  H5  UNL     1      18.196  13.245  29.545  1.00  0.00     0.189 HD
BRANCH  24  27
HETATM   27  N8  UNL     1      18.069  16.399  27.600  1.00  0.00    -0.343 N 
ATOM     28  H82 UNL     1      17.922  16.591  26.609  1.00  0.00     0.176 HD
ATOM     29  H81 UNL     1      17.847  17.100  28.306  1.00  0.00     0.176 HD
ENDBRANCH  24  27
ENDBRANCH  16  21
ENDBRANCH   1  16
TORSDOF 10
ENDMDL
MODEL 5
REMARK VINA RESULT: -7.241491436      1.890      3.256
REMARK  10 active torsions:
REMARK  status: ('A' for Active; 'I' for Inactive)
REMARK    1  A    between atoms: N1_1  and  C1_4 
REMARK    2  A    between atoms: C2_9  and  C3_10 
REMARK    3  A    between atoms: C3_10  and  C4_11 
REMARK    4  A    between atoms: C4_11  and  N4_12 
REMARK    5  A    between atoms: N4_12  and  C5_13 
REMARK    6  A    between atoms: N4_12  and  N5_17 
REMARK    7  A    between atoms: C5_13  and  C6_14 
REMARK    8  A    between atoms: C6_14  and  O1_15 
REMARK       I    between atoms: C7_19  and  N7_21 
REMARK    9  A    between atoms: N7_21  and  N8_23 
REMARK   10  A    between atoms: N9_26  and  N10_27 
ROOT
HETATM    1  C4  UNL     1      17.611   9.913  28.163  1.00  0.00     0.150 C 
ENDROOT
BRANCH   1   2
HETATM    2  C3  UNL     1      19.010  10.182  28.676  1.00  0.00     0.102 C 
BRANCH   2   3
HETATM    3  C2  UNL     1      19.437   9.021  29.506  1.00  0.00     0.137 A 
HETATM    4  N3  UNL     1      18.721   7.906  29.752  1.00  0.00    -0.273 N 
HETATM    5  N2  UNL     1      19.372   7.067  30.519  1.00  0.00    -0.129 N 
ATOM      6  H3  UNL     1      17.785   7.736  29.384  1.00  0.00     0.189 HD
HETATM    7  C1  UNL     1      20.548   7.650  30.782  1.00  0.00     0.712 A 
ATOM      8  H2  UNL     1      19.049   6.158  30.847  1.00  0.00     0.205 HD
HETATM    9  N9  UNL     1      20.596   8.846  30.167  1.00  0.00    -0.078 N 
BRANCH   7  10
HETATM   10  N1  UNL     1      21.493   7.153  31.509  1.00  0.00    -0.232 N 
ATOM     11  H12 UNL     1      21.351   6.612  32.362  1.00  0.00     0.174 HD
ATOM     12  H11 UNL     1      22.493   7.236  31.328  1.00  0.00     0.174 HD
ENDBRANCH   7  10
BRANCH   9  13
HETATM   13  N10 UNL     1      21.624   9.771  30.175  1.00  0.00    -0.323 N 
ATOM     14 2H10 UNL     1      22.564   9.577  29.829  1.00  0.00     0.178 HD
ATOM     15 1H10 UNL     1      21.603  10.735  30.509  1.00  0.00     0.178 HD
ENDBRANCH   9  13
ENDBRANCH   2   3
ENDBRANCH   1   2
BRANCH   1  16
HETATM   16  N4  UNL     1      16.767  11.069  28.209  1.00  0.00    -0.323 N 
BRANCH  16  17
HETATM   17  C5  UNL     1      15.344  10.935  27.942  1.00  0.00     0.168 C 
BRANCH  17  18
HETATM   18  C6  UNL     1      14.907   9.523  28.293  1.00  0.00     0.185 C 
BRANCH  18  19
HETATM   19  O1  UNL     1      13.641   9.263  27.764  1.00  0.00    -0.399 OA
ATOM     20  H1  UNL     1      12.975   9.725  28.260  1.00  0.00     0.209 HD
ENDBRANCH  18  19
ENDBRANCH  17  18
ENDBRANCH  16  17
BRANCH  16  21
HETATM   21  N5  UNL     1      17.346  12.305  28.513  1.00  0.00    -0.275 N 
HETATM   22  C7  UNL     1      17.703  13.166  27.637  1.00  0.00     0.221 C 
HETATM   23  N6  UNL     1      17.537  12.939  26.222  1.00  0.00    -0.061 NA
HETATM   24  N7  UNL     1      18.284  14.395  28.010  1.00  0.00    -0.279 N 
ATOM     25  H7  UNL     1      19.013  14.416  28.723  1.00  0.00     0.189 HD
ATOM     26  H5  UNL     1      17.492  12.535  29.496  1.00  0.00     0.189 HD
BRANCH  24  27
HETATM   27  N8  UNL     1      17.870  15.578  27.411  1.00  0.00    -0.343 N 
ATOM     28  H82 UNL     1      18.486  16.390  27.450  1.00  0.00     0.176 HD
ATOM     29  H81 UNL     1      16.967  15.630  26.942  1.00  0.00     0.176 HD
ENDBRANCH  24  27
ENDBRANCH  16  21
ENDBRANCH   1  16
TORSDOF 10
ENDMDL
