MODEL 1
REMARK VINA RESULT: -6.433962549      0.000      0.000
REMARK  8 active torsions:
REMARK  status: ('A' for Active; 'I' for Inactive)
REMARK    1  A    between atoms: S1_2  and  C2_3 
REMARK    2  A    between atoms: C4_5  and  S2_6 
REMARK    3  A    between atoms: N2_11  and  C7_13 
REMARK    4  A    between atoms: C7_13  and  C8_14 
REMARK    5  A    between atoms: C8_14  and  O1_15 
REMARK    6  A    between atoms: C8_14  and  C9_17 
REMARK    7  A    between atoms: C9_17  and  N3_18 
REMARK    8  A    between atoms: N3_18  and  C10_20 
ROOT
HETATM    1  C2  UNL     1      56.510  -9.072  14.962  1.00  0.00     0.088 A 
HETATM    2  C3  UNL     1      55.733  -7.969  14.675  1.00  0.00     0.074 A 
HETATM    3  C4  UNL     1      56.057  -7.167  13.617  1.00  0.00     0.088 A 
HETATM    4  N1  UNL     1      57.153  -7.505  12.885  1.00  0.00    -0.185 N 
ATOM      5  H1  UNL     1      57.399  -6.910  12.095  1.00  0.00     0.185 HD
HETATM    6  C6  UNL     1      57.929  -8.566  13.131  1.00  0.00     0.683 A 
HETATM    7  N2  UNL     1      58.959  -8.902  12.438  1.00  0.00    -0.203 N 
ATOM      8  H2  UNL     1      59.476  -9.735  12.718  1.00  0.00     0.183 HD
HETATM    9  N4  UNL     1      57.569  -9.349  14.207  1.00  0.00    -0.185 N 
ATOM     10  H4  UNL     1      58.135 -10.168  14.432  1.00  0.00     0.185 HD
ENDROOT
BRANCH   7  11
HETATM   11  C7  UNL     1      59.412  -8.188  11.318  1.00  0.00     0.112 C 
BRANCH  11  12
HETATM   12  C8  UNL     1      60.895  -7.873  11.307  1.00  0.00     0.174 C 
BRANCH  12  13
HETATM   13  O1  UNL     1      61.267  -7.849   9.946  1.00  0.00    -0.389 OA
ATOM     14  H1  UNL     1      61.629  -6.984   9.797  1.00  0.00     0.210 HD
ENDBRANCH  12  13
BRANCH  12  15
HETATM   15  C9  UNL     1      61.724  -8.972  11.913  1.00  0.00     0.151 C 
BRANCH  15  16
HETATM   16  N3  UNL     1      61.922  -9.994  10.935  1.00  0.00    -0.415 N 
ATOM     17  H3  UNL     1      61.160 -10.310  10.334  1.00  0.00     0.153 HD
BRANCH  16  18
HETATM   18  C10 UNL     1      63.224 -10.549  10.835  1.00  0.00     0.068 C 
HETATM   19  C11 UNL     1      64.343  -9.643  11.277  1.00  0.00     0.031 C 
HETATM   20  C12 UNL     1      63.348 -11.845  11.646  1.00  0.00     0.031 C 
ENDBRANCH  16  18
ENDBRANCH  15  16
ENDBRANCH  12  15
ENDBRANCH  11  12
ENDBRANCH   7  11
BRANCH   3  21
HETATM   21  S2  UNL     1      55.128  -5.721  13.142  1.00  0.00    -0.116 SA
HETATM   22  C5  UNL     1      54.213  -5.973  11.601  1.00  0.00     0.097 C 
ENDBRANCH   3  21
BRANCH   1  23
HETATM   23  S1  UNL     1      56.041 -10.075  16.374  1.00  0.00    -0.116 SA
HETATM   24  C1  UNL     1      54.338  -9.785  16.866  1.00  0.00     0.097 C 
ENDBRANCH   1  23
TORSDOF 8
ENDMDL
MODEL 2
REMARK VINA RESULT: -6.323973135      1.044      1.243
REMARK  8 active torsions:
REMARK  status: ('A' for Active; 'I' for Inactive)
REMARK    1  A    between atoms: S1_2  and  C2_3 
REMARK    2  A    between atoms: C4_5  and  S2_6 
REMARK    3  A    between atoms: N2_11  and  C7_13 
REMARK    4  A    between atoms: C7_13  and  C8_14 
REMARK    5  A    between atoms: C8_14  and  O1_15 
REMARK    6  A    between atoms: C8_14  and  C9_17 
REMARK    7  A    between atoms: C9_17  and  N3_18 
REMARK    8  A    between atoms: N3_18  and  C10_20 
ROOT
HETATM    1  C2  UNL     1      56.312  -9.045  15.183  1.00  0.00     0.088 A 
HETATM    2  C3  UNL     1      55.594  -7.928  14.810  1.00  0.00     0.074 A 
HETATM    3  C4  UNL     1      55.968  -7.217  13.704  1.00  0.00     0.088 A 
HETATM    4  N1  UNL     1      57.055  -7.657  13.013  1.00  0.00    -0.185 N 
ATOM      5  H1  UNL     1      57.339  -7.131  12.188  1.00  0.00     0.185 HD
HETATM    6  C6  UNL     1      57.776  -8.734  13.343  1.00  0.00     0.683 A 
HETATM    7  N2  UNL     1      58.796  -9.166  12.690  1.00  0.00    -0.203 N 
ATOM      8  H2  UNL     1      59.269 -10.001  13.034  1.00  0.00     0.183 HD
HETATM    9  N4  UNL     1      57.366  -9.423  14.464  1.00  0.00    -0.185 N 
ATOM     10  H4  UNL     1      57.888 -10.250  14.753  1.00  0.00     0.185 HD
ENDROOT
BRANCH   7  11
HETATM   11  C7  UNL     1      59.296  -8.553  11.530  1.00  0.00     0.112 C 
BRANCH  11  12
HETATM   12  C8  UNL     1      60.587  -7.778  11.712  1.00  0.00     0.174 C 
BRANCH  12  13
HETATM   13  O1  UNL     1      60.558  -6.762  10.733  1.00  0.00    -0.389 OA
ATOM     14  H1  UNL     1      61.274  -6.178  10.953  1.00  0.00     0.210 HD
ENDBRANCH  12  13
BRANCH  12  15
HETATM   15  C9  UNL     1      61.804  -8.597  11.382  1.00  0.00     0.151 C 
BRANCH  15  16
HETATM   16  N3  UNL     1      62.512  -7.963  10.317  1.00  0.00    -0.415 N 
ATOM     17  H3  UNL     1      62.194  -7.079   9.918  1.00  0.00     0.153 HD
BRANCH  16  18
HETATM   18  C10 UNL     1      63.678  -8.615   9.838  1.00  0.00     0.068 C 
HETATM   19  C11 UNL     1      64.716  -7.709   9.229  1.00  0.00     0.031 C 
HETATM   20  C12 UNL     1      64.373  -9.415  10.947  1.00  0.00     0.031 C 
ENDBRANCH  16  18
ENDBRANCH  15  16
ENDBRANCH  12  15
ENDBRANCH  11  12
ENDBRANCH   7  11
BRANCH   3  21
HETATM   21  S2  UNL     1      55.116  -5.765  13.117  1.00  0.00    -0.116 SA
HETATM   22  C5  UNL     1      54.286  -6.053  11.535  1.00  0.00     0.097 C 
ENDBRANCH   3  21
BRANCH   1  23
HETATM   23  S1  UNL     1      55.779  -9.924  16.653  1.00  0.00    -0.116 SA
HETATM   24  C1  UNL     1      54.006  -9.796  16.904  1.00  0.00     0.097 C 
ENDBRANCH   1  23
TORSDOF 8
ENDMDL
MODEL 3
REMARK VINA RESULT: -6.294641279      1.265      1.632
REMARK  8 active torsions:
REMARK  status: ('A' for Active; 'I' for Inactive)
REMARK    1  A    between atoms: S1_2  and  C2_3 
REMARK    2  A    between atoms: C4_5  and  S2_6 
REMARK    3  A    between atoms: N2_11  and  C7_13 
REMARK    4  A    between atoms: C7_13  and  C8_14 
REMARK    5  A    between atoms: C8_14  and  O1_15 
REMARK    6  A    between atoms: C8_14  and  C9_17 
REMARK    7  A    between atoms: C9_17  and  N3_18 
REMARK    8  A    between atoms: N3_18  and  C10_20 
ROOT
HETATM    1  C2  UNL     1      57.374  -9.492  14.868  1.00  0.00     0.088 A 
HETATM    2  C3  UNL     1      56.450  -8.690  14.232  1.00  0.00     0.074 A 
HETATM    3  C4  UNL     1      56.799  -8.025  13.090  1.00  0.00     0.088 A 
HETATM    4  N1  UNL     1      58.069  -8.193  12.629  1.00  0.00    -0.185 N 
ATOM      5  H1  UNL     1      58.335  -7.699  11.778  1.00  0.00     0.185 HD
HETATM    6  C6  UNL     1      58.991  -8.961  13.217  1.00  0.00     0.683 A 
HETATM    7  N2  UNL     1      60.189  -9.136  12.783  1.00  0.00    -0.203 N 
ATOM      8  H2  UNL     1      60.808  -9.748  13.314  1.00  0.00     0.183 HD
HETATM    9  N4  UNL     1      58.600  -9.614  14.366  1.00  0.00    -0.185 N 
ATOM     10  H4  UNL     1      59.273 -10.210  14.848  1.00  0.00     0.185 HD
ENDROOT
BRANCH   7  11
HETATM   11  C7  UNL     1      60.694  -8.533  11.620  1.00  0.00     0.112 C 
BRANCH  11  12
HETATM   12  C8  UNL     1      62.109  -8.931  11.247  1.00  0.00     0.174 C 
BRANCH  12  13
HETATM   13  O1  UNL     1      62.399  -8.223  10.061  1.00  0.00    -0.389 OA
ATOM     14  H1  UNL     1      63.056  -7.581  10.303  1.00  0.00     0.210 HD
ENDBRANCH  12  13
BRANCH  12  15
HETATM   15  C9  UNL     1      62.220 -10.382  10.867  1.00  0.00     0.151 C 
BRANCH  15  16
HETATM   16  N3  UNL     1      63.285 -10.974  11.612  1.00  0.00    -0.415 N 
ATOM     17  H3  UNL     1      63.931 -10.405  12.160  1.00  0.00     0.153 HD
BRANCH  16  18
HETATM   18  C10 UNL     1      63.405 -12.386  11.557  1.00  0.00     0.068 C 
HETATM   19  C11 UNL     1      63.014 -13.013  10.244  1.00  0.00     0.031 C 
HETATM   20  C12 UNL     1      64.836 -12.844  11.865  1.00  0.00     0.031 C 
ENDBRANCH  16  18
ENDBRANCH  15  16
ENDBRANCH  12  15
ENDBRANCH  11  12
ENDBRANCH   7  11
BRANCH   3  21
HETATM   21  S2  UNL     1      55.693  -6.968  12.174  1.00  0.00    -0.116 SA
HETATM   22  C5  UNL     1      54.948  -5.691  13.218  1.00  0.00     0.097 C 
ENDBRANCH   3  21
BRANCH   1  23
HETATM   23  S1  UNL     1      56.858 -10.324  16.372  1.00  0.00    -0.116 SA
HETATM   24  C1  UNL     1      55.156  -9.942  16.798  1.00  0.00     0.097 C 
ENDBRANCH   1  23
TORSDOF 8
ENDMDL
MODEL 4
REMARK VINA RESULT: -6.183571663      1.627      1.954
REMARK  8 active torsions:
REMARK  status: ('A' for Active; 'I' for Inactive)
REMARK    1  A    between atoms: S1_2  and  C2_3 
REMARK    2  A    between atoms: C4_5  and  S2_6 
REMARK    3  A    between atoms: N2_11  and  C7_13 
REMARK    4  A    between atoms: C7_13  and  C8_14 
REMARK    5  A    between atoms: C8_14  and  O1_15 
REMARK    6  A    between atoms: C8_14  and  C9_17 
REMARK    7  A    between atoms: C9_17  and  N3_18 
REMARK    8  A    between atoms: N3_18  and  C10_20 
ROOT
HETATM    1  C2  UNL     1      56.959  -9.378  15.078  1.00  0.00     0.088 A 
HETATM    2  C3  UNL     1      56.113  -8.522  14.407  1.00  0.00     0.074 A 
HETATM    3  C4  UNL     1      56.512  -7.957  13.228  1.00  0.00     0.088 A 
HETATM    4  N1  UNL     1      57.753  -8.276  12.768  1.00  0.00    -0.185 N 
ATOM      5  H1  UNL     1      58.056  -7.857  11.889  1.00  0.00     0.185 HD
HETATM    6  C6  UNL     1      58.601  -9.102  13.390  1.00  0.00     0.683 A 
HETATM    7  N2  UNL     1      59.769  -9.419  12.957  1.00  0.00    -0.203 N 
ATOM      8  H2  UNL     1      60.330 -10.062  13.516  1.00  0.00     0.183 HD
HETATM    9  N4  UNL     1      58.161  -9.650  14.575  1.00  0.00    -0.185 N 
ATOM     10  H4  UNL     1      58.776 -10.285  15.083  1.00  0.00     0.185 HD
ENDROOT
BRANCH   7  11
HETATM   11  C7  UNL     1      60.317  -8.932  11.760  1.00  0.00     0.112 C 
BRANCH  11  12
HETATM   12  C8  UNL     1      61.600  -8.137  11.911  1.00  0.00     0.174 C 
BRANCH  12  13
HETATM   13  O1  UNL     1      61.390  -6.942  11.190  1.00  0.00    -0.389 OA
ATOM     14  H1  UNL     1      60.914  -6.370  11.779  1.00  0.00     0.210 HD
ENDBRANCH  12  13
BRANCH  12  15
HETATM   15  C9  UNL     1      62.771  -8.796  11.235  1.00  0.00     0.151 C 
BRANCH  15  16
HETATM   16  N3  UNL     1      62.957  -8.199   9.951  1.00  0.00    -0.415 N 
ATOM     17  H3  UNL     1      62.259  -7.573   9.548  1.00  0.00     0.153 HD
BRANCH  16  18
HETATM   18  C10 UNL     1      64.155  -8.516   9.259  1.00  0.00     0.068 C 
HETATM   19  C11 UNL     1      63.968  -9.080   7.876  1.00  0.00     0.031 C 
HETATM   20  C12 UNL     1      65.070  -7.292   9.127  1.00  0.00     0.031 C 
ENDBRANCH  16  18
ENDBRANCH  15  16
ENDBRANCH  12  15
ENDBRANCH  11  12
ENDBRANCH   7  11
BRANCH   3  21
HETATM   21  S2  UNL     1      55.506  -6.844  12.265  1.00  0.00    -0.116 SA
HETATM   22  C5  UNL     1      54.902  -5.447  13.246  1.00  0.00     0.097 C 
ENDBRANCH   3  21
BRANCH   1  23
HETATM   23  S1  UNL     1      56.382 -10.074  16.628  1.00  0.00    -0.116 SA
HETATM   24  C1  UNL     1      54.623  -9.805  16.869  1.00  0.00     0.097 C 
ENDBRANCH   1  23
TORSDOF 8
ENDMDL
MODEL 5
REMARK VINA RESULT: -6.103968737      1.074      3.326
REMARK  8 active torsions:
REMARK  status: ('A' for Active; 'I' for Inactive)
REMARK    1  A    between atoms: S1_2  and  C2_3 
REMARK    2  A    between atoms: C4_5  and  S2_6 
REMARK    3  A    between atoms: N2_11  and  C7_13 
REMARK    4  A    between atoms: C7_13  and  C8_14 
REMARK    5  A    between atoms: C8_14  and  O1_15 
REMARK    6  A    between atoms: C8_14  and  C9_17 
REMARK    7  A    between atoms: C9_17  and  N3_18 
REMARK    8  A    between atoms: N3_18  and  C10_20 
ROOT
HETATM    1  C2  UNL     1      56.047  -6.957  13.396  1.00  0.00     0.088 A 
HETATM    2  C3  UNL     1      55.805  -7.877  14.395  1.00  0.00     0.074 A 
HETATM    3  C4  UNL     1      56.704  -8.879  14.628  1.00  0.00     0.088 A 
HETATM    4  N1  UNL     1      57.817  -8.920  13.846  1.00  0.00    -0.185 N 
ATOM      5  H1  UNL     1      58.491  -9.666  14.015  1.00  0.00     0.185 HD
HETATM    6  C6  UNL     1      58.086  -8.047  12.869  1.00  0.00     0.683 A 
HETATM    7  N2  UNL     1      59.140  -8.069  12.133  1.00  0.00    -0.203 N 
ATOM      8  H2  UNL     1      59.242  -7.349  11.417  1.00  0.00     0.183 HD
HETATM    9  N4  UNL     1      57.155  -7.052  12.665  1.00  0.00    -0.185 N 
ATOM     10  H4  UNL     1      57.320  -6.365  11.929  1.00  0.00     0.185 HD
ENDROOT
BRANCH   7  11
HETATM   11  C7  UNL     1      60.159  -9.026  12.257  1.00  0.00     0.112 C 
BRANCH  11  12
HETATM   12  C8  UNL     1      61.507  -8.613  11.698  1.00  0.00     0.174 C 
BRANCH  12  13
HETATM   13  O1  UNL     1      61.226  -7.957  10.480  1.00  0.00    -0.389 OA
ATOM     14  H1  UNL     1      61.593  -8.512   9.802  1.00  0.00     0.210 HD
ENDBRANCH  12  13
BRANCH  12  15
HETATM   15  C9  UNL     1      62.359  -9.791  11.313  1.00  0.00     0.151 C 
BRANCH  15  16
HETATM   16  N3  UNL     1      63.731  -9.393  11.325  1.00  0.00    -0.415 N 
ATOM     17  H3  UNL     1      64.185  -9.075  12.182  1.00  0.00     0.153 HD
BRANCH  16  18
HETATM   18  C10 UNL     1      64.433  -9.459  10.094  1.00  0.00     0.068 C 
HETATM   19  C11 UNL     1      63.828 -10.368   9.058  1.00  0.00     0.031 C 
HETATM   20  C12 UNL     1      64.575  -8.074   9.451  1.00  0.00     0.031 C 
ENDBRANCH  16  18
ENDBRANCH  15  16
ENDBRANCH  12  15
ENDBRANCH  11  12
ENDBRANCH   7  11
BRANCH   3  21
HETATM   21  S2  UNL     1      56.507 -10.120  15.894  1.00  0.00    -0.116 SA
HETATM   22  C5  UNL     1      54.964  -9.914  16.818  1.00  0.00     0.097 C 
ENDBRANCH   3  21
BRANCH   1  23
HETATM   23  S1  UNL     1      54.820  -5.676  13.129  1.00  0.00    -0.116 SA
HETATM   24  C1  UNL     1      54.045  -5.816  11.516  1.00  0.00     0.097 C 
ENDBRANCH   1  23
TORSDOF 8
ENDMDL
