MODEL 1
REMARK VINA RESULT: -6.913016801      0.000      0.000
REMARK  8 active torsions:
REMARK  status: ('A' for Active; 'I' for Inactive)
REMARK    1  A    between atoms: C2_2  and  C4_4 
REMARK    2  A    between atoms: C5_9  and  C6_10 
REMARK    3  A    between atoms: C6_10  and  N3_11 
REMARK    4  A    between atoms: N3_11  and  C7_13 
REMARK    5  A    between atoms: C7_13  and  C8_17 
REMARK    6  A    between atoms: C8_17  and  N5_18 
REMARK    7  A    between atoms: N5_18  and  C9_21 
REMARK    8  A    between atoms: C9_21  and  C10_22 
ROOT
HETATM    1  C7  UNL     1      60.495  -8.040  11.714  1.00  0.00     0.097 C 
HETATM    2  N4  UNL     1      61.217  -7.182  11.101  1.00  0.00    -0.388 N 
ATOM      3  H41 UNL     1      62.143  -7.434  10.756  1.00  0.00     0.157 HD
ATOM      4  H42 UNL     1      60.860  -6.237  10.957  1.00  0.00     0.157 HD
ENDROOT
BRANCH   1   5
HETATM    5  N3  UNL     1      59.223  -7.693  12.188  1.00  0.00    -0.371 N 
ATOM      6  H3  UNL     1      59.057  -6.763  12.571  1.00  0.00     0.161 HD
BRANCH   5   7
HETATM    7  C6  UNL     1      58.148  -8.652  12.132  1.00  0.00     0.207 C 
BRANCH   7   8
HETATM    8  C5  UNL     1      57.619  -8.925  13.509  1.00  0.00     0.158 A 
HETATM    9  N2  UNL     1      58.281  -9.589  14.497  1.00  0.00    -0.280 N 
HETATM   10  N1  UNL     1      57.478  -9.624  15.567  1.00  0.00    -0.281 N 
ATOM     11  H2  UNL     1      59.218  -9.986  14.434  1.00  0.00     0.189 HD
HETATM   12  C4  UNL     1      56.337  -8.994  15.252  1.00  0.00     0.143 A 
ATOM     13  H1  UNL     1      57.696 -10.054  16.466  1.00  0.00     0.189 HD
HETATM   14  O1  UNL     1      56.478  -8.598  14.013  1.00  0.00    -0.280 OA
BRANCH  12  15
HETATM   15  C2  UNL     1      55.136  -8.780  16.131  1.00  0.00     0.054 C 
HETATM   16  C1  UNL     1      54.164  -9.905  15.996  1.00  0.00     0.018 C 
HETATM   17  C3  UNL     1      54.545  -7.442  15.724  1.00  0.00     0.018 C 
ENDBRANCH  12  15
ENDBRANCH   7   8
ENDBRANCH   5   7
ENDBRANCH   1   5
BRANCH   1  18
HETATM   18  C8  UNL     1      61.012  -9.406  11.923  1.00  0.00     0.307 C 
BRANCH  18  19
HETATM   19  N5  UNL     1      62.342  -9.535  11.357  1.00  0.00    -0.068 N 
ATOM     20  H52 UNL     1      62.368  -9.222  10.386  1.00  0.00     0.277 HD
ATOM     21  H51 UNL     1      62.988  -8.855  11.758  1.00  0.00     0.277 HD
BRANCH  19  22
HETATM   22  C9  UNL     1      62.842 -10.892  11.494  1.00  0.00     0.237 C 
BRANCH  22  23
HETATM   23  C10 UNL     1      62.867 -11.609  10.165  1.00  0.00     0.012 C 
HETATM   24  C11 UNL     1      63.600 -10.728   9.180  1.00  0.00     0.016 C 
HETATM   25  C12 UNL     1      64.052 -11.504   7.961  1.00  0.00     0.074 C 
HETATM   26  S1  UNL     1      62.977 -12.964   7.710  1.00  0.00    -0.169 SA
HETATM   27  C13 UNL     1      63.001 -13.895   9.267  1.00  0.00     0.074 C 
HETATM   28  C14 UNL     1      63.516 -12.947  10.336  1.00  0.00     0.016 C 
ENDBRANCH  22  23
ENDBRANCH  19  22
ENDBRANCH  18  19
ENDBRANCH   1  18
TORSDOF 8
ENDMDL
MODEL 2
REMARK VINA RESULT: -6.790885989      1.529      2.023
REMARK  8 active torsions:
REMARK  status: ('A' for Active; 'I' for Inactive)
REMARK    1  A    between atoms: C2_2  and  C4_4 
REMARK    2  A    between atoms: C5_9  and  C6_10 
REMARK    3  A    between atoms: C6_10  and  N3_11 
REMARK    4  A    between atoms: N3_11  and  C7_13 
REMARK    5  A    between atoms: C7_13  and  C8_17 
REMARK    6  A    between atoms: C8_17  and  N5_18 
REMARK    7  A    between atoms: N5_18  and  C9_21 
REMARK    8  A    between atoms: C9_21  and  C10_22 
ROOT
HETATM    1  C7  UNL     1      60.383  -8.067  11.621  1.00  0.00     0.097 C 
HETATM    2  N4  UNL     1      60.940  -7.371  10.704  1.00  0.00    -0.388 N 
ATOM      3  H41 UNL     1      61.833  -7.658  10.304  1.00  0.00     0.157 HD
ATOM      4  H42 UNL     1      60.483  -6.521  10.374  1.00  0.00     0.157 HD
ENDROOT
BRANCH   1   5
HETATM    5  N3  UNL     1      59.157  -7.671  12.171  1.00  0.00    -0.371 N 
ATOM      6  H3  UNL     1      59.068  -6.757  12.613  1.00  0.00     0.161 HD
BRANCH   5   7
HETATM    7  C6  UNL     1      58.022  -8.559  12.111  1.00  0.00     0.207 C 
BRANCH   7   8
HETATM    8  C5  UNL     1      57.535  -8.877  13.494  1.00  0.00     0.158 A 
HETATM    9  N2  UNL     1      58.234  -9.552  14.448  1.00  0.00    -0.280 N 
HETATM   10  N1  UNL     1      57.460  -9.630  15.536  1.00  0.00    -0.281 N 
ATOM     11  H2  UNL     1      59.176  -9.929  14.350  1.00  0.00     0.189 HD
HETATM   12  C4  UNL     1      56.300  -9.015  15.266  1.00  0.00     0.143 A 
ATOM     13  H1  UNL     1      57.709 -10.079  16.418  1.00  0.00     0.189 HD
HETATM   14  O1  UNL     1      56.400  -8.585  14.035  1.00  0.00    -0.280 OA
BRANCH  12  15
HETATM   15  C2  UNL     1      55.117  -8.848  16.181  1.00  0.00     0.054 C 
HETATM   16  C1  UNL     1      54.119  -9.938  15.975  1.00  0.00     0.018 C 
HETATM   17  C3  UNL     1      54.549  -7.470  15.891  1.00  0.00     0.018 C 
ENDBRANCH  12  15
ENDBRANCH   7   8
ENDBRANCH   5   7
ENDBRANCH   1   5
BRANCH   1  18
HETATM   18  C8  UNL     1      61.044  -9.297  12.099  1.00  0.00     0.307 C 
BRANCH  18  19
HETATM   19  N5  UNL     1      62.351  -9.439  11.485  1.00  0.00    -0.068 N 
ATOM     20  H52 UNL     1      62.555  -8.665  10.852  1.00  0.00     0.277 HD
ATOM     21  H51 UNL     1      63.101  -9.291  12.161  1.00  0.00     0.277 HD
BRANCH  19  22
HETATM   22  C9  UNL     1      62.481 -10.723  10.818  1.00  0.00     0.237 C 
BRANCH  22  23
HETATM   23  C10 UNL     1      63.605 -11.543  11.407  1.00  0.00     0.012 C 
HETATM   24  C11 UNL     1      63.800 -12.756  10.528  1.00  0.00     0.016 C 
HETATM   25  C12 UNL     1      65.143 -13.413  10.767  1.00  0.00     0.074 C 
HETATM   26  S1  UNL     1      65.735 -13.037  12.458  1.00  0.00    -0.169 SA
HETATM   27  C13 UNL     1      65.722 -11.230  12.618  1.00  0.00     0.074 C 
HETATM   28  C14 UNL     1      64.836 -10.698  11.505  1.00  0.00     0.016 C 
ENDBRANCH  22  23
ENDBRANCH  19  22
ENDBRANCH  18  19
ENDBRANCH   1  18
TORSDOF 8
ENDMDL
MODEL 3
REMARK VINA RESULT: -6.740240798      1.485      1.969
REMARK  8 active torsions:
REMARK  status: ('A' for Active; 'I' for Inactive)
REMARK    1  A    between atoms: C2_2  and  C4_4 
REMARK    2  A    between atoms: C5_9  and  C6_10 
REMARK    3  A    between atoms: C6_10  and  N3_11 
REMARK    4  A    between atoms: N3_11  and  C7_13 
REMARK    5  A    between atoms: C7_13  and  C8_17 
REMARK    6  A    between atoms: C8_17  and  N5_18 
REMARK    7  A    between atoms: N5_18  and  C9_21 
REMARK    8  A    between atoms: C9_21  and  C10_22 
ROOT
HETATM    1  C7  UNL     1      59.883  -8.647  12.126  1.00  0.00     0.097 C 
HETATM    2  N4  UNL     1      59.969  -9.292  13.227  1.00  0.00    -0.388 N 
ATOM      3  H41 UNL     1      60.694  -9.065  13.907  1.00  0.00     0.157 HD
ATOM      4  H42 UNL     1      59.303 -10.040  13.423  1.00  0.00     0.157 HD
ENDROOT
BRANCH   1   5
HETATM    5  N3  UNL     1      58.885  -8.960  11.193  1.00  0.00    -0.371 N 
ATOM      6  H3  UNL     1      59.048  -9.687  10.497  1.00  0.00     0.161 HD
BRANCH   5   7
HETATM    7  C6  UNL     1      57.629  -8.255  11.220  1.00  0.00     0.207 C 
BRANCH   7   8
HETATM    8  C5  UNL     1      57.002  -8.354  12.579  1.00  0.00     0.158 A 
HETATM    9  N2  UNL     1      56.505  -7.313  13.304  1.00  0.00    -0.280 N 
HETATM   10  N1  UNL     1      56.036  -7.810  14.454  1.00  0.00    -0.281 N 
ATOM     11  H2  UNL     1      56.492  -6.334  13.021  1.00  0.00     0.189 HD
HETATM   12  C4  UNL     1      56.236  -9.135  14.447  1.00  0.00     0.143 A 
ATOM     13  H1  UNL     1      55.601  -7.274  15.205  1.00  0.00     0.189 HD
HETATM   14  O1  UNL     1      56.815  -9.404  13.305  1.00  0.00    -0.280 OA
BRANCH  12  15
HETATM   15  C2  UNL     1      55.875 -10.122  15.524  1.00  0.00     0.054 C 
HETATM   16  C1  UNL     1      54.689  -9.658  16.303  1.00  0.00     0.018 C 
HETATM   17  C3  UNL     1      57.116 -10.283  16.385  1.00  0.00     0.018 C 
ENDBRANCH  12  15
ENDBRANCH   7   8
ENDBRANCH   5   7
ENDBRANCH   1   5
BRANCH   1  18
HETATM   18  C8  UNL     1      60.845  -7.566  11.842  1.00  0.00     0.307 C 
BRANCH  18  19
HETATM   19  N5  UNL     1      61.748  -7.960  10.776  1.00  0.00    -0.068 N 
ATOM     20  H52 UNL     1      61.253  -8.444  10.026  1.00  0.00     0.277 HD
ATOM     21  H51 UNL     1      62.081  -7.153  10.249  1.00  0.00     0.277 HD
BRANCH  19  22
HETATM   22  C9  UNL     1      62.851  -8.755  11.289  1.00  0.00     0.237 C 
BRANCH  22  23
HETATM   23  C10 UNL     1      62.977 -10.067  10.551  1.00  0.00     0.012 C 
HETATM   24  C11 UNL     1      63.796  -9.817   9.305  1.00  0.00     0.016 C 
HETATM   25  C12 UNL     1      64.338 -11.105   8.723  1.00  0.00     0.074 C 
HETATM   26  S1  UNL     1      63.274 -12.513   9.208  1.00  0.00    -0.169 SA
HETATM   27  C13 UNL     1      63.163 -12.474  11.019  1.00  0.00     0.074 C 
HETATM   28  C14 UNL     1      63.598 -11.086  11.454  1.00  0.00     0.016 C 
ENDBRANCH  22  23
ENDBRANCH  19  22
ENDBRANCH  18  19
ENDBRANCH   1  18
TORSDOF 8
ENDMDL
MODEL 4
REMARK VINA RESULT: -6.735332162      1.102      1.337
REMARK  8 active torsions:
REMARK  status: ('A' for Active; 'I' for Inactive)
REMARK    1  A    between atoms: C2_2  and  C4_4 
REMARK    2  A    between atoms: C5_9  and  C6_10 
REMARK    3  A    between atoms: C6_10  and  N3_11 
REMARK    4  A    between atoms: N3_11  and  C7_13 
REMARK    5  A    between atoms: C7_13  and  C8_17 
REMARK    6  A    between atoms: C8_17  and  N5_18 
REMARK    7  A    between atoms: N5_18  and  C9_21 
REMARK    8  A    between atoms: C9_21  and  C10_22 
ROOT
HETATM    1  C7  UNL     1      60.620  -8.239  11.368  1.00  0.00     0.097 C 
HETATM    2  N4  UNL     1      60.212  -7.388  10.504  1.00  0.00    -0.388 N 
ATOM      3  H41 UNL     1      60.878  -6.886   9.916  1.00  0.00     0.157 HD
ATOM      4  H42 UNL     1      59.212  -7.215  10.404  1.00  0.00     0.157 HD
ENDROOT
BRANCH   1   5
HETATM    5  N3  UNL     1      59.705  -8.928  12.175  1.00  0.00    -0.371 N 
ATOM      6  H3  UNL     1      60.014  -9.727  12.728  1.00  0.00     0.161 HD
BRANCH   5   7
HETATM    7  C6  UNL     1      58.327  -8.506  12.221  1.00  0.00     0.207 C 
BRANCH   7   8
HETATM    8  C5  UNL     1      57.725  -8.836  13.555  1.00  0.00     0.158 A 
HETATM    9  N2  UNL     1      58.306  -9.597  14.524  1.00  0.00    -0.280 N 
HETATM   10  N1  UNL     1      57.457  -9.654  15.556  1.00  0.00    -0.281 N 
ATOM     11  H2  UNL     1      59.222 -10.042  14.472  1.00  0.00     0.189 HD
HETATM   12  C4  UNL     1      56.367  -8.942  15.237  1.00  0.00     0.143 A 
ATOM     13  H1  UNL     1      57.612 -10.153  16.433  1.00  0.00     0.189 HD
HETATM   14  O1  UNL     1      56.582  -8.477  14.034  1.00  0.00    -0.280 OA
BRANCH  12  15
HETATM   15  C2  UNL     1      55.141  -8.717  16.080  1.00  0.00     0.054 C 
HETATM   16  C1  UNL     1      54.209  -9.880  15.995  1.00  0.00     0.018 C 
HETATM   17  C3  UNL     1      54.516  -7.426  15.583  1.00  0.00     0.018 C 
ENDBRANCH  12  15
ENDBRANCH   7   8
ENDBRANCH   5   7
ENDBRANCH   1   5
BRANCH   1  18
HETATM   18  C8  UNL     1      62.066  -8.490  11.512  1.00  0.00     0.307 C 
BRANCH  18  19
HETATM   19  N5  UNL     1      62.768  -8.112  10.299  1.00  0.00    -0.068 N 
ATOM     20  H52 UNL     1      62.154  -8.143   9.485  1.00  0.00     0.277 HD
ATOM     21  H51 UNL     1      62.990  -7.116  10.288  1.00  0.00     0.277 HD
BRANCH  19  22
HETATM   22  C9  UNL     1      63.955  -8.926  10.104  1.00  0.00     0.237 C 
BRANCH  22  23
HETATM   23  C10 UNL     1      63.617 -10.398  10.068  1.00  0.00     0.012 C 
HETATM   24  C11 UNL     1      63.868 -10.894   8.663  1.00  0.00     0.016 C 
HETATM   25  C12 UNL     1      63.973 -12.402   8.610  1.00  0.00     0.074 C 
HETATM   26  S1  UNL     1      63.056 -13.146  10.008  1.00  0.00    -0.169 SA
HETATM   27  C13 UNL     1      63.710 -12.382  11.518  1.00  0.00     0.074 C 
HETATM   28  C14 UNL     1      64.439 -11.120  11.089  1.00  0.00     0.016 C 
ENDBRANCH  22  23
ENDBRANCH  19  22
ENDBRANCH  18  19
ENDBRANCH   1  18
TORSDOF 8
ENDMDL
MODEL 5
REMARK VINA RESULT: -6.727225771      0.559      1.292
REMARK  8 active torsions:
REMARK  status: ('A' for Active; 'I' for Inactive)
REMARK    1  A    between atoms: C2_2  and  C4_4 
REMARK    2  A    between atoms: C5_9  and  C6_10 
REMARK    3  A    between atoms: C6_10  and  N3_11 
REMARK    4  A    between atoms: N3_11  and  C7_13 
REMARK    5  A    between atoms: C7_13  and  C8_17 
REMARK    6  A    between atoms: C8_17  and  N5_18 
REMARK    7  A    between atoms: N5_18  and  C9_21 
REMARK    8  A    between atoms: C9_21  and  C10_22 
ROOT
HETATM    1  C7  UNL     1      60.631  -8.193  11.556  1.00  0.00     0.097 C 
HETATM    2  N4  UNL     1      61.260  -7.461  10.718  1.00  0.00    -0.388 N 
ATOM      3  H41 UNL     1      62.116  -7.795  10.277  1.00  0.00     0.157 HD
ATOM      4  H42 UNL     1      60.898  -6.534  10.492  1.00  0.00     0.157 HD
ENDROOT
BRANCH   1   5
HETATM    5  N3  UNL     1      59.454  -7.733  12.163  1.00  0.00    -0.371 N 
ATOM      6  H3  UNL     1      59.457  -6.855  12.681  1.00  0.00     0.161 HD
BRANCH   5   7
HETATM    7  C6  UNL     1      58.240  -8.503  12.053  1.00  0.00     0.207 C 
BRANCH   7   8
HETATM    8  C5  UNL     1      57.703  -8.829  13.415  1.00  0.00     0.158 A 
HETATM    9  N2  UNL     1      58.340  -9.570  14.364  1.00  0.00    -0.280 N 
HETATM   10  N1  UNL     1      57.537  -9.632  15.433  1.00  0.00    -0.281 N 
ATOM     11  H2  UNL     1      59.260 -10.000  14.276  1.00  0.00     0.189 HD
HETATM   12  C4  UNL     1      56.422  -8.942  15.156  1.00  0.00     0.143 A 
ATOM     13  H1  UNL     1      57.739 -10.119  16.306  1.00  0.00     0.189 HD
HETATM   14  O1  UNL     1      56.575  -8.485  13.940  1.00  0.00    -0.280 OA
BRANCH  12  15
HETATM   15  C2  UNL     1      55.231  -8.730  16.050  1.00  0.00     0.054 C 
HETATM   16  C1  UNL     1      54.303  -9.898  15.997  1.00  0.00     0.018 C 
HETATM   17  C3  UNL     1      54.577  -7.440  15.586  1.00  0.00     0.018 C 
ENDBRANCH  12  15
ENDBRANCH   7   8
ENDBRANCH   5   7
ENDBRANCH   1   5
BRANCH   1  18
HETATM   18  C8  UNL     1      61.154  -9.533  11.884  1.00  0.00     0.307 C 
BRANCH  18  19
HETATM   19  N5  UNL     1      62.300  -9.846  11.050  1.00  0.00    -0.068 N 
ATOM     20  H52 UNL     1      62.029  -9.984  10.076  1.00  0.00     0.277 HD
ATOM     21  H51 UNL     1      62.909  -9.036  10.930  1.00  0.00     0.277 HD
BRANCH  19  22
HETATM   22  C9  UNL     1      63.030 -10.990  11.568  1.00  0.00     0.237 C 
BRANCH  22  23
HETATM   23  C10 UNL     1      63.662 -11.793  10.456  1.00  0.00     0.012 C 
HETATM   24  C11 UNL     1      62.900 -13.093  10.337  1.00  0.00     0.016 C 
HETATM   25  C12 UNL     1      63.159 -13.777   9.012  1.00  0.00     0.074 C 
HETATM   26  S1  UNL     1      64.786 -13.265   8.348  1.00  0.00    -0.169 SA
HETATM   27  C13 UNL     1      64.770 -11.451   8.287  1.00  0.00     0.074 C 
HETATM   28  C14 UNL     1      63.638 -10.994   9.191  1.00  0.00     0.016 C 
ENDBRANCH  22  23
ENDBRANCH  19  22
ENDBRANCH  18  19
ENDBRANCH   1  18
TORSDOF 8
ENDMDL
