MODEL 1
REMARK VINA RESULT: -6.809856823      0.000      0.000
REMARK  2 active torsions:
REMARK  status: ('A' for Active; 'I' for Inactive)
REMARK       I    between atoms: N1_2  and  C2_4 
REMARK       I    between atoms: C2_4  and  N2_6 
REMARK    1  A    between atoms: N2_6  and  C3_8 
REMARK    2  A    between atoms: C6_11  and  N3_12 
REMARK       I    between atoms: N3_12  and  C7_14 
ROOT
HETATM    1  C3  UNL     1      12.965 -11.872  21.633  1.00  0.00     0.329 C 
HETATM    2  C4  UNL     1      13.921 -11.716  20.473  1.00  0.00     0.046 C 
HETATM    3  C5  UNL     1      13.753 -12.747  19.412  1.00  0.00     0.034 C 
HETATM    4  C6  UNL     1      15.160 -12.930  18.883  1.00  0.00     0.085 C 
HETATM    5  C9  UNL     1      16.105 -12.570  19.983  1.00  0.00     0.032 C 
HETATM    6  C10 UNL     1      15.241 -12.134  21.130  1.00  0.00     0.024 C 
HETATM    7  C11 UNL     1      14.775 -13.302  21.973  1.00  0.00     0.279 C 
HETATM    8  N4  UNL     1      13.433 -13.026  22.379  1.00  0.00     0.107 N 
HETATM    9  C12 UNL     1      12.543 -14.140  22.332  1.00  0.00     0.312 C 
ENDROOT
BRANCH   1  10
HETATM   10  N2  UNL     1      13.149 -10.720  22.488  1.00  0.00    -0.312 N 
HETATM   11  C2  UNL     1      12.097 -10.376  23.376  1.00  0.00     0.317 C 
HETATM   12  N1  UNL     1      12.216  -9.274  24.228  1.00  0.00    -0.347 N 
HETATM   13  O1  UNL     1      11.020 -11.064  23.418  1.00  0.00    -0.247 OA
HETATM   14  C1  UNL     1      11.148  -8.927  25.126  1.00  0.00     0.151 C 
ATOM     15  H1  UNL     1      13.066  -8.712  24.211  1.00  0.00     0.163 HD
ATOM     16  H2  UNL     1      14.008 -10.172  22.454  1.00  0.00     0.166 HD
ENDBRANCH   1  10
BRANCH   4  17
HETATM   17  N3  UNL     1      15.318 -12.089  17.709  1.00  0.00    -0.357 N 
HETATM   18  C7  UNL     1      16.252 -12.354  16.690  1.00  0.00     0.213 C 
HETATM   19  C8  UNL     1      16.351 -11.450  15.530  1.00  0.00     0.117 C 
HETATM   20  O2  UNL     1      16.991 -13.354  16.774  1.00  0.00    -0.274 OA
ATOM     21  H3  UNL     1      14.723 -11.265  17.619  1.00  0.00     0.162 HD
ENDBRANCH   4  17
TORSDOF 2
ENDMDL
MODEL 2
REMARK VINA RESULT: -6.596624512      1.778      6.461
REMARK  2 active torsions:
REMARK  status: ('A' for Active; 'I' for Inactive)
REMARK       I    between atoms: N1_2  and  C2_4 
REMARK       I    between atoms: C2_4  and  N2_6 
REMARK    1  A    between atoms: N2_6  and  C3_8 
REMARK    2  A    between atoms: C6_11  and  N3_12 
REMARK       I    between atoms: N3_12  and  C7_14 
ROOT
HETATM    1  C3  UNL     1      14.970 -13.706  19.617  1.00  0.00     0.329 C 
HETATM    2  C4  UNL     1      13.918 -13.025  20.461  1.00  0.00     0.046 C 
HETATM    3  C5  UNL     1      14.213 -13.043  21.920  1.00  0.00     0.034 C 
HETATM    4  C6  UNL     1      12.838 -13.113  22.550  1.00  0.00     0.085 C 
HETATM    5  C9  UNL     1      11.925 -13.765  21.565  1.00  0.00     0.032 C 
HETATM    6  C10 UNL     1      12.764 -14.027  20.349  1.00  0.00     0.024 C 
HETATM    7  C11 UNL     1      13.521 -15.335  20.445  1.00  0.00     0.279 C 
HETATM    8  N4  UNL     1      14.804 -15.129  19.851  1.00  0.00     0.107 N 
HETATM    9  C12 UNL     1      15.897 -15.727  20.546  1.00  0.00     0.312 C 
ENDROOT
BRANCH   1  10
HETATM   10  N2  UNL     1      14.618 -13.468  18.234  1.00  0.00    -0.312 N 
HETATM   11  C2  UNL     1      15.310 -12.443  17.539  1.00  0.00     0.317 C 
HETATM   12  N1  UNL     1      15.016 -12.166  16.200  1.00  0.00    -0.347 N 
HETATM   13  O1  UNL     1      16.216 -11.751  18.118  1.00  0.00    -0.247 OA
HETATM   14  C1  UNL     1      15.718 -11.127  15.498  1.00  0.00     0.151 C 
ATOM     15  H1  UNL     1      14.297 -12.706  15.719  1.00  0.00     0.163 HD
ATOM     16  H2  UNL     1      13.895 -14.020  17.773  1.00  0.00     0.166 HD
ENDBRANCH   1  10
BRANCH   4  17
HETATM   17  N3  UNL     1      12.424 -11.763  22.892  1.00  0.00    -0.357 N 
HETATM   18  C7  UNL     1      11.463 -11.479  23.880  1.00  0.00     0.213 C 
HETATM   19  C8  UNL     1      11.097 -10.080  24.167  1.00  0.00     0.117 C 
HETATM   20  O2  UNL     1      10.926 -12.411  24.508  1.00  0.00    -0.274 OA
ATOM     21  H3  UNL     1      12.851 -10.984  22.391  1.00  0.00     0.162 HD
ENDBRANCH   4  17
TORSDOF 2
ENDMDL
MODEL 3
REMARK VINA RESULT: -6.461726520      4.158      5.627
REMARK  2 active torsions:
REMARK  status: ('A' for Active; 'I' for Inactive)
REMARK       I    between atoms: N1_2  and  C2_4 
REMARK       I    between atoms: C2_4  and  N2_6 
REMARK    1  A    between atoms: N2_6  and  C3_8 
REMARK    2  A    between atoms: C6_11  and  N3_12 
REMARK       I    between atoms: N3_12  and  C7_14 
ROOT
HETATM    1  C3  UNL     1      16.124 -13.029  21.396  1.00  0.00     0.329 C 
HETATM    2  C4  UNL     1      17.038 -13.807  22.313  1.00  0.00     0.046 C 
HETATM    3  C5  UNL     1      18.482 -13.681  21.974  1.00  0.00     0.034 C 
HETATM    4  C6  UNL     1      19.049 -15.027  22.370  1.00  0.00     0.085 C 
HETATM    5  C9  UNL     1      17.942 -16.026  22.282  1.00  0.00     0.032 C 
HETATM    6  C10 UNL     1      16.726 -15.244  21.881  1.00  0.00     0.024 C 
HETATM    7  C11 UNL     1      16.626 -15.068  20.381  1.00  0.00     0.279 C 
HETATM    8  N4  UNL     1      16.113 -13.756  20.139  1.00  0.00     0.107 N 
HETATM    9  C12 UNL     1      16.732 -13.052  19.064  1.00  0.00     0.312 C 
ENDROOT
BRANCH   1  10
HETATM   10  N2  UNL     1      14.790 -13.129  21.946  1.00  0.00    -0.312 N 
HETATM   11  C2  UNL     1      13.940 -11.999  21.840  1.00  0.00     0.317 C 
HETATM   12  N1  UNL     1      12.640 -12.034  22.351  1.00  0.00    -0.347 N 
HETATM   13  O1  UNL     1      14.342 -10.924  21.275  1.00  0.00    -0.247 OA
HETATM   14  C1  UNL     1      11.780 -10.887  22.243  1.00  0.00     0.151 C 
ATOM     15  H1  UNL     1      12.298 -12.881  22.806  1.00  0.00     0.163 HD
ATOM     16  H2  UNL     1      14.470 -13.987  22.396  1.00  0.00     0.166 HD
ENDBRANCH   1  10
BRANCH   4  17
HETATM   17  N3  UNL     1      19.598 -14.914  23.711  1.00  0.00    -0.357 N 
HETATM   18  C7  UNL     1      20.964 -14.691  23.969  1.00  0.00     0.213 C 
HETATM   19  C8  UNL     1      21.441 -14.589  25.360  1.00  0.00     0.117 C 
HETATM   20  O2  UNL     1      21.762 -14.580  23.019  1.00  0.00    -0.274 OA
ATOM     21  H3  UNL     1      18.962 -15.001  24.504  1.00  0.00     0.162 HD
ENDBRANCH   4  17
TORSDOF 2
ENDMDL
MODEL 4
REMARK VINA RESULT: -6.336687295      1.387      1.568
REMARK  2 active torsions:
REMARK  status: ('A' for Active; 'I' for Inactive)
REMARK       I    between atoms: N1_2  and  C2_4 
REMARK       I    between atoms: C2_4  and  N2_6 
REMARK    1  A    between atoms: N2_6  and  C3_8 
REMARK    2  A    between atoms: C6_11  and  N3_12 
REMARK       I    between atoms: N3_12  and  C7_14 
ROOT
HETATM    1  C3  UNL     1      13.675 -13.170  20.880  1.00  0.00     0.329 C 
HETATM    2  C4  UNL     1      14.392 -12.734  19.623  1.00  0.00     0.046 C 
HETATM    3  C5  UNL     1      14.450 -13.783  18.568  1.00  0.00     0.034 C 
HETATM    4  C6  UNL     1      15.771 -13.509  17.880  1.00  0.00     0.085 C 
HETATM    5  C9  UNL     1      16.665 -12.842  18.873  1.00  0.00     0.032 C 
HETATM    6  C10 UNL     1      15.841 -12.688  20.118  1.00  0.00     0.024 C 
HETATM    7  C11 UNL     1      15.878 -13.928  20.986  1.00  0.00     0.279 C 
HETATM    8  N4  UNL     1      14.574 -14.095  21.546  1.00  0.00     0.107 N 
HETATM    9  C12 UNL     1      14.094 -15.438  21.579  1.00  0.00     0.312 C 
ENDROOT
BRANCH   1  10
HETATM   10  N2  UNL     1      13.570 -12.005  21.730  1.00  0.00    -0.312 N 
HETATM   11  C2  UNL     1      12.429 -11.891  22.564  1.00  0.00     0.317 C 
HETATM   12  N1  UNL     1      12.271 -10.788  23.410  1.00  0.00    -0.347 N 
HETATM   13  O1  UNL     1      11.521 -12.792  22.564  1.00  0.00    -0.247 OA
HETATM   14  C1  UNL     1      11.113 -10.676  24.254  1.00  0.00     0.151 C 
ATOM     15  H1  UNL     1      12.983 -10.058  23.426  1.00  0.00     0.163 HD
ATOM     16  H2  UNL     1      14.295 -11.287  21.730  1.00  0.00     0.166 HD
ENDBRANCH   1  10
BRANCH   4  17
HETATM   17  N3  UNL     1      15.515 -12.684  16.712  1.00  0.00    -0.357 N 
HETATM   18  C7  UNL     1      16.372 -12.639  15.597  1.00  0.00     0.213 C 
HETATM   19  C8  UNL     1      16.040 -11.775  14.450  1.00  0.00     0.117 C 
HETATM   20  O2  UNL     1      17.407 -13.331  15.584  1.00  0.00    -0.274 OA
ATOM     21  H3  UNL     1      14.672 -12.109  16.700  1.00  0.00     0.162 HD
ENDBRANCH   4  17
TORSDOF 2
ENDMDL
MODEL 5
REMARK VINA RESULT: -6.320953433      4.690      6.456
REMARK  2 active torsions:
REMARK  status: ('A' for Active; 'I' for Inactive)
REMARK       I    between atoms: N1_2  and  C2_4 
REMARK       I    between atoms: C2_4  and  N2_6 
REMARK    1  A    between atoms: N2_6  and  C3_8 
REMARK    2  A    between atoms: C6_11  and  N3_12 
REMARK       I    between atoms: N3_12  and  C7_14 
ROOT
HETATM    1  C3  UNL     1      16.185 -14.230  21.805  1.00  0.00     0.329 C 
HETATM    2  C4  UNL     1      17.059 -14.483  23.012  1.00  0.00     0.046 C 
HETATM    3  C5  UNL     1      18.444 -13.954  22.875  1.00  0.00     0.034 C 
HETATM    4  C6  UNL     1      19.272 -14.943  23.667  1.00  0.00     0.085 C 
HETATM    5  C9  UNL     1      18.544 -16.248  23.658  1.00  0.00     0.032 C 
HETATM    6  C10 UNL     1      17.274 -15.996  22.900  1.00  0.00     0.024 C 
HETATM    7  C11 UNL     1      17.460 -16.140  21.404  1.00  0.00     0.279 C 
HETATM    8  N4  UNL     1      16.660 -15.137  20.777  1.00  0.00     0.107 N 
HETATM    9  C12 UNL     1      17.271 -14.479  19.669  1.00  0.00     0.312 C 
ENDROOT
BRANCH   1  10
HETATM   10  N2  UNL     1      14.849 -14.659  22.155  1.00  0.00    -0.312 N 
HETATM   11  C2  UNL     1      13.852 -13.663  22.317  1.00  0.00     0.317 C 
HETATM   12  N1  UNL     1      12.542 -14.015  22.654  1.00  0.00    -0.347 N 
HETATM   13  O1  UNL     1      14.127 -12.424  22.158  1.00  0.00    -0.247 OA
HETATM   14  C1  UNL     1      11.533 -13.005  22.817  1.00  0.00     0.151 C 
ATOM     15  H1  UNL     1      12.300 -14.997  22.785  1.00  0.00     0.163 HD
ATOM     16  H2  UNL     1      14.631 -15.647  22.281  1.00  0.00     0.166 HD
ENDBRANCH   1  10
BRANCH   4  17
HETATM   17  N3  UNL     1      19.457 -14.413  25.007  1.00  0.00    -0.357 N 
HETATM   18  C7  UNL     1      20.717 -14.085  25.539  1.00  0.00     0.213 C 
HETATM   19  C8  UNL     1      20.820 -13.551  26.910  1.00  0.00     0.117 C 
HETATM   20  O2  UNL     1      21.741 -14.247  24.849  1.00  0.00    -0.274 OA
ATOM     21  H3  UNL     1      18.632 -14.271  25.591  1.00  0.00     0.162 HD
ENDBRANCH   4  17
TORSDOF 2
ENDMDL
