MODEL 1
REMARK VINA RESULT: -7.226921550      0.000      0.000
REMARK  3 active torsions:
REMARK  status: ('A' for Active; 'I' for Inactive)
REMARK       I    between atoms: C1_2  and  N2_4 
REMARK       I    between atoms: N2_4  and  C2_6 
REMARK    1  A    between atoms: N4_8  and  C3_10 
REMARK    2  A    between atoms: C4_11  and  C5_12 
REMARK    3  A    between atoms: C11_18  and  N5_19 
ROOT
HETATM    1  C5  UNL     1      19.966 -14.943  24.878  1.00  0.00    -0.018 C 
HETATM    2  C6  UNL     1      20.890 -14.597  23.755  1.00  0.00     0.018 C 
HETATM    3  C7  UNL     1      22.315 -14.907  24.058  1.00  0.00    -0.011 C 
HETATM    4  C8  UNL     1      22.726 -14.154  25.330  1.00  0.00     0.012 C 
HETATM    5  C9  UNL     1      21.788 -14.818  26.338  1.00  0.00     0.023 C 
HETATM    6  C10 UNL     1      20.426 -14.148  26.107  1.00  0.00     0.020 C 
HETATM    7  C11 UNL     1      21.647 -16.230  25.868  1.00  0.00     0.128 C 
HETATM    8  C12 UNL     1      22.462 -16.346  24.574  1.00  0.00     0.043 C 
HETATM    9  C13 UNL     1      20.194 -16.363  25.389  1.00  0.00     0.052 C 
ENDROOT
BRANCH   1  10
HETATM   10  C4  UNL     1      18.567 -14.695  24.565  1.00  0.00     0.000 C 
HETATM   11  C3  UNL     1      18.117 -14.757  23.324  1.00  0.00     0.087 C 
BRANCH  11  12
HETATM   12  N4  UNL     1      16.757 -14.520  22.999  1.00  0.00    -0.341 N 
HETATM   13  C2  UNL     1      16.449 -13.589  22.173  1.00  0.00     0.195 C 
HETATM   14  N2  UNL     1      15.081 -13.322  21.822  1.00  0.00    -0.285 N 
HETATM   15  N3  UNL     1      17.469 -12.811  21.595  1.00  0.00    -0.063 NA
HETATM   16  C1  UNL     1      14.734 -12.299  20.913  1.00  0.00     0.335 C 
ATOM     17  H2  UNL     1      14.342 -13.887  22.240  1.00  0.00     0.172 HD
HETATM   18  N1  UNL     1      13.377 -12.071  20.597  1.00  0.00    -0.040 NA
HETATM   19  O1  UNL     1      15.608 -11.588  20.380  1.00  0.00    -0.251 OA
ATOM     20  H4  UNL     1      16.024 -15.090  23.423  1.00  0.00     0.167 HD
ENDBRANCH  11  12
ENDBRANCH   1  10
BRANCH   7  21
HETATM   21  N5  UNL     1      21.997 -17.213  26.830  1.00  0.00    -0.070 N 
ATOM     22  H53 UNL     1      21.850 -16.854  27.773  1.00  0.00     0.275 HD
ATOM     23  H52 UNL     1      21.316 -17.973  26.824  1.00  0.00     0.275 HD
ATOM     24  H51 UNL     1      22.942 -17.585  26.735  1.00  0.00     0.275 HD
ENDBRANCH   7  21
TORSDOF 3
ENDMDL
MODEL 2
REMARK VINA RESULT: -7.198213971      0.884      1.515
REMARK  3 active torsions:
REMARK  status: ('A' for Active; 'I' for Inactive)
REMARK       I    between atoms: C1_2  and  N2_4 
REMARK       I    between atoms: N2_4  and  C2_6 
REMARK    1  A    between atoms: N4_8  and  C3_10 
REMARK    2  A    between atoms: C4_11  and  C5_12 
REMARK    3  A    between atoms: C11_18  and  N5_19 
ROOT
HETATM    1  C5  UNL     1      19.835 -14.885  24.946  1.00  0.00    -0.018 C 
HETATM    2  C6  UNL     1      20.497 -13.844  25.789  1.00  0.00     0.018 C 
HETATM    3  C7  UNL     1      21.906 -14.185  26.133  1.00  0.00    -0.011 C 
HETATM    4  C8  UNL     1      21.926 -15.540  26.854  1.00  0.00     0.012 C 
HETATM    5  C9  UNL     1      21.397 -16.436  25.735  1.00  0.00     0.023 C 
HETATM    6  C10 UNL     1      19.879 -16.203  25.730  1.00  0.00     0.020 C 
HETATM    7  C11 UNL     1      21.918 -15.832  24.471  1.00  0.00     0.128 C 
HETATM    8  C12 UNL     1      22.697 -14.573  24.875  1.00  0.00     0.043 C 
HETATM    9  C13 UNL     1      20.688 -15.273  23.741  1.00  0.00     0.052 C 
ENDROOT
BRANCH   1  10
HETATM   10  C4  UNL     1      18.478 -14.530  24.560  1.00  0.00     0.000 C 
HETATM   11  C3  UNL     1      18.008 -14.813  23.357  1.00  0.00     0.087 C 
BRANCH  11  12
HETATM   12  N4  UNL     1      16.688 -14.477  22.962  1.00  0.00    -0.341 N 
HETATM   13  C2  UNL     1      16.496 -13.581  22.065  1.00  0.00     0.195 C 
HETATM   14  N2  UNL     1      15.172 -13.217  21.641  1.00  0.00    -0.285 N 
HETATM   15  N3  UNL     1      17.605 -12.940  21.480  1.00  0.00    -0.063 NA
HETATM   16  C1  UNL     1      14.954 -12.231  20.654  1.00  0.00     0.335 C 
ATOM     17  H2  UNL     1      14.370 -13.682  22.064  1.00  0.00     0.172 HD
HETATM   18  N1  UNL     1      13.636 -11.904  20.268  1.00  0.00    -0.040 NA
HETATM   19  O1  UNL     1      15.909 -11.640  20.112  1.00  0.00    -0.251 OA
ATOM     20  H4  UNL     1      15.891 -14.948  23.391  1.00  0.00     0.167 HD
ENDBRANCH  11  12
ENDBRANCH   1  10
BRANCH   7  21
HETATM   21  N5  UNL     1      22.680 -16.714  23.661  1.00  0.00    -0.070 N 
ATOM     22  H53 UNL     1      22.070 -17.223  23.022  1.00  0.00     0.275 HD
ATOM     23  H52 UNL     1      23.238 -16.186  22.990  1.00  0.00     0.275 HD
ATOM     24  H51 UNL     1      23.272 -17.365  24.179  1.00  0.00     0.275 HD
ENDBRANCH   7  21
TORSDOF 3
ENDMDL
MODEL 3
REMARK VINA RESULT: -6.986049134      2.575      3.354
REMARK  3 active torsions:
REMARK  status: ('A' for Active; 'I' for Inactive)
REMARK       I    between atoms: C1_2  and  N2_4 
REMARK       I    between atoms: N2_4  and  C2_6 
REMARK    1  A    between atoms: N4_8  and  C3_10 
REMARK    2  A    between atoms: C4_11  and  C5_12 
REMARK    3  A    between atoms: C11_18  and  N5_19 
ROOT
HETATM    1  C5  UNL     1      20.202 -15.044  23.069  1.00  0.00    -0.018 C 
HETATM    2  C6  UNL     1      19.059 -14.415  23.797  1.00  0.00     0.018 C 
HETATM    3  C7  UNL     1      19.190 -14.508  25.277  1.00  0.00    -0.011 C 
HETATM    4  C8  UNL     1      19.316 -15.986  25.671  1.00  0.00     0.012 C 
HETATM    5  C9  UNL     1      20.634 -16.327  24.976  1.00  0.00     0.023 C 
HETATM    6  C10 UNL     1      20.261 -16.516  23.498  1.00  0.00     0.020 C 
HETATM    7  C11 UNL     1      21.448 -15.075  25.046  1.00  0.00     0.128 C 
HETATM    8  C12 UNL     1      20.573 -14.020  25.735  1.00  0.00     0.043 C 
HETATM    9  C13 UNL     1      21.551 -14.567  23.601  1.00  0.00     0.052 C 
ENDROOT
BRANCH   1  10
HETATM   10  C4  UNL     1      20.107 -14.905  21.624  1.00  0.00     0.000 C 
HETATM   11  C3  UNL     1      19.276 -14.041  21.068  1.00  0.00     0.087 C 
BRANCH  11  12
HETATM   12  N4  UNL     1      19.170 -13.890  19.662  1.00  0.00    -0.341 N 
HETATM   13  C2  UNL     1      18.174 -13.257  19.159  1.00  0.00     0.195 C 
HETATM   14  N2  UNL     1      18.036 -13.086  17.739  1.00  0.00    -0.285 N 
HETATM   15  N3  UNL     1      17.195 -12.717  20.014  1.00  0.00    -0.063 NA
HETATM   16  C1  UNL     1      16.943 -12.390  17.178  1.00  0.00     0.335 C 
ATOM     17  H2  UNL     1      18.746 -13.477  17.120  1.00  0.00     0.172 HD
HETATM   18  N1  UNL     1      16.846 -12.246  15.777  1.00  0.00    -0.040 NA
HETATM   19  O1  UNL     1      16.055 -11.897  17.901  1.00  0.00    -0.251 OA
ATOM     20  H4  UNL     1      19.885 -14.285  19.051  1.00  0.00     0.167 HD
ENDBRANCH  11  12
ENDBRANCH   1  10
BRANCH   7  21
HETATM   21  N5  UNL     1      22.717 -15.226  25.664  1.00  0.00    -0.070 N 
ATOM     22  H53 UNL     1      23.041 -14.332  26.030  1.00  0.00     0.275 HD
ATOM     23  H52 UNL     1      22.627 -15.750  26.535  1.00  0.00     0.275 HD
ATOM     24  H51 UNL     1      23.433 -15.647  25.071  1.00  0.00     0.275 HD
ENDBRANCH   7  21
TORSDOF 3
ENDMDL
MODEL 4
REMARK VINA RESULT: -6.828549388      7.418      8.840
REMARK  3 active torsions:
REMARK  status: ('A' for Active; 'I' for Inactive)
REMARK       I    between atoms: C1_2  and  N2_4 
REMARK       I    between atoms: N2_4  and  C2_6 
REMARK    1  A    between atoms: N4_8  and  C3_10 
REMARK    2  A    between atoms: C4_11  and  C5_12 
REMARK    3  A    between atoms: C11_18  and  N5_19 
ROOT
HETATM    1  C5  UNL     1      15.293 -13.048  17.707  1.00  0.00    -0.018 C 
HETATM    2  C6  UNL     1      16.735 -12.788  18.000  1.00  0.00     0.018 C 
HETATM    3  C7  UNL     1      17.518 -12.419  16.788  1.00  0.00    -0.011 C 
HETATM    4  C8  UNL     1      17.385 -13.544  15.752  1.00  0.00     0.012 C 
HETATM    5  C9  UNL     1      15.882 -13.472  15.484  1.00  0.00     0.023 C 
HETATM    6  C10 UNL     1      15.235 -14.187  16.679  1.00  0.00     0.020 C 
HETATM    7  C11 UNL     1      15.530 -12.026  15.619  1.00  0.00     0.128 C 
HETATM    8  C12 UNL     1      16.820 -11.294  16.010  1.00  0.00     0.043 C 
HETATM    9  C13 UNL     1      14.665 -11.927  16.884  1.00  0.00     0.052 C 
ENDROOT
BRANCH   1  10
HETATM   10  C4  UNL     1      14.513 -13.353  18.896  1.00  0.00     0.000 C 
HETATM   11  C3  UNL     1      13.703 -12.458  19.437  1.00  0.00     0.087 C 
BRANCH  11  12
HETATM   12  N4  UNL     1      12.933 -12.737  20.595  1.00  0.00    -0.341 N 
HETATM   13  C2  UNL     1      12.731 -11.817  21.466  1.00  0.00     0.195 C 
HETATM   14  N2  UNL     1      11.955 -12.065  22.650  1.00  0.00    -0.285 N 
HETATM   15  N3  UNL     1      13.278 -10.537  21.259  1.00  0.00    -0.063 NA
HETATM   16  C1  UNL     1      11.728 -11.058  23.612  1.00  0.00     0.335 C 
ATOM     17  H2  UNL     1      11.558 -12.992  22.798  1.00  0.00     0.172 HD
HETATM   18  N1  UNL     1      10.961 -11.345  24.762  1.00  0.00    -0.040 NA
HETATM   19  O1  UNL     1      12.196  -9.911  23.467  1.00  0.00    -0.251 OA
ATOM     20  H4  UNL     1      12.540 -13.668  20.735  1.00  0.00     0.167 HD
ENDBRANCH  11  12
ENDBRANCH   1  10
BRANCH   7  21
HETATM   21  N5  UNL     1      14.899 -11.460  14.480  1.00  0.00    -0.070 N 
ATOM     22  H53 UNL     1      14.565 -12.196  13.858  1.00  0.00     0.275 HD
ATOM     23  H52 UNL     1      14.009 -11.035  14.743  1.00  0.00     0.275 HD
ATOM     24  H51 UNL     1      15.471 -10.792  13.963  1.00  0.00     0.275 HD
ENDBRANCH   7  21
TORSDOF 3
ENDMDL
MODEL 5
REMARK VINA RESULT: -6.798270474      2.972      4.166
REMARK  3 active torsions:
REMARK  status: ('A' for Active; 'I' for Inactive)
REMARK       I    between atoms: C1_2  and  N2_4 
REMARK       I    between atoms: N2_4  and  C2_6 
REMARK    1  A    between atoms: N4_8  and  C3_10 
REMARK    2  A    between atoms: C4_11  and  C5_12 
REMARK    3  A    between atoms: C11_18  and  N5_19 
ROOT
HETATM    1  C5  UNL     1      19.163 -14.730  21.434  1.00  0.00    -0.018 C 
HETATM    2  C6  UNL     1      18.045 -14.437  22.380  1.00  0.00     0.018 C 
HETATM    3  C7  UNL     1      18.353 -14.828  23.783  1.00  0.00    -0.011 C 
HETATM    4  C8  UNL     1      18.693 -16.325  23.816  1.00  0.00     0.012 C 
HETATM    5  C9  UNL     1      19.954 -16.322  22.952  1.00  0.00     0.023 C 
HETATM    6  C10 UNL     1      19.440 -16.237  21.507  1.00  0.00     0.020 C 
HETATM    7  C11 UNL     1      20.620 -15.016  23.238  1.00  0.00     0.128 C 
HETATM    8  C12 UNL     1      19.713 -14.265  24.221  1.00  0.00     0.043 C 
HETATM    9  C13 UNL     1      20.499 -14.198  21.944  1.00  0.00     0.052 C 
ENDROOT
BRANCH   1  10
HETATM   10  C4  UNL     1      18.889 -14.296  20.072  1.00  0.00     0.000 C 
HETATM   11  C3  UNL     1      17.750 -13.707  19.753  1.00  0.00     0.087 C 
BRANCH  11  12
HETATM   12  N4  UNL     1      17.465 -13.276  18.431  1.00  0.00    -0.341 N 
HETATM   13  C2  UNL     1      16.369 -12.657  18.182  1.00  0.00     0.195 C 
HETATM   14  N2  UNL     1      16.050 -12.207  16.856  1.00  0.00    -0.285 N 
HETATM   15  N3  UNL     1      15.460 -12.412  19.228  1.00  0.00    -0.063 NA
HETATM   16  C1  UNL     1      14.846 -11.525  16.573  1.00  0.00     0.335 C 
ATOM     17  H2  UNL     1      16.709 -12.384  16.099  1.00  0.00     0.172 HD
HETATM   18  N1  UNL     1      14.571 -11.101  15.255  1.00  0.00    -0.040 NA
HETATM   19  O1  UNL     1      14.014 -11.289  17.472  1.00  0.00    -0.251 OA
ATOM     20  H4  UNL     1      18.130 -13.458  17.681  1.00  0.00     0.167 HD
ENDBRANCH  11  12
ENDBRANCH   1  10
BRANCH   7  21
HETATM   21  N5  UNL     1      21.960 -15.120  23.694  1.00  0.00    -0.070 N 
ATOM     22  H53 UNL     1      22.568 -14.507  23.152  1.00  0.00     0.275 HD
ATOM     23  H52 UNL     1      22.055 -14.692  24.615  1.00  0.00     0.275 HD
ATOM     24  H51 UNL     1      22.334 -16.070  23.706  1.00  0.00     0.275 HD
ENDBRANCH   7  21
TORSDOF 3
ENDMDL
