MODEL 1
REMARK VINA RESULT: -6.240346788      0.000      0.000
REMARK  2 active torsions:
REMARK  status: ('A' for Active; 'I' for Inactive)
REMARK    1  A    between atoms: C9_17  and  C10_18 
REMARK    2  A    between atoms: C10_18  and  C11_19 
ROOT
HETATM    1  C1  UNL     1      17.593 -12.922  16.440  1.00  0.00     0.012 C 
HETATM    2  C2  UNL     1      16.880 -13.307  17.332  1.00  0.00    -0.111 C 
HETATM    3  C3  UNL     1      15.981 -13.780  18.411  1.00  0.00     0.087 C 
HETATM    4  C4  UNL     1      14.784 -12.888  18.572  1.00  0.00     0.139 C 
HETATM    5  N1  UNL     1      14.724 -12.132  19.775  1.00  0.00    -0.366 N 
ATOM      6  H1  UNL     1      15.531 -11.551  20.006  1.00  0.00     0.161 HD
HETATM    7  C5  UNL     1      13.624 -12.122  20.684  1.00  0.00     0.167 C 
HETATM    8  S1  UNL     1      13.537 -10.835  21.732  1.00  0.00    -0.041 SA
HETATM    9  N2  UNL     1      12.622 -13.128  20.736  1.00  0.00    -0.366 N 
ATOM     10  H2  UNL     1      11.657 -12.803  20.796  1.00  0.00     0.161 HD
HETATM   11  C6  UNL     1      12.815 -14.544  20.713  1.00  0.00     0.149 C 
HETATM   12  C7  UNL     1      14.166 -14.987  21.145  1.00  0.00     0.251 C 
HETATM   13  N3  UNL     1      14.908 -15.397  19.951  1.00  0.00    -0.073 N 
ATOM     14  H31 UNL     1      14.648 -14.860  19.125  1.00  0.00     0.277 HD
ATOM     15  H32 UNL     1      14.627 -16.318  19.613  1.00  0.00     0.277 HD
HETATM   16  C8  UNL     1      16.341 -15.319  20.245  1.00  0.00     0.238 C 
HETATM   17  C9  UNL     1      16.782 -13.967  19.690  1.00  0.00     0.029 C 
ENDROOT
BRANCH  17  18
HETATM   18  C10 UNL     1      18.236 -13.967  19.459  1.00  0.00     0.011 C 
BRANCH  18  19
HETATM   19  C11 UNL     1      19.123 -13.383  20.499  1.00  0.00    -0.022 C 
HETATM   20  C12 UNL     1      20.547 -13.376  19.898  1.00  0.00     0.009 C 
HETATM   21  C13 UNL     1      19.189 -14.032  21.829  1.00  0.00     0.009 C 
ENDBRANCH  18  19
ENDBRANCH  17  18
TORSDOF 2
ENDMDL
MODEL 2
REMARK VINA RESULT: -6.238888862      1.678      2.796
REMARK  2 active torsions:
REMARK  status: ('A' for Active; 'I' for Inactive)
REMARK    1  A    between atoms: C9_17  and  C10_18 
REMARK    2  A    between atoms: C10_18  and  C11_19 
ROOT
HETATM    1  C1  UNL     1      20.889 -13.258  19.825  1.00  0.00     0.012 C 
HETATM    2  C2  UNL     1      19.775 -13.712  19.870  1.00  0.00    -0.111 C 
HETATM    3  C3  UNL     1      18.399 -14.263  19.897  1.00  0.00     0.087 C 
HETATM    4  C4  UNL     1      17.384 -13.258  19.435  1.00  0.00     0.139 C 
HETATM    5  N1  UNL     1      16.487 -12.773  20.427  1.00  0.00    -0.366 N 
ATOM      6  H1  UNL     1      16.892 -12.381  21.277  1.00  0.00     0.161 HD
HETATM    7  C5  UNL     1      15.064 -12.793  20.324  1.00  0.00     0.167 C 
HETATM    8  S1  UNL     1      14.232 -11.758  21.325  1.00  0.00    -0.041 SA
HETATM    9  N2  UNL     1      14.338 -13.626  19.431  1.00  0.00    -0.366 N 
ATOM     10  H2  UNL     1      13.583 -13.181  18.909  1.00  0.00     0.161 HD
HETATM   11  C6  UNL     1      14.548 -15.018  19.183  1.00  0.00     0.149 C 
HETATM   12  C7  UNL     1      15.252 -15.738  20.275  1.00  0.00     0.251 C 
HETATM   13  N3  UNL     1      16.625 -15.992  19.836  1.00  0.00    -0.073 N 
ATOM     14  H31 UNL     1      16.982 -15.259  19.224  1.00  0.00     0.277 HD
ATOM     15  H32 UNL     1      16.687 -16.768  19.177  1.00  0.00     0.277 HD
HETATM   16  C8  UNL     1      17.463 -16.192  21.022  1.00  0.00     0.238 C 
HETATM   17  C9  UNL     1      18.111 -14.835  21.277  1.00  0.00     0.029 C 
ENDROOT
BRANCH  17  18
HETATM   18  C10 UNL     1      19.327 -15.002  22.091  1.00  0.00     0.011 C 
BRANCH  18  19
HETATM   19  C11 UNL     1      19.313 -14.526  23.499  1.00  0.00    -0.022 C 
HETATM   20  C12 UNL     1      20.740 -14.758  24.047  1.00  0.00     0.009 C 
HETATM   21  C13 UNL     1      18.352 -15.133  24.449  1.00  0.00     0.009 C 
ENDBRANCH  18  19
ENDBRANCH  17  18
TORSDOF 2
ENDMDL
MODEL 3
REMARK VINA RESULT: -6.061992874      1.789      3.027
REMARK  2 active torsions:
REMARK  status: ('A' for Active; 'I' for Inactive)
REMARK    1  A    between atoms: C9_17  and  C10_18 
REMARK    2  A    between atoms: C10_18  and  C11_19 
ROOT
HETATM    1  C1  UNL     1      20.855 -13.187  19.771  1.00  0.00     0.012 C 
HETATM    2  C2  UNL     1      19.786 -13.693  19.999  1.00  0.00    -0.111 C 
HETATM    3  C3  UNL     1      18.465 -14.316  20.249  1.00  0.00     0.087 C 
HETATM    4  C4  UNL     1      17.351 -13.546  19.601  1.00  0.00     0.139 C 
HETATM    5  N1  UNL     1      16.452 -12.883  20.483  1.00  0.00    -0.366 N 
ATOM      6  H1  UNL     1      16.854 -12.251  21.176  1.00  0.00     0.161 HD
HETATM    7  C5  UNL     1      15.034 -13.033  20.472  1.00  0.00     0.167 C 
HETATM    8  S1  UNL     1      14.154 -11.834  21.215  1.00  0.00    -0.041 SA
HETATM    9  N2  UNL     1      14.349 -14.123  19.871  1.00  0.00    -0.366 N 
ATOM     10  H2  UNL     1      13.540 -13.889  19.297  1.00  0.00     0.161 HD
HETATM   11  C6  UNL     1      14.669 -15.512  19.983  1.00  0.00     0.149 C 
HETATM   12  C7  UNL     1      15.472 -15.864  21.183  1.00  0.00     0.251 C 
HETATM   13  N3  UNL     1      16.844 -16.124  20.746  1.00  0.00    -0.073 N 
ATOM     14  H31 UNL     1      17.114 -15.556  19.944  1.00  0.00     0.277 HD
ATOM     15  H32 UNL     1      16.949 -17.040  20.310  1.00  0.00     0.277 HD
HETATM   16  C8  UNL     1      17.740 -15.941  21.891  1.00  0.00     0.238 C 
HETATM   17  C9  UNL     1      18.278 -14.521  21.745  1.00  0.00     0.029 C 
ENDROOT
BRANCH  17  18
HETATM   18  C10 UNL     1      19.533 -14.378  22.502  1.00  0.00     0.011 C 
BRANCH  18  19
HETATM   19  C11 UNL     1      19.810 -15.330  23.610  1.00  0.00    -0.022 C 
HETATM   20  C12 UNL     1      19.802 -14.493  24.909  1.00  0.00     0.009 C 
HETATM   21  C13 UNL     1      21.064 -16.118  23.578  1.00  0.00     0.009 C 
ENDBRANCH  18  19
ENDBRANCH  17  18
TORSDOF 2
ENDMDL
MODEL 4
REMARK VINA RESULT: -6.017952971      4.426      6.705
REMARK  2 active torsions:
REMARK  status: ('A' for Active; 'I' for Inactive)
REMARK    1  A    between atoms: C9_17  and  C10_18 
REMARK    2  A    between atoms: C10_18  and  C11_19 
ROOT
HETATM    1  C1  UNL     1      20.981 -13.634  26.585  1.00  0.00     0.012 C 
HETATM    2  C2  UNL     1      20.415 -14.000  25.587  1.00  0.00    -0.111 C 
HETATM    3  C3  UNL     1      19.693 -14.435  24.368  1.00  0.00     0.087 C 
HETATM    4  C4  UNL     1      18.391 -15.106  24.698  1.00  0.00     0.139 C 
HETATM    5  N1  UNL     1      18.318 -16.500  24.424  1.00  0.00    -0.366 N 
ATOM      6  H1  UNL     1      19.042 -17.097  24.824  1.00  0.00     0.161 HD
HETATM    7  C5  UNL     1      17.310 -17.128  23.632  1.00  0.00     0.167 C 
HETATM    8  S1  UNL     1      17.115 -18.766  23.840  1.00  0.00    -0.041 SA
HETATM    9  N2  UNL     1      16.482 -16.444  22.702  1.00  0.00    -0.366 N 
ATOM     10  H2  UNL     1      15.488 -16.667  22.732  1.00  0.00     0.161 HD
HETATM   11  C6  UNL     1      16.889 -15.478  21.730  1.00  0.00     0.149 C 
HETATM   12  C7  UNL     1      18.324 -15.553  21.351  1.00  0.00     0.251 C 
HETATM   13  N3  UNL     1      19.016 -14.429  21.984  1.00  0.00    -0.073 N 
ATOM     14  H31 UNL     1      18.607 -14.174  22.882  1.00  0.00     0.277 HD
ATOM     15  H32 UNL     1      18.852 -13.546  21.500  1.00  0.00     0.277 HD
HETATM   16  C8  UNL     1      20.440 -14.759  22.088  1.00  0.00     0.238 C 
HETATM   17  C9  UNL     1      20.619 -15.284  23.509  1.00  0.00     0.029 C 
ENDROOT
BRANCH  17  18
HETATM   18  C10 UNL     1      22.031 -15.175  23.912  1.00  0.00     0.011 C 
BRANCH  18  19
HETATM   19  C11 UNL     1      22.751 -16.408  24.324  1.00  0.00    -0.022 C 
HETATM   20  C12 UNL     1      22.029 -17.583  23.626  1.00  0.00     0.009 C 
HETATM   21  C13 UNL     1      22.856 -16.726  25.767  1.00  0.00     0.009 C 
ENDBRANCH  18  19
ENDBRANCH  17  18
TORSDOF 2
ENDMDL
MODEL 5
REMARK VINA RESULT: -5.917122240      2.835      5.673
REMARK  2 active torsions:
REMARK  status: ('A' for Active; 'I' for Inactive)
REMARK    1  A    between atoms: C9_17  and  C10_18 
REMARK    2  A    between atoms: C10_18  and  C11_19 
ROOT
HETATM    1  C1  UNL     1      12.181 -15.676  20.083  1.00  0.00     0.012 C 
HETATM    2  C2  UNL     1      13.225 -15.109  20.282  1.00  0.00    -0.111 C 
HETATM    3  C3  UNL     1      14.522 -14.429  20.508  1.00  0.00     0.087 C 
HETATM    4  C4  UNL     1      15.605 -15.400  20.882  1.00  0.00     0.139 C 
HETATM    5  N1  UNL     1      16.093 -15.311  22.215  1.00  0.00    -0.366 N 
ATOM      6  H1  UNL     1      15.409 -15.360  22.970  1.00  0.00     0.161 HD
HETATM    7  C5  UNL     1      17.464 -15.158  22.577  1.00  0.00     0.167 C 
HETATM    8  S1  UNL     1      17.871 -15.568  24.136  1.00  0.00    -0.041 SA
HETATM    9  N2  UNL     1      18.476 -14.690  21.697  1.00  0.00    -0.366 N 
ATOM     10  H2  UNL     1      19.351 -15.213  21.693  1.00  0.00     0.161 HD
HETATM   11  C6  UNL     1      18.404 -13.566  20.816  1.00  0.00     0.149 C 
HETATM   12  C7  UNL     1      17.389 -12.550  21.197  1.00  0.00     0.251 C 
HETATM   13  N3  UNL     1      16.258 -12.676  20.276  1.00  0.00    -0.073 N 
ATOM     14  H31 UNL     1      16.113 -13.636  19.964  1.00  0.00     0.277 HD
ATOM     15  H32 UNL     1      16.448 -12.260  19.364  1.00  0.00     0.277 HD
HETATM   16  C8  UNL     1      15.070 -12.107  20.918  1.00  0.00     0.238 C 
HETATM   17  C9  UNL     1      14.335 -13.304  21.514  1.00  0.00     0.029 C 
ENDROOT
BRANCH  17  18
HETATM   18  C10 UNL     1      12.919 -12.966  21.735  1.00  0.00     0.011 C 
BRANCH  18  19
HETATM   19  C11 UNL     1      12.589 -11.667  22.379  1.00  0.00    -0.022 C 
HETATM   20  C12 UNL     1      11.517 -11.976  23.449  1.00  0.00     0.009 C 
HETATM   21  C13 UNL     1      12.087 -10.558  21.534  1.00  0.00     0.009 C 
ENDBRANCH  18  19
ENDBRANCH  17  18
TORSDOF 2
ENDMDL
