MODEL 1
REMARK VINA RESULT: -6.492765100      0.000      0.000
REMARK  5 active torsions:
REMARK  status: ('A' for Active; 'I' for Inactive)
REMARK    1  A    between atoms: C2_2  and  N1_3 
REMARK    2  A    between atoms: N1_3  and  C3_5 
REMARK    3  A    between atoms: C3_5  and  N2_7 
REMARK    4  A    between atoms: N2_7  and  N3_9 
REMARK       I    between atoms: N3_9  and  C4_11 
REMARK       I    between atoms: C4_11  and  N4_13 
REMARK    5  A    between atoms: N4_13  and  C5_15 
ROOT
HETATM    1  N3  UNL     1      15.013 -11.324  21.096  1.00  0.00    -0.249 N 
ATOM      2  H3  UNL     1      15.558 -10.463  21.054  1.00  0.00     0.192 HD
HETATM    3  C4  UNL     1      15.695 -12.554  21.239  1.00  0.00     0.335 C 
HETATM    4  O1  UNL     1      14.990 -13.621  21.294  1.00  0.00    -0.246 OA
HETATM    5  N4  UNL     1      17.112 -12.603  21.318  1.00  0.00    -0.337 N 
ATOM      6  H4  UNL     1      17.662 -11.745  21.274  1.00  0.00     0.164 HD
ENDROOT
BRANCH   1   7
HETATM    7  N2  UNL     1      13.631 -11.245  21.010  1.00  0.00    -0.272 N 
ATOM      8  H2  UNL     1      13.208 -11.205  20.083  1.00  0.00     0.189 HD
BRANCH   7   9
HETATM    9  C3  UNL     1      12.776 -11.218  22.138  1.00  0.00     0.186 C 
HETATM   10  S1  UNL     1      11.846 -12.550  22.373  1.00  0.00    -0.040 SA
BRANCH   9  11
HETATM   11  N1  UNL     1      12.699 -10.122  23.032  1.00  0.00    -0.366 N 
ATOM     12  H1  UNL     1      13.435  -9.416  23.024  1.00  0.00     0.161 HD
BRANCH  11  13
HETATM   13  C2  UNL     1      11.601  -9.988  23.947  1.00  0.00     0.117 C 
HETATM   14  C1  UNL     1      11.688  -8.686  24.729  1.00  0.00     0.026 C 
ENDBRANCH  11  13
ENDBRANCH   9  11
ENDBRANCH   7   9
ENDBRANCH   1   7
BRANCH   5  15
HETATM   15  C5  UNL     1      17.754 -13.865  21.461  1.00  0.00     0.090 C 
HETATM   16  C6  UNL     1      19.058 -13.804  22.232  1.00  0.00     0.030 C 
HETATM   17  C7  UNL     1      20.093 -14.531  21.400  1.00  0.00    -0.012 C 
HETATM   18  C8  UNL     1      20.466 -13.663  20.239  1.00  0.00     0.005 C 
HETATM   19  C11 UNL     1      19.172 -15.542  20.693  1.00  0.00     0.011 C 
HETATM   20  C9  UNL     1      19.149 -13.562  19.479  1.00  0.00     0.007 C 
HETATM   21  C10 UNL     1      18.193 -14.482  20.153  1.00  0.00     0.009 C 
ENDBRANCH   5  15
TORSDOF 5
ENDMDL
MODEL 2
REMARK VINA RESULT: -6.171967898      1.667      2.391
REMARK  5 active torsions:
REMARK  status: ('A' for Active; 'I' for Inactive)
REMARK    1  A    between atoms: C2_2  and  N1_3 
REMARK    2  A    between atoms: N1_3  and  C3_5 
REMARK    3  A    between atoms: C3_5  and  N2_7 
REMARK    4  A    between atoms: N2_7  and  N3_9 
REMARK       I    between atoms: N3_9  and  C4_11 
REMARK       I    between atoms: C4_11  and  N4_13 
REMARK    5  A    between atoms: N4_13  and  C5_15 
ROOT
HETATM    1  N3  UNL     1      15.389 -11.592  21.011  1.00  0.00    -0.249 N 
ATOM      2  H3  UNL     1      15.895 -10.708  21.063  1.00  0.00     0.192 HD
HETATM    3  C4  UNL     1      16.112 -12.799  21.151  1.00  0.00     0.335 C 
HETATM    4  O1  UNL     1      15.455 -13.895  21.088  1.00  0.00    -0.246 OA
HETATM    5  N4  UNL     1      17.517 -12.794  21.353  1.00  0.00    -0.337 N 
ATOM      6  H4  UNL     1      18.029 -11.913  21.401  1.00  0.00     0.164 HD
ENDROOT
BRANCH   1   7
HETATM    7  N2  UNL     1      14.018 -11.566  20.808  1.00  0.00    -0.272 N 
ATOM      8  H2  UNL     1      13.674 -11.346  19.873  1.00  0.00     0.189 HD
BRANCH   7   9
HETATM    9  C3  UNL     1      13.068 -11.828  21.826  1.00  0.00     0.186 C 
HETATM   10  S1  UNL     1      12.350 -10.514  22.500  1.00  0.00    -0.040 SA
BRANCH   9  11
HETATM   11  N1  UNL     1      12.734 -13.132  22.263  1.00  0.00    -0.366 N 
ATOM     12  H1  UNL     1      12.987 -13.426  23.206  1.00  0.00     0.161 HD
BRANCH  11  13
HETATM   13  C2  UNL     1      12.043 -14.048  21.400  1.00  0.00     0.117 C 
HETATM   14  C1  UNL     1      12.451 -15.487  21.679  1.00  0.00     0.026 C 
ENDBRANCH  11  13
ENDBRANCH   9  11
ENDBRANCH   7   9
ENDBRANCH   1   7
BRANCH   5  15
HETATM   15  C5  UNL     1      18.203 -14.034  21.486  1.00  0.00     0.090 C 
HETATM   16  C6  UNL     1      19.447 -13.955  22.349  1.00  0.00     0.030 C 
HETATM   17  C7  UNL     1      20.566 -14.602  21.561  1.00  0.00    -0.012 C 
HETATM   18  C8  UNL     1      20.980 -13.668  20.467  1.00  0.00     0.005 C 
HETATM   19  C11 UNL     1      19.740 -15.616  20.748  1.00  0.00     0.011 C 
HETATM   20  C9  UNL     1      19.715 -13.586  19.621  1.00  0.00     0.007 C 
HETATM   21  C10 UNL     1      18.756 -14.573  20.187  1.00  0.00     0.009 C 
ENDBRANCH   5  15
TORSDOF 5
ENDMDL
MODEL 3
REMARK VINA RESULT: -6.094961460      3.137      4.007
REMARK  5 active torsions:
REMARK  status: ('A' for Active; 'I' for Inactive)
REMARK    1  A    between atoms: C2_2  and  N1_3 
REMARK    2  A    between atoms: N1_3  and  C3_5 
REMARK    3  A    between atoms: C3_5  and  N2_7 
REMARK    4  A    between atoms: N2_7  and  N3_9 
REMARK       I    between atoms: N3_9  and  C4_11 
REMARK       I    between atoms: C4_11  and  N4_13 
REMARK    5  A    between atoms: N4_13  and  C5_15 
ROOT
HETATM    1  N3  UNL     1      12.167 -14.092  22.865  1.00  0.00    -0.249 N 
ATOM      2  H3  UNL     1      12.585 -14.436  23.730  1.00  0.00     0.192 HD
HETATM    3  C4  UNL     1      12.591 -14.648  21.637  1.00  0.00     0.335 C 
HETATM    4  O1  UNL     1      12.049 -14.204  20.565  1.00  0.00    -0.246 OA
HETATM    5  N4  UNL     1      13.583 -15.662  21.593  1.00  0.00    -0.337 N 
ATOM      6  H4  UNL     1      14.007 -16.008  22.454  1.00  0.00     0.164 HD
ENDROOT
BRANCH   1   7
HETATM    7  N2  UNL     1      11.205 -13.096  22.939  1.00  0.00    -0.272 N 
ATOM      8  H2  UNL     1      10.233 -13.376  23.073  1.00  0.00     0.189 HD
BRANCH   7   9
HETATM    9  C3  UNL     1      11.496 -11.714  22.838  1.00  0.00     0.186 C 
HETATM   10  S1  UNL     1      11.169 -10.807  24.166  1.00  0.00    -0.040 SA
BRANCH   9  11
HETATM   11  N1  UNL     1      12.037 -11.114  21.674  1.00  0.00    -0.366 N 
ATOM     12  H1  UNL     1      11.476 -11.075  20.823  1.00  0.00     0.161 HD
BRANCH  11  13
HETATM   13  C2  UNL     1      13.361 -10.560  21.673  1.00  0.00     0.117 C 
HETATM   14  C1  UNL     1      14.399 -11.607  21.298  1.00  0.00     0.026 C 
ENDBRANCH  11  13
ENDBRANCH   9  11
ENDBRANCH   7   9
ENDBRANCH   1   7
BRANCH   5  15
HETATM   15  C5  UNL     1      13.979 -16.191  20.332  1.00  0.00     0.090 C 
HETATM   16  C6  UNL     1      14.757 -17.489  20.430  1.00  0.00     0.030 C 
HETATM   17  C7  UNL     1      16.002 -17.316  19.587  1.00  0.00    -0.012 C 
HETATM   18  C8  UNL     1      16.952 -16.419  20.318  1.00  0.00     0.005 C 
HETATM   19  C11 UNL     1      15.455 -16.329  18.539  1.00  0.00     0.011 C 
HETATM   20  C9  UNL     1      16.170 -15.112  20.383  1.00  0.00     0.007 C 
HETATM   21  C10 UNL     1      14.939 -15.308  19.570  1.00  0.00     0.009 C 
ENDBRANCH   5  15
TORSDOF 5
ENDMDL
MODEL 4
REMARK VINA RESULT: -6.025952478      1.254      1.469
REMARK  5 active torsions:
REMARK  status: ('A' for Active; 'I' for Inactive)
REMARK    1  A    between atoms: C2_2  and  N1_3 
REMARK    2  A    between atoms: N1_3  and  C3_5 
REMARK    3  A    between atoms: C3_5  and  N2_7 
REMARK    4  A    between atoms: N2_7  and  N3_9 
REMARK       I    between atoms: N3_9  and  C4_11 
REMARK       I    between atoms: C4_11  and  N4_13 
REMARK    5  A    between atoms: N4_13  and  C5_15 
ROOT
HETATM    1  N3  UNL     1      15.935 -11.903  20.936  1.00  0.00    -0.249 N 
ATOM      2  H3  UNL     1      16.477 -11.085  21.213  1.00  0.00     0.192 HD
HETATM    3  C4  UNL     1      16.532 -13.180  21.037  1.00  0.00     0.335 C 
HETATM    4  O1  UNL     1      15.831 -14.193  20.688  1.00  0.00    -0.246 OA
HETATM    5  N4  UNL     1      17.862 -13.335  21.509  1.00  0.00    -0.337 N 
ATOM      6  H4  UNL     1      18.410 -12.519  21.784  1.00  0.00     0.164 HD
ENDROOT
BRANCH   1   7
HETATM    7  N2  UNL     1      14.641 -11.721  20.474  1.00  0.00    -0.272 N 
ATOM      8  H2  UNL     1      14.506 -11.526  19.481  1.00  0.00     0.189 HD
BRANCH   7   9
HETATM    9  C3  UNL     1      13.494 -11.793  21.302  1.00  0.00     0.186 C 
HETATM   10  S1  UNL     1      12.610 -13.171  21.196  1.00  0.00    -0.040 SA
BRANCH   9  11
HETATM   11  N1  UNL     1      13.103 -10.754  22.182  1.00  0.00    -0.366 N 
ATOM     12  H1  UNL     1      13.818 -10.188  22.639  1.00  0.00     0.161 HD
BRANCH  11  13
HETATM   13  C2  UNL     1      11.717 -10.486  22.441  1.00  0.00     0.117 C 
HETATM   14  C1  UNL     1      11.357 -10.781  23.890  1.00  0.00     0.026 C 
ENDBRANCH  11  13
ENDBRANCH   9  11
ENDBRANCH   7   9
ENDBRANCH   1   7
BRANCH   5  15
HETATM   15  C5  UNL     1      18.421 -14.640  21.593  1.00  0.00     0.090 C 
HETATM   16  C6  UNL     1      19.134 -14.918  22.901  1.00  0.00     0.030 C 
HETATM   17  C7  UNL     1      20.495 -15.479  22.547  1.00  0.00    -0.012 C 
HETATM   18  C8  UNL     1      21.355 -14.362  22.045  1.00  0.00     0.005 C 
HETATM   19  C11 UNL     1      20.139 -16.163  21.214  1.00  0.00     0.011 C 
HETATM   20  C9  UNL     1      20.615 -13.931  20.784  1.00  0.00     0.007 C 
HETATM   21  C10 UNL     1      19.511 -14.908  20.580  1.00  0.00     0.009 C 
ENDBRANCH   5  15
TORSDOF 5
ENDMDL
MODEL 5
REMARK VINA RESULT: -5.969860248      1.725      2.400
REMARK  5 active torsions:
REMARK  status: ('A' for Active; 'I' for Inactive)
REMARK    1  A    between atoms: C2_2  and  N1_3 
REMARK    2  A    between atoms: N1_3  and  C3_5 
REMARK    3  A    between atoms: C3_5  and  N2_7 
REMARK    4  A    between atoms: N2_7  and  N3_9 
REMARK       I    between atoms: N3_9  and  C4_11 
REMARK       I    between atoms: C4_11  and  N4_13 
REMARK    5  A    between atoms: N4_13  and  C5_15 
ROOT
HETATM    1  N3  UNL     1      15.488 -13.046  18.781  1.00  0.00    -0.249 N 
ATOM      2  H3  UNL     1      15.537 -13.786  18.080  1.00  0.00     0.192 HD
HETATM    3  C4  UNL     1      16.552 -12.908  19.700  1.00  0.00     0.335 C 
HETATM    4  O1  UNL     1      16.470 -11.970  20.567  1.00  0.00    -0.246 OA
HETATM    5  N4  UNL     1      17.672 -13.780  19.664  1.00  0.00    -0.337 N 
ATOM      6  H4  UNL     1      17.726 -14.524  18.967  1.00  0.00     0.164 HD
ENDROOT
BRANCH   1   7
HETATM    7  N2  UNL     1      14.379 -12.214  18.796  1.00  0.00    -0.272 N 
ATOM      8  H2  UNL     1      14.215 -11.616  17.985  1.00  0.00     0.189 HD
BRANCH   7   9
HETATM    9  C3  UNL     1      13.463 -12.147  19.873  1.00  0.00     0.186 C 
HETATM   10  S1  UNL     1      13.025 -13.581  20.540  1.00  0.00    -0.040 SA
BRANCH   9  11
HETATM   11  N1  UNL     1      12.933 -10.932  20.372  1.00  0.00    -0.366 N 
ATOM     12  H1  UNL     1      12.289 -10.391  19.794  1.00  0.00     0.161 HD
BRANCH  11  13
HETATM   13  C2  UNL     1      13.287 -10.449  21.676  1.00  0.00     0.117 C 
HETATM   14  C1  UNL     1      12.100 -10.505  22.628  1.00  0.00     0.026 C 
ENDBRANCH  11  13
ENDBRANCH   9  11
ENDBRANCH   7   9
ENDBRANCH   1   7
BRANCH   5  15
HETATM   15  C5  UNL     1      18.720 -13.603  20.611  1.00  0.00     0.090 C 
HETATM   16  C6  UNL     1      20.079 -14.050  20.111  1.00  0.00     0.030 C 
HETATM   17  C7  UNL     1      20.663 -14.951  21.178  1.00  0.00    -0.012 C 
HETATM   18  C8  UNL     1      19.952 -16.268  21.132  1.00  0.00     0.005 C 
HETATM   19  C11 UNL     1      19.994 -14.329  22.417  1.00  0.00     0.011 C 
HETATM   20  C9  UNL     1      18.526 -15.873  21.494  1.00  0.00     0.007 C 
HETATM   21  C10 UNL     1      18.560 -14.432  21.865  1.00  0.00     0.009 C 
ENDBRANCH   5  15
TORSDOF 5
ENDMDL
