MODEL 1
REMARK VINA RESULT: -6.726479871      0.000      0.000
REMARK  7 active torsions:
REMARK  status: ('A' for Active; 'I' for Inactive)
REMARK    1  A    between atoms: C2_2  and  O1_3 
REMARK    2  A    between atoms: C2_2  and  N1_5 
REMARK    3  A    between atoms: N1_5  and  N2_6 
REMARK    4  A    between atoms: N2_6  and  C3_8 
REMARK    5  A    between atoms: C3_8  and  N3_10 
REMARK       I    between atoms: N3_10  and  C4_12 
REMARK       I    between atoms: C4_12  and  N4_14 
REMARK    6  A    between atoms: N4_14  and  C5_16 
REMARK    7  A    between atoms: C5_16  and  C6_17 
ROOT
HETATM    1  N3  UNL     1      13.818 -12.736  20.479  1.00  0.00    -0.284 N 
ATOM      2  H3  UNL     1      13.315 -13.142  19.690  1.00  0.00     0.173 HD
HETATM    3  C4  UNL     1      15.252 -12.810  20.552  1.00  0.00     0.322 C 
HETATM    4  O2  UNL     1      15.789 -12.125  21.511  1.00  0.00    -0.247 OA
HETATM    5  N4  UNL     1      16.088 -13.551  19.693  1.00  0.00    -0.342 N 
ATOM      6  H4  UNL     1      15.690 -14.041  18.891  1.00  0.00     0.164 HD
ENDROOT
BRANCH   1   7
HETATM    7  C3  UNL     1      13.108 -12.076  21.542  1.00  0.00     0.205 C 
HETATM    8  S1  UNL     1      12.129 -13.134  22.480  1.00  0.00    -0.038 SA
BRANCH   7   9
HETATM    9  N2  UNL     1      13.231 -10.827  22.015  1.00  0.00    -0.207 N 
ATOM     10  H2  UNL     1      13.920 -10.223  21.568  1.00  0.00     0.204 HD
BRANCH   9  11
HETATM   11  N1  UNL     1      12.529 -10.310  23.021  1.00  0.00    -0.303 NA
BRANCH  11  12
HETATM   12  C2  UNL     1      11.819  -9.781  24.031  1.00  0.00     0.210 C 
HETATM   13  C1  UNL     1      12.047  -8.491  24.783  1.00  0.00     0.117 C 
BRANCH  12  14
HETATM   14  O1  UNL     1      10.741 -10.377  24.502  1.00  0.00    -0.338 OA
ATOM     15  H1  UNL     1      10.776 -11.303  24.293  1.00  0.00     0.220 HD
ENDBRANCH  12  14
ENDBRANCH  11  12
ENDBRANCH   9  11
ENDBRANCH   7   9
ENDBRANCH   1   7
BRANCH   5  16
HETATM   16  C5  UNL     1      17.506 -13.616  19.947  1.00  0.00     0.129 C 
BRANCH  16  17
HETATM   17  C6  UNL     1      18.259 -14.094  18.809  1.00  0.00     0.003 C 
HETATM   18  C7  UNL     1      17.673 -13.645  17.472  1.00  0.00     0.006 C 
HETATM   19  C8  UNL     1      18.736 -12.973  16.733  1.00  0.00     0.000 C 
HETATM   20  C9  UNL     1      20.040 -13.233  17.436  1.00  0.00     0.000 C 
HETATM   21  C10 UNL     1      19.701 -14.045  18.684  1.00  0.00     0.006 C 
ENDBRANCH  16  17
ENDBRANCH   5  16
TORSDOF 7
ENDMDL
MODEL 2
REMARK VINA RESULT: -6.676311505      2.188      2.926
REMARK  7 active torsions:
REMARK  status: ('A' for Active; 'I' for Inactive)
REMARK    1  A    between atoms: C2_2  and  O1_3 
REMARK    2  A    between atoms: C2_2  and  N1_5 
REMARK    3  A    between atoms: N1_5  and  N2_6 
REMARK    4  A    between atoms: N2_6  and  C3_8 
REMARK    5  A    between atoms: C3_8  and  N3_10 
REMARK       I    between atoms: N3_10  and  C4_12 
REMARK       I    between atoms: C4_12  and  N4_14 
REMARK    6  A    between atoms: N4_14  and  C5_16 
REMARK    7  A    between atoms: C5_16  and  C6_17 
ROOT
HETATM    1  N3  UNL     1      14.846 -13.708  20.260  1.00  0.00    -0.284 N 
ATOM      2  H3  UNL     1      14.376 -14.435  19.721  1.00  0.00     0.173 HD
HETATM    3  C4  UNL     1      16.247 -13.443  20.071  1.00  0.00     0.322 C 
HETATM    4  O2  UNL     1      16.696 -12.398  20.690  1.00  0.00    -0.247 OA
HETATM    5  N4  UNL     1      17.137 -14.212  19.295  1.00  0.00    -0.342 N 
ATOM      6  H4  UNL     1      16.788 -14.998  18.745  1.00  0.00     0.164 HD
ENDROOT
BRANCH   1   7
HETATM    7  C3  UNL     1      14.123 -12.925  21.226  1.00  0.00     0.205 C 
HETATM    8  S1  UNL     1      13.593 -11.403  20.624  1.00  0.00    -0.038 SA
BRANCH   7   9
HETATM    9  N2  UNL     1      13.654 -13.265  22.435  1.00  0.00    -0.207 N 
ATOM     10  H2  UNL     1      14.123 -14.030  22.920  1.00  0.00     0.204 HD
BRANCH   9  11
HETATM   11  N1  UNL     1      12.627 -12.690  23.056  1.00  0.00    -0.303 NA
BRANCH  11  12
HETATM   12  C2  UNL     1      11.595 -12.103  23.686  1.00  0.00     0.210 C 
HETATM   13  C1  UNL     1      11.484 -10.696  24.224  1.00  0.00     0.117 C 
BRANCH  12  14
HETATM   14  O1  UNL     1      10.465 -12.746  23.903  1.00  0.00    -0.338 OA
ATOM     15  H1  UNL     1      10.634 -13.508  24.445  1.00  0.00     0.220 HD
ENDBRANCH  12  14
ENDBRANCH  11  12
ENDBRANCH   9  11
ENDBRANCH   7   9
ENDBRANCH   1   7
BRANCH   5  16
HETATM   16  C5  UNL     1      18.542 -13.887  19.277  1.00  0.00     0.129 C 
BRANCH  16  17
HETATM   17  C6  UNL     1      19.346 -14.827  20.025  1.00  0.00     0.003 C 
HETATM   18  C7  UNL     1      20.354 -14.150  20.951  1.00  0.00     0.006 C 
HETATM   19  C8  UNL     1      20.133 -14.674  22.295  1.00  0.00     0.000 C 
HETATM   20  C9  UNL     1      19.216 -15.862  22.195  1.00  0.00     0.000 C 
HETATM   21  C10 UNL     1      18.836 -15.990  20.721  1.00  0.00     0.006 C 
ENDBRANCH  16  17
ENDBRANCH   5  16
TORSDOF 7
ENDMDL
MODEL 3
REMARK VINA RESULT: -6.627614300      1.676      1.912
REMARK  7 active torsions:
REMARK  status: ('A' for Active; 'I' for Inactive)
REMARK    1  A    between atoms: C2_2  and  O1_3 
REMARK    2  A    between atoms: C2_2  and  N1_5 
REMARK    3  A    between atoms: N1_5  and  N2_6 
REMARK    4  A    between atoms: N2_6  and  C3_8 
REMARK    5  A    between atoms: C3_8  and  N3_10 
REMARK       I    between atoms: N3_10  and  C4_12 
REMARK       I    between atoms: C4_12  and  N4_14 
REMARK    6  A    between atoms: N4_14  and  C5_16 
REMARK    7  A    between atoms: C5_16  and  C6_17 
ROOT
HETATM    1  N3  UNL     1      13.641 -13.367  20.654  1.00  0.00    -0.284 N 
ATOM      2  H3  UNL     1      13.429 -13.146  19.681  1.00  0.00     0.173 HD
HETATM    3  C4  UNL     1      14.955 -13.133  21.190  1.00  0.00     0.322 C 
HETATM    4  O2  UNL     1      15.063 -13.300  22.470  1.00  0.00    -0.247 OA
HETATM    5  N4  UNL     1      16.095 -12.756  20.453  1.00  0.00    -0.342 N 
ATOM      6  H4  UNL     1      16.015 -12.553  19.456  1.00  0.00     0.164 HD
ENDROOT
BRANCH   1   7
HETATM    7  C3  UNL     1      12.633 -13.918  21.519  1.00  0.00     0.205 C 
HETATM    8  S1  UNL     1      12.601 -15.637  21.535  1.00  0.00    -0.038 SA
BRANCH   7   9
HETATM    9  N2  UNL     1      11.855 -13.315  22.431  1.00  0.00    -0.207 N 
ATOM     10  H2  UNL     1      11.087 -13.859  22.823  1.00  0.00     0.204 HD
BRANCH   9  11
HETATM   11  N1  UNL     1      12.002 -12.066  22.867  1.00  0.00    -0.303 NA
BRANCH  11  12
HETATM   12  C2  UNL     1      12.157 -10.806  23.305  1.00  0.00     0.210 C 
HETATM   13  C1  UNL     1      11.389 -10.069  24.376  1.00  0.00     0.117 C 
BRANCH  12  14
HETATM   14  O1  UNL     1      13.092 -10.016  22.815  1.00  0.00    -0.338 OA
ATOM     15  H1  UNL     1      13.770  -9.885  23.468  1.00  0.00     0.220 HD
ENDBRANCH  12  14
ENDBRANCH  11  12
ENDBRANCH   9  11
ENDBRANCH   7   9
ENDBRANCH   1   7
BRANCH   5  16
HETATM   16  C5  UNL     1      17.375 -12.655  21.109  1.00  0.00     0.129 C 
BRANCH  16  17
HETATM   17  C6  UNL     1      18.338 -13.612  20.610  1.00  0.00     0.003 C 
HETATM   18  C7  UNL     1      18.050 -14.062  19.180  1.00  0.00     0.006 C 
HETATM   19  C8  UNL     1      19.255 -13.819  18.394  1.00  0.00     0.000 C 
HETATM   20  C9  UNL     1      20.381 -13.499  19.340  1.00  0.00     0.000 C 
HETATM   21  C10 UNL     1      19.775 -13.493  20.742  1.00  0.00     0.006 C 
ENDBRANCH  16  17
ENDBRANCH   5  16
TORSDOF 7
ENDMDL
MODEL 4
REMARK VINA RESULT: -6.584311997      1.733      2.502
REMARK  7 active torsions:
REMARK  status: ('A' for Active; 'I' for Inactive)
REMARK    1  A    between atoms: C2_2  and  O1_3 
REMARK    2  A    between atoms: C2_2  and  N1_5 
REMARK    3  A    between atoms: N1_5  and  N2_6 
REMARK    4  A    between atoms: N2_6  and  C3_8 
REMARK    5  A    between atoms: C3_8  and  N3_10 
REMARK       I    between atoms: N3_10  and  C4_12 
REMARK       I    between atoms: C4_12  and  N4_14 
REMARK    6  A    between atoms: N4_14  and  C5_16 
REMARK    7  A    between atoms: C5_16  and  C6_17 
ROOT
HETATM    1  N3  UNL     1      14.291 -13.350  20.479  1.00  0.00    -0.284 N 
ATOM      2  H3  UNL     1      13.841 -14.162  20.057  1.00  0.00     0.173 HD
HETATM    3  C4  UNL     1      15.685 -13.080  20.248  1.00  0.00     0.322 C 
HETATM    4  O2  UNL     1      16.106 -11.942  20.702  1.00  0.00    -0.247 OA
HETATM    5  N4  UNL     1      16.596 -13.933  19.594  1.00  0.00    -0.342 N 
ATOM      6  H4  UNL     1      16.269 -14.801  19.170  1.00  0.00     0.164 HD
ENDROOT
BRANCH   1   7
HETATM    7  C3  UNL     1      13.547 -12.450  21.318  1.00  0.00     0.205 C 
HETATM    8  S1  UNL     1      12.529 -13.247  22.453  1.00  0.00    -0.038 SA
BRANCH   7   9
HETATM    9  N2  UNL     1      13.657 -11.122  21.470  1.00  0.00    -0.207 N 
ATOM     10  H2  UNL     1      14.144 -10.607  20.737  1.00  0.00     0.204 HD
BRANCH   9  11
HETATM   11  N1  UNL     1      13.185 -10.420  22.497  1.00  0.00    -0.303 NA
BRANCH  11  12
HETATM   12  C2  UNL     1      12.703  -9.717  23.536  1.00  0.00     0.210 C 
HETATM   13  C1  UNL     1      11.412  -9.905  24.296  1.00  0.00     0.117 C 
BRANCH  12  14
HETATM   14  O1  UNL     1      13.377  -8.711  24.058  1.00  0.00    -0.338 OA
ATOM     15  H1  UNL     1      14.178  -8.577  23.565  1.00  0.00     0.220 HD
ENDBRANCH  12  14
ENDBRANCH  11  12
ENDBRANCH   9  11
ENDBRANCH   7   9
ENDBRANCH   1   7
BRANCH   5  16
HETATM   16  C5  UNL     1      17.992 -13.577  19.523  1.00  0.00     0.129 C 
BRANCH  16  17
HETATM   17  C6  UNL     1      18.865 -14.630  19.990  1.00  0.00     0.003 C 
HETATM   18  C7  UNL     1      20.155 -14.106  20.615  1.00  0.00     0.006 C 
HETATM   19  C8  UNL     1      20.258 -14.680  21.953  1.00  0.00     0.000 C 
HETATM   20  C9  UNL     1      19.227 -15.767  22.082  1.00  0.00     0.000 C 
HETATM   21  C10 UNL     1      18.444 -15.776  20.770  1.00  0.00     0.006 C 
ENDBRANCH  16  17
ENDBRANCH   5  16
TORSDOF 7
ENDMDL
MODEL 5
REMARK VINA RESULT: -6.539252599      2.381      3.602
REMARK  7 active torsions:
REMARK  status: ('A' for Active; 'I' for Inactive)
REMARK    1  A    between atoms: C2_2  and  O1_3 
REMARK    2  A    between atoms: C2_2  and  N1_5 
REMARK    3  A    between atoms: N1_5  and  N2_6 
REMARK    4  A    between atoms: N2_6  and  C3_8 
REMARK    5  A    between atoms: C3_8  and  N3_10 
REMARK       I    between atoms: N3_10  and  C4_12 
REMARK       I    between atoms: C4_12  and  N4_14 
REMARK    6  A    between atoms: N4_14  and  C5_16 
REMARK    7  A    between atoms: C5_16  and  C6_17 
ROOT
HETATM    1  N3  UNL     1      14.086 -11.873  21.010  1.00  0.00    -0.284 N 
ATOM      2  H3  UNL     1      14.089 -11.210  20.236  1.00  0.00     0.173 HD
HETATM    3  C4  UNL     1      15.287 -12.570  21.385  1.00  0.00     0.322 C 
HETATM    4  O2  UNL     1      15.202 -13.262  22.477  1.00  0.00    -0.247 OA
HETATM    5  N4  UNL     1      16.504 -12.561  20.675  1.00  0.00    -0.342 N 
ATOM      6  H4  UNL     1      16.611 -11.969  19.852  1.00  0.00     0.164 HD
ENDROOT
BRANCH   1   7
HETATM    7  C3  UNL     1      12.881 -12.132  21.752  1.00  0.00     0.205 C 
HETATM    8  S1  UNL     1      12.300 -10.769  22.624  1.00  0.00    -0.038 SA
BRANCH   7   9
HETATM    9  N2  UNL     1      12.063 -13.195  21.724  1.00  0.00    -0.207 N 
ATOM     10  H2  UNL     1      11.061 -13.012  21.675  1.00  0.00     0.204 HD
BRANCH   9  11
HETATM   11  N1  UNL     1      12.449 -14.468  21.756  1.00  0.00    -0.303 NA
BRANCH  11  12
HETATM   12  C2  UNL     1      12.845 -15.752  21.785  1.00  0.00     0.210 C 
HETATM   13  C1  UNL     1      12.362 -16.916  20.954  1.00  0.00     0.117 C 
BRANCH  12  14
HETATM   14  O1  UNL     1      13.795 -16.160  22.602  1.00  0.00    -0.338 OA
ATOM     15  H1  UNL     1      14.598 -16.296  22.112  1.00  0.00     0.220 HD
ENDBRANCH  12  14
ENDBRANCH  11  12
ENDBRANCH   9  11
ENDBRANCH   7   9
ENDBRANCH   1   7
BRANCH   5  16
HETATM   16  C5  UNL     1      17.599 -13.391  21.115  1.00  0.00     0.129 C 
BRANCH  16  17
HETATM   17  C6  UNL     1      18.186 -14.161  20.041  1.00  0.00     0.003 C 
HETATM   18  C7  UNL     1      17.512 -13.918  18.692  1.00  0.00     0.006 C 
HETATM   19  C8  UNL     1      18.553 -13.524  17.749  1.00  0.00     0.000 C 
HETATM   20  C9  UNL     1      19.892 -13.785  18.383  1.00  0.00     0.000 C 
HETATM   21  C10 UNL     1      19.607 -14.298  19.794  1.00  0.00     0.006 C 
ENDBRANCH  16  17
ENDBRANCH   5  16
TORSDOF 7
ENDMDL
