MODEL 1
REMARK VINA RESULT: -6.695227360      0.000      0.000
REMARK  5 active torsions:
REMARK  status: ('A' for Active; 'I' for Inactive)
REMARK       I    between atoms: C1_2  and  N1_3 
REMARK    1  A    between atoms: C1_2  and  C7_15 
REMARK    2  A    between atoms: N1_3  and  N2_5 
REMARK    3  A    between atoms: N2_5  and  C2_7 
REMARK    4  A    between atoms: C2_7  and  N3_9 
REMARK    5  A    between atoms: N3_9  and  C3_11 
ROOT
HETATM    1  O1  UNL     1      14.179 -11.644  19.588  1.00  0.00    -0.271 OA
HETATM    2  C1  UNL     1      14.503 -12.311  20.595  1.00  0.00     0.240 C 
HETATM    3  N1  UNL     1      15.444 -13.333  20.636  1.00  0.00    -0.268 N 
ATOM      4  H1  UNL     1      15.538 -13.727  21.572  1.00  0.00     0.190 HD
ENDROOT
BRANCH   3   5
HETATM    5  N2  UNL     1      16.263 -13.934  19.752  1.00  0.00    -0.274 N 
ATOM      6  H2  UNL     1      15.850 -14.743  19.289  1.00  0.00     0.189 HD
BRANCH   5   7
HETATM    7  C2  UNL     1      17.563 -13.659  19.353  1.00  0.00     0.186 C 
HETATM    8  S1  UNL     1      18.013 -13.529  17.789  1.00  0.00    -0.040 SA
BRANCH   7   9
HETATM    9  N3  UNL     1      18.604 -13.493  20.366  1.00  0.00    -0.361 N 
ATOM     10  H3  UNL     1      18.488 -12.822  21.126  1.00  0.00     0.162 HD
BRANCH   9  11
HETATM   11  C3  UNL     1      19.778 -14.284  20.269  1.00  0.00     0.083 C 
HETATM   12  C4  UNL     1      20.513 -14.222  21.622  1.00  0.00     0.025 C 
HETATM   13  C5  UNL     1      19.685 -15.468  21.988  1.00  0.00     0.004 C 
HETATM   14  C6  UNL     1      19.632 -15.755  20.478  1.00  0.00     0.025 C 
ENDBRANCH   9  11
ENDBRANCH   7   9
ENDBRANCH   5   7
ENDBRANCH   3   5
BRANCH   2  15
HETATM   15  C7  UNL     1      13.755 -11.910  21.848  1.00  0.00     0.082 C 
HETATM   16  C8  UNL     1      12.881 -13.042  22.342  1.00  0.00     0.041 C 
HETATM   17  C9  UNL     1      11.767 -12.488  23.175  1.00  0.00     0.233 C 
HETATM   18  N4  UNL     1      12.055 -11.203  23.735  1.00  0.00    -0.075 N 
HETATM   19  C10 UNL     1      12.284 -10.177  22.763  1.00  0.00     0.233 C 
ATOM     20  H42 UNL     1      11.318 -10.923  24.383  1.00  0.00     0.277 HD
ATOM     21  H41 UNL     1      12.840 -11.264  24.382  1.00  0.00     0.277 HD
HETATM   22  C11 UNL     1      12.882 -10.717  21.512  1.00  0.00     0.041 C 
ENDBRANCH   2  15
TORSDOF 5
ENDMDL
MODEL 2
REMARK VINA RESULT: -6.666800656      1.202      1.498
REMARK  5 active torsions:
REMARK  status: ('A' for Active; 'I' for Inactive)
REMARK       I    between atoms: C1_2  and  N1_3 
REMARK    1  A    between atoms: C1_2  and  C7_15 
REMARK    2  A    between atoms: N1_3  and  N2_5 
REMARK    3  A    between atoms: N2_5  and  C2_7 
REMARK    4  A    between atoms: C2_7  and  N3_9 
REMARK    5  A    between atoms: N3_9  and  C3_11 
ROOT
HETATM    1  O1  UNL     1      14.366 -11.940  19.559  1.00  0.00    -0.271 OA
HETATM    2  C1  UNL     1      14.800 -12.316  20.671  1.00  0.00     0.240 C 
HETATM    3  N1  UNL     1      16.000 -12.978  20.903  1.00  0.00    -0.268 N 
ATOM      4  H1  UNL     1      16.138 -13.181  21.893  1.00  0.00     0.190 HD
ENDROOT
BRANCH   3   5
HETATM    5  N2  UNL     1      17.026 -13.420  20.151  1.00  0.00    -0.274 N 
ATOM      6  H2  UNL     1      16.794 -13.541  19.165  1.00  0.00     0.189 HD
BRANCH   5   7
HETATM    7  C2  UNL     1      18.338 -13.743  20.465  1.00  0.00     0.186 C 
HETATM    8  S1  UNL     1      19.468 -14.099  19.342  1.00  0.00    -0.040 SA
BRANCH   7   9
HETATM    9  N3  UNL     1      18.748 -13.791  21.867  1.00  0.00    -0.361 N 
ATOM     10  H3  UNL     1      18.807 -12.938  22.422  1.00  0.00     0.162 HD
BRANCH   9  11
HETATM   11  C3  UNL     1      19.063 -15.051  22.439  1.00  0.00     0.083 C 
HETATM   12  C4  UNL     1      20.522 -15.006  22.931  1.00  0.00     0.025 C 
HETATM   13  C5  UNL     1      19.926 -14.530  24.269  1.00  0.00     0.004 C 
HETATM   14  C6  UNL     1      18.651 -15.283  23.855  1.00  0.00     0.025 C 
ENDBRANCH   9  11
ENDBRANCH   7   9
ENDBRANCH   5   7
ENDBRANCH   3   5
BRANCH   2  15
HETATM   15  C7  UNL     1      13.874 -11.985  21.821  1.00  0.00     0.082 C 
HETATM   16  C8  UNL     1      13.017 -13.177  22.186  1.00  0.00     0.041 C 
HETATM   17  C9  UNL     1      11.774 -12.707  22.875  1.00  0.00     0.233 C 
HETATM   18  N4  UNL     1      11.906 -11.417  23.481  1.00  0.00    -0.075 N 
HETATM   19  C10 UNL     1      12.193 -10.362  22.557  1.00  0.00     0.233 C 
ATOM     20  H42 UNL     1      11.077 -11.195  24.032  1.00  0.00     0.277 HD
ATOM     21  H41 UNL     1      12.605 -11.442  24.223  1.00  0.00     0.277 HD
HETATM   22  C11 UNL     1      12.978 -10.841  21.388  1.00  0.00     0.041 C 
ENDBRANCH   2  15
TORSDOF 5
ENDMDL
MODEL 3
REMARK VINA RESULT: -6.533410036      0.888      1.506
REMARK  5 active torsions:
REMARK  status: ('A' for Active; 'I' for Inactive)
REMARK       I    between atoms: C1_2  and  N1_3 
REMARK    1  A    between atoms: C1_2  and  C7_15 
REMARK    2  A    between atoms: N1_3  and  N2_5 
REMARK    3  A    between atoms: N2_5  and  C2_7 
REMARK    4  A    between atoms: C2_7  and  N3_9 
REMARK    5  A    between atoms: N3_9  and  C3_11 
ROOT
HETATM    1  O1  UNL     1      14.379 -11.950  19.318  1.00  0.00    -0.271 OA
HETATM    2  C1  UNL     1      14.505 -12.095  20.554  1.00  0.00     0.240 C 
HETATM    3  N1  UNL     1      15.672 -12.434  21.226  1.00  0.00    -0.268 N 
ATOM      4  H1  UNL     1      15.529 -12.492  22.235  1.00  0.00     0.190 HD
ENDROOT
BRANCH   3   5
HETATM    5  N2  UNL     1      16.946 -12.707  20.883  1.00  0.00    -0.274 N 
ATOM      6  H2  UNL     1      17.622 -12.025  21.226  1.00  0.00     0.189 HD
BRANCH   5   7
HETATM    7  C2  UNL     1      17.511 -13.741  20.151  1.00  0.00     0.186 C 
HETATM    8  S1  UNL     1      17.613 -13.735  18.522  1.00  0.00    -0.040 SA
BRANCH   7   9
HETATM    9  N3  UNL     1      18.032 -14.914  20.851  1.00  0.00    -0.361 N 
ATOM     10  H3  UNL     1      17.450 -15.425  21.514  1.00  0.00     0.162 HD
BRANCH   9  11
HETATM   11  C3  UNL     1      19.364 -15.326  20.587  1.00  0.00     0.083 C 
HETATM   12  C4  UNL     1      20.318 -14.238  21.117  1.00  0.00     0.025 C 
HETATM   13  C5  UNL     1      20.311 -15.045  22.429  1.00  0.00     0.004 C 
HETATM   14  C6  UNL     1      19.993 -16.271  21.557  1.00  0.00     0.025 C 
ENDBRANCH   9  11
ENDBRANCH   7   9
ENDBRANCH   5   7
ENDBRANCH   3   5
BRANCH   2  15
HETATM   15  C7  UNL     1      13.221 -11.864  21.321  1.00  0.00     0.082 C 
HETATM   16  C8  UNL     1      13.168 -10.458  21.877  1.00  0.00     0.041 C 
HETATM   17  C9  UNL     1      12.243 -10.420  23.054  1.00  0.00     0.233 C 
HETATM   18  N4  UNL     1      11.275 -11.474  23.056  1.00  0.00    -0.075 N 
HETATM   19  C10 UNL     1      11.839 -12.788  23.121  1.00  0.00     0.233 C 
ATOM     20  H42 UNL     1      10.600 -11.337  23.809  1.00  0.00     0.277 HD
ATOM     21  H41 UNL     1      10.654 -11.390  22.251  1.00  0.00     0.277 HD
HETATM   22  C11 UNL     1      13.173 -12.855  22.467  1.00  0.00     0.041 C 
ENDBRANCH   2  15
TORSDOF 5
ENDMDL
MODEL 4
REMARK VINA RESULT: -6.517325527      1.442      2.078
REMARK  5 active torsions:
REMARK  status: ('A' for Active; 'I' for Inactive)
REMARK       I    between atoms: C1_2  and  N1_3 
REMARK    1  A    between atoms: C1_2  and  C7_15 
REMARK    2  A    between atoms: N1_3  and  N2_5 
REMARK    3  A    between atoms: N2_5  and  C2_7 
REMARK    4  A    between atoms: C2_7  and  N3_9 
REMARK    5  A    between atoms: N3_9  and  C3_11 
ROOT
HETATM    1  O1  UNL     1      14.338 -12.008  19.417  1.00  0.00    -0.271 OA
HETATM    2  C1  UNL     1      14.478 -12.025  20.660  1.00  0.00     0.240 C 
HETATM    3  N1  UNL     1      15.669 -12.214  21.350  1.00  0.00    -0.268 N 
ATOM      4  H1  UNL     1      15.533 -12.185  22.360  1.00  0.00     0.190 HD
ENDROOT
BRANCH   3   5
HETATM    5  N2  UNL     1      16.958 -12.427  21.021  1.00  0.00    -0.274 N 
ATOM      6  H2  UNL     1      17.447 -11.590  20.702  1.00  0.00     0.189 HD
BRANCH   5   7
HETATM    7  C2  UNL     1      17.746 -13.569  21.035  1.00  0.00     0.186 C 
HETATM    8  S1  UNL     1      17.560 -14.798  19.978  1.00  0.00    -0.040 SA
BRANCH   7   9
HETATM    9  N3  UNL     1      18.788 -13.708  22.050  1.00  0.00    -0.361 N 
ATOM     10  H3  UNL     1      19.302 -12.893  22.384  1.00  0.00     0.162 HD
BRANCH   9  11
HETATM   11  C3  UNL     1      19.070 -15.002  22.559  1.00  0.00     0.083 C 
HETATM   12  C4  UNL     1      20.554 -15.044  22.974  1.00  0.00     0.025 C 
HETATM   13  C5  UNL     1      20.051 -14.591  24.358  1.00  0.00     0.004 C 
HETATM   14  C6  UNL     1      18.721 -15.268  23.987  1.00  0.00     0.025 C 
ENDBRANCH   9  11
ENDBRANCH   7   9
ENDBRANCH   5   7
ENDBRANCH   3   5
BRANCH   2  15
HETATM   15  C7  UNL     1      13.183 -11.814  21.414  1.00  0.00     0.082 C 
HETATM   16  C8  UNL     1      13.152 -10.449  22.065  1.00  0.00     0.041 C 
HETATM   17  C9  UNL     1      12.202 -10.468  23.222  1.00  0.00     0.233 C 
HETATM   18  N4  UNL     1      11.209 -11.494  23.131  1.00  0.00    -0.075 N 
HETATM   19  C10 UNL     1      11.739 -12.823  23.117  1.00  0.00     0.233 C 
ATOM     20  H42 UNL     1      10.521 -11.392  23.878  1.00  0.00     0.277 HD
ATOM     21  H41 UNL     1      10.609 -11.339  22.321  1.00  0.00     0.277 HD
HETATM   22  C11 UNL     1      13.086 -12.880  22.487  1.00  0.00     0.041 C 
ENDBRANCH   2  15
TORSDOF 5
ENDMDL
MODEL 5
REMARK VINA RESULT: -6.512809025      0.991      1.160
REMARK  5 active torsions:
REMARK  status: ('A' for Active; 'I' for Inactive)
REMARK       I    between atoms: C1_2  and  N1_3 
REMARK    1  A    between atoms: C1_2  and  C7_15 
REMARK    2  A    between atoms: N1_3  and  N2_5 
REMARK    3  A    between atoms: N2_5  and  C2_7 
REMARK    4  A    between atoms: C2_7  and  N3_9 
REMARK    5  A    between atoms: N3_9  and  C3_11 
ROOT
HETATM    1  O1  UNL     1      14.311 -11.747  19.468  1.00  0.00    -0.271 OA
HETATM    2  C1  UNL     1      14.640 -12.410  20.476  1.00  0.00     0.240 C 
HETATM    3  N1  UNL     1      15.654 -13.358  20.542  1.00  0.00    -0.268 N 
ATOM      4  H1  UNL     1      15.735 -13.766  21.473  1.00  0.00     0.190 HD
ENDROOT
BRANCH   3   5
HETATM    5  N2  UNL     1      16.557 -13.874  19.686  1.00  0.00    -0.274 N 
ATOM      6  H2  UNL     1      16.194 -14.028  18.745  1.00  0.00     0.189 HD
BRANCH   5   7
HETATM    7  C2  UNL     1      17.887 -14.236  19.843  1.00  0.00     0.186 C 
HETATM    8  S1  UNL     1      19.045 -13.894  18.745  1.00  0.00    -0.040 SA
BRANCH   7   9
HETATM    9  N3  UNL     1      18.291 -14.979  21.036  1.00  0.00    -0.361 N 
ATOM     10  H3  UNL     1      18.042 -15.961  21.147  1.00  0.00     0.162 HD
BRANCH   9  11
HETATM   11  C3  UNL     1      19.038 -14.303  22.035  1.00  0.00     0.083 C 
HETATM   12  C4  UNL     1      18.792 -15.010  23.382  1.00  0.00     0.025 C 
HETATM   13  C5  UNL     1      20.022 -15.863  23.017  1.00  0.00     0.004 C 
HETATM   14  C6  UNL     1      20.481 -14.663  22.173  1.00  0.00     0.025 C 
ENDBRANCH   9  11
ENDBRANCH   7   9
ENDBRANCH   5   7
ENDBRANCH   3   5
BRANCH   2  15
HETATM   15  C7  UNL     1      13.806 -12.097  21.700  1.00  0.00     0.082 C 
HETATM   16  C8  UNL     1      12.850 -13.228  22.008  1.00  0.00     0.041 C 
HETATM   17  C9  UNL     1      11.694 -12.705  22.802  1.00  0.00     0.233 C 
HETATM   18  N4  UNL     1      11.984 -11.495  23.507  1.00  0.00    -0.075 N 
HETATM   19  C10 UNL     1      12.333 -10.393  22.663  1.00  0.00     0.233 C 
ATOM     20  H42 UNL     1      11.208 -11.244  24.120  1.00  0.00     0.277 HD
ATOM     21  H41 UNL     1      12.710 -11.654  24.206  1.00  0.00     0.277 HD
HETATM   22  C11 UNL     1      13.011 -10.838  21.416  1.00  0.00     0.041 C 
ENDBRANCH   2  15
TORSDOF 5
ENDMDL
