MODEL 1
REMARK VINA RESULT: -6.313126111      0.000      0.000
REMARK  4 active torsions:
REMARK  status: ('A' for Active; 'I' for Inactive)
REMARK       I    between atoms: C2_2  and  N1_4 
REMARK       I    between atoms: N1_4  and  C3_6 
REMARK       I    between atoms: C3_6  and  N3_13 
REMARK    1  A    between atoms: N2_7  and  C4_9 
REMARK    2  A    between atoms: N3_13  and  N4_15 
REMARK       I    between atoms: N4_15  and  C8_17 
REMARK       I    between atoms: C8_17  and  N5_19 
REMARK    3  A    between atoms: N5_19  and  C9_21 
REMARK    4  A    between atoms: C9_21  and  C10_22 
ROOT
HETATM    1  C1  UNL     1      44.107  -2.623  25.075  1.00  0.00     0.118 C 
HETATM    2  C2  UNL     1      43.541  -2.578  26.456  1.00  0.00     0.232 C 
HETATM    3  O1  UNL     1      43.396  -1.461  26.981  1.00  0.00    -0.273 OA
HETATM    4  N1  UNL     1      43.204  -3.779  27.093  1.00  0.00    -0.159 N 
ATOM      5  H1  UNL     1      43.352  -4.661  26.602  1.00  0.00     0.187 HD
HETATM    6  C3  UNL     1      42.659  -3.798  28.408  1.00  0.00     0.696 C 
HETATM    7  N2  UNL     1      42.364  -4.903  28.974  1.00  0.00    -0.217 N 
ATOM      8  H2  UNL     1      42.542  -5.743  28.424  1.00  0.00     0.178 HD
HETATM    9  N3  UNL     1      42.453  -2.552  29.060  1.00  0.00    -0.128 N 
ATOM     10  H3  UNL     1      43.217  -2.146  29.600  1.00  0.00     0.205 HD
ENDROOT
BRANCH   7  11
HETATM   11  C4  UNL     1      41.819  -5.119  30.268  1.00  0.00     0.036 C 
HETATM   12  C5  UNL     1      40.330  -4.855  30.283  1.00  0.00     0.038 C 
HETATM   13  C6  UNL     1      42.471  -4.250  31.328  1.00  0.00     0.038 C 
HETATM   14  C7  UNL     1      42.029  -6.574  30.716  1.00  0.00     0.038 C 
ENDBRANCH   7  11
BRANCH   9  15
HETATM   15  N4  UNL     1      41.225  -1.855  28.987  1.00  0.00    -0.237 N 
HETATM   16  C8  UNL     1      40.859  -0.924  29.980  1.00  0.00     0.335 C 
HETATM   17  O2  UNL     1      41.662  -0.723  30.944  1.00  0.00    -0.246 OA
HETATM   18  N5  UNL     1      39.632  -0.209  29.936  1.00  0.00    -0.341 N 
ATOM     19  H5  UNL     1      39.006  -0.391  29.151  1.00  0.00     0.164 HD
ATOM     20  H4  UNL     1      40.594  -2.029  28.205  1.00  0.00     0.192 HD
BRANCH  18  21
HETATM   21  C9  UNL     1      39.213   0.741  30.908  1.00  0.00     0.129 C 
BRANCH  21  22
HETATM   22  C10 UNL     1      38.415   0.146  32.039  1.00  0.00     0.003 A 
HETATM   23  C11 UNL     1      37.909   1.203  33.029  1.00  0.00     0.007 A 
HETATM   24  C12 UNL     1      36.979   0.389  32.212  1.00  0.00     0.007 A 
ENDBRANCH  21  22
ENDBRANCH  18  21
ENDBRANCH   9  15
TORSDOF 4
ENDMDL
MODEL 2
REMARK VINA RESULT: -5.897270803      2.483      6.121
REMARK  4 active torsions:
REMARK  status: ('A' for Active; 'I' for Inactive)
REMARK       I    between atoms: C2_2  and  N1_4 
REMARK       I    between atoms: N1_4  and  C3_6 
REMARK       I    between atoms: C3_6  and  N3_13 
REMARK    1  A    between atoms: N2_7  and  C4_9 
REMARK    2  A    between atoms: N3_13  and  N4_15 
REMARK       I    between atoms: N4_15  and  C8_17 
REMARK       I    between atoms: C8_17  and  N5_19 
REMARK    3  A    between atoms: N5_19  and  C9_21 
REMARK    4  A    between atoms: C9_21  and  C10_22 
ROOT
HETATM    1  C1  UNL     1      44.611  -1.547  26.177  1.00  0.00     0.118 C 
HETATM    2  C2  UNL     1      43.698  -2.038  27.252  1.00  0.00     0.232 C 
HETATM    3  O1  UNL     1      43.665  -3.261  27.464  1.00  0.00    -0.273 OA
HETATM    4  N1  UNL     1      42.927  -1.110  27.964  1.00  0.00    -0.159 N 
ATOM      5  H1  UNL     1      43.002  -0.119  27.735  1.00  0.00     0.187 HD
HETATM    6  C3  UNL     1      42.040  -1.518  29.000  1.00  0.00     0.696 C 
HETATM    7  N2  UNL     1      41.341  -0.658  29.635  1.00  0.00    -0.217 N 
ATOM      8  H2  UNL     1      41.467   0.312  29.348  1.00  0.00     0.178 HD
HETATM    9  N3  UNL     1      41.966  -2.904  29.305  1.00  0.00    -0.128 N 
ATOM     10  H3  UNL     1      41.308  -3.487  28.788  1.00  0.00     0.205 HD
ENDROOT
BRANCH   7  11
HETATM   11  C4  UNL     1      40.411  -0.873  30.686  1.00  0.00     0.036 C 
HETATM   12  C5  UNL     1      41.113  -0.983  32.021  1.00  0.00     0.038 C 
HETATM   13  C6  UNL     1      39.576  -2.124  30.480  1.00  0.00     0.038 C 
HETATM   14  C7  UNL     1      39.417   0.295  30.787  1.00  0.00     0.038 C 
ENDBRANCH   7  11
BRANCH   9  15
HETATM   15  N4  UNL     1      42.773  -3.504  30.300  1.00  0.00    -0.237 N 
HETATM   16  C8  UNL     1      42.843  -4.905  30.430  1.00  0.00     0.335 C 
HETATM   17  O2  UNL     1      42.164  -5.621  29.628  1.00  0.00    -0.246 OA
HETATM   18  N5  UNL     1      43.643  -5.538  31.419  1.00  0.00    -0.341 N 
ATOM     19  H5  UNL     1      44.177  -4.939  32.050  1.00  0.00     0.164 HD
ATOM     20  H4  UNL     1      43.312  -2.913  30.933  1.00  0.00     0.192 HD
BRANCH  18  21
HETATM   21  C9  UNL     1      43.753  -6.944  31.595  1.00  0.00     0.129 C 
BRANCH  21  22
HETATM   22  C10 UNL     1      44.801  -7.354  32.597  1.00  0.00     0.003 A 
HETATM   23  C11 UNL     1      45.999  -8.060  31.949  1.00  0.00     0.007 A 
HETATM   24  C12 UNL     1      46.139  -6.756  32.636  1.00  0.00     0.007 A 
ENDBRANCH  21  22
ENDBRANCH  18  21
ENDBRANCH   9  15
TORSDOF 4
ENDMDL
MODEL 3
REMARK VINA RESULT: -5.876636699      1.037      1.124
REMARK  4 active torsions:
REMARK  status: ('A' for Active; 'I' for Inactive)
REMARK       I    between atoms: C2_2  and  N1_4 
REMARK       I    between atoms: N1_4  and  C3_6 
REMARK       I    between atoms: C3_6  and  N3_13 
REMARK    1  A    between atoms: N2_7  and  C4_9 
REMARK    2  A    between atoms: N3_13  and  N4_15 
REMARK       I    between atoms: N4_15  and  C8_17 
REMARK       I    between atoms: C8_17  and  N5_19 
REMARK    3  A    between atoms: N5_19  and  C9_21 
REMARK    4  A    between atoms: C9_21  and  C10_22 
ROOT
HETATM    1  C1  UNL     1      44.359  -1.706  25.949  1.00  0.00     0.118 C 
HETATM    2  C2  UNL     1      43.571  -1.781  27.215  1.00  0.00     0.232 C 
HETATM    3  O1  UNL     1      43.501  -0.754  27.911  1.00  0.00    -0.273 OA
HETATM    4  N1  UNL     1      42.953  -2.990  27.561  1.00  0.00    -0.159 N 
ATOM      5  H1  UNL     1      43.054  -3.795  26.943  1.00  0.00     0.187 HD
HETATM    6  C3  UNL     1      42.188  -3.121  28.754  1.00  0.00     0.696 C 
HETATM    7  N2  UNL     1      41.637  -4.233  29.055  1.00  0.00    -0.217 N 
ATOM      8  H2  UNL     1      41.784  -4.993  28.392  1.00  0.00     0.178 HD
HETATM    9  N3  UNL     1      42.055  -1.978  29.588  1.00  0.00    -0.128 N 
ATOM     10  H3  UNL     1      42.763  -1.803  30.301  1.00  0.00     0.205 HD
ENDROOT
BRANCH   7  11
HETATM   11  C4  UNL     1      40.846  -4.552  30.191  1.00  0.00     0.036 C 
HETATM   12  C5  UNL     1      39.473  -3.927  30.092  1.00  0.00     0.038 C 
HETATM   13  C6  UNL     1      41.485  -4.101  31.492  1.00  0.00     0.038 C 
HETATM   14  C7  UNL     1      40.649  -6.071  30.313  1.00  0.00     0.038 C 
ENDBRANCH   7  11
BRANCH   9  15
HETATM   15  N4  UNL     1      40.975  -1.073  29.464  1.00  0.00    -0.237 N 
HETATM   16  C8  UNL     1      40.366  -0.509  30.604  1.00  0.00     0.335 C 
HETATM   17  O2  UNL     1      40.813  -0.832  31.749  1.00  0.00    -0.246 OA
HETATM   18  N5  UNL     1      39.279   0.401  30.512  1.00  0.00    -0.341 N 
ATOM     19  H5  UNL     1      38.941   0.642  29.581  1.00  0.00     0.164 HD
ATOM     20  H4  UNL     1      40.631  -0.825  28.537  1.00  0.00     0.192 HD
BRANCH  18  21
HETATM   21  C9  UNL     1      38.629   1.001  31.626  1.00  0.00     0.129 C 
BRANCH  21  22
HETATM   22  C10 UNL     1      37.749   0.054  32.401  1.00  0.00     0.003 A 
HETATM   23  C11 UNL     1      36.311   0.567  32.549  1.00  0.00     0.007 A 
HETATM   24  C12 UNL     1      36.627  -0.666  31.790  1.00  0.00     0.007 A 
ENDBRANCH  21  22
ENDBRANCH  18  21
ENDBRANCH   9  15
TORSDOF 4
ENDMDL
MODEL 4
REMARK VINA RESULT: -5.814922588      2.332      6.251
REMARK  4 active torsions:
REMARK  status: ('A' for Active; 'I' for Inactive)
REMARK       I    between atoms: C2_2  and  N1_4 
REMARK       I    between atoms: N1_4  and  C3_6 
REMARK       I    between atoms: C3_6  and  N3_13 
REMARK    1  A    between atoms: N2_7  and  C4_9 
REMARK    2  A    between atoms: N3_13  and  N4_15 
REMARK       I    between atoms: N4_15  and  C8_17 
REMARK       I    between atoms: C8_17  and  N5_19 
REMARK    3  A    between atoms: N5_19  and  C9_21 
REMARK    4  A    between atoms: C9_21  and  C10_22 
ROOT
HETATM    1  C1  UNL     1      44.567  -1.533  25.818  1.00  0.00     0.118 C 
HETATM    2  C2  UNL     1      43.698  -2.094  26.895  1.00  0.00     0.232 C 
HETATM    3  O1  UNL     1      43.617  -3.330  26.984  1.00  0.00    -0.273 OA
HETATM    4  N1  UNL     1      43.019  -1.213  27.747  1.00  0.00    -0.159 N 
ATOM      5  H1  UNL     1      43.129  -0.208  27.615  1.00  0.00     0.187 HD
HETATM    6  C3  UNL     1      42.178  -1.688  28.793  1.00  0.00     0.696 C 
HETATM    7  N2  UNL     1      41.563  -0.870  29.556  1.00  0.00    -0.217 N 
ATOM      8  H2  UNL     1      41.719   0.118  29.362  1.00  0.00     0.178 HD
HETATM    9  N3  UNL     1      42.054  -3.095  28.960  1.00  0.00    -0.128 N 
ATOM     10  H3  UNL     1      41.338  -3.592  28.431  1.00  0.00     0.205 HD
ENDROOT
BRANCH   7  11
HETATM   11  C4  UNL     1      40.689  -1.154  30.640  1.00  0.00     0.036 C 
HETATM   12  C5  UNL     1      41.466  -1.475  31.897  1.00  0.00     0.038 C 
HETATM   13  C6  UNL     1      39.753  -2.312  30.347  1.00  0.00     0.038 C 
HETATM   14  C7  UNL     1      39.793   0.055  30.952  1.00  0.00     0.038 C 
ENDBRANCH   7  11
BRANCH   9  15
HETATM   15  N4  UNL     1      42.890  -3.829  29.833  1.00  0.00    -0.237 N 
HETATM   16  C8  UNL     1      42.662  -5.199  30.075  1.00  0.00     0.335 C 
HETATM   17  O2  UNL     1      41.686  -5.761  29.486  1.00  0.00    -0.246 OA
HETATM   18  N5  UNL     1      43.482  -5.963  30.947  1.00  0.00    -0.341 N 
ATOM     19  H5  UNL     1      44.258  -5.485  31.407  1.00  0.00     0.164 HD
ATOM     20  H4  UNL     1      43.669  -3.360  30.295  1.00  0.00     0.192 HD
BRANCH  18  21
HETATM   21  C9  UNL     1      43.300  -7.345  31.226  1.00  0.00     0.129 C 
BRANCH  21  22
HETATM   22  C10 UNL     1      44.575  -8.148  31.191  1.00  0.00     0.003 A 
HETATM   23  C11 UNL     1      44.383  -9.590  31.679  1.00  0.00     0.007 A 
HETATM   24  C12 UNL     1      44.773  -9.283  30.284  1.00  0.00     0.007 A 
ENDBRANCH  21  22
ENDBRANCH  18  21
ENDBRANCH   9  15
TORSDOF 4
ENDMDL
MODEL 5
REMARK VINA RESULT: -5.722329442      1.054      1.520
REMARK  4 active torsions:
REMARK  status: ('A' for Active; 'I' for Inactive)
REMARK       I    between atoms: C2_2  and  N1_4 
REMARK       I    between atoms: N1_4  and  C3_6 
REMARK       I    between atoms: C3_6  and  N3_13 
REMARK    1  A    between atoms: N2_7  and  C4_9 
REMARK    2  A    between atoms: N3_13  and  N4_15 
REMARK       I    between atoms: N4_15  and  C8_17 
REMARK       I    between atoms: C8_17  and  N5_19 
REMARK    3  A    between atoms: N5_19  and  C9_21 
REMARK    4  A    between atoms: C9_21  and  C10_22 
ROOT
HETATM    1  C1  UNL     1      44.364  -1.722  25.947  1.00  0.00     0.118 C 
HETATM    2  C2  UNL     1      43.571  -1.796  27.210  1.00  0.00     0.232 C 
HETATM    3  O1  UNL     1      43.511  -0.773  27.912  1.00  0.00    -0.273 OA
HETATM    4  N1  UNL     1      42.938  -3.000  27.545  1.00  0.00    -0.159 N 
ATOM      5  H1  UNL     1      43.032  -3.802  26.922  1.00  0.00     0.187 HD
HETATM    6  C3  UNL     1      42.167  -3.130  28.734  1.00  0.00     0.696 C 
HETATM    7  N2  UNL     1      41.602  -4.237  29.025  1.00  0.00    -0.217 N 
ATOM      8  H2  UNL     1      41.743  -4.995  28.357  1.00  0.00     0.178 HD
HETATM    9  N3  UNL     1      42.044  -1.991  29.575  1.00  0.00    -0.128 N 
ATOM     10  H3  UNL     1      42.751  -1.830  30.292  1.00  0.00     0.205 HD
ENDROOT
BRANCH   7  11
HETATM   11  C4  UNL     1      40.803  -4.555  30.156  1.00  0.00     0.036 C 
HETATM   12  C5  UNL     1      41.456  -4.081  31.435  1.00  0.00     0.038 C 
HETATM   13  C6  UNL     1      40.532  -6.043  30.279  1.00  0.00     0.038 C 
HETATM   14  C7  UNL     1      39.428  -3.874  30.065  1.00  0.00     0.038 C 
ENDBRANCH   7  11
BRANCH   9  15
HETATM   15  N4  UNL     1      40.975  -1.073  29.454  1.00  0.00    -0.237 N 
HETATM   16  C8  UNL     1      40.369  -0.509  30.595  1.00  0.00     0.335 C 
HETATM   17  O2  UNL     1      40.809  -0.844  31.739  1.00  0.00    -0.246 OA
HETATM   18  N5  UNL     1      39.293   0.414  30.506  1.00  0.00    -0.341 N 
ATOM     19  H5  UNL     1      38.961   0.665  29.574  1.00  0.00     0.164 HD
ATOM     20  H4  UNL     1      40.638  -0.815  28.527  1.00  0.00     0.192 HD
BRANCH  18  21
HETATM   21  C9  UNL     1      38.647   1.014  31.621  1.00  0.00     0.129 C 
BRANCH  21  22
HETATM   22  C10 UNL     1      37.383   0.310  32.045  1.00  0.00     0.003 A 
HETATM   23  C11 UNL     1      37.375  -0.047  33.537  1.00  0.00     0.007 A 
HETATM   24  C12 UNL     1      36.407   0.914  32.958  1.00  0.00     0.007 A 
ENDBRANCH  21  22
ENDBRANCH  18  21
ENDBRANCH   9  15
TORSDOF 4
ENDMDL
