MODEL 1
REMARK VINA RESULT: -6.376561646      0.000      0.000
REMARK  3 active torsions:
REMARK  status: ('A' for Active; 'I' for Inactive)
REMARK    1  A    between atoms: C2_2  and  C3_3 
REMARK    2  A    between atoms: C3_3  and  N1_4 
REMARK       I    between atoms: N1_4  and  C4_6 
REMARK       I    between atoms: C4_6  and  N3_10 
REMARK    3  A    between atoms: C10_16  and  N4_17 
ROOT
HETATM    1  N1  UNL     1       9.041   1.687  24.175  1.00  0.00    -0.223 N 
ATOM      2  H1  UNL     1       8.342   1.845  24.901  1.00  0.00     0.178 HD
HETATM    3  C4  UNL     1       9.459   2.799  23.444  1.00  0.00     0.669 C 
HETATM    4  N2  UNL     1      10.038   2.701  22.299  1.00  0.00    -0.235 N 
ATOM      5  H21 UNL     1      10.344   3.515  21.766  1.00  0.00     0.174 HD
ATOM      6  H22 UNL     1      10.185   1.752  21.956  1.00  0.00     0.174 HD
HETATM    7  N3  UNL     1       9.253   4.136  23.928  1.00  0.00    -0.218 N 
HETATM    8  C5  UNL     1       7.956   4.371  24.583  1.00  0.00     0.146 C 
HETATM    9  C6  UNL     1       7.560   5.789  24.192  1.00  0.00     0.006 C 
HETATM   10  C7  UNL     1       8.127   6.025  22.795  1.00  0.00     0.014 C 
HETATM   11  C8  UNL     1       9.560   6.442  23.165  1.00  0.00     0.027 C 
HETATM   12  C9  UNL     1      10.185   5.209  23.813  1.00  0.00     0.148 C 
HETATM   13  C10 UNL     1       9.221   7.504  24.203  1.00  0.00     0.089 C 
HETATM   14  C12 UNL     1       8.308   6.745  25.119  1.00  0.00     0.032 C 
ENDROOT
BRANCH   1  15
HETATM   15  C3  UNL     1       9.501   0.356  23.998  1.00  0.00     0.164 C 
BRANCH  15  16
HETATM   16  C2  UNL     1       8.510  -0.628  24.499  1.00  0.00    -0.017 C 
HETATM   17  C1  UNL     1       8.092  -0.625  25.758  1.00  0.00     0.008 C 
ENDBRANCH  15  16
ENDBRANCH   1  15
BRANCH  13  18
HETATM   18  N4  UNL     1      10.359   8.095  24.812  1.00  0.00    -0.362 N 
HETATM   19  C11 UNL     1      10.724   9.283  24.426  1.00  0.00     0.197 C 
HETATM   20  N5  UNL     1       9.998   9.985  23.416  1.00  0.00    -0.067 NA
HETATM   21  N6  UNL     1      11.842   9.947  24.968  1.00  0.00    -0.067 NA
ATOM     22  H4  UNL     1      10.880   7.599  25.535  1.00  0.00     0.162 HD
ENDBRANCH  13  18
TORSDOF 3
ENDMDL
MODEL 2
REMARK VINA RESULT: -6.038747697      2.816      6.685
REMARK  3 active torsions:
REMARK  status: ('A' for Active; 'I' for Inactive)
REMARK    1  A    between atoms: C2_2  and  C3_3 
REMARK    2  A    between atoms: C3_3  and  N1_4 
REMARK       I    between atoms: N1_4  and  C4_6 
REMARK       I    between atoms: C4_6  and  N3_10 
REMARK    3  A    between atoms: C10_16  and  N4_17 
ROOT
HETATM    1  N1  UNL     1       5.980   7.546  25.653  1.00  0.00    -0.223 N 
ATOM      2  H1  UNL     1       6.315   7.534  26.617  1.00  0.00     0.178 HD
HETATM    3  C4  UNL     1       6.608   6.685  24.753  1.00  0.00     0.669 C 
HETATM    4  N2  UNL     1       6.545   6.846  23.478  1.00  0.00    -0.235 N 
ATOM      5  H21 UNL     1       7.004   6.216  22.820  1.00  0.00     0.174 HD
ATOM      6  H22 UNL     1       5.996   7.643  23.158  1.00  0.00     0.174 HD
HETATM    7  N3  UNL     1       7.383   5.562  25.203  1.00  0.00    -0.218 N 
HETATM    8  C5  UNL     1       8.217   5.813  26.389  1.00  0.00     0.146 C 
HETATM    9  C6  UNL     1       9.489   5.007  26.162  1.00  0.00     0.006 C 
HETATM   10  C7  UNL     1       9.726   4.990  24.655  1.00  0.00     0.014 C 
HETATM   11  C8  UNL     1       8.816   3.813  24.264  1.00  0.00     0.027 C 
HETATM   12  C9  UNL     1       7.398   4.272  24.595  1.00  0.00     0.148 C 
HETATM   13  C10 UNL     1       9.322   2.796  25.279  1.00  0.00     0.089 C 
HETATM   14  C12 UNL     1       9.193   3.563  26.560  1.00  0.00     0.032 C 
ENDROOT
BRANCH   1  15
HETATM   15  C3  UNL     1       4.918   8.436  25.348  1.00  0.00     0.164 C 
BRANCH  15  16
HETATM   16  C2  UNL     1       3.625   7.715  25.241  1.00  0.00    -0.017 C 
HETATM   17  C1  UNL     1       2.591   8.007  26.020  1.00  0.00     0.008 C 
ENDBRANCH  15  16
ENDBRANCH   1  15
BRANCH  13  18
HETATM   18  N4  UNL     1       8.642   1.551  25.229  1.00  0.00    -0.362 N 
HETATM   19  C11 UNL     1       9.172   0.580  24.543  1.00  0.00     0.197 C 
HETATM   20  N5  UNL     1      10.411   0.754  23.856  1.00  0.00    -0.067 NA
HETATM   21  N6  UNL     1       8.569  -0.689  24.432  1.00  0.00    -0.067 NA
ATOM     22  H4  UNL     1       7.758   1.420  25.721  1.00  0.00     0.162 HD
ENDBRANCH  13  18
TORSDOF 3
ENDMDL
MODEL 3
REMARK VINA RESULT: -6.025123908      2.036      3.029
REMARK  3 active torsions:
REMARK  status: ('A' for Active; 'I' for Inactive)
REMARK    1  A    between atoms: C2_2  and  C3_3 
REMARK    2  A    between atoms: C3_3  and  N1_4 
REMARK       I    between atoms: N1_4  and  C4_6 
REMARK       I    between atoms: C4_6  and  N3_10 
REMARK    3  A    between atoms: C10_16  and  N4_17 
ROOT
HETATM    1  N1  UNL     1       8.990   1.634  25.133  1.00  0.00    -0.223 N 
ATOM      2  H1  UNL     1       9.596   1.648  24.313  1.00  0.00     0.178 HD
HETATM    3  C4  UNL     1       8.561   2.866  25.626  1.00  0.00     0.669 C 
HETATM    4  N2  UNL     1       8.111   3.019  26.822  1.00  0.00    -0.235 N 
ATOM      5  H21 UNL     1       7.798   3.921  27.182  1.00  0.00     0.174 HD
ATOM      6  H22 UNL     1       8.077   2.175  27.394  1.00  0.00     0.174 HD
HETATM    7  N3  UNL     1       8.610   4.055  24.821  1.00  0.00    -0.218 N 
HETATM    8  C5  UNL     1       9.810   4.192  23.980  1.00  0.00     0.146 C 
HETATM    9  C6  UNL     1      10.129   5.681  23.977  1.00  0.00     0.006 C 
HETATM   10  C7  UNL     1       9.691   6.219  25.336  1.00  0.00     0.014 C 
HETATM   11  C8  UNL     1       8.199   6.458  25.050  1.00  0.00     0.027 C 
HETATM   12  C9  UNL     1       7.611   5.073  24.790  1.00  0.00     0.148 C 
HETATM   13  C10 UNL     1       8.345   7.253  23.759  1.00  0.00     0.089 C 
HETATM   14  C12 UNL     1       9.217   6.343  22.946  1.00  0.00     0.032 C 
ENDROOT
BRANCH   1  15
HETATM   15  C3  UNL     1       8.658   0.364  25.672  1.00  0.00     0.164 C 
BRANCH  15  16
HETATM   16  C2  UNL     1       8.516  -0.654  24.602  1.00  0.00    -0.017 C 
HETATM   17  C1  UNL     1       8.946  -0.439  23.365  1.00  0.00     0.008 C 
ENDBRANCH  15  16
ENDBRANCH   1  15
BRANCH  13  18
HETATM   18  N4  UNL     1       7.107   7.617  23.168  1.00  0.00    -0.362 N 
HETATM   19  C11 UNL     1       6.689   8.842  23.305  1.00  0.00     0.197 C 
HETATM   20  N5  UNL     1       7.455   9.805  24.031  1.00  0.00    -0.067 NA
HETATM   21  N6  UNL     1       5.472   9.295  22.759  1.00  0.00    -0.067 NA
ATOM     22  H4  UNL     1       6.557   6.934  22.647  1.00  0.00     0.162 HD
ENDBRANCH  13  18
TORSDOF 3
ENDMDL
MODEL 4
REMARK VINA RESULT: -6.010512058      2.458      3.370
REMARK  3 active torsions:
REMARK  status: ('A' for Active; 'I' for Inactive)
REMARK    1  A    between atoms: C2_2  and  C3_3 
REMARK    2  A    between atoms: C3_3  and  N1_4 
REMARK       I    between atoms: N1_4  and  C4_6 
REMARK       I    between atoms: C4_6  and  N3_10 
REMARK    3  A    between atoms: C10_16  and  N4_17 
ROOT
HETATM    1  N1  UNL     1       9.591   1.827  23.895  1.00  0.00    -0.223 N 
ATOM      2  H1  UNL     1       9.827   2.077  22.935  1.00  0.00     0.178 HD
HETATM    3  C4  UNL     1       9.081   2.839  24.709  1.00  0.00     0.669 C 
HETATM    4  N2  UNL     1       9.081   2.766  25.993  1.00  0.00    -0.235 N 
ATOM      5  H21 UNL     1       8.708   3.506  26.587  1.00  0.00     0.174 HD
ATOM      6  H22 UNL     1       9.472   1.910  26.388  1.00  0.00     0.174 HD
HETATM    7  N3  UNL     1       8.531   4.044  24.152  1.00  0.00    -0.218 N 
HETATM    8  C5  UNL     1       9.261   4.589  22.996  1.00  0.00     0.146 C 
HETATM    9  C6  UNL     1       9.174   6.102  23.145  1.00  0.00     0.006 C 
HETATM   10  C7  UNL     1       9.149   6.387  24.644  1.00  0.00     0.014 C 
HETATM   11  C8  UNL     1       7.648   6.195  24.918  1.00  0.00     0.027 C 
HETATM   12  C9  UNL     1       7.371   4.721  24.632  1.00  0.00     0.148 C 
HETATM   13  C10 UNL     1       7.104   7.088  23.810  1.00  0.00     0.089 C 
HETATM   14  C12 UNL     1       7.812   6.537  22.608  1.00  0.00     0.032 C 
ENDROOT
BRANCH   1  15
HETATM   15  C3  UNL     1       9.809   0.480  24.285  1.00  0.00     0.164 C 
BRANCH  15  16
HETATM   16  C2  UNL     1       8.534  -0.277  24.346  1.00  0.00    -0.017 C 
HETATM   17  C1  UNL     1       8.125  -0.876  25.457  1.00  0.00     0.008 C 
ENDBRANCH  15  16
ENDBRANCH   1  15
BRANCH  13  18
HETATM   18  N4  UNL     1       5.686   7.112  23.738  1.00  0.00    -0.362 N 
HETATM   19  C11 UNL     1       5.100   8.223  23.400  1.00  0.00     0.197 C 
HETATM   20  N5  UNL     1       5.859   9.396  23.102  1.00  0.00    -0.067 NA
HETATM   21  N6  UNL     1       3.699   8.345  23.306  1.00  0.00    -0.067 NA
ATOM     22  H4  UNL     1       5.140   6.277  23.947  1.00  0.00     0.162 HD
ENDBRANCH  13  18
TORSDOF 3
ENDMDL
MODEL 5
REMARK VINA RESULT: -5.880180282      1.830      2.144
REMARK  3 active torsions:
REMARK  status: ('A' for Active; 'I' for Inactive)
REMARK    1  A    between atoms: C2_2  and  C3_3 
REMARK    2  A    between atoms: C3_3  and  N1_4 
REMARK       I    between atoms: N1_4  and  C4_6 
REMARK       I    between atoms: C4_6  and  N3_10 
REMARK    3  A    between atoms: C10_16  and  N4_17 
ROOT
HETATM    1  N1  UNL     1       8.510   0.836  25.798  1.00  0.00    -0.223 N 
ATOM      2  H1  UNL     1       8.271   1.400  26.613  1.00  0.00     0.178 HD
HETATM    3  C4  UNL     1       8.848   1.519  24.630  1.00  0.00     0.669 C 
HETATM    4  N2  UNL     1       8.818   0.967  23.468  1.00  0.00    -0.235 N 
ATOM      5  H21 UNL     1       9.065   1.467  22.614  1.00  0.00     0.174 HD
ATOM      6  H22 UNL     1       8.538  -0.013  23.450  1.00  0.00     0.174 HD
HETATM    7  N3  UNL     1       9.241   2.901  24.655  1.00  0.00    -0.218 N 
HETATM    8  C5  UNL     1       8.478   3.751  25.583  1.00  0.00     0.146 C 
HETATM    9  C6  UNL     1       8.348   5.095  24.879  1.00  0.00     0.006 C 
HETATM   10  C7  UNL     1       8.286   4.795  23.384  1.00  0.00     0.014 C 
HETATM   11  C8  UNL     1       9.790   4.693  23.080  1.00  0.00     0.027 C 
HETATM   12  C9  UNL     1      10.279   3.479  23.866  1.00  0.00     0.148 C 
HETATM   13  C10 UNL     1      10.238   5.995  23.731  1.00  0.00     0.089 C 
HETATM   14  C12 UNL     1       9.652   5.858  25.104  1.00  0.00     0.032 C 
ENDROOT
BRANCH   1  15
HETATM   15  C3  UNL     1       8.470  -0.574  25.953  1.00  0.00     0.164 C 
BRANCH  15  16
HETATM   16  C2  UNL     1       7.074  -1.075  25.973  1.00  0.00    -0.017 C 
HETATM   17  C1  UNL     1       6.460  -1.400  27.103  1.00  0.00     0.008 C 
ENDBRANCH  15  16
ENDBRANCH   1  15
BRANCH  13  18
HETATM   18  N4  UNL     1      11.640   6.211  23.673  1.00  0.00    -0.362 N 
HETATM   19  C11 UNL     1      12.088   7.184  22.935  1.00  0.00     0.197 C 
HETATM   20  N5  UNL     1      11.196   8.023  22.198  1.00  0.00    -0.067 NA
HETATM   21  N6  UNL     1      13.462   7.473  22.811  1.00  0.00    -0.067 NA
ATOM     22  H4  UNL     1      12.281   5.618  24.199  1.00  0.00     0.162 HD
ENDBRANCH  13  18
TORSDOF 3
ENDMDL
