MODEL 1
REMARK VINA RESULT: -6.580384375      0.000      0.000
REMARK  4 active torsions:
REMARK  status: ('A' for Active; 'I' for Inactive)
REMARK    1  A    between atoms: C3_4  and  C4_5 
REMARK    2  A    between atoms: C4_5  and  N2_9 
REMARK       I    between atoms: C5_11  and  N3_12 
REMARK       I    between atoms: C5_11  and  N4_20 
REMARK    3  A    between atoms: N3_12  and  C6_14 
REMARK    4  A    between atoms: N4_20  and  C12_22 
ROOT
HETATM    1  N2  UNL     1      42.668  -0.969  28.620  1.00  0.00    -0.178 N 
ATOM      2  H2  UNL     1      42.174  -0.161  28.242  1.00  0.00     0.185 HD
HETATM    3  C5  UNL     1      42.091  -1.627  29.547  1.00  0.00     0.676 C 
HETATM    4  N3  UNL     1      40.804  -1.169  29.967  1.00  0.00    -0.222 N 
ATOM      5  H3  UNL     1      40.018  -1.277  29.326  1.00  0.00     0.178 HD
HETATM    6  N4  UNL     1      42.652  -2.773  30.174  1.00  0.00    -0.222 N 
ATOM      7  H4  UNL     1      43.180  -2.673  31.041  1.00  0.00     0.178 HD
ENDROOT
BRANCH   1   8
HETATM    8  C4  UNL     1      43.941  -1.270  28.074  1.00  0.00     0.115 C 
HETATM    9  N1  UNL     1      44.947  -0.647  28.534  1.00  0.00    -0.385 N 
ATOM     10  H12 UNL     1      45.863  -0.864  28.142  1.00  0.00     0.157 HD
ATOM     11  H11 UNL     1      44.839   0.048  29.272  1.00  0.00     0.157 HD
BRANCH   8  12
HETATM   12  C3  UNL     1      44.094  -2.255  27.029  1.00  0.00     0.062 C 
HETATM   13  C2  UNL     1      44.044  -2.023  25.759  1.00  0.00    -0.012 C 
HETATM   14  C1  UNL     1      43.818  -0.697  25.177  1.00  0.00     0.056 C 
HETATM   15 BR1  UNL     1      44.273  -3.486  24.535  1.00  0.00    -0.056 Br
ENDBRANCH   8  12
ENDBRANCH   1   8
BRANCH   4  16
HETATM   16  C6  UNL     1      40.564  -0.563  31.250  1.00  0.00     0.099 C 
HETATM   17  C7  UNL     1      39.372   0.338  31.281  1.00  0.00     0.026 C 
HETATM   18  C8  UNL     1      38.144  -0.313  31.877  1.00  0.00     0.002 C 
HETATM   19  C9  UNL     1      38.161  -1.773  31.467  1.00  0.00     0.000 C 
HETATM   20  C10 UNL     1      39.253  -2.446  32.257  1.00  0.00     0.002 C 
HETATM   21  C11 UNL     1      40.519  -1.648  32.296  1.00  0.00     0.026 C 
ENDBRANCH   4  16
BRANCH   6  22
HETATM   22  C12 UNL     1      42.473  -4.092  29.574  1.00  0.00     0.099 C 
HETATM   23  C13 UNL     1      43.555  -5.044  30.035  1.00  0.00     0.026 C 
HETATM   24  C14 UNL     1      42.828  -6.387  29.890  1.00  0.00     0.002 C 
HETATM   25  C15 UNL     1      41.533  -6.071  30.608  1.00  0.00     0.002 C 
HETATM   26  C16 UNL     1      41.160  -4.725  29.996  1.00  0.00     0.026 C 
ENDBRANCH   6  22
TORSDOF 4
ENDMDL
MODEL 2
REMARK VINA RESULT: -5.932159534      2.877      5.697
REMARK  4 active torsions:
REMARK  status: ('A' for Active; 'I' for Inactive)
REMARK    1  A    between atoms: C3_4  and  C4_5 
REMARK    2  A    between atoms: C4_5  and  N2_9 
REMARK       I    between atoms: C5_11  and  N3_12 
REMARK       I    between atoms: C5_11  and  N4_20 
REMARK    3  A    between atoms: N3_12  and  C6_14 
REMARK    4  A    between atoms: N4_20  and  C12_22 
ROOT
HETATM    1  N2  UNL     1      41.547  -2.813  30.513  1.00  0.00    -0.178 N 
ATOM      2  H2  UNL     1      40.794  -3.241  31.051  1.00  0.00     0.185 HD
HETATM    3  C5  UNL     1      42.248  -3.579  29.773  1.00  0.00     0.676 C 
HETATM    4  N3  UNL     1      41.909  -4.968  29.768  1.00  0.00    -0.222 N 
ATOM      5  H3  UNL     1      41.034  -5.252  29.328  1.00  0.00     0.178 HD
HETATM    6  N4  UNL     1      43.330  -3.132  28.967  1.00  0.00    -0.222 N 
ATOM      7  H4  UNL     1      44.284  -3.172  29.326  1.00  0.00     0.178 HD
ENDROOT
BRANCH   1   8
HETATM    8  C4  UNL     1      41.732  -1.413  30.647  1.00  0.00     0.115 C 
HETATM    9  N1  UNL     1      41.026  -0.649  29.920  1.00  0.00    -0.385 N 
ATOM     10  H12 UNL     1      41.159   0.358  30.016  1.00  0.00     0.157 HD
ATOM     11  H11 UNL     1      40.349  -1.032  29.261  1.00  0.00     0.157 HD
BRANCH   8  12
HETATM   12  C3  UNL     1      42.691  -0.871  31.580  1.00  0.00     0.062 C 
HETATM   13  C2  UNL     1      42.442  -0.503  32.793  1.00  0.00    -0.012 C 
HETATM   14  C1  UNL     1      41.117  -0.583  33.416  1.00  0.00     0.056 C 
HETATM   15 BR1  UNL     1      43.872   0.197  33.868  1.00  0.00    -0.056 Br
ENDBRANCH   8  12
ENDBRANCH   1   8
BRANCH   4  16
HETATM   16  C6  UNL     1      42.742  -5.984  30.354  1.00  0.00     0.099 C 
HETATM   17  C7  UNL     1      43.398  -5.568  31.631  1.00  0.00     0.026 C 
HETATM   18  C8  UNL     1      42.695  -6.088  32.864  1.00  0.00     0.002 C 
HETATM   19  C9  UNL     1      41.207  -6.085  32.572  1.00  0.00     0.000 C 
HETATM   20  C10 UNL     1      40.940  -7.202  31.598  1.00  0.00     0.002 C 
HETATM   21  C11 UNL     1      41.938  -7.254  30.483  1.00  0.00     0.026 C 
ENDBRANCH   4  16
BRANCH   6  22
HETATM   22  C12 UNL     1      43.074  -2.614  27.626  1.00  0.00     0.099 C 
HETATM   23  C13 UNL     1      43.740  -1.269  27.432  1.00  0.00     0.026 C 
HETATM   24  C14 UNL     1      43.936  -1.270  25.910  1.00  0.00     0.002 C 
HETATM   25  C15 UNL     1      44.572  -2.632  25.723  1.00  0.00     0.002 C 
HETATM   26  C16 UNL     1      43.654  -3.520  26.556  1.00  0.00     0.026 C 
ENDBRANCH   6  22
TORSDOF 4
ENDMDL
MODEL 3
REMARK VINA RESULT: -5.776466014      0.784      1.015
REMARK  4 active torsions:
REMARK  status: ('A' for Active; 'I' for Inactive)
REMARK    1  A    between atoms: C3_4  and  C4_5 
REMARK    2  A    between atoms: C4_5  and  N2_9 
REMARK       I    between atoms: C5_11  and  N3_12 
REMARK       I    between atoms: C5_11  and  N4_20 
REMARK    3  A    between atoms: N3_12  and  C6_14 
REMARK    4  A    between atoms: N4_20  and  C12_22 
ROOT
HETATM    1  N2  UNL     1      42.448  -1.762  28.963  1.00  0.00    -0.178 N 
ATOM      2  H2  UNL     1      41.671  -1.170  28.670  1.00  0.00     0.185 HD
HETATM    3  C5  UNL     1      42.261  -2.520  29.971  1.00  0.00     0.676 C 
HETATM    4  N3  UNL     1      40.976  -2.468  30.594  1.00  0.00    -0.222 N 
ATOM      5  H3  UNL     1      40.176  -2.849  30.090  1.00  0.00     0.178 HD
HETATM    6  N4  UNL     1      43.246  -3.398  30.497  1.00  0.00    -0.222 N 
ATOM      7  H4  UNL     1      43.842  -3.094  31.268  1.00  0.00     0.178 HD
ENDROOT
BRANCH   1   8
HETATM    8  C4  UNL     1      43.652  -1.677  28.217  1.00  0.00     0.115 C 
HETATM    9  N1  UNL     1      44.518  -0.824  28.584  1.00  0.00    -0.385 N 
ATOM     10  H12 UNL     1      45.384  -0.762  28.048  1.00  0.00     0.157 HD
ATOM     11  H11 UNL     1      44.351  -0.221  29.390  1.00  0.00     0.157 HD
BRANCH   8  12
HETATM   12  C3  UNL     1      43.889  -2.530  27.077  1.00  0.00     0.062 C 
HETATM   13  C2  UNL     1      43.960  -2.145  25.846  1.00  0.00    -0.012 C 
HETATM   14  C1  UNL     1      43.806  -0.753  25.414  1.00  0.00     0.056 C 
HETATM   15 BR1  UNL     1      44.283  -3.454  24.478  1.00  0.00    -0.056 Br
ENDBRANCH   8  12
ENDBRANCH   1   8
BRANCH   4  16
HETATM   16  C6  UNL     1      40.756  -1.903  31.900  1.00  0.00     0.099 C 
HETATM   17  C7  UNL     1      40.650  -0.412  31.905  1.00  0.00     0.026 C 
HETATM   18  C8  UNL     1      39.224   0.087  31.959  1.00  0.00     0.002 C 
HETATM   19  C9  UNL     1      38.376  -0.875  31.148  1.00  0.00     0.000 C 
HETATM   20  C10 UNL     1      38.263  -2.149  31.943  1.00  0.00     0.002 C 
HETATM   21  C11 UNL     1      39.569  -2.588  32.529  1.00  0.00     0.026 C 
ENDBRANCH   4  16
BRANCH   6  22
HETATM   22  C12 UNL     1      43.405  -4.736  29.934  1.00  0.00     0.099 C 
HETATM   23  C13 UNL     1      43.772  -5.733  31.012  1.00  0.00     0.026 C 
HETATM   24  C14 UNL     1      43.222  -7.027  30.396  1.00  0.00     0.002 C 
HETATM   25  C15 UNL     1      41.828  -6.573  30.017  1.00  0.00     0.002 C 
HETATM   26  C16 UNL     1      42.112  -5.244  29.325  1.00  0.00     0.026 C 
ENDBRANCH   6  22
TORSDOF 4
ENDMDL
MODEL 4
REMARK VINA RESULT: -5.677566231      2.344      4.768
REMARK  4 active torsions:
REMARK  status: ('A' for Active; 'I' for Inactive)
REMARK    1  A    between atoms: C3_4  and  C4_5 
REMARK    2  A    between atoms: C4_5  and  N2_9 
REMARK       I    between atoms: C5_11  and  N3_12 
REMARK       I    between atoms: C5_11  and  N4_20 
REMARK    3  A    between atoms: N3_12  and  C6_14 
REMARK    4  A    between atoms: N4_20  and  C12_22 
ROOT
HETATM    1  N2  UNL     1      41.583  -4.207  30.520  1.00  0.00    -0.178 N 
ATOM      2  H2  UNL     1      41.353  -4.082  31.505  1.00  0.00     0.185 HD
HETATM    3  C5  UNL     1      41.497  -3.185  29.764  1.00  0.00     0.676 C 
HETATM    4  N3  UNL     1      41.085  -1.958  30.372  1.00  0.00    -0.222 N 
ATOM      5  H3  UNL     1      41.727  -1.496  31.015  1.00  0.00     0.178 HD
HETATM    6  N4  UNL     1      41.783  -3.200  28.371  1.00  0.00    -0.222 N 
ATOM      7  H4  UNL     1      41.030  -3.337  27.697  1.00  0.00     0.178 HD
ENDROOT
BRANCH   1   8
HETATM    8  C4  UNL     1      41.973  -5.504  30.098  1.00  0.00     0.115 C 
HETATM    9  N1  UNL     1      41.126  -6.201  29.460  1.00  0.00    -0.385 N 
ATOM     10  H12 UNL     1      41.406  -7.134  29.157  1.00  0.00     0.157 HD
ATOM     11  H11 UNL     1      40.195  -5.837  29.259  1.00  0.00     0.157 HD
BRANCH   8  12
HETATM   12  C3  UNL     1      43.292  -6.018  30.384  1.00  0.00     0.062 C 
HETATM   13  C2  UNL     1      43.659  -6.591  31.481  1.00  0.00    -0.012 C 
HETATM   14  C1  UNL     1      42.771  -6.809  32.627  1.00  0.00     0.056 C 
HETATM   15 BR1  UNL     1      45.472  -7.204  31.652  1.00  0.00    -0.056 Br
ENDBRANCH   8  12
ENDBRANCH   1   8
BRANCH   4  16
HETATM   16  C6  UNL     1      39.808  -1.344  30.121  1.00  0.00     0.099 C 
HETATM   17  C7  UNL     1      38.640  -2.221  30.437  1.00  0.00     0.026 C 
HETATM   18  C8  UNL     1      38.004  -1.914  31.774  1.00  0.00     0.002 C 
HETATM   19  C9  UNL     1      39.117  -1.515  32.724  1.00  0.00     0.000 C 
HETATM   20  C10 UNL     1      39.589  -0.146  32.310  1.00  0.00     0.002 C 
HETATM   21  C11 UNL     1      39.764  -0.013  30.830  1.00  0.00     0.026 C 
ENDBRANCH   4  16
BRANCH   6  22
HETATM   22  C12 UNL     1      43.156  -3.019  27.908  1.00  0.00     0.099 C 
HETATM   23  C13 UNL     1      43.353  -3.656  26.550  1.00  0.00     0.026 C 
HETATM   24  C14 UNL     1      44.507  -2.803  26.005  1.00  0.00     0.002 C 
HETATM   25  C15 UNL     1      43.970  -1.415  26.286  1.00  0.00     0.002 C 
HETATM   26  C16 UNL     1      43.497  -1.552  27.729  1.00  0.00     0.026 C 
ENDBRANCH   6  22
TORSDOF 4
ENDMDL
MODEL 5
REMARK VINA RESULT: -5.669250769      2.427      4.931
REMARK  4 active torsions:
REMARK  status: ('A' for Active; 'I' for Inactive)
REMARK    1  A    between atoms: C3_4  and  C4_5 
REMARK    2  A    between atoms: C4_5  and  N2_9 
REMARK       I    between atoms: C5_11  and  N3_12 
REMARK       I    between atoms: C5_11  and  N4_20 
REMARK    3  A    between atoms: N3_12  and  C6_14 
REMARK    4  A    between atoms: N4_20  and  C12_22 
ROOT
HETATM    1  N2  UNL     1      42.772  -4.028  30.757  1.00  0.00    -0.178 N 
ATOM      2  H2  UNL     1      42.951  -4.162  31.751  1.00  0.00     0.185 HD
HETATM    3  C5  UNL     1      42.985  -2.869  30.273  1.00  0.00     0.676 C 
HETATM    4  N3  UNL     1      43.456  -1.864  31.174  1.00  0.00    -0.222 N 
ATOM      5  H3  UNL     1      44.405  -1.945  31.539  1.00  0.00     0.178 HD
HETATM    6  N4  UNL     1      42.781  -2.528  28.908  1.00  0.00    -0.222 N 
ATOM      7  H4  UNL     1      41.897  -2.115  28.611  1.00  0.00     0.178 HD
ENDROOT
BRANCH   1   8
HETATM    8  C4  UNL     1      42.307  -5.148  30.021  1.00  0.00     0.115 C 
HETATM    9  N1  UNL     1      41.169  -5.060  29.464  1.00  0.00    -0.385 N 
ATOM     10  H12 UNL     1      40.834  -5.865  28.935  1.00  0.00     0.157 HD
ATOM     11  H11 UNL     1      40.611  -4.211  29.545  1.00  0.00     0.157 HD
BRANCH   8  12
HETATM   12  C3  UNL     1      43.098  -6.350  29.905  1.00  0.00     0.062 C 
HETATM   13  C2  UNL     1      43.147  -7.309  30.770  1.00  0.00    -0.012 C 
HETATM   14  C1  UNL     1      42.390  -7.319  32.025  1.00  0.00     0.056 C 
HETATM   15 BR1  UNL     1      44.272  -8.825  30.417  1.00  0.00    -0.056 Br
ENDBRANCH   8  12
ENDBRANCH   1   8
BRANCH   4  16
HETATM   16  C6  UNL     1      42.656  -0.743  31.592  1.00  0.00     0.099 C 
HETATM   17  C7  UNL     1      41.191  -1.033  31.654  1.00  0.00     0.026 C 
HETATM   18  C8  UNL     1      40.695  -1.315  33.054  1.00  0.00     0.002 C 
HETATM   19  C9  UNL     1      41.795  -2.063  33.782  1.00  0.00     0.000 C 
HETATM   20  C10 UNL     1      42.897  -1.076  34.063  1.00  0.00     0.002 C 
HETATM   21  C11 UNL     1      43.214  -0.206  32.887  1.00  0.00     0.026 C 
ENDBRANCH   4  16
BRANCH   6  22
HETATM   22  C12 UNL     1      43.840  -2.770  27.931  1.00  0.00     0.099 C 
HETATM   23  C13 UNL     1      43.341  -3.648  26.805  1.00  0.00     0.026 C 
HETATM   24  C14 UNL     1      44.276  -3.207  25.670  1.00  0.00     0.002 C 
HETATM   25  C15 UNL     1      44.136  -1.703  25.777  1.00  0.00     0.002 C 
HETATM   26  C16 UNL     1      44.302  -1.482  27.276  1.00  0.00     0.026 C 
ENDBRANCH   6  22
TORSDOF 4
ENDMDL
