MODEL 1
REMARK VINA RESULT: -9.322842252      0.000      0.000
REMARK  1 active torsions:
REMARK  status: ('A' for Active; 'I' for Inactive)
REMARK    1  A    between atoms: C2_2  and  N4_10 
REMARK       I    between atoms: N1_3  and  C3_5 
ROOT
HETATM    1  N4  UNL     1       1.559  67.578  64.906  1.00  0.00    -0.345 N 
HETATM    2  C4  UNL     1       1.467  67.704  63.479  1.00  0.00     0.165 C 
HETATM    3  C5  UNL     1       2.656  68.508  63.031  1.00  0.00     0.333 C 
HETATM    4  N5  UNL     1       3.917  67.974  63.442  1.00  0.00     0.025 N 
HETATM    5  C6  UNL     1       4.197  66.816  62.654  1.00  0.00     0.357 C 
HETATM    6  O1  UNL     1       4.829  68.933  63.058  1.00  0.00    -0.064 OA
HETATM    7  C7  UNL     1       4.015  67.800  64.855  1.00  0.00     0.214 C 
HETATM    8  C8  UNL     1       5.169  66.992  65.323  1.00  0.00     0.054 C 
HETATM    9  C9  UNL     1       6.360  67.835  65.043  1.00  0.00     0.003 C 
HETATM   10  C10 UNL     1       5.878  69.210  65.410  1.00  0.00     0.003 C 
HETATM   11  C11 UNL     1       4.366  69.152  65.456  1.00  0.00     0.054 C 
HETATM   12  C12 UNL     1       2.789  67.272  65.520  1.00  0.00     0.113 C 
ENDROOT
BRANCH   1  13
HETATM   13  C2  UNL     1       0.402  67.763  65.690  1.00  0.00     0.081 C 
HETATM   14  C1  UNL     1       0.536  68.255  67.103  1.00  0.00     0.089 C 
HETATM   15  N1  UNL     1      -0.767  67.514  65.211  1.00  0.00    -0.321 N 
HETATM   16  C3  UNL     1      -1.917  67.703  66.005  1.00  0.00     0.187 C 
ATOM     17  H1  UNL     1      -0.861  67.180  64.252  1.00  0.00     0.169 HD
HETATM   18  N2  UNL     1      -2.719  68.663  65.765  1.00  0.00    -0.373 N 
HETATM   19  N3  UNL     1      -2.180  66.818  67.077  1.00  0.00    -0.064 NA
ATOM     20  H22 UNL     1      -2.530  69.301  64.992  1.00  0.00     0.158 HD
ATOM     21  H21 UNL     1      -3.551  68.800  66.339  1.00  0.00     0.158 HD
ENDBRANCH   1  13
TORSDOF 1
ENDMDL
MODEL 2
REMARK VINA RESULT: -8.899217357      1.376      2.171
REMARK  1 active torsions:
REMARK  status: ('A' for Active; 'I' for Inactive)
REMARK    1  A    between atoms: C2_2  and  N4_10 
REMARK       I    between atoms: N1_3  and  C3_5 
ROOT
HETATM    1  N4  UNL     1       2.167  67.419  65.653  1.00  0.00    -0.345 N 
HETATM    2  C4  UNL     1       2.664  66.080  65.789  1.00  0.00     0.165 C 
HETATM    3  C5  UNL     1       3.308  65.714  64.480  1.00  0.00     0.333 C 
HETATM    4  N5  UNL     1       4.326  66.623  64.050  1.00  0.00     0.025 N 
HETATM    5  C6  UNL     1       5.483  66.424  64.862  1.00  0.00     0.357 C 
HETATM    6  O1  UNL     1       4.658  66.181  62.787  1.00  0.00    -0.064 OA
HETATM    7  C7  UNL     1       3.864  67.969  63.949  1.00  0.00     0.214 C 
HETATM    8  C8  UNL     1       4.922  68.999  63.790  1.00  0.00     0.054 C 
HETATM    9  C9  UNL     1       5.472  68.769  62.429  1.00  0.00     0.003 C 
HETATM   10  C10 UNL     1       4.240  68.460  61.628  1.00  0.00     0.003 C 
HETATM   11  C11 UNL     1       3.148  68.105  62.615  1.00  0.00     0.054 C 
HETATM   12  C12 UNL     1       2.953  68.416  65.042  1.00  0.00     0.113 C 
ENDROOT
BRANCH   1  13
HETATM   13  C2  UNL     1       0.881  67.730  66.139  1.00  0.00     0.081 C 
HETATM   14  C1  UNL     1       0.740  68.474  67.437  1.00  0.00     0.089 C 
HETATM   15  N1  UNL     1      -0.172  67.384  65.486  1.00  0.00    -0.321 N 
HETATM   16  C3  UNL     1      -1.454  67.700  65.984  1.00  0.00     0.187 C 
ATOM     17  H1  UNL     1      -0.080  66.878  64.605  1.00  0.00     0.169 HD
HETATM   18  N2  UNL     1      -2.167  68.590  65.415  1.00  0.00    -0.373 N 
HETATM   19  N3  UNL     1      -1.950  67.023  67.122  1.00  0.00    -0.064 NA
ATOM     20  H22 UNL     1      -1.810  69.079  64.594  1.00  0.00     0.158 HD
ATOM     21  H21 UNL     1      -3.094  68.819  65.775  1.00  0.00     0.158 HD
ENDBRANCH   1  13
TORSDOF 1
ENDMDL
MODEL 3
REMARK VINA RESULT: -8.250947897      0.995      1.424
REMARK  1 active torsions:
REMARK  status: ('A' for Active; 'I' for Inactive)
REMARK    1  A    between atoms: C2_2  and  N4_10 
REMARK       I    between atoms: N1_3  and  C3_5 
ROOT
HETATM    1  N4  UNL     1       2.037  67.631  63.968  1.00  0.00    -0.345 N 
HETATM    2  C4  UNL     1       2.283  67.824  62.567  1.00  0.00     0.165 C 
HETATM    3  C5  UNL     1       3.535  68.647  62.449  1.00  0.00     0.333 C 
HETATM    4  N5  UNL     1       4.670  68.094  63.122  1.00  0.00     0.025 N 
HETATM    5  C6  UNL     1       5.140  66.974  62.370  1.00  0.00     0.357 C 
HETATM    6  O1  UNL     1       5.636  69.070  63.009  1.00  0.00    -0.064 OA
HETATM    7  C7  UNL     1       4.433  67.854  64.508  1.00  0.00     0.214 C 
HETATM    8  C8  UNL     1       5.453  67.024  65.198  1.00  0.00     0.054 C 
HETATM    9  C9  UNL     1       6.667  67.879  65.246  1.00  0.00     0.003 C 
HETATM   10  C10 UNL     1       6.098  69.235  65.552  1.00  0.00     0.003 C 
HETATM   11  C11 UNL     1       4.619  69.175  65.236  1.00  0.00     0.054 C 
HETATM   12  C12 UNL     1       3.090  67.296  64.840  1.00  0.00     0.113 C 
ENDROOT
BRANCH   1  13
HETATM   13  C2  UNL     1       0.725  67.779  64.464  1.00  0.00     0.081 C 
HETATM   14  C1  UNL     1      -0.351  68.316  63.564  1.00  0.00     0.089 C 
HETATM   15  N1  UNL     1       0.440  67.461  65.678  1.00  0.00    -0.321 N 
HETATM   16  C3  UNL     1      -0.876  67.614  66.163  1.00  0.00     0.187 C 
ATOM     17  H1  UNL     1       1.168  67.096  66.292  1.00  0.00     0.169 HD
HETATM   18  N2  UNL     1      -1.603  66.593  66.395  1.00  0.00    -0.373 N 
HETATM   19  N3  UNL     1      -1.390  68.911  66.393  1.00  0.00    -0.064 NA
ATOM     20  H22 UNL     1      -1.232  65.658  66.229  1.00  0.00     0.158 HD
ATOM     21  H21 UNL     1      -2.555  66.704  66.746  1.00  0.00     0.158 HD
ENDBRANCH   1  13
TORSDOF 1
ENDMDL
MODEL 4
REMARK VINA RESULT: -7.547470240      1.243      2.455
REMARK  1 active torsions:
REMARK  status: ('A' for Active; 'I' for Inactive)
REMARK    1  A    between atoms: C2_2  and  N4_10 
REMARK       I    between atoms: N1_3  and  C3_5 
ROOT
HETATM    1  N4  UNL     1       2.004  68.368  65.247  1.00  0.00    -0.345 N 
HETATM    2  C4  UNL     1       3.091  68.988  65.949  1.00  0.00     0.165 C 
HETATM    3  C5  UNL     1       4.314  68.149  65.700  1.00  0.00     0.333 C 
HETATM    4  N5  UNL     1       4.616  67.944  64.317  1.00  0.00     0.025 N 
HETATM    5  C6  UNL     1       5.142  69.160  63.784  1.00  0.00     0.357 C 
HETATM    6  O1  UNL     1       5.659  67.044  64.332  1.00  0.00    -0.064 OA
HETATM    7  C7  UNL     1       3.533  67.367  63.589  1.00  0.00     0.214 C 
HETATM    8  C8  UNL     1       3.668  67.392  62.111  1.00  0.00     0.054 C 
HETATM    9  C9  UNL     1       4.769  66.438  61.816  1.00  0.00     0.003 C 
HETATM   10  C10 UNL     1       4.500  65.321  62.783  1.00  0.00     0.003 C 
HETATM   11  C11 UNL     1       3.565  65.868  63.841  1.00  0.00     0.054 C 
HETATM   12  C12 UNL     1       2.180  67.892  63.932  1.00  0.00     0.113 C 
ENDROOT
BRANCH   1  13
HETATM   13  C2  UNL     1       0.755  68.238  65.886  1.00  0.00     0.081 C 
HETATM   14  C1  UNL     1       0.637  68.547  67.352  1.00  0.00     0.089 C 
HETATM   15  N1  UNL     1      -0.286  67.860  65.230  1.00  0.00    -0.321 N 
HETATM   16  C3  UNL     1      -1.531  67.734  65.881  1.00  0.00     0.187 C 
ATOM     17  H1  UNL     1      -0.210  67.650  64.235  1.00  0.00     0.169 HD
HETATM   18  N2  UNL     1      -2.469  68.565  65.649  1.00  0.00    -0.373 N 
HETATM   19  N3  UNL     1      -1.737  66.678  66.798  1.00  0.00    -0.064 NA
ATOM     20  H22 UNL     1      -2.321  69.327  64.987  1.00  0.00     0.158 HD
ATOM     21  H21 UNL     1      -3.370  68.474  66.119  1.00  0.00     0.158 HD
ENDBRANCH   1  13
TORSDOF 1
ENDMDL
MODEL 5
REMARK VINA RESULT: -7.233481320      6.137      7.380
REMARK  1 active torsions:
REMARK  status: ('A' for Active; 'I' for Inactive)
REMARK    1  A    between atoms: C2_2  and  N4_10 
REMARK       I    between atoms: N1_3  and  C3_5 
ROOT
HETATM    1  N4  UNL     1       1.333  64.371  69.835  1.00  0.00    -0.345 N 
HETATM    2  C4  UNL     1       0.450  63.650  70.707  1.00  0.00     0.165 C 
HETATM    3  C5  UNL     1       0.735  62.187  70.512  1.00  0.00     0.333 C 
HETATM    4  N5  UNL     1       2.104  61.822  70.713  1.00  0.00     0.025 N 
HETATM    5  C6  UNL     1       2.380  61.857  72.113  1.00  0.00     0.357 C 
HETATM    6  O1  UNL     1       2.156  60.497  70.340  1.00  0.00    -0.064 OA
HETATM    7  C7  UNL     1       3.004  62.558  69.885  1.00  0.00     0.214 C 
HETATM    8  C8  UNL     1       4.441  62.441  70.240  1.00  0.00     0.054 C 
HETATM    9  C9  UNL     1       4.802  61.040  69.902  1.00  0.00     0.003 C 
HETATM   10  C10 UNL     1       4.061  60.815  68.614  1.00  0.00     0.003 C 
HETATM   11  C11 UNL     1       3.006  61.896  68.516  1.00  0.00     0.054 C 
HETATM   12  C12 UNL     1       2.689  64.007  69.729  1.00  0.00     0.113 C 
ENDROOT
BRANCH   1  13
HETATM   13  C2  UNL     1       0.828  65.452  69.083  1.00  0.00     0.081 C 
HETATM   14  C1  UNL     1      -0.643  65.755  69.118  1.00  0.00     0.089 C 
HETATM   15  N1  UNL     1       1.611  66.180  68.367  1.00  0.00    -0.321 N 
HETATM   16  C3  UNL     1       1.095  67.258  67.618  1.00  0.00     0.187 C 
ATOM     17  H1  UNL     1       2.611  65.976  68.341  1.00  0.00     0.169 HD
HETATM   18  N2  UNL     1       1.334  68.460  67.966  1.00  0.00    -0.373 N 
HETATM   19  N3  UNL     1       0.305  67.001  66.474  1.00  0.00    -0.064 NA
ATOM     20  H22 UNL     1       1.904  68.647  68.791  1.00  0.00     0.158 HD
ATOM     21  H21 UNL     1       0.961  69.241  67.425  1.00  0.00     0.158 HD
ENDBRANCH   1  13
TORSDOF 1
ENDMDL
