MODEL 1
REMARK VINA RESULT: -7.106894797      0.000      0.000
REMARK  2 active torsions:
REMARK  status: ('A' for Active; 'I' for Inactive)
REMARK       I    between atoms: N1_3  and  C3_5 
REMARK       I    between atoms: C3_5  and  N3_11 
REMARK    1  A    between atoms: N2_6  and  C4_8 
REMARK       I    between atoms: N3_11  and  C6_13 
REMARK       I    between atoms: C6_13  and  N4_15 
REMARK    2  A    between atoms: N4_15  and  C7_17 
ROOT
HETATM    1  C1  UNL     1       5.624  63.050  63.104  1.00  0.00     0.037 C 
HETATM    2  C2  UNL     1       4.857  63.981  63.102  1.00  0.00     0.015 C 
HETATM    3  N1  UNL     1       3.954  65.074  63.079  1.00  0.00    -0.149 N 
ATOM      4  H1  UNL     1       3.079  65.031  62.556  1.00  0.00     0.195 HD
HETATM    5  C3  UNL     1       4.323  66.231  63.817  1.00  0.00     0.694 C 
HETATM    6  N2  UNL     1       5.318  66.902  63.402  1.00  0.00    -0.185 N 
ATOM      7  H2  UNL     1       5.782  66.556  62.561  1.00  0.00     0.185 HD
HETATM    8  N3  UNL     1       3.553  66.553  64.966  1.00  0.00    -0.140 N 
ATOM      9  H3  UNL     1       3.811  67.381  65.503  1.00  0.00     0.189 HD
HETATM   10  C6  UNL     1       2.452  65.792  65.406  1.00  0.00     0.340 C 
HETATM   11  O1  UNL     1       2.074  64.746  64.787  1.00  0.00    -0.246 OA
HETATM   12  N4  UNL     1       1.751  66.204  66.569  1.00  0.00    -0.294 N 
ATOM     13  H4  UNL     1       1.871  65.676  67.433  1.00  0.00     0.172 HD
ENDROOT
BRANCH   6  14
HETATM   14  C4  UNL     1       5.845  68.062  63.970  1.00  0.00     0.090 C 
HETATM   15  C5  UNL     1       5.672  69.358  63.268  1.00  0.00     0.082 C 
HETATM   16  S1  UNL     1       6.656  68.081  65.387  1.00  0.00    -0.065 SA
ENDBRANCH   6  14
BRANCH  12  17
HETATM   17  C7  UNL     1       0.960  67.237  66.564  1.00  0.00     0.108 A 
HETATM   18  C8  UNL     1       1.096  68.241  67.479  1.00  0.00     0.049 A 
HETATM   19  C9  UNL     1       0.264  69.342  67.485  1.00  0.00     0.005 A 
HETATM   20  C10 UNL     1      -0.723  69.407  66.533  1.00  0.00     0.017 A 
HETATM   21  C11 UNL     1      -0.861  68.394  65.611  1.00  0.00     0.089 A 
HETATM   22  N5  UNL     1      -0.015  67.337  65.652  1.00  0.00    -0.352 N 
ATOM     23  H5  UNL     1      -0.124  66.591  64.964  1.00  0.00     0.166 HD
ENDBRANCH  12  17
TORSDOF 2
ENDMDL
MODEL 2
REMARK VINA RESULT: -6.739420612      3.240      3.863
REMARK  2 active torsions:
REMARK  status: ('A' for Active; 'I' for Inactive)
REMARK       I    between atoms: N1_3  and  C3_5 
REMARK       I    between atoms: C3_5  and  N3_11 
REMARK    1  A    between atoms: N2_6  and  C4_8 
REMARK       I    between atoms: N3_11  and  C6_13 
REMARK       I    between atoms: C6_13  and  N4_15 
REMARK    2  A    between atoms: N4_15  and  C7_17 
ROOT
HETATM    1  C1  UNL     1       5.936  68.912  62.478  1.00  0.00     0.037 C 
HETATM    2  C2  UNL     1       4.975  68.268  62.816  1.00  0.00     0.015 C 
HETATM    3  N1  UNL     1       3.853  67.493  63.206  1.00  0.00    -0.149 N 
ATOM      4  H1  UNL     1       3.963  66.582  63.652  1.00  0.00     0.195 HD
HETATM    5  C3  UNL     1       2.568  68.044  62.946  1.00  0.00     0.694 C 
HETATM    6  N2  UNL     1       2.210  68.155  61.732  1.00  0.00    -0.185 N 
ATOM      7  H2  UNL     1       2.878  67.838  61.029  1.00  0.00     0.185 HD
HETATM    8  N3  UNL     1       1.779  68.430  64.061  1.00  0.00    -0.140 N 
ATOM      9  H3  UNL     1       0.856  68.827  63.885  1.00  0.00     0.189 HD
HETATM   10  C6  UNL     1       2.200  68.295  65.399  1.00  0.00     0.340 C 
HETATM   11  O1  UNL     1       3.339  67.810  65.694  1.00  0.00    -0.246 OA
HETATM   12  N4  UNL     1       1.330  68.713  66.439  1.00  0.00    -0.294 N 
ATOM     13  H4  UNL     1       1.541  69.573  66.946  1.00  0.00     0.172 HD
ENDROOT
BRANCH   6  14
HETATM   14  C4  UNL     1       1.001  68.664  61.257  1.00  0.00     0.090 C 
HETATM   15  C5  UNL     1       0.606  68.402  59.850  1.00  0.00     0.082 C 
HETATM   16  S1  UNL     1      -0.025  69.545  62.170  1.00  0.00    -0.065 SA
ENDBRANCH   6  14
BRANCH  12  17
HETATM   17  C7  UNL     1       0.271  68.031  66.766  1.00  0.00     0.108 A 
HETATM   18  C8  UNL     1       0.343  66.978  67.632  1.00  0.00     0.049 A 
HETATM   19  C9  UNL     1      -0.771  66.245  67.987  1.00  0.00     0.005 A 
HETATM   20  C10 UNL     1      -1.978  66.605  67.439  1.00  0.00     0.017 A 
HETATM   21  C11 UNL     1      -2.050  67.667  66.565  1.00  0.00     0.089 A 
HETATM   22  N5  UNL     1      -0.923  68.350  66.252  1.00  0.00    -0.352 N 
ATOM     23  H5  UNL     1      -0.987  69.135  65.604  1.00  0.00     0.166 HD
ENDBRANCH  12  17
TORSDOF 2
ENDMDL
MODEL 3
REMARK VINA RESULT: -6.610754698      2.278      3.492
REMARK  2 active torsions:
REMARK  status: ('A' for Active; 'I' for Inactive)
REMARK       I    between atoms: N1_3  and  C3_5 
REMARK       I    between atoms: C3_5  and  N3_11 
REMARK    1  A    between atoms: N2_6  and  C4_8 
REMARK       I    between atoms: N3_11  and  C6_13 
REMARK       I    between atoms: C6_13  and  N4_15 
REMARK    2  A    between atoms: N4_15  and  C7_17 
ROOT
HETATM    1  C1  UNL     1       5.966  68.785  62.191  1.00  0.00     0.037 C 
HETATM    2  C2  UNL     1       5.530  68.352  63.228  1.00  0.00     0.015 C 
HETATM    3  N1  UNL     1       5.035  67.847  64.457  1.00  0.00    -0.149 N 
ATOM      4  H1  UNL     1       5.172  68.350  65.335  1.00  0.00     0.195 HD
HETATM    5  C3  UNL     1       4.339  66.608  64.411  1.00  0.00     0.694 C 
HETATM    6  N2  UNL     1       5.009  65.567  64.126  1.00  0.00    -0.185 N 
ATOM      7  H2  UNL     1       6.005  65.701  63.949  1.00  0.00     0.185 HD
HETATM    8  N3  UNL     1       2.947  66.624  64.688  1.00  0.00    -0.140 N 
ATOM      9  H3  UNL     1       2.439  65.740  64.657  1.00  0.00     0.189 HD
HETATM   10  C6  UNL     1       2.227  67.792  65.003  1.00  0.00     0.340 C 
HETATM   11  O1  UNL     1       2.794  68.931  65.058  1.00  0.00    -0.246 OA
HETATM   12  N4  UNL     1       0.835  67.694  65.262  1.00  0.00    -0.294 N 
ATOM     13  H4  UNL     1       0.175  68.033  64.562  1.00  0.00     0.172 HD
ENDROOT
BRANCH   6  14
HETATM   14  C4  UNL     1       4.530  64.261  64.028  1.00  0.00     0.090 C 
HETATM   15  C5  UNL     1       3.484  63.799  64.976  1.00  0.00     0.082 C 
HETATM   16  S1  UNL     1       5.058  63.189  62.917  1.00  0.00    -0.065 SA
ENDBRANCH   6  14
BRANCH  12  17
HETATM   17  C7  UNL     1       0.377  67.185  66.369  1.00  0.00     0.108 A 
HETATM   18  C8  UNL     1       1.175  67.032  67.465  1.00  0.00     0.049 A 
HETATM   19  C9  UNL     1       0.703  66.494  68.645  1.00  0.00     0.005 A 
HETATM   20  C10 UNL     1      -0.614  66.107  68.692  1.00  0.00     0.017 A 
HETATM   21  C11 UNL     1      -1.419  66.260  67.585  1.00  0.00     0.089 A 
HETATM   22  N5  UNL     1      -0.901  66.795  66.454  1.00  0.00    -0.352 N 
ATOM     23  H5  UNL     1      -1.506  66.905  65.640  1.00  0.00     0.166 HD
ENDBRANCH  12  17
TORSDOF 2
ENDMDL
MODEL 4
REMARK VINA RESULT: -6.431005909      2.772      3.324
REMARK  2 active torsions:
REMARK  status: ('A' for Active; 'I' for Inactive)
REMARK       I    between atoms: N1_3  and  C3_5 
REMARK       I    between atoms: C3_5  and  N3_11 
REMARK    1  A    between atoms: N2_6  and  C4_8 
REMARK       I    between atoms: N3_11  and  C6_13 
REMARK       I    between atoms: C6_13  and  N4_15 
REMARK    2  A    between atoms: N4_15  and  C7_17 
ROOT
HETATM    1  C1  UNL     1       6.425  67.650  65.205  1.00  0.00     0.037 C 
HETATM    2  C2  UNL     1       5.298  67.232  65.110  1.00  0.00     0.015 C 
HETATM    3  N1  UNL     1       3.980  66.721  64.996  1.00  0.00    -0.149 N 
ATOM      4  H1  UNL     1       3.695  65.867  65.476  1.00  0.00     0.195 HD
HETATM    5  C3  UNL     1       3.074  67.453  64.181  1.00  0.00     0.694 C 
HETATM    6  N2  UNL     1       3.292  67.475  62.930  1.00  0.00    -0.185 N 
ATOM      7  H2  UNL     1       4.110  66.961  62.602  1.00  0.00     0.185 HD
HETATM    8  N3  UNL     1       1.990  68.107  64.825  1.00  0.00    -0.140 N 
ATOM      9  H3  UNL     1       1.335  68.635  64.249  1.00  0.00     0.189 HD
HETATM   10  C6  UNL     1       1.769  68.066  66.215  1.00  0.00     0.340 C 
HETATM   11  O1  UNL     1       2.546  67.428  66.996  1.00  0.00    -0.246 OA
HETATM   12  N4  UNL     1       0.653  68.756  66.755  1.00  0.00    -0.294 N 
ATOM     13  H4  UNL     1       0.808  69.622  67.273  1.00  0.00     0.172 HD
ENDROOT
BRANCH   6  14
HETATM   14  C4  UNL     1       2.534  68.126  61.957  1.00  0.00     0.090 C 
HETATM   15  C5  UNL     1       3.167  68.480  60.661  1.00  0.00     0.082 C 
HETATM   16  S1  UNL     1       0.967  68.531  62.159  1.00  0.00    -0.065 SA
ENDBRANCH   6  14
BRANCH  12  17
HETATM   17  C7  UNL     1      -0.563  68.317  66.609  1.00  0.00     0.108 A 
HETATM   18  C8  UNL     1      -0.993  67.189  67.246  1.00  0.00     0.049 A 
HETATM   19  C9  UNL     1      -2.279  66.711  67.101  1.00  0.00     0.005 A 
HETATM   20  C10 UNL     1      -3.135  67.408  66.284  1.00  0.00     0.017 A 
HETATM   21  C11 UNL     1      -2.701  68.546  65.640  1.00  0.00     0.089 A 
HETATM   22  N5  UNL     1      -1.427  68.969  65.820  1.00  0.00    -0.352 N 
ATOM     23  H5  UNL     1      -1.115  69.812  65.339  1.00  0.00     0.166 HD
ENDBRANCH  12  17
TORSDOF 2
ENDMDL
MODEL 5
REMARK VINA RESULT: -6.404781555      2.325      3.665
REMARK  2 active torsions:
REMARK  status: ('A' for Active; 'I' for Inactive)
REMARK       I    between atoms: N1_3  and  C3_5 
REMARK       I    between atoms: C3_5  and  N3_11 
REMARK    1  A    between atoms: N2_6  and  C4_8 
REMARK       I    between atoms: N3_11  and  C6_13 
REMARK       I    between atoms: C6_13  and  N4_15 
REMARK    2  A    between atoms: N4_15  and  C7_17 
ROOT
HETATM    1  C1  UNL     1       5.907  68.776  62.239  1.00  0.00     0.037 C 
HETATM    2  C2  UNL     1       5.513  68.311  63.279  1.00  0.00     0.015 C 
HETATM    3  N1  UNL     1       5.068  67.767  64.511  1.00  0.00    -0.149 N 
ATOM      4  H1  UNL     1       5.251  68.235  65.398  1.00  0.00     0.195 HD
HETATM    5  C3  UNL     1       4.355  66.538  64.452  1.00  0.00     0.694 C 
HETATM    6  N2  UNL     1       4.998  65.500  64.099  1.00  0.00    -0.185 N 
ATOM      7  H2  UNL     1       5.986  65.629  63.881  1.00  0.00     0.185 HD
HETATM    8  N3  UNL     1       2.976  66.559  64.792  1.00  0.00    -0.140 N 
ATOM      9  H3  UNL     1       2.456  65.683  64.752  1.00  0.00     0.189 HD
HETATM   10  C6  UNL     1       2.287  67.724  65.181  1.00  0.00     0.340 C 
HETATM   11  O1  UNL     1       2.870  68.853  65.252  1.00  0.00    -0.246 OA
HETATM   12  N4  UNL     1       0.907  67.632  65.500  1.00  0.00    -0.294 N 
ATOM     13  H4  UNL     1       0.220  68.004  64.843  1.00  0.00     0.172 HD
ENDROOT
BRANCH   6  14
HETATM   14  C4  UNL     1       4.497  64.204  63.976  1.00  0.00     0.090 C 
HETATM   15  C5  UNL     1       3.375  63.774  64.848  1.00  0.00     0.082 C 
HETATM   16  S1  UNL     1       5.081  63.111  62.915  1.00  0.00    -0.065 SA
ENDBRANCH   6  14
BRANCH  12  17
HETATM   17  C7  UNL     1       0.492  67.088  66.607  1.00  0.00     0.108 A 
HETATM   18  C8  UNL     1      -0.827  66.803  66.809  1.00  0.00     0.049 A 
HETATM   19  C9  UNL     1      -1.281  66.226  67.977  1.00  0.00     0.005 A 
HETATM   20  C10 UNL     1      -0.358  65.939  68.952  1.00  0.00     0.017 A 
HETATM   21  C11 UNL     1       0.973  66.226  68.749  1.00  0.00     0.089 A 
HETATM   22  N5  UNL     1       1.362  66.793  67.582  1.00  0.00    -0.352 N 
ATOM     23  H5  UNL     1       2.350  67.002  67.440  1.00  0.00     0.166 HD
ENDBRANCH  12  17
TORSDOF 2
ENDMDL
