MODEL 1
REMARK VINA RESULT: -8.160641821      0.000      0.000
REMARK  14 active torsions:
REMARK  status: ('A' for Active; 'I' for Inactive)
REMARK    1  A    between atoms: C3_4  and  O2_5 
REMARK    2  A    between atoms: O2_5  and  C4_6 
REMARK    3  A    between atoms: C4_6  and  C5_7 
REMARK    4  A    between atoms: C8_10  and  N1_11 
REMARK    5  A    between atoms: C9_15  and  O3_16 
REMARK    6  A    between atoms: O3_16  and  C10_17 
REMARK    7  A    between atoms: C13_21  and  O4_22 
REMARK    8  A    between atoms: O4_22  and  C14_23 
REMARK    9  A    between atoms: C16_25  and  O5_26 
REMARK   10  A    between atoms: C16_25  and  C17_28 
REMARK   11  A    between atoms: C17_28  and  O6_32 
REMARK   12  A    between atoms: C19_36  and  N4_37 
REMARK   13  A    between atoms: C21_42  and  N5_43 
REMARK   14  A    between atoms: C23_48  and  N6_49 
ROOT
HETATM    1  C5  UNL     1      -6.899  29.779  21.990  1.00  0.00     0.012 C 
HETATM    2  C6  UNL     1      -7.897  28.824  22.665  1.00  0.00     0.009 C 
HETATM    3  C7  UNL     1      -8.019  27.624  21.773  1.00  0.00     0.036 C 
HETATM    4  C8  UNL     1      -6.724  27.182  21.190  1.00  0.00     0.212 C 
HETATM    5  C9  UNL     1      -5.595  27.626  22.145  1.00  0.00     0.153 C 
HETATM    6  C20 UNL     1      -5.536  29.129  22.153  1.00  0.00     0.041 C 
ENDROOT
BRANCH   5   7
HETATM    7  O3  UNL     1      -5.843  27.032  23.346  1.00  0.00    -0.371 OA
BRANCH   7   8
HETATM    8  C10 UNL     1      -5.173  27.491  24.445  1.00  0.00     0.199 C 
HETATM    9  C11 UNL     1      -3.948  26.693  24.681  1.00  0.00     0.053 C 
HETATM   10  N2  UNL     1      -3.167  26.165  23.575  1.00  0.00    -0.104 NA
HETATM   11  C12 UNL     1      -3.485  26.402  25.886  1.00  0.00     0.029 C 
HETATM   12  C13 UNL     1      -4.100  26.815  27.165  1.00  0.00     0.151 C 
HETATM   13  C18 UNL     1      -5.346  27.584  26.936  1.00  0.00     0.072 C 
HETATM   14  C19 UNL     1      -6.082  27.212  25.661  1.00  0.00     0.220 C 
BRANCH  12  15
HETATM   15  O4  UNL     1      -4.350  25.719  27.993  1.00  0.00    -0.352 OA
BRANCH  15  16
HETATM   16  C14 UNL     1      -3.876  25.923  29.295  1.00  0.00     0.270 C 
HETATM   17  C15 UNL     1      -2.631  26.818  29.335  1.00  0.00     0.138 C 
HETATM   18  C16 UNL     1      -1.955  25.673  30.003  1.00  0.00     0.235 C 
HETATM   19  O7  UNL     1      -3.092  24.893  29.777  1.00  0.00    -0.317 OA
BRANCH  18  20
HETATM   20  O5  UNL     1      -0.816  25.205  29.333  1.00  0.00    -0.359 OA
ATOM     21  H5  UNL     1      -0.033  25.720  29.485  1.00  0.00     0.213 HD
ENDBRANCH  18  20
BRANCH  18  22
HETATM   22  C17 UNL     1      -1.665  25.777  31.444  1.00  0.00     0.173 C 
HETATM   23  N3  UNL     1      -1.267  26.819  32.069  1.00  0.00    -0.379 N 
ATOM     24  H32 UNL     1      -1.139  27.660  31.506  1.00  0.00     0.158 HD
ATOM     25  H31 UNL     1      -1.066  26.891  33.067  1.00  0.00     0.158 HD
BRANCH  22  26
HETATM   26  O6  UNL     1      -1.843  24.620  32.217  1.00  0.00    -0.346 OA
ATOM     27  H6  UNL     1      -1.536  23.801  31.847  1.00  0.00     0.219 HD
ENDBRANCH  22  26
ENDBRANCH  18  22
ENDBRANCH  15  16
ENDBRANCH  12  15
BRANCH  14  28
HETATM   28  N4  UNL     1      -7.296  27.966  25.630  1.00  0.00    -0.072 N 
ATOM     29  H43 UNL     1      -7.263  28.739  26.296  1.00  0.00     0.274 HD
ATOM     30  H42 UNL     1      -7.374  28.497  24.763  1.00  0.00     0.274 HD
ATOM     31  H41 UNL     1      -8.124  27.390  25.781  1.00  0.00     0.274 HD
ENDBRANCH  14  28
ENDBRANCH   7   8
ENDBRANCH   5   7
BRANCH   4  32
HETATM   32  N1  UNL     1      -6.474  27.683  19.853  1.00  0.00    -0.073 N 
ATOM     33  H13 UNL     1      -6.896  27.069  19.156  1.00  0.00     0.274 HD
ATOM     34  H12 UNL     1      -7.012  28.533  19.683  1.00  0.00     0.274 HD
ATOM     35  H11 UNL     1      -5.488  27.836  19.643  1.00  0.00     0.274 HD
ENDBRANCH   4  32
BRANCH   1  36
HETATM   36  C4  UNL     1      -6.931  31.123  22.642  1.00  0.00     0.175 C 
BRANCH  36  37
HETATM   37  O2  UNL     1      -5.704  31.573  23.079  1.00  0.00    -0.359 OA
BRANCH  37  38
HETATM   38  C3  UNL     1      -5.695  32.135  24.341  1.00  0.00     0.290 C 
HETATM   39  O1  UNL     1      -5.120  31.165  25.204  1.00  0.00    -0.352 OA
HETATM   40  C2  UNL     1      -5.395  31.511  26.525  1.00  0.00     0.151 C 
HETATM   41  C1  UNL     1      -6.847  31.180  26.855  1.00  0.00     0.042 C 
HETATM   42  C23 UNL     1      -5.045  32.930  26.844  1.00  0.00     0.214 C 
HETATM   43  C22 UNL     1      -4.236  33.588  25.770  1.00  0.00     0.073 C 
HETATM   44  C21 UNL     1      -4.888  33.413  24.434  1.00  0.00     0.240 C 
BRANCH  42  45
HETATM   45  N6  UNL     1      -6.226  33.747  27.151  1.00  0.00    -0.072 N 
ATOM     46  H63 UNL     1      -7.084  33.271  26.869  1.00  0.00     0.274 HD
ATOM     47  H62 UNL     1      -6.389  33.794  28.156  1.00  0.00     0.274 HD
ATOM     48  H61 UNL     1      -6.173  34.680  26.744  1.00  0.00     0.274 HD
ENDBRANCH  42  45
BRANCH  44  49
HETATM   49  N5  UNL     1      -3.912  33.405  23.359  1.00  0.00    -0.070 N 
ATOM     50  H53 UNL     1      -3.842  32.499  22.895  1.00  0.00     0.274 HD
ATOM     51  H52 UNL     1      -4.212  33.949  22.549  1.00  0.00     0.274 HD
ATOM     52  H51 UNL     1      -3.021  33.723  23.740  1.00  0.00     0.274 HD
ENDBRANCH  44  49
ENDBRANCH  37  38
ENDBRANCH  36  37
ENDBRANCH   1  36
TORSDOF 14
ENDMDL
MODEL 2
REMARK VINA RESULT: -7.946394830      1.392      1.831
REMARK  14 active torsions:
REMARK  status: ('A' for Active; 'I' for Inactive)
REMARK    1  A    between atoms: C3_4  and  O2_5 
REMARK    2  A    between atoms: O2_5  and  C4_6 
REMARK    3  A    between atoms: C4_6  and  C5_7 
REMARK    4  A    between atoms: C8_10  and  N1_11 
REMARK    5  A    between atoms: C9_15  and  O3_16 
REMARK    6  A    between atoms: O3_16  and  C10_17 
REMARK    7  A    between atoms: C13_21  and  O4_22 
REMARK    8  A    between atoms: O4_22  and  C14_23 
REMARK    9  A    between atoms: C16_25  and  O5_26 
REMARK   10  A    between atoms: C16_25  and  C17_28 
REMARK   11  A    between atoms: C17_28  and  O6_32 
REMARK   12  A    between atoms: C19_36  and  N4_37 
REMARK   13  A    between atoms: C21_42  and  N5_43 
REMARK   14  A    between atoms: C23_48  and  N6_49 
ROOT
HETATM    1  C5  UNL     1      -7.362  29.626  21.926  1.00  0.00     0.012 C 
HETATM    2  C6  UNL     1      -8.142  28.417  22.469  1.00  0.00     0.009 C 
HETATM    3  C7  UNL     1      -7.887  27.278  21.525  1.00  0.00     0.036 C 
HETATM    4  C8  UNL     1      -6.480  27.204  21.050  1.00  0.00     0.212 C 
HETATM    5  C9  UNL     1      -5.579  27.854  22.123  1.00  0.00     0.153 C 
HETATM    6  C20 UNL     1      -5.899  29.322  22.192  1.00  0.00     0.041 C 
ENDROOT
BRANCH   5   7
HETATM    7  O3  UNL     1      -5.767  27.147  23.272  1.00  0.00    -0.371 OA
BRANCH   7   8
HETATM    8  C10 UNL     1      -5.126  27.568  24.403  1.00  0.00     0.199 C 
HETATM    9  C11 UNL     1      -3.904  26.766  24.640  1.00  0.00     0.053 C 
HETATM   10  N2  UNL     1      -3.094  26.281  23.534  1.00  0.00    -0.104 NA
HETATM   11  C12 UNL     1      -3.469  26.433  25.844  1.00  0.00     0.029 C 
HETATM   12  C13 UNL     1      -4.116  26.798  27.122  1.00  0.00     0.151 C 
HETATM   13  C18 UNL     1      -5.359  27.570  26.891  1.00  0.00     0.072 C 
HETATM   14  C19 UNL     1      -6.063  27.243  25.586  1.00  0.00     0.220 C 
BRANCH  12  15
HETATM   15  O4  UNL     1      -4.381  25.672  27.904  1.00  0.00    -0.352 OA
BRANCH  15  16
HETATM   16  C14 UNL     1      -3.939  25.830  29.223  1.00  0.00     0.270 C 
HETATM   17  C15 UNL     1      -2.759  26.802  29.336  1.00  0.00     0.138 C 
HETATM   18  C16 UNL     1      -2.015  25.668  29.947  1.00  0.00     0.235 C 
HETATM   19  O7  UNL     1      -3.093  24.828  29.657  1.00  0.00    -0.317 OA
BRANCH  18  20
HETATM   20  O5  UNL     1      -0.838  25.318  29.271  1.00  0.00    -0.359 OA
ATOM     21  H5  UNL     1      -0.179  26.002  29.253  1.00  0.00     0.213 HD
ENDBRANCH  18  20
BRANCH  18  22
HETATM   22  C17 UNL     1      -1.751  25.706  31.397  1.00  0.00     0.173 C 
HETATM   23  N3  UNL     1      -1.324  26.707  32.069  1.00  0.00    -0.379 N 
ATOM     24  H32 UNL     1      -1.149  27.562  31.541  1.00  0.00     0.158 HD
ATOM     25  H31 UNL     1      -1.141  26.733  33.072  1.00  0.00     0.158 HD
BRANCH  22  26
HETATM   26  O6  UNL     1      -1.993  24.530  32.122  1.00  0.00    -0.346 OA
ATOM     27  H6  UNL     1      -1.548  24.437  32.956  1.00  0.00     0.219 HD
ENDBRANCH  22  26
ENDBRANCH  18  22
ENDBRANCH  15  16
ENDBRANCH  12  15
BRANCH  14  28
HETATM   28  N4  UNL     1      -7.278  27.994  25.553  1.00  0.00    -0.072 N 
ATOM     29  H43 UNL     1      -7.833  27.755  24.731  1.00  0.00     0.274 HD
ATOM     30  H42 UNL     1      -7.920  27.682  26.283  1.00  0.00     0.274 HD
ATOM     31  H41 UNL     1      -7.124  29.001  25.610  1.00  0.00     0.274 HD
ENDBRANCH  14  28
ENDBRANCH   7   8
ENDBRANCH   5   7
BRANCH   4  32
HETATM   32  N1  UNL     1      -6.254  27.829  19.762  1.00  0.00    -0.073 N 
ATOM     33  H13 UNL     1      -7.136  28.146  19.359  1.00  0.00     0.274 HD
ATOM     34  H12 UNL     1      -5.785  28.728  19.879  1.00  0.00     0.274 HD
ATOM     35  H11 UNL     1      -5.747  27.245  19.098  1.00  0.00     0.274 HD
ENDBRANCH   4  32
BRANCH   1  36
HETATM   36  C4  UNL     1      -7.782  30.880  22.622  1.00  0.00     0.175 C 
BRANCH  36  37
HETATM   37  O2  UNL     1      -6.983  31.236  23.687  1.00  0.00    -0.359 OA
BRANCH  37  38
HETATM   38  C3  UNL     1      -7.656  31.566  24.847  1.00  0.00     0.290 C 
HETATM   39  O1  UNL     1      -8.537  30.486  25.118  1.00  0.00    -0.352 OA
HETATM   40  C2  UNL     1      -9.482  30.894  26.056  1.00  0.00     0.151 C 
HETATM   41  C1  UNL     1     -10.522  31.787  25.386  1.00  0.00     0.042 C 
HETATM   42  C23 UNL     1      -8.871  31.532  27.264  1.00  0.00     0.214 C 
HETATM   43  C22 UNL     1      -7.387  31.356  27.331  1.00  0.00     0.073 C 
HETATM   44  C21 UNL     1      -6.746  31.768  26.042  1.00  0.00     0.240 C 
BRANCH  42  45
HETATM   45  N6  UNL     1      -9.211  32.956  27.381  1.00  0.00    -0.072 N 
ATOM     46  H63 UNL     1      -8.639  33.523  26.754  1.00  0.00     0.274 HD
ATOM     47  H62 UNL     1     -10.130  33.149  26.983  1.00  0.00     0.274 HD
ATOM     48  H61 UNL     1      -9.150  33.295  28.341  1.00  0.00     0.274 HD
ENDBRANCH  42  45
BRANCH  44  49
HETATM   49  N5  UNL     1      -5.516  31.036  25.797  1.00  0.00    -0.070 N 
ATOM     50  H53 UNL     1      -4.684  31.620  25.885  1.00  0.00     0.274 HD
ATOM     51  H52 UNL     1      -5.296  30.374  26.542  1.00  0.00     0.274 HD
ATOM     52  H51 UNL     1      -5.592  30.591  24.882  1.00  0.00     0.274 HD
ENDBRANCH  44  49
ENDBRANCH  37  38
ENDBRANCH  36  37
ENDBRANCH   1  36
TORSDOF 14
ENDMDL
MODEL 3
REMARK VINA RESULT: -7.945029008      2.703      5.016
REMARK  14 active torsions:
REMARK  status: ('A' for Active; 'I' for Inactive)
REMARK    1  A    between atoms: C3_4  and  O2_5 
REMARK    2  A    between atoms: O2_5  and  C4_6 
REMARK    3  A    between atoms: C4_6  and  C5_7 
REMARK    4  A    between atoms: C8_10  and  N1_11 
REMARK    5  A    between atoms: C9_15  and  O3_16 
REMARK    6  A    between atoms: O3_16  and  C10_17 
REMARK    7  A    between atoms: C13_21  and  O4_22 
REMARK    8  A    between atoms: O4_22  and  C14_23 
REMARK    9  A    between atoms: C16_25  and  O5_26 
REMARK   10  A    between atoms: C16_25  and  C17_28 
REMARK   11  A    between atoms: C17_28  and  O6_32 
REMARK   12  A    between atoms: C19_36  and  N4_37 
REMARK   13  A    between atoms: C21_42  and  N5_43 
REMARK   14  A    between atoms: C23_48  and  N6_49 
ROOT
HETATM    1  C5  UNL     1      -5.159  26.873  23.920  1.00  0.00     0.012 C 
HETATM    2  C6  UNL     1      -4.640  27.980  24.853  1.00  0.00     0.009 C 
HETATM    3  C7  UNL     1      -5.653  28.131  25.950  1.00  0.00     0.036 C 
HETATM    4  C8  UNL     1      -6.202  26.837  26.435  1.00  0.00     0.212 C 
HETATM    5  C9  UNL     1      -5.145  25.743  26.173  1.00  0.00     0.153 C 
HETATM    6  C20 UNL     1      -4.985  25.575  24.687  1.00  0.00     0.041 C 
ENDROOT
BRANCH   5   7
HETATM    7  O3  UNL     1      -4.024  26.109  26.857  1.00  0.00    -0.371 OA
BRANCH   7   8
HETATM    8  C10 UNL     1      -4.111  26.244  28.214  1.00  0.00     0.199 C 
HETATM    9  C11 UNL     1      -3.335  27.419  28.673  1.00  0.00     0.053 C 
HETATM   10  N2  UNL     1      -3.252  28.627  27.870  1.00  0.00    -0.104 NA
HETATM   11  C12 UNL     1      -2.672  27.457  29.817  1.00  0.00     0.029 C 
HETATM   12  C13 UNL     1      -2.596  26.358  30.803  1.00  0.00     0.151 C 
HETATM   13  C18 UNL     1      -3.341  25.166  30.334  1.00  0.00     0.072 C 
HETATM   14  C19 UNL     1      -3.394  25.019  28.823  1.00  0.00     0.220 C 
BRANCH  12  15
HETATM   15  O4  UNL     1      -1.274  26.022  31.097  1.00  0.00    -0.352 OA
BRANCH  15  16
HETATM   16  C14 UNL     1      -0.643  26.996  31.879  1.00  0.00     0.270 C 
HETATM   17  C15 UNL     1       0.683  27.471  31.272  1.00  0.00     0.138 C 
HETATM   18  C16 UNL     1       1.309  27.024  32.545  1.00  0.00     0.235 C 
HETATM   19  O7  UNL     1       0.082  26.486  32.939  1.00  0.00    -0.317 OA
BRANCH  18  20
HETATM   20  O5  UNL     1       2.316  26.060  32.386  1.00  0.00    -0.359 OA
ATOM     21  H5  UNL     1       2.935  26.019  33.105  1.00  0.00     0.213 HD
ENDBRANCH  18  20
BRANCH  18  22
HETATM   22  C17 UNL     1       1.764  28.052  33.498  1.00  0.00     0.173 C 
HETATM   23  N3  UNL     1       1.728  29.319  33.329  1.00  0.00    -0.379 N 
ATOM     24  H32 UNL     1       1.345  29.644  32.442  1.00  0.00     0.158 HD
ATOM     25  H31 UNL     1       2.043  30.031  33.989  1.00  0.00     0.158 HD
BRANCH  22  26
HETATM   26  O6  UNL     1       2.291  27.604  34.719  1.00  0.00    -0.346 OA
ATOM     27  H6  UNL     1       1.671  27.385  35.403  1.00  0.00     0.219 HD
ENDBRANCH  22  26
ENDBRANCH  18  22
ENDBRANCH  15  16
ENDBRANCH  12  15
BRANCH  14  28
HETATM   28  N4  UNL     1      -4.058  23.788  28.535  1.00  0.00    -0.072 N 
ATOM     29  H43 UNL     1      -4.706  23.538  29.282  1.00  0.00     0.274 HD
ATOM     30  H42 UNL     1      -4.724  23.902  27.770  1.00  0.00     0.274 HD
ATOM     31  H41 UNL     1      -3.411  23.023  28.343  1.00  0.00     0.274 HD
ENDBRANCH  14  28
ENDBRANCH   7   8
ENDBRANCH   5   7
BRANCH   4  32
HETATM   32  N1  UNL     1      -7.466  26.465  25.831  1.00  0.00    -0.073 N 
ATOM     33  H13 UNL     1      -7.534  26.840  24.885  1.00  0.00     0.274 HD
ATOM     34  H12 UNL     1      -7.483  25.467  25.623  1.00  0.00     0.274 HD
ATOM     35  H11 UNL     1      -8.284  26.731  26.379  1.00  0.00     0.274 HD
ENDBRANCH   4  32
BRANCH   1  36
HETATM   36  C4  UNL     1      -4.380  26.849  22.645  1.00  0.00     0.175 C 
BRANCH  36  37
HETATM   37  O2  UNL     1      -4.755  27.809  21.730  1.00  0.00    -0.359 OA
BRANCH  37  38
HETATM   38  C3  UNL     1      -6.008  28.357  21.926  1.00  0.00     0.290 C 
HETATM   39  O1  UNL     1      -5.885  29.743  21.642  1.00  0.00    -0.352 OA
HETATM   40  C2  UNL     1      -6.997  30.411  22.147  1.00  0.00     0.151 C 
HETATM   41  C1  UNL     1      -6.875  30.546  23.662  1.00  0.00     0.042 C 
HETATM   42  C23 UNL     1      -8.293  29.791  21.729  1.00  0.00     0.214 C 
HETATM   43  C22 UNL     1      -8.130  28.762  20.655  1.00  0.00     0.073 C 
HETATM   44  C21 UNL     1      -7.077  27.766  21.031  1.00  0.00     0.240 C 
BRANCH  42  45
HETATM   45  N6  UNL     1      -9.034  29.218  22.861  1.00  0.00    -0.072 N 
ATOM     46  H63 UNL     1      -8.548  28.407  23.244  1.00  0.00     0.274 HD
ATOM     47  H62 UNL     1      -8.994  29.832  23.675  1.00  0.00     0.274 HD
ATOM     48  H61 UNL     1      -9.998  28.989  22.622  1.00  0.00     0.274 HD
ENDBRANCH  42  45
BRANCH  44  49
HETATM   49  N5  UNL     1      -6.424  27.209  19.860  1.00  0.00    -0.070 N 
ATOM     50  H53 UNL     1      -6.022  27.924  19.255  1.00  0.00     0.274 HD
ATOM     51  H52 UNL     1      -5.558  26.719  20.086  1.00  0.00     0.274 HD
ATOM     52  H51 UNL     1      -7.099  26.616  19.376  1.00  0.00     0.274 HD
ENDBRANCH  44  49
ENDBRANCH  37  38
ENDBRANCH  36  37
ENDBRANCH   1  36
TORSDOF 14
ENDMDL
MODEL 4
REMARK VINA RESULT: -7.929424452      1.964      2.519
REMARK  14 active torsions:
REMARK  status: ('A' for Active; 'I' for Inactive)
REMARK    1  A    between atoms: C3_4  and  O2_5 
REMARK    2  A    between atoms: O2_5  and  C4_6 
REMARK    3  A    between atoms: C4_6  and  C5_7 
REMARK    4  A    between atoms: C8_10  and  N1_11 
REMARK    5  A    between atoms: C9_15  and  O3_16 
REMARK    6  A    between atoms: O3_16  and  C10_17 
REMARK    7  A    between atoms: C13_21  and  O4_22 
REMARK    8  A    between atoms: O4_22  and  C14_23 
REMARK    9  A    between atoms: C16_25  and  O5_26 
REMARK   10  A    between atoms: C16_25  and  C17_28 
REMARK   11  A    between atoms: C17_28  and  O6_32 
REMARK   12  A    between atoms: C19_36  and  N4_37 
REMARK   13  A    between atoms: C21_42  and  N5_43 
REMARK   14  A    between atoms: C23_48  and  N6_49 
ROOT
HETATM    1  C5  UNL     1      -6.995  29.304  21.675  1.00  0.00     0.012 C 
HETATM    2  C6  UNL     1      -7.753  27.997  21.962  1.00  0.00     0.009 C 
HETATM    3  C7  UNL     1      -7.164  26.949  21.064  1.00  0.00     0.036 C 
HETATM    4  C8  UNL     1      -5.684  27.033  20.944  1.00  0.00     0.212 C 
HETATM    5  C9  UNL     1      -5.138  27.692  22.229  1.00  0.00     0.153 C 
HETATM    6  C20 UNL     1      -5.614  29.118  22.277  1.00  0.00     0.041 C 
ENDROOT
BRANCH   5   7
HETATM    7  O3  UNL     1      -5.521  26.898  23.268  1.00  0.00    -0.371 OA
BRANCH   7   8
HETATM    8  C10 UNL     1      -5.186  27.286  24.535  1.00  0.00     0.199 C 
HETATM    9  C11 UNL     1      -3.856  26.753  24.911  1.00  0.00     0.053 C 
HETATM   10  N2  UNL     1      -2.791  26.626  23.930  1.00  0.00    -0.104 NA
HETATM   11  C12 UNL     1      -3.545  26.357  26.134  1.00  0.00     0.029 C 
HETATM   12  C13 UNL     1      -4.453  26.380  27.301  1.00  0.00     0.151 C 
HETATM   13  C18 UNL     1      -5.796  26.879  26.924  1.00  0.00     0.072 C 
HETATM   14  C19 UNL     1      -6.186  26.593  25.485  1.00  0.00     0.220 C 
BRANCH  12  15
HETATM   15  O4  UNL     1      -4.551  25.124  27.900  1.00  0.00    -0.352 OA
BRANCH  15  16
HETATM   16  C14 UNL     1      -4.058  25.124  29.211  1.00  0.00     0.270 C 
HETATM   17  C15 UNL     1      -3.767  26.538  29.730  1.00  0.00     0.138 C 
HETATM   18  C16 UNL     1      -2.371  26.065  29.934  1.00  0.00     0.235 C 
HETATM   19  O7  UNL     1      -2.704  24.864  29.304  1.00  0.00    -0.317 OA
BRANCH  18  20
HETATM   20  O5  UNL     1      -1.403  26.808  29.243  1.00  0.00    -0.359 OA
ATOM     21  H5  UNL     1      -1.262  27.682  29.585  1.00  0.00     0.213 HD
ENDBRANCH  18  20
BRANCH  18  22
HETATM   22  C17 UNL     1      -1.910  25.827  31.314  1.00  0.00     0.173 C 
HETATM   23  N3  UNL     1      -1.324  26.668  32.078  1.00  0.00    -0.379 N 
ATOM     24  H32 UNL     1      -1.162  27.596  31.687  1.00  0.00     0.158 HD
ATOM     25  H31 UNL     1      -1.004  26.503  33.033  1.00  0.00     0.158 HD
BRANCH  22  26
HETATM   26  O6  UNL     1      -2.133  24.551  31.851  1.00  0.00    -0.346 OA
ATOM     27  H6  UNL     1      -2.962  24.406  32.291  1.00  0.00     0.219 HD
ENDBRANCH  22  26
ENDBRANCH  18  22
ENDBRANCH  15  16
ENDBRANCH  12  15
BRANCH  14  28
HETATM   28  N4  UNL     1      -7.529  27.048  25.305  1.00  0.00    -0.072 N 
ATOM     29  H43 UNL     1      -8.187  26.452  25.806  1.00  0.00     0.274 HD
ATOM     30  H42 UNL     1      -7.687  27.924  25.803  1.00  0.00     0.274 HD
ATOM     31  H41 UNL     1      -7.789  27.135  24.323  1.00  0.00     0.274 HD
ENDBRANCH  14  28
ENDBRANCH   7   8
ENDBRANCH   5   7
BRANCH   4  32
HETATM   32  N1  UNL     1      -5.223  27.757  19.776  1.00  0.00    -0.073 N 
ATOM     33  H13 UNL     1      -4.793  27.119  19.106  1.00  0.00     0.274 HD
ATOM     34  H12 UNL     1      -6.015  28.082  19.221  1.00  0.00     0.274 HD
ATOM     35  H11 UNL     1      -4.593  28.531  19.986  1.00  0.00     0.274 HD
ENDBRANCH   4  32
BRANCH   1  36
HETATM   36  C4  UNL     1      -7.696  30.467  22.297  1.00  0.00     0.175 C 
BRANCH  36  37
HETATM   37  O2  UNL     1      -8.804  30.132  23.045  1.00  0.00    -0.359 OA
BRANCH  37  38
HETATM   38  C3  UNL     1      -8.633  30.189  24.414  1.00  0.00     0.290 C 
HETATM   39  O1  UNL     1      -8.013  31.436  24.687  1.00  0.00    -0.352 OA
HETATM   40  C2  UNL     1      -7.498  31.416  25.981  1.00  0.00     0.151 C 
HETATM   41  C1  UNL     1      -6.216  30.588  26.013  1.00  0.00     0.042 C 
HETATM   42  C23 UNL     1      -8.496  30.968  27.001  1.00  0.00     0.214 C 
HETATM   43  C22 UNL     1      -9.890  30.897  26.464  1.00  0.00     0.073 C 
HETATM   44  C21 UNL     1      -9.929  30.105  25.194  1.00  0.00     0.240 C 
BRANCH  42  45
HETATM   45  N6  UNL     1      -8.132  29.686  27.619  1.00  0.00    -0.072 N 
ATOM     46  H63 UNL     1      -7.234  29.351  27.268  1.00  0.00     0.274 HD
ATOM     47  H62 UNL     1      -7.889  29.807  28.602  1.00  0.00     0.274 HD
ATOM     48  H61 UNL     1      -8.857  28.978  27.506  1.00  0.00     0.274 HD
ENDBRANCH  42  45
BRANCH  44  49
HETATM   49  N5  UNL     1     -11.005  30.542  24.323  1.00  0.00    -0.070 N 
ATOM     50  H53 UNL     1     -11.896  30.096  24.542  1.00  0.00     0.274 HD
ATOM     51  H52 UNL     1     -11.289  31.506  24.498  1.00  0.00     0.274 HD
ATOM     52  H51 UNL     1     -10.712  30.385  23.358  1.00  0.00     0.274 HD
ENDBRANCH  44  49
ENDBRANCH  37  38
ENDBRANCH  36  37
ENDBRANCH   1  36
TORSDOF 14
ENDMDL
MODEL 5
REMARK VINA RESULT: -7.927806533      1.012      1.304
REMARK  14 active torsions:
REMARK  status: ('A' for Active; 'I' for Inactive)
REMARK    1  A    between atoms: C3_4  and  O2_5 
REMARK    2  A    between atoms: O2_5  and  C4_6 
REMARK    3  A    between atoms: C4_6  and  C5_7 
REMARK    4  A    between atoms: C8_10  and  N1_11 
REMARK    5  A    between atoms: C9_15  and  O3_16 
REMARK    6  A    between atoms: O3_16  and  C10_17 
REMARK    7  A    between atoms: C13_21  and  O4_22 
REMARK    8  A    between atoms: O4_22  and  C14_23 
REMARK    9  A    between atoms: C16_25  and  O5_26 
REMARK   10  A    between atoms: C16_25  and  C17_28 
REMARK   11  A    between atoms: C17_28  and  O6_32 
REMARK   12  A    between atoms: C19_36  and  N4_37 
REMARK   13  A    between atoms: C21_42  and  N5_43 
REMARK   14  A    between atoms: C23_48  and  N6_49 
ROOT
HETATM    1  C5  UNL     1      -6.911  29.763  22.094  1.00  0.00     0.012 C 
HETATM    2  C6  UNL     1      -7.892  28.707  22.630  1.00  0.00     0.009 C 
HETATM    3  C7  UNL     1      -7.937  27.603  21.614  1.00  0.00     0.036 C 
HETATM    4  C8  UNL     1      -6.608  27.273  21.036  1.00  0.00     0.212 C 
HETATM    5  C9  UNL     1      -5.529  27.655  22.072  1.00  0.00     0.153 C 
HETATM    6  C20 UNL     1      -5.530  29.150  22.237  1.00  0.00     0.041 C 
ENDROOT
BRANCH   5   7
HETATM    7  O3  UNL     1      -5.790  26.929  23.195  1.00  0.00    -0.371 OA
BRANCH   7   8
HETATM    8  C10 UNL     1      -5.216  27.326  24.370  1.00  0.00     0.199 C 
HETATM    9  C11 UNL     1      -3.998  26.531  24.650  1.00  0.00     0.053 C 
HETATM   10  N2  UNL     1      -3.124  26.087  23.577  1.00  0.00    -0.104 NA
HETATM   11  C12 UNL     1      -3.624  26.170  25.866  1.00  0.00     0.029 C 
HETATM   12  C13 UNL     1      -4.344  26.491  27.117  1.00  0.00     0.151 C 
HETATM   13  C18 UNL     1      -5.583  27.256  26.841  1.00  0.00     0.072 C 
HETATM   14  C19 UNL     1      -6.211  26.957  25.491  1.00  0.00     0.220 C 
BRANCH  12  15
HETATM   15  O4  UNL     1      -4.636  25.341  27.852  1.00  0.00    -0.352 OA
BRANCH  15  16
HETATM   16  C14 UNL     1      -3.655  25.065  28.813  1.00  0.00     0.270 C 
HETATM   17  C15 UNL     1      -3.962  23.798  29.621  1.00  0.00     0.138 C 
HETATM   18  C16 UNL     1      -3.917  24.676  30.821  1.00  0.00     0.235 C 
HETATM   19  O7  UNL     1      -3.794  25.786  29.983  1.00  0.00    -0.317 OA
BRANCH  18  20
HETATM   20  O5  UNL     1      -5.096  24.678  31.580  1.00  0.00    -0.359 OA
ATOM     21  H5  UNL     1      -5.044  25.182  32.383  1.00  0.00     0.213 HD
ENDBRANCH  18  20
BRANCH  18  22
HETATM   22  C17 UNL     1      -2.756  24.565  31.723  1.00  0.00     0.173 C 
HETATM   23  N3  UNL     1      -2.510  23.609  32.535  1.00  0.00    -0.379 N 
ATOM     24  H32 UNL     1      -3.190  22.849  32.557  1.00  0.00     0.158 HD
ATOM     25  H31 UNL     1      -1.706  23.532  33.160  1.00  0.00     0.158 HD
BRANCH  22  26
HETATM   26  O6  UNL     1      -1.821  25.610  31.693  1.00  0.00    -0.346 OA
ATOM     27  H6  UNL     1      -1.239  25.692  32.439  1.00  0.00     0.219 HD
ENDBRANCH  22  26
ENDBRANCH  18  22
ENDBRANCH  15  16
ENDBRANCH  12  15
BRANCH  14  28
HETATM   28  N4  UNL     1      -7.432  27.694  25.413  1.00  0.00    -0.072 N 
ATOM     29  H43 UNL     1      -8.116  27.208  24.833  1.00  0.00     0.274 HD
ATOM     30  H42 UNL     1      -7.928  27.676  26.304  1.00  0.00     0.274 HD
ATOM     31  H41 UNL     1      -7.297  28.653  25.091  1.00  0.00     0.274 HD
ENDBRANCH  14  28
ENDBRANCH   7   8
ENDBRANCH   5   7
BRANCH   4  32
HETATM   32  N1  UNL     1      -6.335  27.920  19.767  1.00  0.00    -0.073 N 
ATOM     33  H13 UNL     1      -5.354  27.805  19.511  1.00  0.00     0.274 HD
ATOM     34  H12 UNL     1      -6.774  27.407  19.003  1.00  0.00     0.274 HD
ATOM     35  H11 UNL     1      -6.598  28.905  19.736  1.00  0.00     0.274 HD
ENDBRANCH   4  32
BRANCH   1  36
HETATM   36  C4  UNL     1      -7.017  31.029  22.880  1.00  0.00     0.175 C 
BRANCH  36  37
HETATM   37  O2  UNL     1      -5.811  31.531  23.318  1.00  0.00    -0.359 OA
BRANCH  37  38
HETATM   38  C3  UNL     1      -5.808  32.020  24.610  1.00  0.00     0.290 C 
HETATM   39  O1  UNL     1      -5.111  31.064  25.396  1.00  0.00    -0.352 OA
HETATM   40  C2  UNL     1      -5.367  31.309  26.743  1.00  0.00     0.151 C 
HETATM   41  C1  UNL     1      -6.767  30.820  27.100  1.00  0.00     0.042 C 
HETATM   42  C23 UNL     1      -5.141  32.736  27.133  1.00  0.00     0.214 C 
HETATM   43  C22 UNL     1      -4.441  33.527  26.073  1.00  0.00     0.073 C 
HETATM   44  C21 UNL     1      -5.123  33.364  24.751  1.00  0.00     0.240 C 
BRANCH  42  45
HETATM   45  N6  UNL     1      -6.383  33.415  27.525  1.00  0.00    -0.072 N 
ATOM     46  H63 UNL     1      -7.091  32.743  27.821  1.00  0.00     0.274 HD
ATOM     47  H62 UNL     1      -6.263  33.923  28.401  1.00  0.00     0.274 HD
ATOM     48  H61 UNL     1      -6.742  34.027  26.793  1.00  0.00     0.274 HD
ENDBRANCH  42  45
BRANCH  44  49
HETATM   49  N5  UNL     1      -4.193  33.510  23.646  1.00  0.00    -0.070 N 
ATOM     50  H53 UNL     1      -4.541  33.100  22.779  1.00  0.00     0.274 HD
ATOM     51  H52 UNL     1      -4.117  34.474  23.319  1.00  0.00     0.274 HD
ATOM     52  H51 UNL     1      -3.296  33.119  23.936  1.00  0.00     0.274 HD
ENDBRANCH  44  49
ENDBRANCH  37  38
ENDBRANCH  36  37
ENDBRANCH   1  36
TORSDOF 14
ENDMDL
