MODEL 1
REMARK VINA RESULT: -7.595632146      0.000      0.000
REMARK  9 active torsions:
REMARK  status: ('A' for Active; 'I' for Inactive)
REMARK    1  A    between atoms: C3_7  and  N3_8 
REMARK    2  A    between atoms: C6_15  and  N5_16 
REMARK    3  A    between atoms: N6_19  and  C7_20 
REMARK    4  A    between atoms: C8_22  and  C9_23 
REMARK    5  A    between atoms: C9_23  and  O3_24 
REMARK    6  A    between atoms: C9_23  and  C10_26 
REMARK    7  A    between atoms: C10_26  and  O4_27 
REMARK    8  A    between atoms: C11_29  and  N7_30 
REMARK    9  A    between atoms: C12_34  and  N8_35 
ROOT
HETATM    1  C1  UNL     1       8.270   9.257  58.470  1.00  0.00     0.163 C 
HETATM    2  N1  UNL     1       7.541   8.966  57.276  1.00  0.00    -0.287 N 
HETATM    3  C2  UNL     1       6.783   7.877  57.187  1.00  0.00     0.329 A 
HETATM    4  O1  UNL     1       6.727   7.097  58.193  1.00  0.00    -0.246 OA
HETATM    5  N2  UNL     1       6.127   7.660  56.058  1.00  0.00    -0.293 N 
ATOM      6  H2  UNL     1       5.544   6.826  55.988  1.00  0.00     0.172 HD
HETATM    7  C3  UNL     1       6.191   8.486  55.001  1.00  0.00     0.134 A 
HETATM    8  C4  UNL     1       6.985   9.645  55.071  1.00  0.00     0.142 A 
HETATM    9  C5  UNL     1       7.648   9.847  56.234  1.00  0.00     0.158 A 
HETATM   10  N4  UNL     1       8.245  10.926  55.970  1.00  0.00    -0.174 N 
ATOM     11  H4  UNL     1       8.824  11.276  56.734  1.00  0.00     0.186 HD
HETATM   12  C6  UNL     1       8.259  11.646  54.953  1.00  0.00     0.682 A 
HETATM   13  N6  UNL     1       7.211  10.573  54.217  1.00  0.00    -0.147 N 
ENDROOT
BRANCH  13  14
HETATM   14  C7  UNL     1       6.782  10.857  52.951  1.00  0.00     0.279 C 
HETATM   15  O2  UNL     1       7.052   9.827  52.011  1.00  0.00    -0.353 OA
HETATM   16  C8  UNL     1       6.511  10.428  50.852  1.00  0.00     0.187 C 
HETATM   17  C11 UNL     1       5.141  10.834  51.279  1.00  0.00     0.249 C 
HETATM   18  C12 UNL     1       5.348  11.230  52.758  1.00  0.00     0.265 C 
BRANCH  16  19
HETATM   19  C9  UNL     1       6.548   9.396  49.772  1.00  0.00     0.172 C 
BRANCH  19  20
HETATM   20  O3  UNL     1       7.805   8.945  49.439  1.00  0.00    -0.391 OA
ATOM     21  H3  UNL     1       7.824   8.139  48.935  1.00  0.00     0.210 HD
ENDBRANCH  19  20
BRANCH  19  22
HETATM   22  C10 UNL     1       5.627   8.220  50.006  1.00  0.00     0.198 C 
BRANCH  22  23
HETATM   23  O4  UNL     1       5.941   7.173  49.171  1.00  0.00    -0.398 OA
ATOM     24  H4  UNL     1       5.156   6.775  48.813  1.00  0.00     0.209 HD
ENDBRANCH  22  23
ENDBRANCH  19  22
ENDBRANCH  16  19
BRANCH  17  25
HETATM   25  N7  UNL     1       4.556  11.900  50.513  1.00  0.00    -0.070 N 
ATOM     26  H73 UNL     1       5.218  12.671  50.417  1.00  0.00     0.274 HD
ATOM     27  H72 UNL     1       4.465  11.622  49.535  1.00  0.00     0.274 HD
ATOM     28  H71 UNL     1       3.662  12.245  50.865  1.00  0.00     0.274 HD
ENDBRANCH  17  25
BRANCH  18  29
HETATM   29  N8  UNL     1       5.138  12.698  52.838  1.00  0.00    -0.069 N 
ATOM     30  H83 UNL     1       5.892  13.205  52.375  1.00  0.00     0.275 HD
ATOM     31  H82 UNL     1       4.359  12.992  52.249  1.00  0.00     0.275 HD
ATOM     32  H81 UNL     1       5.014  13.016  53.800  1.00  0.00     0.275 HD
ENDBRANCH  18  29
ENDBRANCH  13  14
BRANCH  12  33
HETATM   33  N5  UNL     1       8.274  12.350  53.957  1.00  0.00    -0.234 N 
ATOM     34  H52 UNL     1       8.433  11.538  53.361  1.00  0.00     0.174 HD
ATOM     35  H51 UNL     1       8.287  12.940  53.124  1.00  0.00     0.174 HD
ENDBRANCH  12  33
BRANCH   7  36
HETATM   36  N3  UNL     1       5.555   8.221  53.965  1.00  0.00    -0.383 N 
ATOM     37  H32 UNL     1       6.047   7.963  53.109  1.00  0.00     0.157 HD
ATOM     38  H31 UNL     1       4.536   8.255  53.969  1.00  0.00     0.157 HD
ENDBRANCH   7  36
TORSDOF 9
ENDMDL
MODEL 2
REMARK VINA RESULT: -7.510331034      3.429      5.005
REMARK  9 active torsions:
REMARK  status: ('A' for Active; 'I' for Inactive)
REMARK    1  A    between atoms: C3_7  and  N3_8 
REMARK    2  A    between atoms: C6_15  and  N5_16 
REMARK    3  A    between atoms: N6_19  and  C7_20 
REMARK    4  A    between atoms: C8_22  and  C9_23 
REMARK    5  A    between atoms: C9_23  and  O3_24 
REMARK    6  A    between atoms: C9_23  and  C10_26 
REMARK    7  A    between atoms: C10_26  and  O4_27 
REMARK    8  A    between atoms: C11_29  and  N7_30 
REMARK    9  A    between atoms: C12_34  and  N8_35 
ROOT
HETATM    1  C1  UNL     1       6.200   8.067  55.159  1.00  0.00     0.163 C 
HETATM    2  N1  UNL     1       6.416   8.793  53.948  1.00  0.00    -0.287 N 
HETATM    3  C2  UNL     1       7.610   9.307  53.663  1.00  0.00     0.329 A 
HETATM    4  O1  UNL     1       8.555   9.137  54.501  1.00  0.00    -0.246 OA
HETATM    5  N2  UNL     1       7.755   9.966  52.524  1.00  0.00    -0.293 N 
ATOM      6  H2  UNL     1       8.669  10.359  52.304  1.00  0.00     0.172 HD
HETATM    7  C3  UNL     1       6.754  10.142  51.646  1.00  0.00     0.134 A 
HETATM    8  C4  UNL     1       5.482   9.608  51.923  1.00  0.00     0.142 A 
HETATM    9  C5  UNL     1       5.357   8.938  53.093  1.00  0.00     0.158 A 
HETATM   10  N4  UNL     1       4.141   8.609  53.036  1.00  0.00    -0.174 N 
ATOM     11  H4  UNL     1       3.818   8.076  53.845  1.00  0.00     0.186 HD
HETATM   12  C6  UNL     1       3.259   8.811  52.179  1.00  0.00     0.682 A 
HETATM   13  N6  UNL     1       4.385   9.639  51.262  1.00  0.00    -0.147 N 
ENDROOT
BRANCH  13  14
HETATM   14  C7  UNL     1       3.990  10.138  50.053  1.00  0.00     0.279 C 
HETATM   15  O2  UNL     1       4.139  11.546  49.939  1.00  0.00    -0.353 OA
HETATM   16  C8  UNL     1       3.647  11.722  48.626  1.00  0.00     0.187 C 
HETATM   17  C11 UNL     1       4.424  10.730  47.829  1.00  0.00     0.249 C 
HETATM   18  C12 UNL     1       4.594   9.555  48.818  1.00  0.00     0.265 C 
BRANCH  16  19
HETATM   19  C9  UNL     1       3.895  13.149  48.259  1.00  0.00     0.172 C 
BRANCH  19  20
HETATM   20  O3  UNL     1       5.177  13.432  47.845  1.00  0.00    -0.391 OA
ATOM     21  H3  UNL     1       5.337  13.310  46.916  1.00  0.00     0.210 HD
ENDBRANCH  19  20
BRANCH  19  22
HETATM   22  C10 UNL     1       2.901  13.718  47.271  1.00  0.00     0.198 C 
BRANCH  22  23
HETATM   23  O4  UNL     1       2.911  15.093  47.296  1.00  0.00    -0.398 OA
ATOM     24  H4  UNL     1       2.234  15.429  47.871  1.00  0.00     0.209 HD
ENDBRANCH  22  23
ENDBRANCH  19  22
ENDBRANCH  16  19
BRANCH  17  25
HETATM   25  N7  UNL     1       3.803  10.316  46.600  1.00  0.00    -0.070 N 
ATOM     26  H73 UNL     1       2.913   9.857  46.793  1.00  0.00     0.274 HD
ATOM     27  H72 UNL     1       3.475  11.130  46.080  1.00  0.00     0.274 HD
ATOM     28  H71 UNL     1       4.381   9.725  46.002  1.00  0.00     0.274 HD
ENDBRANCH  17  25
BRANCH  18  29
HETATM   29  N8  UNL     1       3.788   8.429  48.281  1.00  0.00    -0.069 N 
ATOM     30  H83 UNL     1       3.408   7.854  49.033  1.00  0.00     0.275 HD
ATOM     31  H82 UNL     1       2.912   8.761  47.875  1.00  0.00     0.275 HD
ATOM     32  H81 UNL     1       4.314   7.865  47.613  1.00  0.00     0.275 HD
ENDBRANCH  18  29
ENDBRANCH  13  14
BRANCH  12  33
HETATM   33  N5  UNL     1       2.396   9.010  51.340  1.00  0.00    -0.234 N 
ATOM     34  H52 UNL     1       2.862   8.382  50.685  1.00  0.00     0.174 HD
ATOM     35  H51 UNL     1       1.675   9.176  50.638  1.00  0.00     0.174 HD
ENDBRANCH  12  33
BRANCH   7  36
HETATM   36  N3  UNL     1       6.953  10.779  50.595  1.00  0.00    -0.383 N 
ATOM     37  H32 UNL     1       7.681  11.492  50.555  1.00  0.00     0.157 HD
ATOM     38  H31 UNL     1       6.391  10.586  49.767  1.00  0.00     0.157 HD
ENDBRANCH   7  36
TORSDOF 9
ENDMDL
MODEL 3
REMARK VINA RESULT: -7.488971408      3.092      4.734
REMARK  9 active torsions:
REMARK  status: ('A' for Active; 'I' for Inactive)
REMARK    1  A    between atoms: C3_7  and  N3_8 
REMARK    2  A    between atoms: C6_15  and  N5_16 
REMARK    3  A    between atoms: N6_19  and  C7_20 
REMARK    4  A    between atoms: C8_22  and  C9_23 
REMARK    5  A    between atoms: C9_23  and  O3_24 
REMARK    6  A    between atoms: C9_23  and  C10_26 
REMARK    7  A    between atoms: C10_26  and  O4_27 
REMARK    8  A    between atoms: C11_29  and  N7_30 
REMARK    9  A    between atoms: C12_34  and  N8_35 
ROOT
HETATM    1  C1  UNL     1       5.972   8.071  55.083  1.00  0.00     0.163 C 
HETATM    2  N1  UNL     1       6.291   8.555  53.777  1.00  0.00    -0.287 N 
HETATM    3  C2  UNL     1       7.546   8.551  53.334  1.00  0.00     0.329 A 
HETATM    4  O1  UNL     1       8.456   8.108  54.107  1.00  0.00    -0.246 OA
HETATM    5  N2  UNL     1       7.783   9.007  52.114  1.00  0.00    -0.293 N 
ATOM      6  H2  UNL     1       8.744   9.004  51.773  1.00  0.00     0.172 HD
HETATM    7  C3  UNL     1       6.818   9.474  51.305  1.00  0.00     0.134 A 
HETATM    8  C4  UNL     1       5.483   9.489  51.750  1.00  0.00     0.142 A 
HETATM    9  C5  UNL     1       5.264   9.018  53.000  1.00  0.00     0.158 A 
HETATM   10  N4  UNL     1       4.015   9.171  53.084  1.00  0.00    -0.174 N 
ATOM     11  H4  UNL     1       3.620   8.872  53.976  1.00  0.00     0.186 HD
HETATM   12  C6  UNL     1       3.172   9.620  52.282  1.00  0.00     0.682 A 
HETATM   13  N6  UNL     1       4.402   9.877  51.181  1.00  0.00    -0.147 N 
ENDROOT
BRANCH  13  14
HETATM   14  C7  UNL     1       4.075  10.384  49.956  1.00  0.00     0.279 C 
HETATM   15  O2  UNL     1       4.810  11.547  49.602  1.00  0.00    -0.353 OA
HETATM   16  C8  UNL     1       4.237  11.804  48.336  1.00  0.00     0.187 C 
HETATM   17  C11 UNL     1       4.351  10.494  47.632  1.00  0.00     0.249 C 
HETATM   18  C12 UNL     1       4.144   9.474  48.774  1.00  0.00     0.265 C 
BRANCH  16  19
HETATM   19  C9  UNL     1       5.025  12.914  47.721  1.00  0.00     0.172 C 
BRANCH  19  20
HETATM   20  O3  UNL     1       4.310  14.060  47.454  1.00  0.00    -0.391 OA
ATOM     21  H3  UNL     1       4.811  14.867  47.499  1.00  0.00     0.210 HD
ENDBRANCH  19  20
BRANCH  19  22
HETATM   22  C10 UNL     1       6.292  13.264  48.469  1.00  0.00     0.198 C 
BRANCH  22  23
HETATM   23  O4  UNL     1       7.177  12.212  48.463  1.00  0.00    -0.398 OA
ATOM     24  H4  UNL     1       8.005  12.464  48.070  1.00  0.00     0.209 HD
ENDBRANCH  22  23
ENDBRANCH  19  22
ENDBRANCH  16  19
BRANCH  17  25
HETATM   25  N7  UNL     1       3.416  10.298  46.557  1.00  0.00    -0.070 N 
ATOM     26  H73 UNL     1       3.906  10.289  45.662  1.00  0.00     0.274 HD
ATOM     27  H72 UNL     1       3.058   9.343  46.573  1.00  0.00     0.274 HD
ATOM     28  H71 UNL     1       2.644  10.964  46.529  1.00  0.00     0.274 HD
ENDBRANCH  17  25
BRANCH  18  29
HETATM   29  N8  UNL     1       2.847   8.800  48.511  1.00  0.00    -0.069 N 
ATOM     30  H83 UNL     1       2.886   7.812  48.761  1.00  0.00     0.275 HD
ATOM     31  H82 UNL     1       2.132   9.105  49.172  1.00  0.00     0.275 HD
ATOM     32  H81 UNL     1       2.537   8.926  47.547  1.00  0.00     0.275 HD
ENDBRANCH  18  29
ENDBRANCH  13  14
BRANCH  12  33
HETATM   33  N5  UNL     1       2.347  10.059  51.498  1.00  0.00    -0.234 N 
ATOM     34  H52 UNL     1       1.718   9.281  51.694  1.00  0.00     0.174 HD
ATOM     35  H51 UNL     1       1.658  10.426  50.842  1.00  0.00     0.174 HD
ENDBRANCH  12  33
BRANCH   7  36
HETATM   36  N3  UNL     1       7.108   9.897  50.171  1.00  0.00    -0.383 N 
ATOM     37  H32 UNL     1       7.234   9.246  49.395  1.00  0.00     0.157 HD
ATOM     38  H31 UNL     1       7.214  10.898  50.011  1.00  0.00     0.157 HD
ENDBRANCH   7  36
TORSDOF 9
ENDMDL
MODEL 4
REMARK VINA RESULT: -7.293460388      2.520      3.433
REMARK  9 active torsions:
REMARK  status: ('A' for Active; 'I' for Inactive)
REMARK    1  A    between atoms: C3_7  and  N3_8 
REMARK    2  A    between atoms: C6_15  and  N5_16 
REMARK    3  A    between atoms: N6_19  and  C7_20 
REMARK    4  A    between atoms: C8_22  and  C9_23 
REMARK    5  A    between atoms: C9_23  and  O3_24 
REMARK    6  A    between atoms: C9_23  and  C10_26 
REMARK    7  A    between atoms: C10_26  and  O4_27 
REMARK    8  A    between atoms: C11_29  and  N7_30 
REMARK    9  A    between atoms: C12_34  and  N8_35 
ROOT
HETATM    1  C1  UNL     1       8.474  11.350  55.725  1.00  0.00     0.163 C 
HETATM    2  N1  UNL     1       7.899  10.556  54.687  1.00  0.00    -0.287 N 
HETATM    3  C2  UNL     1       8.315   9.311  54.468  1.00  0.00     0.329 A 
HETATM    4  O1  UNL     1       9.244   8.848  55.206  1.00  0.00    -0.246 OA
HETATM    5  N2  UNL     1       7.742   8.620  53.495  1.00  0.00    -0.293 N 
ATOM      6  H2  UNL     1       8.059   7.666  53.326  1.00  0.00     0.172 HD
HETATM    7  C3  UNL     1       6.764   9.115  52.719  1.00  0.00     0.134 A 
HETATM    8  C4  UNL     1       6.306  10.429  52.931  1.00  0.00     0.142 A 
HETATM    9  C5  UNL     1       6.905  11.118  53.931  1.00  0.00     0.158 A 
HETATM   10  N4  UNL     1       6.288  12.215  53.852  1.00  0.00    -0.174 N 
ATOM     11  H4  UNL     1       6.589  12.909  54.537  1.00  0.00     0.186 HD
HETATM   12  C6  UNL     1       5.380  12.610  53.095  1.00  0.00     0.682 A 
HETATM   13  N6  UNL     1       5.404  11.120  52.339  1.00  0.00    -0.147 N 
ENDROOT
BRANCH  13  14
HETATM   14  C7  UNL     1       4.515  10.898  51.326  1.00  0.00     0.279 C 
HETATM   15  O2  UNL     1       5.112  10.862  50.038  1.00  0.00    -0.353 OA
HETATM   16  C8  UNL     1       3.956  10.635  49.257  1.00  0.00     0.187 C 
HETATM   17  C11 UNL     1       3.317   9.460  49.917  1.00  0.00     0.249 C 
HETATM   18  C12 UNL     1       3.637   9.692  51.411  1.00  0.00     0.265 C 
BRANCH  16  19
HETATM   19  C9  UNL     1       4.420  10.389  47.858  1.00  0.00     0.172 C 
BRANCH  19  20
HETATM   20  O3  UNL     1       3.595   9.588  47.100  1.00  0.00    -0.391 OA
ATOM     21  H3  UNL     1       3.706   9.671  46.160  1.00  0.00     0.210 HD
ENDBRANCH  19  20
BRANCH  19  22
HETATM   22  C10 UNL     1       4.764  11.644  47.088  1.00  0.00     0.198 C 
BRANCH  22  23
HETATM   23  O4  UNL     1       5.913  11.474  46.352  1.00  0.00    -0.398 OA
ATOM     24  H4  UNL     1       6.678  11.443  46.916  1.00  0.00     0.209 HD
ENDBRANCH  22  23
ENDBRANCH  19  22
ENDBRANCH  16  19
BRANCH  17  25
HETATM   25  N7  UNL     1       1.905   9.323  49.682  1.00  0.00    -0.070 N 
ATOM     26  H73 UNL     1       1.409  10.144  50.031  1.00  0.00     0.274 HD
ATOM     27  H72 UNL     1       1.705   9.405  48.685  1.00  0.00     0.274 HD
ATOM     28  H71 UNL     1       1.485   8.472  50.057  1.00  0.00     0.274 HD
ENDBRANCH  17  25
BRANCH  18  29
HETATM   29  N8  UNL     1       2.344   9.989  52.080  1.00  0.00    -0.069 N 
ATOM     30  H83 UNL     1       1.922   9.141  52.460  1.00  0.00     0.275 HD
ATOM     31  H82 UNL     1       2.488  10.502  52.950  1.00  0.00     0.275 HD
ATOM     32  H81 UNL     1       1.697  10.480  51.463  1.00  0.00     0.275 HD
ENDBRANCH  18  29
ENDBRANCH  13  14
BRANCH  12  33
HETATM   33  N5  UNL     1       4.492  12.998  52.354  1.00  0.00    -0.234 N 
ATOM     34  H52 UNL     1       4.612  13.957  52.680  1.00  0.00     0.174 HD
ATOM     35  H51 UNL     1       3.749  13.322  51.735  1.00  0.00     0.174 HD
ENDBRANCH  12  33
BRANCH   7  36
HETATM   36  N3  UNL     1       6.272   8.416  51.815  1.00  0.00    -0.383 N 
ATOM     37  H32 UNL     1       6.684   8.416  50.882  1.00  0.00     0.157 HD
ATOM     38  H31 UNL     1       5.457   7.835  52.006  1.00  0.00     0.157 HD
ENDBRANCH   7  36
TORSDOF 9
ENDMDL
MODEL 5
REMARK VINA RESULT: -7.149493215      1.895      2.438
REMARK  9 active torsions:
REMARK  status: ('A' for Active; 'I' for Inactive)
REMARK    1  A    between atoms: C3_7  and  N3_8 
REMARK    2  A    between atoms: C6_15  and  N5_16 
REMARK    3  A    between atoms: N6_19  and  C7_20 
REMARK    4  A    between atoms: C8_22  and  C9_23 
REMARK    5  A    between atoms: C9_23  and  O3_24 
REMARK    6  A    between atoms: C9_23  and  C10_26 
REMARK    7  A    between atoms: C10_26  and  O4_27 
REMARK    8  A    between atoms: C11_29  and  N7_30 
REMARK    9  A    between atoms: C12_34  and  N8_35 
ROOT
HETATM    1  C1  UNL     1       8.866   9.750  56.062  1.00  0.00     0.163 C 
HETATM    2  N1  UNL     1       7.656   9.327  55.429  1.00  0.00    -0.287 N 
HETATM    3  C2  UNL     1       6.925   8.342  55.943  1.00  0.00     0.329 A 
HETATM    4  O1  UNL     1       7.333   7.782  57.012  1.00  0.00    -0.246 OA
HETATM    5  N2  UNL     1       5.811   7.995  55.317  1.00  0.00    -0.293 N 
ATOM      6  H2  UNL     1       5.249   7.240  55.710  1.00  0.00     0.172 HD
HETATM    7  C3  UNL     1       5.387   8.588  54.190  1.00  0.00     0.134 A 
HETATM    8  C4  UNL     1       6.143   9.633  53.627  1.00  0.00     0.142 A 
HETATM    9  C5  UNL     1       7.278   9.971  54.282  1.00  0.00     0.158 A 
HETATM   10  N4  UNL     1       7.701  10.899  53.540  1.00  0.00    -0.174 N 
ATOM     11  H4  UNL     1       8.577  11.314  53.856  1.00  0.00     0.186 HD
HETATM   12  C6  UNL     1       7.250  11.403  52.493  1.00  0.00     0.682 A 
HETATM   13  N6  UNL     1       5.958  10.345  52.577  1.00  0.00    -0.147 N 
ENDROOT
BRANCH  13  14
HETATM   14  C7  UNL     1       4.991  10.431  51.616  1.00  0.00     0.279 C 
HETATM   15  O2  UNL     1       4.782   9.220  50.905  1.00  0.00    -0.353 OA
HETATM   16  C8  UNL     1       3.768   9.648  50.018  1.00  0.00     0.187 C 
HETATM   17  C11 UNL     1       2.759  10.274  50.921  1.00  0.00     0.249 C 
HETATM   18  C12 UNL     1       3.637  10.915  52.020  1.00  0.00     0.265 C 
BRANCH  16  19
HETATM   19  C9  UNL     1       3.287   8.434  49.293  1.00  0.00     0.172 C 
BRANCH  19  20
HETATM   20  O3  UNL     1       2.081   8.580  48.644  1.00  0.00    -0.391 OA
ATOM     21  H3  UNL     1       1.699   7.773  48.317  1.00  0.00     0.210 HD
ENDBRANCH  19  20
BRANCH  19  22
HETATM   22  C10 UNL     1       4.304   7.829  48.351  1.00  0.00     0.198 C 
BRANCH  22  23
HETATM   23  O4  UNL     1       5.404   7.373  49.039  1.00  0.00    -0.398 OA
ATOM     24  H4  UNL     1       5.655   6.505  48.745  1.00  0.00     0.209 HD
ENDBRANCH  22  23
ENDBRANCH  19  22
ENDBRANCH  16  19
BRANCH  17  25
HETATM   25  N7  UNL     1       1.893  11.235  50.293  1.00  0.00    -0.070 N 
ATOM     26  H73 UNL     1       1.969  12.137  50.763  1.00  0.00     0.274 HD
ATOM     27  H72 UNL     1       2.254  11.484  49.371  1.00  0.00     0.274 HD
ATOM     28  H71 UNL     1       0.915  10.954  50.225  1.00  0.00     0.274 HD
ENDBRANCH  17  25
BRANCH  18  29
HETATM   29  N8  UNL     1       3.501  12.387  51.866  1.00  0.00    -0.069 N 
ATOM     30  H83 UNL     1       4.010  12.883  52.598  1.00  0.00     0.275 HD
ATOM     31  H82 UNL     1       4.019  12.723  51.053  1.00  0.00     0.275 HD
ATOM     32  H81 UNL     1       2.525  12.680  51.829  1.00  0.00     0.275 HD
ENDBRANCH  18  29
ENDBRANCH  13  14
BRANCH  12  33
HETATM   33  N5  UNL     1       6.809  11.895  51.468  1.00  0.00    -0.234 N 
ATOM     34  H52 UNL     1       6.020  12.294  51.976  1.00  0.00     0.174 HD
ATOM     35  H51 UNL     1       6.439  12.307  50.610  1.00  0.00     0.174 HD
ENDBRANCH  12  33
BRANCH   7  36
HETATM   36  N3  UNL     1       4.334   8.209  53.645  1.00  0.00    -0.383 N 
ATOM     37  H32 UNL     1       3.558   8.859  53.516  1.00  0.00     0.157 HD
ATOM     38  H31 UNL     1       4.246   7.247  53.320  1.00  0.00     0.157 HD
ENDBRANCH   7  36
TORSDOF 9
ENDMDL
