MODEL 1
REMARK VINA RESULT: -8.366127603      0.000      0.000
REMARK  10 active torsions:
REMARK  status: ('A' for Active; 'I' for Inactive)
REMARK    1  A    between atoms: C2_2  and  N1_3 
REMARK    2  A    between atoms: C2_2  and  C3_7 
REMARK    3  A    between atoms: C3_7  and  C4_9 
REMARK    4  A    between atoms: C4_9  and  O2_10 
REMARK    5  A    between atoms: C4_9  and  O3_12 
REMARK    6  A    between atoms: O3_12  and  N2_13 
REMARK    7  A    between atoms: N2_13  and  C5_15 
REMARK    8  A    between atoms: N6_24  and  C7_25 
REMARK    9  A    between atoms: C9_31  and  O5_32 
REMARK   10  A    between atoms: C10_34  and  O6_35 
ROOT
HETATM    1  C5  UNL     1       5.383  10.311  51.696  1.00  0.00     0.736 A 
HETATM    2  N3  UNL     1       6.710  10.148  52.064  1.00  0.00    -0.018 N 
ATOM      3  H3  UNL     1       7.452  10.839  51.954  1.00  0.00     0.203 HD
HETATM    4  C6  UNL     1       6.846   8.928  52.586  1.00  0.00     0.705 A 
HETATM    5  N4  UNL     1       7.952   8.414  53.043  1.00  0.00    -0.233 N 
ATOM      6  H41 UNL     1       8.056   7.480  53.442  1.00  0.00     0.174 HD
ATOM      7  H42 UNL     1       8.851   8.896  53.054  1.00  0.00     0.174 HD
HETATM    8  N5  UNL     1       5.672   8.297  52.572  1.00  0.00    -0.113 N 
ATOM      9  H5  UNL     1       5.477   7.354  52.906  1.00  0.00     0.206 HD
HETATM   10  N6  UNL     1       4.800   9.156  52.029  1.00  0.00    -0.074 N 
ENDROOT
BRANCH   1  11
HETATM   11  N2  UNL     1       4.949  11.383  51.167  1.00  0.00    -0.091 N 
ATOM     12  H2  UNL     1       4.040  11.674  51.528  1.00  0.00     0.213 HD
BRANCH  11  13
HETATM   13  O3  UNL     1       5.434  12.200  50.239  1.00  0.00    -0.225 OA
BRANCH  13  14
HETATM   14  C4  UNL     1       5.598  11.818  48.862  1.00  0.00     0.359 C 
BRANCH  14  15
HETATM   15  C3  UNL     1       4.327  12.022  48.161  1.00  0.00     0.213 C 
HETATM   16  O1  UNL     1       3.332  12.312  48.796  1.00  0.00    -0.290 OA
BRANCH  15  17
HETATM   17  C2  UNL     1       4.244  11.880  46.692  1.00  0.00     0.253 C 
HETATM   18  C1  UNL     1       5.549  12.169  45.977  1.00  0.00     0.048 C 
BRANCH  17  19
HETATM   19  N1  UNL     1       3.906  10.489  46.375  1.00  0.00    -0.069 N 
ATOM     20  H13 UNL     1       4.286  10.172  45.484  1.00  0.00     0.275 HD
ATOM     21  H12 UNL     1       4.388   9.809  46.965  1.00  0.00     0.275 HD
ATOM     22  H11 UNL     1       2.889  10.425  46.429  1.00  0.00     0.275 HD
ENDBRANCH  17  19
ENDBRANCH  15  17
ENDBRANCH  14  15
BRANCH  14  23
HETATM   23  O2  UNL     1       5.956  10.452  48.813  1.00  0.00    -0.363 OA
ATOM     24  H2  UNL     1       6.700  10.295  49.383  1.00  0.00     0.213 HD
ENDBRANCH  14  23
ENDBRANCH  13  14
ENDBRANCH  11  13
ENDBRANCH   1  11
BRANCH  10  25
HETATM   25  C7  UNL     1       3.387   8.825  51.851  1.00  0.00     0.305 C 
HETATM   26  O4  UNL     1       3.314   7.964  50.709  1.00  0.00    -0.293 OA
HETATM   27  C8  UNL     1       3.186   8.498  49.423  1.00  0.00     0.231 C 
HETATM   28  N7  UNL     1       3.929   8.091  48.303  1.00  0.00    -0.056 NA
HETATM   29  N8  UNL     1       2.297   9.442  49.299  1.00  0.00    -0.330 N 
HETATM   30  C9  UNL     1       1.572   9.808  50.496  1.00  0.00     0.253 C 
ATOM     31  H8  UNL     1       2.122   9.900  48.405  1.00  0.00     0.165 HD
HETATM   32  C10 UNL     1       2.559  10.075  51.622  1.00  0.00     0.218 C 
BRANCH  30  33
HETATM   33  O5  UNL     1       0.736  10.853  50.222  1.00  0.00    -0.374 OA
ATOM     34  H5  UNL     1      -0.162  10.546  50.207  1.00  0.00     0.212 HD
ENDBRANCH  30  33
BRANCH  32  35
HETATM   35  O6  UNL     1       1.805  10.432  52.737  1.00  0.00    -0.387 OA
ATOM     36  H6  UNL     1       0.951  10.017  52.749  1.00  0.00     0.210 HD
ENDBRANCH  32  35
ENDBRANCH  10  25
TORSDOF 10
ENDMDL
MODEL 2
REMARK VINA RESULT: -8.265318773      1.916      4.545
REMARK  10 active torsions:
REMARK  status: ('A' for Active; 'I' for Inactive)
REMARK    1  A    between atoms: C2_2  and  N1_3 
REMARK    2  A    between atoms: C2_2  and  C3_7 
REMARK    3  A    between atoms: C3_7  and  C4_9 
REMARK    4  A    between atoms: C4_9  and  O2_10 
REMARK    5  A    between atoms: C4_9  and  O3_12 
REMARK    6  A    between atoms: O3_12  and  N2_13 
REMARK    7  A    between atoms: N2_13  and  C5_15 
REMARK    8  A    between atoms: N6_24  and  C7_25 
REMARK    9  A    between atoms: C9_31  and  O5_32 
REMARK   10  A    between atoms: C10_34  and  O6_35 
ROOT
HETATM    1  C5  UNL     1       5.327  12.232  48.807  1.00  0.00     0.736 A 
HETATM    2  N3  UNL     1       5.166  13.032  47.685  1.00  0.00    -0.018 N 
ATOM      3  H3  UNL     1       5.905  13.541  47.201  1.00  0.00     0.203 HD
HETATM    4  C6  UNL     1       3.874  13.019  47.352  1.00  0.00     0.705 A 
HETATM    5  N4  UNL     1       3.340  13.656  46.349  1.00  0.00    -0.233 N 
ATOM      6  H41 UNL     1       2.352  13.645  46.094  1.00  0.00     0.174 HD
ATOM      7  H42 UNL     1       3.859  14.244  45.698  1.00  0.00     0.174 HD
HETATM    8  N5  UNL     1       3.196  12.250  48.204  1.00  0.00    -0.113 N 
ATOM      9  H5  UNL     1       2.195  12.057  48.193  1.00  0.00     0.206 HD
HETATM   10  N6  UNL     1       4.097  11.783  49.077  1.00  0.00    -0.074 N 
ENDROOT
BRANCH   1  11
HETATM   11  N2  UNL     1       6.458  12.051  49.359  1.00  0.00    -0.091 N 
ATOM     12  H2  UNL     1       6.753  12.833  49.944  1.00  0.00     0.213 HD
BRANCH  11  13
HETATM   13  O3  UNL     1       7.334  11.053  49.331  1.00  0.00    -0.225 OA
BRANCH  13  14
HETATM   14  C4  UNL     1       7.082   9.767  49.926  1.00  0.00     0.359 C 
BRANCH  14  15
HETATM   15  C3  UNL     1       7.219   9.885  51.380  1.00  0.00     0.213 C 
HETATM   16  O1  UNL     1       7.708  10.890  51.857  1.00  0.00    -0.290 OA
BRANCH  15  17
HETATM   17  C2  UNL     1       6.766   8.795  52.271  1.00  0.00     0.253 C 
HETATM   18  C1  UNL     1       6.126   9.284  53.555  1.00  0.00     0.048 C 
BRANCH  17  19
HETATM   19  N1  UNL     1       5.738   8.018  51.573  1.00  0.00    -0.069 N 
ATOM     20  H13 UNL     1       5.374   7.240  52.123  1.00  0.00     0.275 HD
ATOM     21  H12 UNL     1       4.854   8.518  51.466  1.00  0.00     0.275 HD
ATOM     22  H11 UNL     1       6.152   7.731  50.687  1.00  0.00     0.275 HD
ENDBRANCH  17  19
ENDBRANCH  15  17
ENDBRANCH  14  15
BRANCH  14  23
HETATM   23  O2  UNL     1       8.033   8.847  49.430  1.00  0.00    -0.363 OA
ATOM     24  H2  UNL     1       8.625   8.590  50.127  1.00  0.00     0.213 HD
ENDBRANCH  14  23
ENDBRANCH  13  14
ENDBRANCH  11  13
ENDBRANCH   1  11
BRANCH  10  25
HETATM   25  C7  UNL     1       3.731  10.886  50.171  1.00  0.00     0.305 C 
HETATM   26  O4  UNL     1       4.154   9.575  49.776  1.00  0.00    -0.293 OA
HETATM   27  C8  UNL     1       3.307   8.750  49.028  1.00  0.00     0.231 C 
HETATM   28  N7  UNL     1       3.694   8.012  47.898  1.00  0.00    -0.056 NA
HETATM   29  N8  UNL     1       2.076   8.690  49.449  1.00  0.00    -0.330 N 
HETATM   30  C9  UNL     1       1.753   9.477  50.618  1.00  0.00     0.253 C 
ATOM     31  H8  UNL     1       1.375   8.117  48.977  1.00  0.00     0.165 HD
HETATM   32  C10 UNL     1       2.234  10.905  50.414  1.00  0.00     0.218 C 
BRANCH  30  33
HETATM   33  O5  UNL     1       0.418   9.366  50.889  1.00  0.00    -0.374 OA
ATOM     34  H5  UNL     1       0.046   8.664  50.370  1.00  0.00     0.212 HD
ENDBRANCH  30  33
BRANCH  32  35
HETATM   35  O6  UNL     1       1.885  11.612  51.562  1.00  0.00    -0.387 OA
ATOM     36  H6  UNL     1       0.945  11.670  51.685  1.00  0.00     0.210 HD
ENDBRANCH  32  35
ENDBRANCH  10  25
TORSDOF 10
ENDMDL
MODEL 3
REMARK VINA RESULT: -8.176713140      3.032      5.750
REMARK  10 active torsions:
REMARK  status: ('A' for Active; 'I' for Inactive)
REMARK    1  A    between atoms: C2_2  and  N1_3 
REMARK    2  A    between atoms: C2_2  and  C3_7 
REMARK    3  A    between atoms: C3_7  and  C4_9 
REMARK    4  A    between atoms: C4_9  and  O2_10 
REMARK    5  A    between atoms: C4_9  and  O3_12 
REMARK    6  A    between atoms: O3_12  and  N2_13 
REMARK    7  A    between atoms: N2_13  and  C5_15 
REMARK    8  A    between atoms: N6_24  and  C7_25 
REMARK    9  A    between atoms: C9_31  and  O5_32 
REMARK   10  A    between atoms: C10_34  and  O6_35 
ROOT
HETATM    1  C5  UNL     1       5.957  10.615  51.850  1.00  0.00     0.736 A 
HETATM    2  N3  UNL     1       6.526  11.811  51.440  1.00  0.00    -0.018 N 
ATOM      3  H3  UNL     1       7.078  12.442  52.020  1.00  0.00     0.203 HD
HETATM    4  C6  UNL     1       6.223  11.993  50.154  1.00  0.00     0.705 A 
HETATM    5  N4  UNL     1       6.584  13.008  49.422  1.00  0.00    -0.233 N 
ATOM      6  H41 UNL     1       6.352  13.146  48.438  1.00  0.00     0.174 HD
ATOM      7  H42 UNL     1       7.147  13.789  49.757  1.00  0.00     0.174 HD
HETATM    8  N5  UNL     1       5.487  10.971  49.715  1.00  0.00    -0.113 N 
ATOM      9  H5  UNL     1       5.113  10.843  48.775  1.00  0.00     0.206 HD
HETATM   10  N6  UNL     1       5.338  10.148  50.761  1.00  0.00    -0.074 N 
ENDROOT
BRANCH   1  11
HETATM   11  N2  UNL     1       6.076  10.174  53.037  1.00  0.00    -0.091 N 
ATOM     12  H2  UNL     1       5.429  10.606  53.697  1.00  0.00     0.213 HD
BRANCH  11  13
HETATM   13  O3  UNL     1       6.869   9.266  53.595  1.00  0.00    -0.225 OA
BRANCH  13  14
HETATM   14  C4  UNL     1       6.395   8.268  54.517  1.00  0.00     0.359 C 
BRANCH  14  15
HETATM   15  C3  UNL     1       6.789   8.656  55.874  1.00  0.00     0.213 C 
HETATM   16  O1  UNL     1       7.194   9.783  56.083  1.00  0.00    -0.290 OA
BRANCH  15  17
HETATM   17  C2  UNL     1       6.697   7.691  56.991  1.00  0.00     0.253 C 
HETATM   18  C1  UNL     1       6.820   8.330  58.360  1.00  0.00     0.048 C 
BRANCH  17  19
HETATM   19  N1  UNL     1       5.374   7.060  56.955  1.00  0.00    -0.069 N 
ATOM     20  H13 UNL     1       5.406   6.065  56.733  1.00  0.00     0.275 HD
ATOM     21  H12 UNL     1       4.942   6.969  57.874  1.00  0.00     0.275 HD
ATOM     22  H11 UNL     1       4.818   7.604  56.296  1.00  0.00     0.275 HD
ENDBRANCH  17  19
ENDBRANCH  15  17
ENDBRANCH  14  15
BRANCH  14  23
HETATM   23  O2  UNL     1       6.988   7.029  54.184  1.00  0.00    -0.363 OA
ATOM     24  H2  UNL     1       6.946   6.896  53.244  1.00  0.00     0.213 HD
ENDBRANCH  14  23
ENDBRANCH  13  14
ENDBRANCH  11  13
ENDBRANCH   1  11
BRANCH  10  25
HETATM   25  C7  UNL     1       4.589   8.897  50.668  1.00  0.00     0.305 C 
HETATM   26  O4  UNL     1       4.472   8.599  49.272  1.00  0.00    -0.293 OA
HETATM   27  C8  UNL     1       3.406   9.107  48.523  1.00  0.00     0.231 C 
HETATM   28  N7  UNL     1       3.523   9.703  47.257  1.00  0.00    -0.056 NA
HETATM   29  N8  UNL     1       2.234   8.997  49.079  1.00  0.00    -0.330 N 
HETATM   30  C9  UNL     1       2.193   8.372  50.383  1.00  0.00     0.253 C 
ATOM     31  H8  UNL     1       1.388   9.334  48.619  1.00  0.00     0.165 HD
HETATM   32  C10 UNL     1       3.214   9.038  51.293  1.00  0.00     0.218 C 
BRANCH  30  33
HETATM   33  O5  UNL     1       0.913   8.397  50.861  1.00  0.00    -0.374 OA
ATOM     34  H5  UNL     1       0.913   8.156  51.780  1.00  0.00     0.212 HD
ENDBRANCH  30  33
BRANCH  32  35
HETATM   35  O6  UNL     1       3.119   8.405  52.529  1.00  0.00    -0.387 OA
ATOM     36  H6  UNL     1       3.100   7.458  52.455  1.00  0.00     0.210 HD
ENDBRANCH  32  35
ENDBRANCH  10  25
TORSDOF 10
ENDMDL
MODEL 4
REMARK VINA RESULT: -8.161677712      2.068      4.836
REMARK  10 active torsions:
REMARK  status: ('A' for Active; 'I' for Inactive)
REMARK    1  A    between atoms: C2_2  and  N1_3 
REMARK    2  A    between atoms: C2_2  and  C3_7 
REMARK    3  A    between atoms: C3_7  and  C4_9 
REMARK    4  A    between atoms: C4_9  and  O2_10 
REMARK    5  A    between atoms: C4_9  and  O3_12 
REMARK    6  A    between atoms: O3_12  and  N2_13 
REMARK    7  A    between atoms: N2_13  and  C5_15 
REMARK    8  A    between atoms: N6_24  and  C7_25 
REMARK    9  A    between atoms: C9_31  and  O5_32 
REMARK   10  A    between atoms: C10_34  and  O6_35 
ROOT
HETATM    1  C5  UNL     1       5.500  11.604  49.509  1.00  0.00     0.736 A 
HETATM    2  N3  UNL     1       5.588  12.405  48.379  1.00  0.00    -0.018 N 
ATOM      3  H3  UNL     1       6.449  12.738  47.947  1.00  0.00     0.203 HD
HETATM    4  C6  UNL     1       4.349  12.663  47.958  1.00  0.00     0.705 A 
HETATM    5  N4  UNL     1       4.031  13.385  46.922  1.00  0.00    -0.233 N 
ATOM      6  H41 UNL     1       3.083  13.582  46.600  1.00  0.00     0.174 HD
ATOM      7  H42 UNL     1       4.706  13.840  46.308  1.00  0.00     0.174 HD
HETATM    8  N5  UNL     1       3.467  12.068  48.761  1.00  0.00    -0.113 N 
ATOM      9  H5  UNL     1       2.450  12.092  48.682  1.00  0.00     0.206 HD
HETATM   10  N6  UNL     1       4.187  11.432  49.693  1.00  0.00    -0.074 N 
ENDROOT
BRANCH   1  11
HETATM   11  N2  UNL     1       6.526  11.194  50.137  1.00  0.00    -0.091 N 
ATOM     12  H2  UNL     1       6.901  10.318  49.773  1.00  0.00     0.213 HD
BRANCH  11  13
HETATM   13  O3  UNL     1       7.213  11.672  51.168  1.00  0.00    -0.225 OA
BRANCH  13  14
HETATM   14  C4  UNL     1       7.347  10.969  52.417  1.00  0.00     0.359 C 
BRANCH  14  15
HETATM   15  C3  UNL     1       7.928   9.650  52.155  1.00  0.00     0.213 C 
HETATM   16  O1  UNL     1       8.485   9.439  51.095  1.00  0.00    -0.290 OA
BRANCH  15  17
HETATM   17  C2  UNL     1       7.846   8.575  53.167  1.00  0.00     0.253 C 
HETATM   18  C1  UNL     1       8.124   9.045  54.580  1.00  0.00     0.048 C 
BRANCH  17  19
HETATM   19  N1  UNL     1       6.479   8.046  53.175  1.00  0.00    -0.069 N 
ATOM     20  H13 UNL     1       6.144   7.772  52.252  1.00  0.00     0.275 HD
ATOM     21  H12 UNL     1       6.401   7.127  53.613  1.00  0.00     0.275 HD
ATOM     22  H11 UNL     1       5.901   8.759  53.622  1.00  0.00     0.275 HD
ENDBRANCH  17  19
ENDBRANCH  15  17
ENDBRANCH  14  15
BRANCH  14  23
HETATM   23  O2  UNL     1       6.063  10.820  52.990  1.00  0.00    -0.363 OA
ATOM     24  H2  UNL     1       6.093  11.061  53.909  1.00  0.00     0.213 HD
ENDBRANCH  14  23
ENDBRANCH  13  14
ENDBRANCH  11  13
ENDBRANCH   1  11
BRANCH  10  25
HETATM   25  C7  UNL     1       3.566  10.648  50.759  1.00  0.00     0.305 C 
HETATM   26  O4  UNL     1       4.513   9.635  51.120  1.00  0.00    -0.293 OA
HETATM   27  C8  UNL     1       4.534   8.409  50.448  1.00  0.00     0.231 C 
HETATM   28  N7  UNL     1       5.692   7.767  49.979  1.00  0.00    -0.056 NA
HETATM   29  N8  UNL     1       3.370   7.854  50.266  1.00  0.00    -0.330 N 
HETATM   30  C9  UNL     1       2.224   8.574  50.776  1.00  0.00     0.253 C 
ATOM     31  H8  UNL     1       3.271   6.959  49.788  1.00  0.00     0.165 HD
HETATM   32  C10 UNL     1       2.272  10.013  50.284  1.00  0.00     0.218 C 
BRANCH  30  33
HETATM   33  O5  UNL     1       1.080   7.906  50.446  1.00  0.00    -0.374 OA
ATOM     34  H5  UNL     1       0.330   8.359  50.810  1.00  0.00     0.212 HD
ENDBRANCH  30  33
BRANCH  32  35
HETATM   35  O6  UNL     1       1.144  10.647  50.796  1.00  0.00    -0.387 OA
ATOM     36  H6  UNL     1       0.594  10.063  51.305  1.00  0.00     0.210 HD
ENDBRANCH  32  35
ENDBRANCH  10  25
TORSDOF 10
ENDMDL
MODEL 5
REMARK VINA RESULT: -8.131332656      1.913      5.036
REMARK  10 active torsions:
REMARK  status: ('A' for Active; 'I' for Inactive)
REMARK    1  A    between atoms: C2_2  and  N1_3 
REMARK    2  A    between atoms: C2_2  and  C3_7 
REMARK    3  A    between atoms: C3_7  and  C4_9 
REMARK    4  A    between atoms: C4_9  and  O2_10 
REMARK    5  A    between atoms: C4_9  and  O3_12 
REMARK    6  A    between atoms: O3_12  and  N2_13 
REMARK    7  A    between atoms: N2_13  and  C5_15 
REMARK    8  A    between atoms: N6_24  and  C7_25 
REMARK    9  A    between atoms: C9_31  and  O5_32 
REMARK   10  A    between atoms: C10_34  and  O6_35 
ROOT
HETATM    1  C5  UNL     1       5.178  11.215  49.284  1.00  0.00     0.736 A 
HETATM    2  N3  UNL     1       5.557  12.114  48.298  1.00  0.00    -0.018 N 
ATOM      3  H3  UNL     1       6.103  12.963  48.439  1.00  0.00     0.203 HD
HETATM    4  C6  UNL     1       5.082  11.672  47.133  1.00  0.00     0.705 A 
HETATM    5  N4  UNL     1       5.237  12.253  45.977  1.00  0.00    -0.233 N 
ATOM      6  H41 UNL     1       4.873  11.914  45.086  1.00  0.00     0.174 HD
ATOM      7  H42 UNL     1       5.746  13.124  45.834  1.00  0.00     0.174 HD
HETATM    8  N5  UNL     1       4.415  10.533  47.320  1.00  0.00    -0.113 N 
ATOM      9  H5  UNL     1       3.946   9.972  46.609  1.00  0.00     0.206 HD
HETATM   10  N6  UNL     1       4.487  10.276  48.632  1.00  0.00    -0.074 N 
ENDROOT
BRANCH   1  11
HETATM   11  N2  UNL     1       5.488  11.373  50.507  1.00  0.00    -0.091 N 
ATOM     12  H2  UNL     1       4.682  11.380  51.132  1.00  0.00     0.213 HD
BRANCH  11  13
HETATM   13  O3  UNL     1       6.646  11.532  51.138  1.00  0.00    -0.225 OA
BRANCH  13  14
HETATM   14  C4  UNL     1       6.976  10.848  52.361  1.00  0.00     0.359 C 
BRANCH  14  15
HETATM   15  C3  UNL     1       7.669   9.600  52.030  1.00  0.00     0.213 C 
HETATM   16  O1  UNL     1       7.990   9.379  50.879  1.00  0.00    -0.290 OA
BRANCH  15  17
HETATM   17  C2  UNL     1       7.982   8.610  53.083  1.00  0.00     0.253 C 
HETATM   18  C1  UNL     1       8.390   9.232  54.403  1.00  0.00     0.048 C 
BRANCH  17  19
HETATM   19  N1  UNL     1       6.775   7.824  53.358  1.00  0.00    -0.069 N 
ATOM     20  H13 UNL     1       5.911   8.351  53.235  1.00  0.00     0.275 HD
ATOM     21  H12 UNL     1       6.586   7.109  52.655  1.00  0.00     0.275 HD
ATOM     22  H11 UNL     1       6.890   7.448  54.299  1.00  0.00     0.275 HD
ENDBRANCH  17  19
ENDBRANCH  15  17
ENDBRANCH  14  15
BRANCH  14  23
HETATM   23  O2  UNL     1       5.778  10.560  53.053  1.00  0.00    -0.363 OA
ATOM     24  H2  UNL     1       5.946  10.535  53.988  1.00  0.00     0.213 HD
ENDBRANCH  14  23
ENDBRANCH  13  14
ENDBRANCH  11  13
ENDBRANCH   1  11
BRANCH  10  25
HETATM   25  C7  UNL     1       3.875   9.090  49.229  1.00  0.00     0.305 C 
HETATM   26  O4  UNL     1       2.471   9.363  49.319  1.00  0.00    -0.293 OA
HETATM   27  C8  UNL     1       1.942  10.005  50.443  1.00  0.00     0.231 C 
HETATM   28  N7  UNL     1       1.022  11.066  50.406  1.00  0.00    -0.056 NA
HETATM   29  N8  UNL     1       2.360   9.553  51.590  1.00  0.00    -0.330 N 
HETATM   30  C9  UNL     1       3.307   8.461  51.549  1.00  0.00     0.253 C 
ATOM     31  H8  UNL     1       2.038   9.950  52.473  1.00  0.00     0.165 HD
HETATM   32  C10 UNL     1       4.447   8.817  50.607  1.00  0.00     0.218 C 
BRANCH  30  33
HETATM   33  O5  UNL     1       3.703   8.150  52.819  1.00  0.00    -0.374 OA
ATOM     34  H5  UNL     1       3.118   8.561  53.443  1.00  0.00     0.212 HD
ENDBRANCH  30  33
BRANCH  32  35
HETATM   35  O6  UNL     1       5.326   7.737  50.619  1.00  0.00    -0.387 OA
ATOM     36  H6  UNL     1       5.180   7.154  51.354  1.00  0.00     0.210 HD
ENDBRANCH  32  35
ENDBRANCH  10  25
TORSDOF 10
ENDMDL
