MODEL 1
REMARK VINA RESULT: -8.583040684      0.000      0.000
REMARK  10 active torsions:
REMARK  status: ('A' for Active; 'I' for Inactive)
REMARK    1  A    between atoms: N3_4  and  C2_6 
REMARK    2  A    between atoms: C2_6  and  C3_7 
REMARK    3  A    between atoms: C3_7  and  O1_8 
REMARK    4  A    between atoms: N4_12  and  C5_13 
REMARK    5  A    between atoms: C6_16  and  O3_17 
REMARK    6  A    between atoms: C7_19  and  C8_20 
REMARK    7  A    between atoms: C8_20  and  O4_21 
REMARK    8  A    between atoms: N6_23  and  N7_24 
REMARK    9  A    between atoms: C10_28  and  O5_29 
REMARK   10  A    between atoms: C11_31  and  O6_32 
ROOT
HETATM    1  C3  UNL     1       6.358   9.986  50.691  1.00  0.00     0.183 C 
HETATM    2  C4  UNL     1       6.629   9.362  52.013  1.00  0.00     0.277 C 
HETATM    3  O2  UNL     1       6.970   8.153  52.049  1.00  0.00    -0.269 OA
HETATM    4  N4  UNL     1       6.527  10.046  53.252  1.00  0.00    -0.144 N 
HETATM    5  C9  UNL     1       6.390  11.485  53.191  1.00  0.00     0.185 C 
HETATM    6  C10 UNL     1       5.337  11.779  52.144  1.00  0.00     0.169 C 
HETATM    7  C11 UNL     1       5.858  11.391  50.803  1.00  0.00     0.194 C 
ENDROOT
BRANCH   4   8
HETATM    8  C5  UNL     1       6.556   9.377  54.507  1.00  0.00     0.710 A 
HETATM    9  N5  UNL     1       5.780   8.368  54.945  1.00  0.00    -0.166 N 
HETATM   10  C6  UNL     1       6.096   7.988  56.174  1.00  0.00     0.183 A 
ATOM     11  H5  UNL     1       5.033   7.946  54.394  1.00  0.00     0.186 HD
HETATM   12  C7  UNL     1       7.147   8.795  56.571  1.00  0.00     0.126 A 
HETATM   13  N6  UNL     1       7.401   9.620  55.548  1.00  0.00    -0.090 N 
BRANCH  10  14
HETATM   14  O3  UNL     1       5.482   6.979  56.896  1.00  0.00    -0.344 OA
ATOM     15  H3  UNL     1       5.120   6.177  56.538  1.00  0.00     0.219 HD
ENDBRANCH  10  14
BRANCH  12  16
HETATM   16  C8  UNL     1       7.810   8.703  57.892  1.00  0.00     0.228 C 
BRANCH  16  17
HETATM   17  O4  UNL     1       8.094   7.392  58.227  1.00  0.00    -0.395 OA
ATOM     18  H4  UNL     1       7.301   6.893  58.384  1.00  0.00     0.209 HD
ENDBRANCH  16  17
ENDBRANCH  12  16
BRANCH  13  19
HETATM   19  N7  UNL     1       8.394  10.598  55.541  1.00  0.00    -0.324 N 
ATOM     20  H72 UNL     1       8.649  11.164  54.732  1.00  0.00     0.178 HD
ATOM     21  H71 UNL     1       8.965  10.841  56.350  1.00  0.00     0.178 HD
ENDBRANCH  13  19
ENDBRANCH   4   8
BRANCH   1  22
HETATM   22  C2  UNL     1       5.269   9.139  50.066  1.00  0.00     0.172 C 
BRANCH  22  23
HETATM   23  N3  UNL     1       4.969   9.470  48.709  1.00  0.00    -0.363 N 
HETATM   24  C1  UNL     1       3.773   9.830  48.423  1.00  0.00     0.197 C 
HETATM   25  N1  UNL     1       2.769   9.897  49.419  1.00  0.00    -0.067 NA
HETATM   26  N2  UNL     1       3.444  10.167  47.093  1.00  0.00    -0.067 NA
ATOM     27  H3  UNL     1       5.688   9.422  47.987  1.00  0.00     0.161 HD
ENDBRANCH  22  23
ENDBRANCH   1  22
BRANCH   1  28
HETATM   28  O1  UNL     1       7.509   9.998  49.904  1.00  0.00    -0.376 OA
ATOM     29  H1  UNL     1       8.248  10.367  50.375  1.00  0.00     0.211 HD
ENDBRANCH   1  28
BRANCH   6  30
HETATM   30  O5  UNL     1       5.027  13.141  52.100  1.00  0.00    -0.391 OA
ATOM     31  H5  UNL     1       4.140  13.306  52.398  1.00  0.00     0.210 HD
ENDBRANCH   6  30
BRANCH   7  32
HETATM   32  O6  UNL     1       6.858  12.306  50.449  1.00  0.00    -0.389 OA
ATOM     33  H6  UNL     1       7.474  12.427  51.162  1.00  0.00     0.210 HD
ENDBRANCH   7  32
TORSDOF 10
ENDMDL
MODEL 2
REMARK VINA RESULT: -8.405504820      2.735      3.937
REMARK  10 active torsions:
REMARK  status: ('A' for Active; 'I' for Inactive)
REMARK    1  A    between atoms: N3_4  and  C2_6 
REMARK    2  A    between atoms: C2_6  and  C3_7 
REMARK    3  A    between atoms: C3_7  and  O1_8 
REMARK    4  A    between atoms: N4_12  and  C5_13 
REMARK    5  A    between atoms: C6_16  and  O3_17 
REMARK    6  A    between atoms: C7_19  and  C8_20 
REMARK    7  A    between atoms: C8_20  and  O4_21 
REMARK    8  A    between atoms: N6_23  and  N7_24 
REMARK    9  A    between atoms: C10_28  and  O5_29 
REMARK   10  A    between atoms: C11_31  and  O6_32 
ROOT
HETATM    1  C3  UNL     1       3.089  10.679  49.822  1.00  0.00     0.183 C 
HETATM    2  C4  UNL     1       3.806  10.426  51.100  1.00  0.00     0.277 C 
HETATM    3  O2  UNL     1       3.788  11.317  51.986  1.00  0.00    -0.269 OA
HETATM    4  N4  UNL     1       4.519   9.235  51.390  1.00  0.00    -0.144 N 
HETATM    5  C9  UNL     1       4.323   8.123  50.485  1.00  0.00     0.185 C 
HETATM    6  C10 UNL     1       4.435   8.678  49.081  1.00  0.00     0.169 C 
HETATM    7  C11 UNL     1       3.283   9.586  48.820  1.00  0.00     0.194 C 
ENDROOT
BRANCH   4   8
HETATM    8  C5  UNL     1       5.390   9.109  52.507  1.00  0.00     0.710 A 
HETATM    9  N5  UNL     1       5.301   8.272  53.558  1.00  0.00    -0.166 N 
HETATM   10  C6  UNL     1       6.300   8.429  54.413  1.00  0.00     0.183 A 
ATOM     11  H5  UNL     1       4.550   7.593  53.681  1.00  0.00     0.186 HD
HETATM   12  C7  UNL     1       7.099   9.433  53.894  1.00  0.00     0.126 A 
HETATM   13  N6  UNL     1       6.526   9.822  52.749  1.00  0.00    -0.090 N 
BRANCH  10  14
HETATM   14  O3  UNL     1       6.487   7.718  55.585  1.00  0.00    -0.344 OA
ATOM     15  H3  UNL     1       7.284   7.272  55.847  1.00  0.00     0.219 HD
ENDBRANCH  10  14
BRANCH  12  16
HETATM   16  C8  UNL     1       8.334   9.927  54.542  1.00  0.00     0.228 C 
BRANCH  16  17
HETATM   17  O4  UNL     1       8.984   8.919  55.232  1.00  0.00    -0.395 OA
ATOM     18  H4  UNL     1       9.273   8.228  54.648  1.00  0.00     0.209 HD
ENDBRANCH  16  17
ENDBRANCH  12  16
BRANCH  13  19
HETATM   19  N7  UNL     1       7.019  10.820  51.911  1.00  0.00    -0.324 N 
ATOM     20  H72 UNL     1       6.525  11.199  51.103  1.00  0.00     0.178 HD
ATOM     21  H71 UNL     1       7.927  11.269  52.026  1.00  0.00     0.178 HD
ENDBRANCH  13  19
ENDBRANCH   4   8
BRANCH   1  22
HETATM   22  C2  UNL     1       3.696  11.951  49.268  1.00  0.00     0.172 C 
BRANCH  22  23
HETATM   23  N3  UNL     1       2.932  12.567  48.230  1.00  0.00    -0.363 N 
HETATM   24  C1  UNL     1       3.525  13.391  47.448  1.00  0.00     0.197 C 
HETATM   25  N1  UNL     1       4.901  13.689  47.603  1.00  0.00    -0.067 NA
HETATM   26  N2  UNL     1       2.800  14.014  46.410  1.00  0.00    -0.067 NA
ATOM     27  H3  UNL     1       1.941  12.357  48.115  1.00  0.00     0.161 HD
ENDBRANCH  22  23
ENDBRANCH   1  22
BRANCH   1  28
HETATM   28  O1  UNL     1       1.719  10.824  50.044  1.00  0.00    -0.376 OA
ATOM     29  H1  UNL     1       1.260  10.000  49.929  1.00  0.00     0.211 HD
ENDBRANCH   1  28
BRANCH   6  30
HETATM   30  O5  UNL     1       4.396   7.659  48.125  1.00  0.00    -0.391 OA
ATOM     31  H5  UNL     1       4.441   8.009  47.242  1.00  0.00     0.210 HD
ENDBRANCH   6  30
BRANCH   7  32
HETATM   32  O6  UNL     1       2.130   8.799  48.711  1.00  0.00    -0.389 OA
ATOM     33  H6  UNL     1       2.302   8.016  48.202  1.00  0.00     0.210 HD
ENDBRANCH   7  32
TORSDOF 10
ENDMDL
MODEL 3
REMARK VINA RESULT: -8.373542279      0.787      1.080
REMARK  10 active torsions:
REMARK  status: ('A' for Active; 'I' for Inactive)
REMARK    1  A    between atoms: N3_4  and  C2_6 
REMARK    2  A    between atoms: C2_6  and  C3_7 
REMARK    3  A    between atoms: C3_7  and  O1_8 
REMARK    4  A    between atoms: N4_12  and  C5_13 
REMARK    5  A    between atoms: C6_16  and  O3_17 
REMARK    6  A    between atoms: C7_19  and  C8_20 
REMARK    7  A    between atoms: C8_20  and  O4_21 
REMARK    8  A    between atoms: N6_23  and  N7_24 
REMARK    9  A    between atoms: C10_28  and  O5_29 
REMARK   10  A    between atoms: C11_31  and  O6_32 
ROOT
HETATM    1  C3  UNL     1       6.487   9.929  50.539  1.00  0.00     0.183 C 
HETATM    2  C4  UNL     1       6.728   9.340  51.883  1.00  0.00     0.277 C 
HETATM    3  O2  UNL     1       7.156   8.161  51.955  1.00  0.00    -0.269 OA
HETATM    4  N4  UNL     1       6.504  10.026  53.104  1.00  0.00    -0.144 N 
HETATM    5  C9  UNL     1       6.262  11.450  53.015  1.00  0.00     0.185 C 
HETATM    6  C10 UNL     1       5.252  11.653  51.907  1.00  0.00     0.169 C 
HETATM    7  C11 UNL     1       5.877  11.293  50.603  1.00  0.00     0.194 C 
ENDROOT
BRANCH   4   8
HETATM    8  C5  UNL     1       6.511   9.374  54.368  1.00  0.00     0.710 A 
HETATM    9  N5  UNL     1       5.737   8.361  54.801  1.00  0.00    -0.166 N 
HETATM   10  C6  UNL     1       6.028   8.001  56.042  1.00  0.00     0.183 A 
ATOM     11  H5  UNL     1       5.009   7.923  54.238  1.00  0.00     0.186 HD
HETATM   12  C7  UNL     1       7.060   8.826  56.453  1.00  0.00     0.126 A 
HETATM   13  N6  UNL     1       7.328   9.640  55.426  1.00  0.00    -0.090 N 
BRANCH  10  14
HETATM   14  O3  UNL     1       5.410   6.993  56.762  1.00  0.00    -0.344 OA
ATOM     15  H3  UNL     1       4.934   6.257  56.396  1.00  0.00     0.219 HD
ENDBRANCH  10  14
BRANCH  12  16
HETATM   16  C8  UNL     1       7.692   8.759  57.790  1.00  0.00     0.228 C 
BRANCH  16  17
HETATM   17  O4  UNL     1       7.962   7.454  58.159  1.00  0.00    -0.395 OA
ATOM     18  H4  UNL     1       7.540   7.229  58.980  1.00  0.00     0.209 HD
ENDBRANCH  16  17
ENDBRANCH  12  16
BRANCH  13  19
HETATM   19  N7  UNL     1       8.309  10.630  55.430  1.00  0.00    -0.324 N 
ATOM     20  H72 UNL     1       9.169  10.600  54.882  1.00  0.00     0.178 HD
ATOM     21  H71 UNL     1       8.261  11.484  55.985  1.00  0.00     0.178 HD
ENDBRANCH  13  19
ENDBRANCH   4   8
BRANCH   1  22
HETATM   22  C2  UNL     1       5.503   8.995  49.865  1.00  0.00     0.172 C 
BRANCH  22  23
HETATM   23  N3  UNL     1       4.275   8.820  50.574  1.00  0.00    -0.363 N 
HETATM   24  C1  UNL     1       3.190   8.740  49.898  1.00  0.00     0.197 C 
HETATM   25  N1  UNL     1       3.200   8.824  48.484  1.00  0.00    -0.067 NA
HETATM   26  N2  UNL     1       1.960   8.563  50.567  1.00  0.00    -0.067 NA
ATOM     27  H3  UNL     1       4.262   8.760  51.592  1.00  0.00     0.161 HD
ENDBRANCH  22  23
ENDBRANCH   1  22
BRANCH   1  28
HETATM   28  O1  UNL     1       7.678  10.021  49.818  1.00  0.00    -0.376 OA
ATOM     29  H1  UNL     1       8.035  10.901  49.849  1.00  0.00     0.211 HD
ENDBRANCH   1  28
BRANCH   6  30
HETATM   30  O5  UNL     1       4.843  12.987  51.826  1.00  0.00    -0.391 OA
ATOM     31  H5  UNL     1       5.440  13.503  51.296  1.00  0.00     0.210 HD
ENDBRANCH   6  30
BRANCH   7  32
HETATM   32  O6  UNL     1       6.824  12.278  50.293  1.00  0.00    -0.389 OA
ATOM     33  H6  UNL     1       6.657  12.649  49.435  1.00  0.00     0.210 HD
ENDBRANCH   7  32
TORSDOF 10
ENDMDL
MODEL 4
REMARK VINA RESULT: -8.184084544      2.685      3.818
REMARK  10 active torsions:
REMARK  status: ('A' for Active; 'I' for Inactive)
REMARK    1  A    between atoms: N3_4  and  C2_6 
REMARK    2  A    between atoms: C2_6  and  C3_7 
REMARK    3  A    between atoms: C3_7  and  O1_8 
REMARK    4  A    between atoms: N4_12  and  C5_13 
REMARK    5  A    between atoms: C6_16  and  O3_17 
REMARK    6  A    between atoms: C7_19  and  C8_20 
REMARK    7  A    between atoms: C8_20  and  O4_21 
REMARK    8  A    between atoms: N6_23  and  N7_24 
REMARK    9  A    between atoms: C10_28  and  O5_29 
REMARK   10  A    between atoms: C11_31  and  O6_32 
ROOT
HETATM    1  C3  UNL     1       3.452  11.184  49.653  1.00  0.00     0.183 C 
HETATM    2  C4  UNL     1       4.567  10.917  50.600  1.00  0.00     0.277 C 
HETATM    3  O2  UNL     1       5.609  11.613  50.512  1.00  0.00    -0.269 OA
HETATM    4  N4  UNL     1       4.534   9.918  51.605  1.00  0.00    -0.144 N 
HETATM    5  C9  UNL     1       3.252   9.301  51.868  1.00  0.00     0.185 C 
HETATM    6  C10 UNL     1       2.649   8.956  50.524  1.00  0.00     0.169 C 
HETATM    7  C11 UNL     1       2.322  10.215  49.796  1.00  0.00     0.194 C 
ENDROOT
BRANCH   4   8
HETATM    8  C5  UNL     1       5.688   9.520  52.336  1.00  0.00     0.710 A 
HETATM    9  N5  UNL     1       6.249   8.300  52.432  1.00  0.00    -0.166 N 
HETATM   10  C6  UNL     1       7.327   8.301  53.201  1.00  0.00     0.183 A 
ATOM     11  H5  UNL     1       5.884   7.469  51.966  1.00  0.00     0.186 HD
HETATM   12  C7  UNL     1       7.489   9.603  53.639  1.00  0.00     0.126 A 
HETATM   13  N6  UNL     1       6.489  10.312  53.103  1.00  0.00    -0.090 N 
BRANCH  10  14
HETATM   14  O3  UNL     1       8.120   7.204  53.492  1.00  0.00    -0.344 OA
ATOM     15  H3  UNL     1       7.856   6.443  53.997  1.00  0.00     0.219 HD
ENDBRANCH  10  14
BRANCH  12  16
HETATM   16  C8  UNL     1       8.584  10.048  54.530  1.00  0.00     0.228 C 
BRANCH  16  17
HETATM   17  O4  UNL     1       8.930   9.065  55.439  1.00  0.00    -0.395 OA
ATOM     18  H4  UNL     1       8.518   8.235  55.229  1.00  0.00     0.209 HD
ENDBRANCH  16  17
ENDBRANCH  12  16
BRANCH  13  19
HETATM   19  N7  UNL     1       6.287  11.678  53.297  1.00  0.00    -0.324 N 
ATOM     20  H72 UNL     1       6.509  12.183  54.155  1.00  0.00     0.178 HD
ATOM     21  H71 UNL     1       5.895  12.306  52.596  1.00  0.00     0.178 HD
ENDBRANCH  13  19
ENDBRANCH   4   8
BRANCH   1  22
HETATM   22  C2  UNL     1       4.052  11.018  48.272  1.00  0.00     0.172 C 
BRANCH  22  23
HETATM   23  N3  UNL     1       3.429  11.809  47.258  1.00  0.00    -0.363 N 
HETATM   24  C1  UNL     1       3.943  12.948  46.976  1.00  0.00     0.197 C 
HETATM   25  N1  UNL     1       5.098  13.418  47.647  1.00  0.00    -0.067 NA
HETATM   26  N2  UNL     1       3.354  13.752  45.977  1.00  0.00    -0.067 NA
ATOM     27  H3  UNL     1       2.596  11.476  46.773  1.00  0.00     0.161 HD
ENDBRANCH  22  23
ENDBRANCH   1  22
BRANCH   1  28
HETATM   28  O1  UNL     1       2.944  12.470  49.836  1.00  0.00    -0.376 OA
ATOM     29  H1  UNL     1       2.377  12.725  49.117  1.00  0.00     0.211 HD
ENDBRANCH   1  28
BRANCH   6  30
HETATM   30  O5  UNL     1       1.463   8.230  50.667  1.00  0.00    -0.391 OA
ATOM     31  H5  UNL     1       1.479   7.688  51.448  1.00  0.00     0.210 HD
ENDBRANCH   6  30
BRANCH   7  32
HETATM   32  O6  UNL     1       1.231  10.813  50.439  1.00  0.00    -0.389 OA
ATOM     33  H6  UNL     1       0.854  10.224  51.083  1.00  0.00     0.210 HD
ENDBRANCH   7  32
TORSDOF 10
ENDMDL
MODEL 5
REMARK VINA RESULT: -8.061403315      1.978      2.540
REMARK  10 active torsions:
REMARK  status: ('A' for Active; 'I' for Inactive)
REMARK    1  A    between atoms: N3_4  and  C2_6 
REMARK    2  A    between atoms: C2_6  and  C3_7 
REMARK    3  A    between atoms: C3_7  and  O1_8 
REMARK    4  A    between atoms: N4_12  and  C5_13 
REMARK    5  A    between atoms: C6_16  and  O3_17 
REMARK    6  A    between atoms: C7_19  and  C8_20 
REMARK    7  A    between atoms: C8_20  and  O4_21 
REMARK    8  A    between atoms: N6_23  and  N7_24 
REMARK    9  A    between atoms: C10_28  and  O5_29 
REMARK   10  A    between atoms: C11_31  and  O6_32 
ROOT
HETATM    1  C3  UNL     1       5.019   9.106  51.181  1.00  0.00     0.183 C 
HETATM    2  C4  UNL     1       5.144   8.789  52.628  1.00  0.00     0.277 C 
HETATM    3  O2  UNL     1       4.100   8.741  53.325  1.00  0.00    -0.269 OA
HETATM    4  N4  UNL     1       6.376   8.538  53.284  1.00  0.00    -0.144 N 
HETATM    5  C9  UNL     1       7.534   8.342  52.438  1.00  0.00     0.185 C 
HETATM    6  C10 UNL     1       7.510   9.443  51.401  1.00  0.00     0.169 C 
HETATM    7  C11 UNL     1       6.343   9.239  50.498  1.00  0.00     0.194 C 
ENDROOT
BRANCH   4   8
HETATM    8  C5  UNL     1       6.498   8.475  54.699  1.00  0.00     0.710 A 
HETATM    9  N5  UNL     1       5.805   7.723  55.575  1.00  0.00    -0.166 N 
HETATM   10  C6  UNL     1       6.195   7.919  56.825  1.00  0.00     0.183 A 
ATOM     11  H5  UNL     1       5.063   7.077  55.306  1.00  0.00     0.186 HD
HETATM   12  C7  UNL     1       7.210   8.858  56.772  1.00  0.00     0.126 A 
HETATM   13  N6  UNL     1       7.369   9.172  55.481  1.00  0.00    -0.090 N 
BRANCH  10  14
HETATM   14  O3  UNL     1       5.675   7.295  57.947  1.00  0.00    -0.344 OA
ATOM     15  H3  UNL     1       6.088   6.594  58.437  1.00  0.00     0.219 HD
ENDBRANCH  10  14
BRANCH  12  16
HETATM   16  C8  UNL     1       7.931   9.367  57.960  1.00  0.00     0.228 C 
BRANCH  16  17
HETATM   17  O4  UNL     1       8.380   8.333  58.763  1.00  0.00    -0.395 OA
ATOM     18  H4  UNL     1       8.054   8.415  59.651  1.00  0.00     0.209 HD
ENDBRANCH  16  17
ENDBRANCH  12  16
BRANCH  13  19
HETATM   19  N7  UNL     1       8.299  10.089  54.994  1.00  0.00    -0.324 N 
ATOM     20  H72 UNL     1       8.474  10.274  54.006  1.00  0.00     0.178 HD
ATOM     21  H71 UNL     1       8.898  10.667  55.584  1.00  0.00     0.178 HD
ENDBRANCH  13  19
ENDBRANCH   4   8
BRANCH   1  22
HETATM   22  C2  UNL     1       4.314  10.446  51.125  1.00  0.00     0.172 C 
BRANCH  22  23
HETATM   23  N3  UNL     1       2.888  10.364  51.148  1.00  0.00    -0.363 N 
HETATM   24  C1  UNL     1       2.232  10.932  50.206  1.00  0.00     0.197 C 
HETATM   25  N1  UNL     1       2.896  11.625  49.164  1.00  0.00    -0.067 NA
HETATM   26  N2  UNL     1       0.822  10.867  50.197  1.00  0.00    -0.067 NA
ATOM     27  H3  UNL     1       2.404   9.867  51.896  1.00  0.00     0.161 HD
ENDBRANCH  22  23
ENDBRANCH   1  22
BRANCH   1  28
HETATM   28  O1  UNL     1       4.288   8.118  50.519  1.00  0.00    -0.376 OA
ATOM     29  H1  UNL     1       3.402   8.408  50.336  1.00  0.00     0.211 HD
ENDBRANCH   1  28
BRANCH   6  30
HETATM   30  O5  UNL     1       8.664   9.428  50.613  1.00  0.00    -0.391 OA
ATOM     31  H5  UNL     1       9.337   8.875  50.992  1.00  0.00     0.210 HD
ENDBRANCH   6  30
BRANCH   7  32
HETATM   32  O6  UNL     1       6.607   8.119  49.700  1.00  0.00    -0.389 OA
ATOM     33  H6  UNL     1       5.918   7.471  49.787  1.00  0.00     0.210 HD
ENDBRANCH   7  32
TORSDOF 10
ENDMDL
