MODEL 1
REMARK VINA RESULT: -4.515578851      0.000      0.000
REMARK  1 active torsions:
REMARK  status: ('A' for Active; 'I' for Inactive)
REMARK    1  A    between atoms: N1_1  and  C1_5 
ROOT
HETATM    1  C1  UNL     1      12.790   1.520  24.494  1.00  0.00     0.184 C 
HETATM    2  C2  UNL     1      12.754   2.811  25.248  1.00  0.00     0.037 C 
HETATM    3  C3  UNL     1      13.411   2.748  26.598  1.00  0.00    -0.012 C 
HETATM    4  C4  UNL     1      14.853   2.300  26.513  1.00  0.00     0.005 C 
HETATM    5  C5  UNL     1      14.863   0.805  26.664  1.00  0.00     0.005 C 
HETATM    6  C6  UNL     1      13.444   0.416  26.656  1.00  0.00    -0.012 C 
HETATM    7  C7  UNL     1      12.781   0.298  25.335  1.00  0.00     0.037 C 
HETATM    8  C8  UNL     1      12.800   1.601  27.390  1.00  0.00     0.009 C 
ENDROOT
BRANCH   1   9
HETATM    9  N1  UNL     1      13.874   1.515  23.497  1.00  0.00    -0.075 N 
ATOM     10  H13 UNL     1      14.159   2.463  23.247  1.00  0.00     0.274 HD
ATOM     11  H12 UNL     1      14.752   1.189  23.900  1.00  0.00     0.274 HD
ATOM     12  H11 UNL     1      13.615   0.972  22.673  1.00  0.00     0.274 HD
ENDBRANCH   1   9
TORSDOF 1
ENDMDL
MODEL 2
REMARK VINA RESULT: -3.954118727      1.291      2.412
REMARK  1 active torsions:
REMARK  status: ('A' for Active; 'I' for Inactive)
REMARK    1  A    between atoms: N1_1  and  C1_5 
ROOT
HETATM    1  C1  UNL     1      13.676   1.496  25.202  1.00  0.00     0.184 C 
HETATM    2  C2  UNL     1      12.989   0.229  25.598  1.00  0.00     0.037 C 
HETATM    3  C3  UNL     1      13.100  -0.094  27.062  1.00  0.00    -0.012 C 
HETATM    4  C4  UNL     1      12.564   1.017  27.937  1.00  0.00     0.005 C 
HETATM    5  C5  UNL     1      13.719   1.924  28.258  1.00  0.00     0.005 C 
HETATM    6  C6  UNL     1      14.831   1.425  27.434  1.00  0.00    -0.012 C 
HETATM    7  C7  UNL     1      14.867   1.849  26.014  1.00  0.00     0.037 C 
HETATM    8  C8  UNL     1      14.570  -0.088  27.457  1.00  0.00     0.009 C 
ENDROOT
BRANCH   1   9
HETATM    9  N1  UNL     1      12.718   2.610  25.088  1.00  0.00    -0.075 N 
ATOM     10  H13 UNL     1      12.101   2.493  24.283  1.00  0.00     0.274 HD
ATOM     11  H12 UNL     1      12.017   2.578  25.828  1.00  0.00     0.274 HD
ATOM     12  H11 UNL     1      13.198   3.509  25.065  1.00  0.00     0.274 HD
ENDBRANCH   1   9
TORSDOF 1
ENDMDL
MODEL 3
REMARK VINA RESULT: -3.933548843      4.391      5.628
REMARK  1 active torsions:
REMARK  status: ('A' for Active; 'I' for Inactive)
REMARK    1  A    between atoms: N1_1  and  C1_5 
ROOT
HETATM    1  C1  UNL     1      13.276   7.829  25.272  1.00  0.00     0.184 C 
HETATM    2  C2  UNL     1      12.317   7.974  26.410  1.00  0.00     0.037 C 
HETATM    3  C3  UNL     1      11.437   6.774  26.624  1.00  0.00    -0.012 C 
HETATM    4  C4  UNL     1      12.236   5.510  26.849  1.00  0.00     0.005 C 
HETATM    5  C5  UNL     1      12.438   4.868  25.505  1.00  0.00     0.005 C 
HETATM    6  C6  UNL     1      11.915   5.846  24.538  1.00  0.00    -0.012 C 
HETATM    7  C7  UNL     1      12.807   6.968  24.158  1.00  0.00     0.037 C 
HETATM    8  C8  UNL     1      10.733   6.441  25.317  1.00  0.00     0.009 C 
ENDROOT
BRANCH   1   9
HETATM    9  N1  UNL     1      14.619   7.457  25.750  1.00  0.00    -0.075 N 
ATOM     10  H13 UNL     1      15.268   8.243  25.694  1.00  0.00     0.274 HD
ATOM     11  H12 UNL     1      14.631   7.316  26.760  1.00  0.00     0.274 HD
ATOM     12  H11 UNL     1      14.975   6.640  25.253  1.00  0.00     0.274 HD
ENDBRANCH   1   9
TORSDOF 1
ENDMDL
MODEL 4
REMARK VINA RESULT: -3.915309276      1.871      2.875
REMARK  1 active torsions:
REMARK  status: ('A' for Active; 'I' for Inactive)
REMARK    1  A    between atoms: N1_1  and  C1_5 
ROOT
HETATM    1  C1  UNL     1      13.287  -0.424  26.691  1.00  0.00     0.184 C 
HETATM    2  C2  UNL     1      14.473  -0.095  27.541  1.00  0.00     0.037 C 
HETATM    3  C3  UNL     1      14.840   1.362  27.538  1.00  0.00    -0.012 C 
HETATM    4  C4  UNL     1      13.694   2.245  27.979  1.00  0.00     0.005 C 
HETATM    5  C5  UNL     1      12.938   2.642  26.741  1.00  0.00     0.005 C 
HETATM    6  C6  UNL     1      13.548   1.854  25.658  1.00  0.00    -0.012 C 
HETATM    7  C7  UNL     1      13.099   0.449  25.506  1.00  0.00     0.037 C 
HETATM    8  C8  UNL     1      15.019   1.822  26.098  1.00  0.00     0.009 C 
ENDROOT
BRANCH   1   9
HETATM    9  N1  UNL     1      12.065  -0.548  27.504  1.00  0.00    -0.075 N 
ATOM     10  H13 UNL     1      12.162  -1.271  28.218  1.00  0.00     0.274 HD
ATOM     11  H12 UNL     1      11.938   0.259  28.115  1.00  0.00     0.274 HD
ATOM     12  H11 UNL     1      11.246  -0.707  26.918  1.00  0.00     0.274 HD
ENDBRANCH   1   9
TORSDOF 1
ENDMDL
MODEL 5
REMARK VINA RESULT: -3.855875937      4.572      5.873
REMARK  1 active torsions:
REMARK  status: ('A' for Active; 'I' for Inactive)
REMARK    1  A    between atoms: N1_1  and  C1_5 
ROOT
HETATM    1  C1  UNL     1      13.559   7.638  25.320  1.00  0.00     0.184 C 
HETATM    2  C2  UNL     1      12.807   6.982  24.206  1.00  0.00     0.037 C 
HETATM    3  C3  UNL     1      11.733   6.038  24.668  1.00  0.00    -0.012 C 
HETATM    4  C4  UNL     1      10.727   6.712  25.573  1.00  0.00     0.005 C 
HETATM    5  C5  UNL     1      11.209   6.531  26.985  1.00  0.00     0.005 C 
HETATM    6  C6  UNL     1      12.542   5.924  26.853  1.00  0.00    -0.012 C 
HETATM    7  C7  UNL     1      13.676   6.834  26.562  1.00  0.00     0.037 C 
HETATM    8  C8  UNL     1      12.346   5.025  25.624  1.00  0.00     0.009 C 
ENDROOT
BRANCH   1   9
HETATM    9  N1  UNL     1      13.059   9.000  25.572  1.00  0.00    -0.075 N 
ATOM     10  H13 UNL     1      12.978   9.192  26.572  1.00  0.00     0.274 HD
ATOM     11  H12 UNL     1      13.756   9.705  25.335  1.00  0.00     0.274 HD
ATOM     12  H11 UNL     1      12.178   9.166  25.086  1.00  0.00     0.274 HD
ENDBRANCH   1   9
TORSDOF 1
ENDMDL
