MODEL 1
REMARK VINA RESULT: -5.006702572      0.000      0.000
REMARK  2 active torsions:
REMARK  status: ('A' for Active; 'I' for Inactive)
REMARK    1  A    between atoms: C2_2  and  C3_3 
REMARK    2  A    between atoms: C7_10  and  C8_11 
ROOT
HETATM    1  C3  UNL     1      11.717   3.055  -5.017  1.00  0.00     0.190 C 
HETATM    2  C4  UNL     1      11.880   1.956  -3.993  1.00  0.00     0.065 C 
HETATM    3  C5  UNL     1      13.180   2.238  -3.261  1.00  0.00     0.186 C 
HETATM    4  C6  UNL     1      13.458   1.147  -2.249  1.00  0.00     0.040 C 
HETATM    5  N1  UNL     1      14.299   2.346  -4.165  1.00  0.00    -0.041 N 
ATOM      6  H11 UNL     1      14.549   1.447  -4.577  1.00  0.00     0.280 HD
ATOM      7  H12 UNL     1      15.173   2.531  -3.673  1.00  0.00     0.280 HD
HETATM    8  C7  UNL     1      14.020   3.332  -5.155  1.00  0.00     0.397 C 
HETATM    9  N2  UNL     1      12.844   2.971  -5.921  1.00  0.00    -0.041 N 
ATOM     10  H21 UNL     1      12.725   3.532  -6.765  1.00  0.00     0.280 HD
ATOM     11  H22 UNL     1      12.926   2.065  -6.380  1.00  0.00     0.280 HD
ENDROOT
BRANCH   1  12
HETATM   12  C2  UNL     1      10.393   2.967  -5.736  1.00  0.00     0.028 C 
HETATM   13  C1  UNL     1      10.023   1.485  -5.781  1.00  0.00     0.007 C 
ENDBRANCH   1  12
BRANCH   8  14
HETATM   14  C8  UNL     1      15.197   3.646  -6.041  1.00  0.00     0.177 C 
HETATM   15 CL1  UNL     1      16.630   2.737  -5.609  1.00  0.00    -0.127 Cl
ENDBRANCH   8  14
TORSDOF 2
ENDMDL
MODEL 2
REMARK VINA RESULT: -4.972531246      2.297      3.738
REMARK  2 active torsions:
REMARK  status: ('A' for Active; 'I' for Inactive)
REMARK    1  A    between atoms: C2_2  and  C3_3 
REMARK    2  A    between atoms: C7_10  and  C8_11 
ROOT
HETATM    1  C3  UNL     1      14.942   2.573  -3.736  1.00  0.00     0.190 C 
HETATM    2  C4  UNL     1      13.657   2.652  -4.526  1.00  0.00     0.065 C 
HETATM    3  C5  UNL     1      14.011   3.267  -5.868  1.00  0.00     0.186 C 
HETATM    4  C6  UNL     1      12.765   3.442  -6.710  1.00  0.00     0.040 C 
HETATM    5  N1  UNL     1      14.671   4.542  -5.723  1.00  0.00    -0.041 N 
ATOM      6  H11 UNL     1      14.038   5.267  -5.386  1.00  0.00     0.280 HD
ATOM      7  H12 UNL     1      14.906   4.958  -6.624  1.00  0.00     0.280 HD
HETATM    8  C7  UNL     1      15.814   4.395  -4.885  1.00  0.00     0.397 C 
HETATM    9  N2  UNL     1      15.428   3.926  -3.569  1.00  0.00    -0.041 N 
ATOM     10  H21 UNL     1      16.176   4.002  -2.879  1.00  0.00     0.280 HD
ATOM     11  H22 UNL     1      14.760   4.539  -3.103  1.00  0.00     0.280 HD
ENDROOT
BRANCH   1  12
HETATM   12  C2  UNL     1      14.755   1.860  -2.420  1.00  0.00     0.028 C 
HETATM   13  C1  UNL     1      13.335   1.296  -2.431  1.00  0.00     0.007 C 
ENDBRANCH   1  12
BRANCH   8  14
HETATM   14  C8  UNL     1      16.672   5.632  -4.813  1.00  0.00     0.177 C 
HETATM   15 CL1  UNL     1      16.194   6.853  -5.974  1.00  0.00    -0.127 Cl
ENDBRANCH   8  14
TORSDOF 2
ENDMDL
MODEL 3
REMARK VINA RESULT: -4.877039179      1.484      3.290
REMARK  2 active torsions:
REMARK  status: ('A' for Active; 'I' for Inactive)
REMARK    1  A    between atoms: C2_2  and  C3_3 
REMARK    2  A    between atoms: C7_10  and  C8_11 
ROOT
HETATM    1  C3  UNL     1      14.040   2.447  -4.162  1.00  0.00     0.190 C 
HETATM    2  C4  UNL     1      12.531   2.394  -4.200  1.00  0.00     0.065 C 
HETATM    3  C5  UNL     1      12.122   2.724  -5.625  1.00  0.00     0.186 C 
HETATM    4  C6  UNL     1      10.613   2.753  -5.743  1.00  0.00     0.040 C 
HETATM    5  N1  UNL     1      12.659   3.989  -6.062  1.00  0.00    -0.041 N 
ATOM      6  H11 UNL     1      12.218   4.779  -5.591  1.00  0.00     0.280 HD
ATOM      7  H12 UNL     1      12.381   4.215  -7.017  1.00  0.00     0.280 HD
HETATM    8  C7  UNL     1      14.075   3.989  -5.900  1.00  0.00     0.397 C 
HETATM    9  N2  UNL     1      14.432   3.796  -4.508  1.00  0.00    -0.041 N 
ATOM     10  H21 UNL     1      15.413   3.992  -4.313  1.00  0.00     0.280 HD
ATOM     11  H22 UNL     1      14.034   4.502  -3.890  1.00  0.00     0.280 HD
ENDROOT
BRANCH   1  12
HETATM   12  C2  UNL     1      14.589   2.011  -2.826  1.00  0.00     0.028 C 
HETATM   13  C1  UNL     1      13.510   1.146  -2.177  1.00  0.00     0.007 C 
ENDBRANCH   1  12
BRANCH   8  14
HETATM   14  C8  UNL     1      14.750   5.199  -6.493  1.00  0.00     0.177 C 
HETATM   15 CL1  UNL     1      15.745   6.054  -5.333  1.00  0.00    -0.127 Cl
ENDBRANCH   8  14
TORSDOF 2
ENDMDL
MODEL 4
REMARK VINA RESULT: -4.788399922      2.331      4.227
REMARK  2 active torsions:
REMARK  status: ('A' for Active; 'I' for Inactive)
REMARK    1  A    between atoms: C2_2  and  C3_3 
REMARK    2  A    between atoms: C7_10  and  C8_11 
ROOT
HETATM    1  C3  UNL     1      13.957   2.906  -4.021  1.00  0.00     0.190 C 
HETATM    2  C4  UNL     1      14.905   3.085  -5.182  1.00  0.00     0.065 C 
HETATM    3  C5  UNL     1      14.290   4.139  -6.085  1.00  0.00     0.186 C 
HETATM    4  C6  UNL     1      15.148   4.341  -7.316  1.00  0.00     0.040 C 
HETATM    5  N1  UNL     1      12.950   3.789  -6.491  1.00  0.00    -0.041 N 
ATOM      6  H11 UNL     1      12.938   3.004  -7.143  1.00  0.00     0.280 HD
ATOM      7  H12 UNL     1      12.537   4.494  -7.101  1.00  0.00     0.280 HD
HETATM    8  C7  UNL     1      12.151   3.541  -5.337  1.00  0.00     0.397 C 
HETATM    9  N2  UNL     1      12.696   2.445  -4.561  1.00  0.00    -0.041 N 
ATOM     10  H21 UNL     1      12.056   2.099  -3.847  1.00  0.00     0.280 HD
ATOM     11  H22 UNL     1      12.779   1.578  -5.091  1.00  0.00     0.280 HD
ENDROOT
BRANCH   1  12
HETATM   12  C2  UNL     1      14.513   1.971  -2.974  1.00  0.00     0.028 C 
HETATM   13  C1  UNL     1      13.316   1.240  -2.367  1.00  0.00     0.007 C 
ENDBRANCH   1  12
BRANCH   8  14
HETATM   14  C8  UNL     1      10.690   3.340  -5.647  1.00  0.00     0.177 C 
HETATM   15 CL1  UNL     1      10.130   1.729  -5.252  1.00  0.00    -0.127 Cl
ENDBRANCH   8  14
TORSDOF 2
ENDMDL
MODEL 5
REMARK VINA RESULT: -4.787768230      1.112      3.130
REMARK  2 active torsions:
REMARK  status: ('A' for Active; 'I' for Inactive)
REMARK    1  A    between atoms: C2_2  and  C3_3 
REMARK    2  A    between atoms: C7_10  and  C8_11 
ROOT
HETATM    1  C3  UNL     1      12.555   2.265  -4.348  1.00  0.00     0.190 C 
HETATM    2  C4  UNL     1      11.445   3.218  -4.723  1.00  0.00     0.065 C 
HETATM    3  C5  UNL     1      11.686   3.617  -6.168  1.00  0.00     0.186 C 
HETATM    4  C6  UNL     1      10.649   4.625  -6.614  1.00  0.00     0.040 C 
HETATM    5  N1  UNL     1      13.004   4.171  -6.363  1.00  0.00    -0.041 N 
ATOM      6  H11 UNL     1      13.103   5.091  -5.933  1.00  0.00     0.280 HD
ATOM      7  H12 UNL     1      13.166   4.444  -7.332  1.00  0.00     0.280 HD
HETATM    8  C7  UNL     1      13.984   3.250  -5.892  1.00  0.00     0.397 C 
HETATM    9  N2  UNL     1      13.803   2.985  -4.479  1.00  0.00    -0.041 N 
ATOM     10  H21 UNL     1      14.594   2.500  -4.055  1.00  0.00     0.280 HD
ATOM     11  H22 UNL     1      13.845   3.826  -3.904  1.00  0.00     0.280 HD
ENDROOT
BRANCH   1  12
HETATM   12  C2  UNL     1      12.364   1.687  -2.968  1.00  0.00     0.028 C 
HETATM   13  C1  UNL     1      13.762   1.396  -2.423  1.00  0.00     0.007 C 
ENDBRANCH   1  12
BRANCH   8  14
HETATM   14  C8  UNL     1      15.398   3.660  -6.213  1.00  0.00     0.177 C 
HETATM   15 CL1  UNL     1      16.586   2.780  -5.274  1.00  0.00    -0.127 Cl
ENDBRANCH   8  14
TORSDOF 2
ENDMDL
