MODEL 1
REMARK VINA RESULT: -4.688733021      0.000      0.000
REMARK  4 active torsions:
REMARK  status: ('A' for Active; 'I' for Inactive)
REMARK    1  A    between atoms: C2_2  and  C3_3 
REMARK    2  A    between atoms: C3_3  and  N1_6 
REMARK    3  A    between atoms: N1_6  and  N2_8 
REMARK    4  A    between atoms: N2_8  and  C5_9 
ROOT
HETATM    1  N1  UNL     1      13.480   3.295  -4.138  1.00  0.00    -0.315 N 
ATOM      2  H1  UNL     1      13.009   3.633  -3.299  1.00  0.00     0.178 HD
ENDROOT
BRANCH   1   3
HETATM    3  C3  UNL     1      14.913   3.256  -4.254  1.00  0.00     0.115 C 
HETATM    4  C4  UNL     1      15.472   4.614  -3.902  1.00  0.00     0.057 C 
HETATM    5 CL1  UNL     1      15.460   2.769  -5.872  1.00  0.00    -0.095 Cl
BRANCH   3   6
HETATM    6  C2  UNL     1      15.395   2.196  -3.272  1.00  0.00     0.044 C 
HETATM    7  C1  UNL     1      14.277   1.639  -2.441  1.00  0.00     0.009 C 
ENDBRANCH   3   6
ENDBRANCH   1   3
BRANCH   1   8
HETATM    8  N2  UNL     1      12.795   2.848  -5.233  1.00  0.00    -0.135 NA
BRANCH   8   9
HETATM    9  C5  UNL     1      11.367   2.934  -4.970  1.00  0.00     0.039 C 
HETATM   10  C6  UNL     1      10.656   1.656  -5.365  1.00  0.00     0.035 C 
HETATM   11  C7  UNL     1      10.757   4.051  -5.778  1.00  0.00     0.035 C 
HETATM   12  C8  UNL     1      11.161   3.121  -3.488  1.00  0.00     0.035 C 
ENDBRANCH   8   9
ENDBRANCH   1   8
TORSDOF 4
ENDMDL
MODEL 2
REMARK VINA RESULT: -4.622205384      0.044      1.283
REMARK  4 active torsions:
REMARK  status: ('A' for Active; 'I' for Inactive)
REMARK    1  A    between atoms: C2_2  and  C3_3 
REMARK    2  A    between atoms: C3_3  and  N1_6 
REMARK    3  A    between atoms: N1_6  and  N2_8 
REMARK    4  A    between atoms: N2_8  and  C5_9 
ROOT
HETATM    1  N1  UNL     1      13.479   3.300  -4.162  1.00  0.00    -0.315 N 
ATOM      2  H1  UNL     1      13.005   3.656  -3.332  1.00  0.00     0.178 HD
ENDROOT
BRANCH   1   3
HETATM    3  C3  UNL     1      14.913   3.248  -4.267  1.00  0.00     0.115 C 
HETATM    4  C4  UNL     1      15.480   4.604  -3.922  1.00  0.00     0.057 C 
HETATM    5 CL1  UNL     1      15.468   2.742  -5.876  1.00  0.00    -0.095 Cl
BRANCH   3   6
HETATM    6  C2  UNL     1      15.378   2.193  -3.272  1.00  0.00     0.044 C 
HETATM    7  C1  UNL     1      14.245   1.634  -2.462  1.00  0.00     0.009 C 
ENDBRANCH   3   6
ENDBRANCH   1   3
BRANCH   1   8
HETATM    8  N2  UNL     1      12.799   2.839  -5.254  1.00  0.00    -0.135 NA
BRANCH   8   9
HETATM    9  C5  UNL     1      11.370   2.906  -4.989  1.00  0.00     0.039 C 
HETATM   10  C6  UNL     1      11.092   3.141  -3.519  1.00  0.00     0.035 C 
HETATM   11  C7  UNL     1      10.711   1.603  -5.365  1.00  0.00     0.035 C 
HETATM   12  C8  UNL     1      10.795   4.077  -5.746  1.00  0.00     0.035 C 
ENDBRANCH   8   9
ENDBRANCH   1   8
TORSDOF 4
ENDMDL
MODEL 3
REMARK VINA RESULT: -4.606459752      1.798      4.213
REMARK  4 active torsions:
REMARK  status: ('A' for Active; 'I' for Inactive)
REMARK    1  A    between atoms: C2_2  and  C3_3 
REMARK    2  A    between atoms: C3_3  and  N1_6 
REMARK    3  A    between atoms: N1_6  and  N2_8 
REMARK    4  A    between atoms: N2_8  and  C5_9 
ROOT
HETATM    1  N1  UNL     1      12.852   3.167  -4.327  1.00  0.00    -0.315 N 
ATOM      2  H1  UNL     1      12.665   3.423  -5.296  1.00  0.00     0.178 HD
ENDROOT
BRANCH   1   3
HETATM    3  C3  UNL     1      12.016   2.254  -3.596  1.00  0.00     0.115 C 
HETATM    4  C4  UNL     1      11.093   3.044  -2.699  1.00  0.00     0.057 C 
HETATM    5 CL1  UNL     1      12.946   1.083  -2.638  1.00  0.00    -0.095 Cl
BRANCH   3   6
HETATM    6  C2  UNL     1      11.227   1.468  -4.635  1.00  0.00     0.044 C 
HETATM    7  C1  UNL     1      10.368   2.354  -5.489  1.00  0.00     0.009 C 
ENDBRANCH   3   6
ENDBRANCH   1   3
BRANCH   1   8
HETATM    8  N2  UNL     1      13.916   3.667  -3.630  1.00  0.00    -0.135 NA
BRANCH   8   9
HETATM    9  C5  UNL     1      15.092   3.665  -4.485  1.00  0.00     0.039 C 
HETATM   10  C6  UNL     1      16.017   2.514  -4.148  1.00  0.00     0.035 C 
HETATM   11  C7  UNL     1      15.876   4.938  -4.294  1.00  0.00     0.035 C 
HETATM   12  C8  UNL     1      14.646   3.476  -5.914  1.00  0.00     0.035 C 
ENDBRANCH   8   9
ENDBRANCH   1   8
TORSDOF 4
ENDMDL
MODEL 4
REMARK VINA RESULT: -4.591757630      0.070      1.293
REMARK  4 active torsions:
REMARK  status: ('A' for Active; 'I' for Inactive)
REMARK    1  A    between atoms: C2_2  and  C3_3 
REMARK    2  A    between atoms: C3_3  and  N1_6 
REMARK    3  A    between atoms: N1_6  and  N2_8 
REMARK    4  A    between atoms: N2_8  and  C5_9 
ROOT
HETATM    1  N1  UNL     1      13.488   3.296  -4.157  1.00  0.00    -0.315 N 
ATOM      2  H1  UNL     1      13.003   3.651  -3.333  1.00  0.00     0.178 HD
ENDROOT
BRANCH   1   3
HETATM    3  C3  UNL     1      14.922   3.240  -4.243  1.00  0.00     0.115 C 
HETATM    4  C4  UNL     1      15.488   4.595  -3.893  1.00  0.00     0.057 C 
HETATM    5 CL1  UNL     1      15.496   2.731  -5.845  1.00  0.00    -0.095 Cl
BRANCH   3   6
HETATM    6  C2  UNL     1      15.372   2.185  -3.241  1.00  0.00     0.044 C 
HETATM    7  C1  UNL     1      14.226   1.618  -2.457  1.00  0.00     0.009 C 
ENDBRANCH   3   6
ENDBRANCH   1   3
BRANCH   1   8
HETATM    8  N2  UNL     1      12.820   2.839  -5.259  1.00  0.00    -0.135 NA
BRANCH   8   9
HETATM    9  C5  UNL     1      11.388   2.920  -5.017  1.00  0.00     0.039 C 
HETATM   10  C6  UNL     1      10.766   4.074  -5.776  1.00  0.00     0.035 C 
HETATM   11  C7  UNL     1      11.121   3.155  -3.552  1.00  0.00     0.035 C 
HETATM   12  C8  UNL     1      10.743   1.654  -5.522  1.00  0.00     0.035 C 
ENDBRANCH   8   9
ENDBRANCH   1   8
TORSDOF 4
ENDMDL
MODEL 5
REMARK VINA RESULT: -4.582020151      1.243      1.862
REMARK  4 active torsions:
REMARK  status: ('A' for Active; 'I' for Inactive)
REMARK    1  A    between atoms: C2_2  and  C3_3 
REMARK    2  A    between atoms: C3_3  and  N1_6 
REMARK    3  A    between atoms: N1_6  and  N2_8 
REMARK    4  A    between atoms: N2_8  and  C5_9 
ROOT
HETATM    1  N1  UNL     1      13.487   3.430  -4.023  1.00  0.00    -0.315 N 
ATOM      2  H1  UNL     1      12.984   4.048  -3.386  1.00  0.00     0.178 HD
ENDROOT
BRANCH   1   3
HETATM    3  C3  UNL     1      14.918   3.291  -3.991  1.00  0.00     0.115 C 
HETATM    4  C4  UNL     1      15.287   2.249  -2.962  1.00  0.00     0.057 C 
HETATM    5 CL1  UNL     1      15.752   4.819  -3.643  1.00  0.00    -0.095 Cl
BRANCH   3   6
HETATM    6  C2  UNL     1      15.337   2.850  -5.387  1.00  0.00     0.044 C 
HETATM    7  C1  UNL     1      16.824   2.694  -5.514  1.00  0.00     0.009 C 
ENDBRANCH   3   6
ENDBRANCH   1   3
BRANCH   1   8
HETATM    8  N2  UNL     1      12.850   2.677  -4.968  1.00  0.00    -0.135 NA
BRANCH   8   9
HETATM    9  C5  UNL     1      11.412   2.789  -4.779  1.00  0.00     0.039 C 
HETATM   10  C6  UNL     1      10.693   1.550  -5.271  1.00  0.00     0.035 C 
HETATM   11  C7  UNL     1      10.874   3.958  -5.565  1.00  0.00     0.035 C 
HETATM   12  C8  UNL     1      11.130   2.913  -3.303  1.00  0.00     0.035 C 
ENDBRANCH   8   9
ENDBRANCH   1   8
TORSDOF 4
ENDMDL
