MODEL 1
REMARK VINA RESULT: -8.105775731      0.000      0.000
REMARK  10 active torsions:
REMARK  status: ('A' for Active; 'I' for Inactive)
REMARK    1  A    between atoms: C2_2  and  C3_3 
REMARK    2  A    between atoms: C3_3  and  N1_4 
REMARK    3  A    between atoms: C6_11  and  N4_12 
REMARK    4  A    between atoms: C7_17  and  N6_18 
REMARK    5  A    between atoms: N7_21  and  C10_22 
REMARK    6  A    between atoms: C10_22  and  C11_23 
REMARK    7  A    between atoms: C12_28  and  C13_29 
REMARK    8  A    between atoms: C13_29  and  O1_31 
REMARK    9  A    between atoms: N10_33  and  N11_34 
REMARK   10  A    between atoms: C16_38  and  N12_39 
ROOT
HETATM    1  N6  UNL     1       8.015  37.325  39.172  1.00  0.00    -0.361 N 
HETATM    2  C8  UNL     1       7.046  37.697  38.170  1.00  0.00     0.154 C 
HETATM    3  C9  UNL     1       7.560  38.761  37.231  1.00  0.00     0.292 C 
HETATM    4  N7  UNL     1       8.389  38.102  36.233  1.00  0.00     0.099 N 
HETATM    5  C15 UNL     1       9.719  38.059  36.799  1.00  0.00     0.307 C 
HETATM    6  C16 UNL     1       9.833  36.783  37.603  1.00  0.00     0.229 C 
HETATM    7  C17 UNL     1       9.425  36.968  39.037  1.00  0.00     0.159 C 
ENDROOT
BRANCH   1   8
HETATM    8  C7  UNL     1       7.617  37.361  40.511  1.00  0.00     0.150 A 
HETATM    9  N5  UNL     1       7.766  38.535  41.197  1.00  0.00    -0.175 N 
HETATM   10  C6  UNL     1       7.464  38.658  42.490  1.00  0.00     0.678 A 
ATOM     11  H5  UNL     1       8.122  39.350  40.699  1.00  0.00     0.186 HD
HETATM   12  N3  UNL     1       6.998  37.597  43.150  1.00  0.00    -0.188 N 
HETATM   13  C5  UNL     1       6.821  36.420  42.568  1.00  0.00     0.098 A 
ATOM     14  H3  UNL     1       6.769  37.695  44.139  1.00  0.00     0.184 HD
HETATM   15  C4  UNL     1       6.380  35.200  43.017  1.00  0.00     0.140 A 
HETATM   16  C18 UNL     1       7.135  36.276  41.192  1.00  0.00     0.124 A 
HETATM   17  N2  UNL     1       6.419  34.373  41.997  1.00  0.00    -0.307 N 
HETATM   18  N1  UNL     1       6.871  35.004  40.880  1.00  0.00    -0.287 N 
ATOM     19  H2  UNL     1       6.147  33.391  42.037  1.00  0.00     0.186 HD
BRANCH  10  20
HETATM   20  N4  UNL     1       7.619  39.781  43.091  1.00  0.00    -0.234 N 
ATOM     21  H42 UNL     1       6.962  40.076  43.813  1.00  0.00     0.174 HD
ATOM     22  H41 UNL     1       8.402  40.391  42.854  1.00  0.00     0.174 HD
ENDBRANCH  10  20
BRANCH  18  23
HETATM   23  C3  UNL     1       6.938  34.339  39.609  1.00  0.00     0.149 C 
BRANCH  23  24
HETATM   24  C2  UNL     1       6.167  33.014  39.788  1.00  0.00     0.017 C 
HETATM   25  C1  UNL     1       5.776  32.453  38.449  1.00  0.00     0.007 C 
ENDBRANCH  23  24
ENDBRANCH  18  23
ENDBRANCH   1   8
BRANCH   6  26
HETATM   26  N12 UNL     1      11.238  36.410  37.603  1.00  0.00    -0.072 N 
ATOM     27 3H12 UNL     1      11.619  36.281  36.666  1.00  0.00     0.274 HD
ATOM     28 2H12 UNL     1      11.855  37.169  37.891  1.00  0.00     0.274 HD
ATOM     29 1H12 UNL     1      11.323  35.579  38.189  1.00  0.00     0.274 HD
ENDBRANCH   6  26
BRANCH   4  30
HETATM   30  C10 UNL     1       8.303  38.825  35.005  1.00  0.00     0.352 C 
BRANCH  30  31
HETATM   31  C11 UNL     1       8.916  38.114  33.868  1.00  0.00     0.147 A 
HETATM   32  N8  UNL     1       8.377  37.142  33.114  1.00  0.00    -0.284 N 
HETATM   33  N9  UNL     1       9.272  36.777  32.192  1.00  0.00    -0.284 N 
ATOM     34  H8  UNL     1       7.442  36.749  33.227  1.00  0.00     0.188 HD
HETATM   35  C12 UNL     1      10.390  37.509  32.347  1.00  0.00     0.147 A 
ATOM     36  H9  UNL     1       9.131  36.058  31.483  1.00  0.00     0.188 HD
HETATM   37  N10 UNL     1      10.154  38.329  33.385  1.00  0.00    -0.231 N 
BRANCH  35  38
HETATM   38  C13 UNL     1      11.639  37.432  31.538  1.00  0.00     0.184 C 
HETATM   39  C14 UNL     1      11.680  38.617  30.567  1.00  0.00     0.048 C 
BRANCH  38  40
HETATM   40  O1  UNL     1      12.774  37.451  32.370  1.00  0.00    -0.388 OA
ATOM     41  H1  UNL     1      13.560  37.262  31.871  1.00  0.00     0.210 HD
ENDBRANCH  38  40
ENDBRANCH  35  38
BRANCH  37  42
HETATM   42  N11 UNL     1      11.049  39.266  33.893  1.00  0.00    -0.336 N 
ATOM     43 2H11 UNL     1      11.976  39.058  34.264  1.00  0.00     0.177 HD
ATOM     44 1H11 UNL     1      10.869  40.268  33.948  1.00  0.00     0.177 HD
ENDBRANCH  37  42
ENDBRANCH  30  31
ENDBRANCH   4  30
TORSDOF 10
ENDMDL
MODEL 2
REMARK VINA RESULT: -7.948237107      1.462      1.590
REMARK  10 active torsions:
REMARK  status: ('A' for Active; 'I' for Inactive)
REMARK    1  A    between atoms: C2_2  and  C3_3 
REMARK    2  A    between atoms: C3_3  and  N1_4 
REMARK    3  A    between atoms: C6_11  and  N4_12 
REMARK    4  A    between atoms: C7_17  and  N6_18 
REMARK    5  A    between atoms: N7_21  and  C10_22 
REMARK    6  A    between atoms: C10_22  and  C11_23 
REMARK    7  A    between atoms: C12_28  and  C13_29 
REMARK    8  A    between atoms: C13_29  and  O1_31 
REMARK    9  A    between atoms: N10_33  and  N11_34 
REMARK   10  A    between atoms: C16_38  and  N12_39 
ROOT
HETATM    1  N6  UNL     1       7.842  36.702  39.679  1.00  0.00    -0.361 N 
HETATM    2  C8  UNL     1       6.823  37.210  38.794  1.00  0.00     0.154 C 
HETATM    3  C9  UNL     1       7.251  38.466  38.075  1.00  0.00     0.292 C 
HETATM    4  N7  UNL     1       8.078  38.065  36.947  1.00  0.00     0.099 N 
HETATM    5  C15 UNL     1       9.426  37.986  37.463  1.00  0.00     0.307 C 
HETATM    6  C16 UNL     1       9.632  36.585  37.993  1.00  0.00     0.229 C 
HETATM    7  C17 UNL     1       9.263  36.459  39.444  1.00  0.00     0.159 C 
ENDROOT
BRANCH   1   8
HETATM    8  C7  UNL     1       7.488  36.449  41.008  1.00  0.00     0.150 A 
HETATM    9  N5  UNL     1       7.763  37.409  41.942  1.00  0.00    -0.175 N 
HETATM   10  C6  UNL     1       7.511  37.244  43.241  1.00  0.00     0.678 A 
ATOM     11  H5  UNL     1       8.178  38.288  41.633  1.00  0.00     0.186 HD
HETATM   12  N3  UNL     1       6.970  36.098  43.655  1.00  0.00    -0.188 N 
HETATM   13  C5  UNL     1       6.670  35.113  42.822  1.00  0.00     0.098 A 
ATOM     14  H3  UNL     1       6.779  35.976  44.650  1.00  0.00     0.184 HD
HETATM   15  C4  UNL     1       6.132  33.861  42.993  1.00  0.00     0.140 A 
HETATM   16  C18 UNL     1       6.930  35.277  41.437  1.00  0.00     0.124 A 
HETATM   17  N2  UNL     1       6.066  33.301  41.806  1.00  0.00    -0.307 N 
HETATM   18  N1  UNL     1       6.542  34.141  40.848  1.00  0.00    -0.287 N 
ATOM     19  H2  UNL     1       5.708  32.363  41.627  1.00  0.00     0.186 HD
BRANCH  10  20
HETATM   20  N4  UNL     1       7.785  38.175  44.081  1.00  0.00    -0.234 N 
ATOM     21  H42 UNL     1       7.185  38.334  44.891  1.00  0.00     0.174 HD
ATOM     22  H41 UNL     1       8.606  38.765  43.949  1.00  0.00     0.174 HD
ENDBRANCH  10  20
BRANCH  18  23
HETATM   23  C3  UNL     1       6.511  33.796  39.454  1.00  0.00     0.149 C 
BRANCH  23  24
HETATM   24  C2  UNL     1       6.495  32.254  39.405  1.00  0.00     0.017 C 
HETATM   25  C1  UNL     1       5.195  31.764  38.829  1.00  0.00     0.007 C 
ENDBRANCH  23  24
ENDBRANCH  18  23
ENDBRANCH   1   8
BRANCH   6  26
HETATM   26  N12 UNL     1      11.053  36.299  37.887  1.00  0.00    -0.072 N 
ATOM     27 3H12 UNL     1      11.347  36.073  36.937  1.00  0.00     0.274 HD
ATOM     28 2H12 UNL     1      11.639  37.124  38.011  1.00  0.00     0.274 HD
ATOM     29 1H12 UNL     1      11.256  35.558  38.557  1.00  0.00     0.274 HD
ENDBRANCH   6  26
BRANCH   4  30
HETATM   30  C10 UNL     1       7.914  39.011  35.891  1.00  0.00     0.352 C 
BRANCH  30  31
HETATM   31  C11 UNL     1       8.299  38.480  34.570  1.00  0.00     0.147 A 
HETATM   32  N8  UNL     1       8.503  37.198  34.222  1.00  0.00    -0.284 N 
HETATM   33  N9  UNL     1       8.835  37.159  32.929  1.00  0.00    -0.284 N 
ATOM     34  H8  UNL     1       8.417  36.392  34.841  1.00  0.00     0.188 HD
HETATM   35  C12 UNL     1       8.849  38.412  32.438  1.00  0.00     0.147 A 
ATOM     36  H9  UNL     1       9.045  36.315  32.398  1.00  0.00     0.188 HD
HETATM   37  N10 UNL     1       8.515  39.215  33.463  1.00  0.00    -0.231 N 
BRANCH  35  38
HETATM   38  C13 UNL     1       9.168  38.831  31.045  1.00  0.00     0.184 C 
HETATM   39  C14 UNL     1      10.672  38.663  30.803  1.00  0.00     0.048 C 
BRANCH  38  40
HETATM   40  O1  UNL     1       8.441  38.065  30.114  1.00  0.00    -0.388 OA
ATOM     41  H1  UNL     1       8.803  37.189  30.045  1.00  0.00     0.210 HD
ENDBRANCH  38  40
ENDBRANCH  35  38
BRANCH  37  42
HETATM   42  N11 UNL     1       8.407  40.600  33.400  1.00  0.00    -0.336 N 
ATOM     43 2H11 UNL     1       7.577  41.116  33.107  1.00  0.00     0.177 HD
ATOM     44 1H11 UNL     1       9.153  41.251  33.643  1.00  0.00     0.177 HD
ENDBRANCH  37  42
ENDBRANCH  30  31
ENDBRANCH   4  30
TORSDOF 10
ENDMDL
MODEL 3
REMARK VINA RESULT: -7.876813285      0.781      1.299
REMARK  10 active torsions:
REMARK  status: ('A' for Active; 'I' for Inactive)
REMARK    1  A    between atoms: C2_2  and  C3_3 
REMARK    2  A    between atoms: C3_3  and  N1_4 
REMARK    3  A    between atoms: C6_11  and  N4_12 
REMARK    4  A    between atoms: C7_17  and  N6_18 
REMARK    5  A    between atoms: N7_21  and  C10_22 
REMARK    6  A    between atoms: C10_22  and  C11_23 
REMARK    7  A    between atoms: C12_28  and  C13_29 
REMARK    8  A    between atoms: C13_29  and  O1_31 
REMARK    9  A    between atoms: N10_33  and  N11_34 
REMARK   10  A    between atoms: C16_38  and  N12_39 
ROOT
HETATM    1  N6  UNL     1       7.953  37.156  39.576  1.00  0.00    -0.361 N 
HETATM    2  C8  UNL     1       6.960  37.602  38.629  1.00  0.00     0.154 C 
HETATM    3  C9  UNL     1       7.451  38.735  37.762  1.00  0.00     0.292 C 
HETATM    4  N7  UNL     1       8.256  38.155  36.697  1.00  0.00     0.099 N 
HETATM    5  C15 UNL     1       9.599  38.072  37.226  1.00  0.00     0.307 C 
HETATM    6  C16 UNL     1       9.733  36.739  37.927  1.00  0.00     0.229 C 
HETATM    7  C17 UNL     1       9.359  36.814  39.381  1.00  0.00     0.159 C 
ENDROOT
BRANCH   1   8
HETATM    8  C7  UNL     1       7.587  37.089  40.923  1.00  0.00     0.150 A 
HETATM    9  N5  UNL     1       7.818  38.185  41.710  1.00  0.00    -0.175 N 
HETATM   10  C6  UNL     1       7.553  38.203  43.016  1.00  0.00     0.678 A 
ATOM     11  H5  UNL     1       8.210  39.022  41.279  1.00  0.00     0.186 HD
HETATM   12  N3  UNL     1       7.041  37.113  43.588  1.00  0.00    -0.188 N 
HETATM   13  C5  UNL     1       6.785  36.007  42.906  1.00  0.00     0.098 A 
ATOM     14  H3  UNL     1       6.840  37.131  44.588  1.00  0.00     0.184 HD
HETATM   15  C4  UNL     1       6.284  34.777  43.254  1.00  0.00     0.140 A 
HETATM   16  C18 UNL     1       7.060  35.974  41.514  1.00  0.00     0.124 A 
HETATM   17  N2  UNL     1       6.253  34.046  42.161  1.00  0.00    -0.307 N 
HETATM   18  N1  UNL     1       6.716  34.753  41.095  1.00  0.00    -0.287 N 
ATOM     19  H2  UNL     1       5.927  33.081  42.118  1.00  0.00     0.186 HD
BRANCH  10  20
HETATM   20  N4  UNL     1       7.786  39.255  43.713  1.00  0.00    -0.234 N 
ATOM     21  H42 UNL     1       7.310  39.401  44.604  1.00  0.00     0.174 HD
ATOM     22  H41 UNL     1       8.449  39.957  43.385  1.00  0.00     0.174 HD
ENDBRANCH  10  20
BRANCH  18  23
HETATM   23  C3  UNL     1       6.717  34.207  39.767  1.00  0.00     0.149 C 
BRANCH  23  24
HETATM   24  C2  UNL     1       6.280  32.734  39.920  1.00  0.00     0.017 C 
HETATM   25  C1  UNL     1       5.639  32.246  38.650  1.00  0.00     0.007 C 
ENDBRANCH  23  24
ENDBRANCH  18  23
ENDBRANCH   1   8
BRANCH   6  26
HETATM   26  N12 UNL     1      11.137  36.370  37.865  1.00  0.00    -0.072 N 
ATOM     27 3H12 UNL     1      11.538  36.161  38.780  1.00  0.00     0.274 HD
ATOM     28 2H12 UNL     1      11.293  35.454  37.445  1.00  0.00     0.274 HD
ATOM     29 1H12 UNL     1      11.620  37.123  37.377  1.00  0.00     0.274 HD
ENDBRANCH   6  26
BRANCH   4  30
HETATM   30  C10 UNL     1       8.140  38.970  35.530  1.00  0.00     0.352 C 
BRANCH  30  31
HETATM   31  C11 UNL     1       9.288  38.837  34.613  1.00  0.00     0.147 A 
HETATM   32  N8  UNL     1      10.394  39.597  34.558  1.00  0.00    -0.284 N 
HETATM   33  N9  UNL     1      11.178  39.131  33.581  1.00  0.00    -0.284 N 
ATOM     34  H8  UNL     1      10.600  40.394  35.160  1.00  0.00     0.188 HD
HETATM   35  C12 UNL     1      10.582  38.073  33.003  1.00  0.00     0.147 A 
ATOM     36  H9  UNL     1      12.084  39.516  33.317  1.00  0.00     0.188 HD
HETATM   37  N10 UNL     1       9.417  37.904  33.651  1.00  0.00    -0.231 N 
BRANCH  35  38
HETATM   38  C13 UNL     1      11.101  37.251  31.874  1.00  0.00     0.184 C 
HETATM   39  C14 UNL     1      12.538  37.683  31.559  1.00  0.00     0.048 C 
BRANCH  38  40
HETATM   40  O1  UNL     1      11.071  35.882  32.199  1.00  0.00    -0.388 OA
ATOM     41  H1  UNL     1      10.463  35.718  32.911  1.00  0.00     0.210 HD
ENDBRANCH  38  40
ENDBRANCH  35  38
BRANCH  37  42
HETATM   42  N11 UNL     1       8.478  36.916  33.377  1.00  0.00    -0.336 N 
ATOM     43 2H11 UNL     1       7.468  37.013  33.486  1.00  0.00     0.177 HD
ATOM     44 1H11 UNL     1       8.702  35.981  33.035  1.00  0.00     0.177 HD
ENDBRANCH  37  42
ENDBRANCH  30  31
ENDBRANCH   4  30
TORSDOF 10
ENDMDL
MODEL 4
REMARK VINA RESULT: -7.872523017      4.730      7.789
REMARK  10 active torsions:
REMARK  status: ('A' for Active; 'I' for Inactive)
REMARK    1  A    between atoms: C2_2  and  C3_3 
REMARK    2  A    between atoms: C3_3  and  N1_4 
REMARK    3  A    between atoms: C6_11  and  N4_12 
REMARK    4  A    between atoms: C7_17  and  N6_18 
REMARK    5  A    between atoms: N7_21  and  C10_22 
REMARK    6  A    between atoms: C10_22  and  C11_23 
REMARK    7  A    between atoms: C12_28  and  C13_29 
REMARK    8  A    between atoms: C13_29  and  O1_31 
REMARK    9  A    between atoms: N10_33  and  N11_34 
REMARK   10  A    between atoms: C16_38  and  N12_39 
ROOT
HETATM    1  N6  UNL     1       6.978  35.964  42.360  1.00  0.00    -0.361 N 
HETATM    2  C8  UNL     1       6.274  37.134  41.894  1.00  0.00     0.154 C 
HETATM    3  C9  UNL     1       5.764  37.994  43.024  1.00  0.00     0.292 C 
HETATM    4  N7  UNL     1       6.876  38.809  43.491  1.00  0.00     0.099 N 
HETATM    5  C15 UNL     1       7.546  38.012  44.495  1.00  0.00     0.307 C 
HETATM    6  C16 UNL     1       8.582  37.165  43.791  1.00  0.00     0.229 C 
HETATM    7  C17 UNL     1       8.038  35.833  43.357  1.00  0.00     0.159 C 
ENDROOT
BRANCH   1   8
HETATM    8  C7  UNL     1       6.576  34.720  41.867  1.00  0.00     0.150 A 
HETATM    9  N5  UNL     1       6.130  33.785  42.761  1.00  0.00    -0.175 N 
HETATM   10  C6  UNL     1       5.773  32.553  42.397  1.00  0.00     0.678 A 
ATOM     11  H5  UNL     1       6.068  34.041  43.746  1.00  0.00     0.186 HD
HETATM   12  N3  UNL     1       5.851  32.209  41.111  1.00  0.00    -0.188 N 
HETATM   13  C5  UNL     1       6.271  33.048  40.176  1.00  0.00     0.098 A 
ATOM     14  H3  UNL     1       5.577  31.265  40.837  1.00  0.00     0.184 HD
HETATM   15  C4  UNL     1       6.453  32.937  38.820  1.00  0.00     0.140 A 
HETATM   16  C18 UNL     1       6.652  34.363  40.549  1.00  0.00     0.124 A 
HETATM   17  N2  UNL     1       6.908  34.094  38.393  1.00  0.00    -0.307 N 
HETATM   18  N1  UNL     1       7.034  34.974  39.423  1.00  0.00    -0.287 N 
ATOM     19  H2  UNL     1       7.136  34.304  37.422  1.00  0.00     0.186 HD
BRANCH  10  20
HETATM   20  N4  UNL     1       5.358  31.710  43.272  1.00  0.00    -0.234 N 
ATOM     21  H42 UNL     1       5.215  30.732  43.020  1.00  0.00     0.174 HD
ATOM     22  H41 UNL     1       5.168  32.009  44.228  1.00  0.00     0.174 HD
ENDBRANCH  10  20
BRANCH  18  23
HETATM   23  C3  UNL     1       7.443  36.334  39.212  1.00  0.00     0.149 C 
BRANCH  23  24
HETATM   24  C2  UNL     1       8.984  36.302  39.137  1.00  0.00     0.017 C 
HETATM   25  C1  UNL     1       9.574  37.285  40.109  1.00  0.00     0.007 C 
ENDBRANCH  23  24
ENDBRANCH  18  23
ENDBRANCH   1   8
BRANCH   6  26
HETATM   26  N12 UNL     1       9.637  36.902  44.755  1.00  0.00    -0.072 N 
ATOM     27 3H12 UNL     1       9.341  36.294  45.519  1.00  0.00     0.274 HD
ATOM     28 2H12 UNL     1      10.374  36.299  44.389  1.00  0.00     0.274 HD
ATOM     29 1H12 UNL     1       9.980  37.808  45.072  1.00  0.00     0.274 HD
ENDBRANCH   6  26
BRANCH   4  30
HETATM   30  C10 UNL     1       6.370  40.052  43.978  1.00  0.00     0.352 C 
BRANCH  30  31
HETATM   31  C11 UNL     1       7.158  41.215  43.530  1.00  0.00     0.147 A 
HETATM   32  N8  UNL     1       8.312  41.678  44.039  1.00  0.00    -0.284 N 
HETATM   33  N9  UNL     1       8.684  42.751  43.336  1.00  0.00    -0.284 N 
ATOM     34  H8  UNL     1       8.818  41.277  44.829  1.00  0.00     0.188 HD
HETATM   35  C12 UNL     1       7.774  42.985  42.373  1.00  0.00     0.147 A 
ATOM     36  H9  UNL     1       9.524  43.304  43.501  1.00  0.00     0.188 HD
HETATM   37  N10 UNL     1       6.839  42.029  42.506  1.00  0.00    -0.231 N 
BRANCH  35  38
HETATM   38  C13 UNL     1       7.791  44.079  41.362  1.00  0.00     0.184 C 
HETATM   39  C14 UNL     1       9.191  44.704  41.324  1.00  0.00     0.048 C 
BRANCH  38  40
HETATM   40  O1  UNL     1       7.448  43.587  40.089  1.00  0.00    -0.388 OA
ATOM     41  H1  UNL     1       8.227  43.355  39.597  1.00  0.00     0.210 HD
ENDBRANCH  38  40
ENDBRANCH  35  38
BRANCH  37  42
HETATM   42  N11 UNL     1       5.707  41.891  41.710  1.00  0.00    -0.336 N 
ATOM     43 2H11 UNL     1       5.350  41.011  41.336  1.00  0.00     0.177 HD
ATOM     44 1H11 UNL     1       5.109  42.662  41.414  1.00  0.00     0.177 HD
ENDBRANCH  37  42
ENDBRANCH  30  31
ENDBRANCH   4  30
TORSDOF 10
ENDMDL
MODEL 5
REMARK VINA RESULT: -7.809843746      1.550      2.419
REMARK  10 active torsions:
REMARK  status: ('A' for Active; 'I' for Inactive)
REMARK    1  A    between atoms: C2_2  and  C3_3 
REMARK    2  A    between atoms: C3_3  and  N1_4 
REMARK    3  A    between atoms: C6_11  and  N4_12 
REMARK    4  A    between atoms: C7_17  and  N6_18 
REMARK    5  A    between atoms: N7_21  and  C10_22 
REMARK    6  A    between atoms: C10_22  and  C11_23 
REMARK    7  A    between atoms: C12_28  and  C13_29 
REMARK    8  A    between atoms: C13_29  and  O1_31 
REMARK    9  A    between atoms: N10_33  and  N11_34 
REMARK   10  A    between atoms: C16_38  and  N12_39 
ROOT
HETATM    1  N6  UNL     1       8.238  37.381  40.370  1.00  0.00    -0.361 N 
HETATM    2  C8  UNL     1       9.623  37.115  40.067  1.00  0.00     0.154 C 
HETATM    3  C9  UNL     1       9.805  36.430  38.735  1.00  0.00     0.292 C 
HETATM    4  N7  UNL     1       9.741  37.454  37.703  1.00  0.00     0.099 N 
HETATM    5  C15 UNL     1       8.340  37.579  37.366  1.00  0.00     0.307 C 
HETATM    6  C16 UNL     1       7.736  38.608  38.296  1.00  0.00     0.229 C 
HETATM    7  C17 UNL     1       7.193  37.997  39.556  1.00  0.00     0.159 C 
ENDROOT
BRANCH   1   8
HETATM    8  C7  UNL     1       7.741  36.937  41.599  1.00  0.00     0.150 A 
HETATM    9  N5  UNL     1       7.926  37.733  42.696  1.00  0.00    -0.175 N 
HETATM   10  C6  UNL     1       7.535  37.376  43.920  1.00  0.00     0.678 A 
ATOM     11  H5  UNL     1       8.382  38.637  42.572  1.00  0.00     0.186 HD
HETATM   12  N3  UNL     1       6.938  36.197  44.090  1.00  0.00    -0.188 N 
HETATM   13  C5  UNL     1       6.717  35.361  43.087  1.00  0.00     0.098 A 
ATOM     14  H3  UNL     1       6.641  35.927  45.029  1.00  0.00     0.184 HD
HETATM   15  C4  UNL     1       6.149  34.114  43.004  1.00  0.00     0.140 A 
HETATM   16  C18 UNL     1       7.126  35.729  41.779  1.00  0.00     0.124 A 
HETATM   17  N2  UNL     1       6.204  33.745  41.743  1.00  0.00    -0.307 N 
HETATM   18  N1  UNL     1       6.789  34.709  40.983  1.00  0.00    -0.287 N 
ATOM     19  H2  UNL     1       5.855  32.857  41.383  1.00  0.00     0.186 HD
BRANCH  10  20
HETATM   20  N4  UNL     1       7.729  38.158  44.919  1.00  0.00    -0.234 N 
ATOM     21  H42 UNL     1       7.170  38.062  45.766  1.00  0.00     0.174 HD
ATOM     22  H41 UNL     1       8.445  38.884  44.876  1.00  0.00     0.174 HD
ENDBRANCH  10  20
BRANCH  18  23
HETATM   23  C3  UNL     1       6.903  34.584  39.557  1.00  0.00     0.149 C 
BRANCH  23  24
HETATM   24  C2  UNL     1       6.455  33.145  39.225  1.00  0.00     0.017 C 
HETATM   25  C1  UNL     1       6.093  33.034  37.770  1.00  0.00     0.007 C 
ENDBRANCH  23  24
ENDBRANCH  18  23
ENDBRANCH   1   8
BRANCH   6  26
HETATM   26  N12 UNL     1       6.614  39.205  37.591  1.00  0.00    -0.072 N 
ATOM     27 3H12 UNL     1       6.225  38.599  36.869  1.00  0.00     0.274 HD
ATOM     28 2H12 UNL     1       5.774  39.278  38.165  1.00  0.00     0.274 HD
ATOM     29 1H12 UNL     1       6.934  40.104  37.232  1.00  0.00     0.274 HD
ENDBRANCH   6  26
BRANCH   4  30
HETATM   30  C10 UNL     1      10.568  37.063  36.607  1.00  0.00     0.352 C 
BRANCH  30  31
HETATM   31  C11 UNL     1      10.742  38.128  35.601  1.00  0.00     0.147 A 
HETATM   32  N8  UNL     1      10.907  39.444  35.812  1.00  0.00    -0.284 N 
HETATM   33  N9  UNL     1      11.027  40.049  34.627  1.00  0.00    -0.284 N 
ATOM     34  H8  UNL     1      10.935  39.903  36.722  1.00  0.00     0.188 HD
HETATM   35  C12 UNL     1      10.940  39.129  33.650  1.00  0.00     0.147 A 
ATOM     36  H9  UNL     1      11.164  41.050  34.486  1.00  0.00     0.188 HD
HETATM   37  N10 UNL     1      10.764  37.949  34.267  1.00  0.00    -0.231 N 
BRANCH  35  38
HETATM   38  C13 UNL     1      11.019  39.363  32.181  1.00  0.00     0.184 C 
HETATM   39  C14 UNL     1      12.467  39.158  31.719  1.00  0.00     0.048 C 
BRANCH  38  40
HETATM   40  O1  UNL     1      10.164  38.484  31.489  1.00  0.00    -0.388 OA
ATOM     41  H1  UNL     1       9.476  38.966  31.045  1.00  0.00     0.210 HD
ENDBRANCH  38  40
ENDBRANCH  35  38
BRANCH  37  42
HETATM   42  N11 UNL     1      10.625  36.719  33.633  1.00  0.00    -0.336 N 
ATOM     43 2H11 UNL     1      10.381  35.841  34.091  1.00  0.00     0.177 HD
ATOM     44 1H11 UNL     1      10.754  36.564  32.633  1.00  0.00     0.177 HD
ENDBRANCH  37  42
ENDBRANCH  30  31
ENDBRANCH   4  30
TORSDOF 10
ENDMDL
