MODEL 1
REMARK VINA RESULT: -7.240268373      0.000      0.000
REMARK  12 active torsions:
REMARK  status: ('A' for Active; 'I' for Inactive)
REMARK    1  A    between atoms: N1_1  and  C1_4 
REMARK    2  A    between atoms: N4_11  and  C3_12 
REMARK    3  A    between atoms: C4_14  and  C5_15 
REMARK    4  A    between atoms: C5_15  and  O2_16 
REMARK    5  A    between atoms: C5_15  and  C6_18 
REMARK    6  A    between atoms: C6_18  and  O3_19 
REMARK    7  A    between atoms: C7_21  and  N5_22 
REMARK    8  A    between atoms: C8_25  and  C9_26 
REMARK    9  A    between atoms: C11_33  and  O5_34 
REMARK   10  A    between atoms: C12_36  and  N10_37 
REMARK   11  A    between atoms: C13_42  and  N12_43 
REMARK   12  A    between atoms: N12_43  and  N13_45 
ROOT
HETATM    1  C3  UNL     1      25.403  35.416   6.230  1.00  0.00     0.295 C 
HETATM    2  O1  UNL     1      25.293  34.436   5.252  1.00  0.00    -0.352 OA
HETATM    3  C4  UNL     1      24.198  34.727   4.441  1.00  0.00     0.182 C 
HETATM    4  C7  UNL     1      23.315  35.522   5.320  1.00  0.00     0.175 C 
HETATM    5  C11 UNL     1      24.351  36.470   5.943  1.00  0.00     0.196 C 
ENDROOT
BRANCH   1   6
HETATM    6  N4  UNL     1      26.715  35.935   6.367  1.00  0.00     0.016 N 
HETATM    7  C2  UNL     1      27.529  35.845   5.303  1.00  0.00     0.696 C 
HETATM    8  N2  UNL     1      28.894  35.748   5.295  1.00  0.00    -0.173 N 
HETATM    9  N3  UNL     1      27.017  35.846   4.130  1.00  0.00    -0.234 N 
HETATM   10  C1  UNL     1      29.739  36.014   6.309  1.00  0.00     0.161 C 
ATOM     11  H2  UNL     1      29.319  35.440   4.421  1.00  0.00     0.186 HD
HETATM   12  C13 UNL     1      29.449  36.666   7.501  1.00  0.00     0.179 C 
HETATM   13  N11 UNL     1      28.253  36.786   8.080  1.00  0.00    -0.171 N 
HETATM   14  C12 UNL     1      27.030  36.467   7.556  1.00  0.00     0.696 C 
ATOM     15  H11 UNL     1      28.250  37.161   9.028  1.00  0.00     0.186 HD
ATOM     16  H32 UNL     1      27.635  35.778   3.322  1.00  0.00     0.174 HD
ATOM     17  H31 UNL     1      26.000  35.918   4.136  1.00  0.00     0.174 HD
BRANCH  10  18
HETATM   18  N1  UNL     1      30.948  35.640   6.196  1.00  0.00    -0.382 N 
ATOM     19  H12 UNL     1      31.119  35.001   5.420  1.00  0.00     0.157 HD
ATOM     20  H11 UNL     1      31.626  35.995   6.869  1.00  0.00     0.157 HD
ENDBRANCH  10  18
BRANCH  12  21
HETATM   21  N12 UNL     1      30.461  37.209   8.099  1.00  0.00    -0.289 N 
ATOM     22  H12 UNL     1      31.416  36.924   7.881  1.00  0.00     0.188 HD
BRANCH  21  23
HETATM   23  N13 UNL     1      30.208  38.193   9.048  1.00  0.00    -0.344 N 
ATOM     24 2H13 UNL     1      29.248  38.404   9.321  1.00  0.00     0.176 HD
ATOM     25 1H13 UNL     1      31.004  38.685   9.452  1.00  0.00     0.176 HD
ENDBRANCH  21  23
ENDBRANCH  12  21
BRANCH  14  26
HETATM   26  N10 UNL     1      26.085  36.747   8.380  1.00  0.00    -0.234 N 
ATOM     27 2H10 UNL     1      25.180  36.765   7.911  1.00  0.00     0.174 HD
ATOM     28 1H10 UNL     1      26.318  36.911   9.360  1.00  0.00     0.174 HD
ENDBRANCH  14  26
ENDBRANCH   1   6
BRANCH   5  29
HETATM   29  O5  UNL     1      24.855  37.368   5.039  1.00  0.00    -0.389 OA
ATOM     30  H5  UNL     1      24.366  38.180   5.104  1.00  0.00     0.210 HD
ENDBRANCH   5  29
BRANCH   3  31
HETATM   31  C5  UNL     1      23.552  33.458   3.929  1.00  0.00     0.172 C 
BRANCH  31  32
HETATM   32  O2  UNL     1      24.265  32.352   4.387  1.00  0.00    -0.391 OA
ATOM     33  H2  UNL     1      24.704  31.931   3.657  1.00  0.00     0.210 HD
ENDBRANCH  31  32
BRANCH  31  34
HETATM   34  C6  UNL     1      23.551  33.429   2.413  1.00  0.00     0.198 C 
BRANCH  34  35
HETATM   35  O3  UNL     1      24.024  34.632   1.898  1.00  0.00    -0.398 OA
ATOM     36  H3  UNL     1      23.942  34.648   0.952  1.00  0.00     0.209 HD
ENDBRANCH  34  35
ENDBRANCH  31  34
ENDBRANCH   3  31
BRANCH   4  37
HETATM   37  N5  UNL     1      22.192  36.147   4.760  1.00  0.00    -0.253 N 
HETATM   38  N6  UNL     1      22.080  36.410   3.456  1.00  0.00    -0.276 N 
HETATM   39  C8  UNL     1      20.928  37.009   3.159  1.00  0.00     0.189 A 
ATOM     40  H6  UNL     1      22.795  36.179   2.766  1.00  0.00     0.189 HD
HETATM   41  N8  UNL     1      20.258  37.141   4.333  1.00  0.00    -0.310 N 
HETATM   42  C10 UNL     1      21.047  36.614   5.275  1.00  0.00     0.211 A 
ATOM     43  H8  UNL     1      19.338  37.559   4.469  1.00  0.00     0.170 HD
HETATM   44  N9  UNL     1      20.710  36.556   6.642  1.00  0.00    -0.062 NA
BRANCH  39  45
HETATM   45  C9  UNL     1      20.468  37.439   1.844  1.00  0.00     0.300 C 
HETATM   46  N7  UNL     1      19.526  36.656   1.158  1.00  0.00    -0.054 NA
HETATM   47  O4  UNL     1      20.914  38.490   1.346  1.00  0.00    -0.268 OA
ENDBRANCH  39  45
ENDBRANCH   4  37
TORSDOF 12
ENDMDL
MODEL 2
REMARK VINA RESULT: -7.195943076      2.915      4.203
REMARK  12 active torsions:
REMARK  status: ('A' for Active; 'I' for Inactive)
REMARK    1  A    between atoms: N1_1  and  C1_4 
REMARK    2  A    between atoms: N4_11  and  C3_12 
REMARK    3  A    between atoms: C4_14  and  C5_15 
REMARK    4  A    between atoms: C5_15  and  O2_16 
REMARK    5  A    between atoms: C5_15  and  C6_18 
REMARK    6  A    between atoms: C6_18  and  O3_19 
REMARK    7  A    between atoms: C7_21  and  N5_22 
REMARK    8  A    between atoms: C8_25  and  C9_26 
REMARK    9  A    between atoms: C11_33  and  O5_34 
REMARK   10  A    between atoms: C12_36  and  N10_37 
REMARK   11  A    between atoms: C13_42  and  N12_43 
REMARK   12  A    between atoms: N12_43  and  N13_45 
ROOT
HETATM    1  C3  UNL     1      23.875  36.571   5.629  1.00  0.00     0.295 C 
HETATM    2  O1  UNL     1      23.138  36.410   6.794  1.00  0.00    -0.352 OA
HETATM    3  C4  UNL     1      22.391  35.237   6.699  1.00  0.00     0.182 C 
HETATM    4  C7  UNL     1      22.220  35.051   5.243  1.00  0.00     0.175 C 
HETATM    5  C11 UNL     1      23.653  35.339   4.773  1.00  0.00     0.196 C 
ENDROOT
BRANCH   1   6
HETATM    6  N4  UNL     1      25.240  36.874   5.859  1.00  0.00     0.016 N 
HETATM    7  C2  UNL     1      25.889  37.563   4.906  1.00  0.00     0.696 C 
HETATM    8  N2  UNL     1      27.222  37.526   4.603  1.00  0.00    -0.173 N 
HETATM    9  N3  UNL     1      25.226  38.368   4.163  1.00  0.00    -0.234 N 
HETATM   10  C1  UNL     1      28.220  37.030   5.360  1.00  0.00     0.161 C 
ATOM     11  H2  UNL     1      27.491  37.918   3.700  1.00  0.00     0.186 HD
HETATM   12  C13 UNL     1      28.164  36.668   6.700  1.00  0.00     0.179 C 
HETATM   13  N11 UNL     1      27.076  36.330   7.394  1.00  0.00    -0.171 N 
HETATM   14  C12 UNL     1      25.766  36.440   7.012  1.00  0.00     0.696 C 
ATOM     15  H11 UNL     1      27.240  35.943   8.324  1.00  0.00     0.186 HD
ATOM     16  H32 UNL     1      25.718  38.891   3.440  1.00  0.00     0.174 HD
ATOM     17  H31 UNL     1      24.232  38.396   4.389  1.00  0.00     0.174 HD
BRANCH  10  18
HETATM   18  N1  UNL     1      29.357  36.862   4.818  1.00  0.00    -0.382 N 
ATOM     19  H12 UNL     1      29.912  37.713   4.733  1.00  0.00     0.157 HD
ATOM     20  H11 UNL     1      29.614  35.921   4.521  1.00  0.00     0.157 HD
ENDBRANCH  10  18
BRANCH  12  21
HETATM   21  N12 UNL     1      29.298  36.664   7.324  1.00  0.00    -0.289 N 
ATOM     22  H12 UNL     1      30.176  36.790   6.820  1.00  0.00     0.188 HD
BRANCH  21  23
HETATM   23  N13 UNL     1      29.284  36.483   8.702  1.00  0.00    -0.344 N 
ATOM     24 2H13 UNL     1      28.552  36.914   9.266  1.00  0.00     0.176 HD
ATOM     25 1H13 UNL     1      30.021  35.914   9.118  1.00  0.00     0.176 HD
ENDBRANCH  21  23
ENDBRANCH  12  21
BRANCH  14  26
HETATM   26  N10 UNL     1      24.976  36.051   7.948  1.00  0.00    -0.234 N 
ATOM     27 2H10 UNL     1      24.547  35.155   7.718  1.00  0.00     0.174 HD
ATOM     28 1H10 UNL     1      24.864  36.639   8.774  1.00  0.00     0.174 HD
ENDBRANCH  14  26
ENDBRANCH   1   6
BRANCH   5  29
HETATM   29  O5  UNL     1      24.540  34.366   5.153  1.00  0.00    -0.389 OA
ATOM     30  H5  UNL     1      24.607  33.720   4.460  1.00  0.00     0.210 HD
ENDBRANCH   5  29
BRANCH   3  31
HETATM   31  C5  UNL     1      21.081  35.367   7.447  1.00  0.00     0.172 C 
BRANCH  31  32
HETATM   32  O2  UNL     1      20.306  36.367   6.862  1.00  0.00    -0.391 OA
ATOM     33  H2  UNL     1      20.768  37.196   6.909  1.00  0.00     0.210 HD
ENDBRANCH  31  32
BRANCH  31  34
HETATM   34  C6  UNL     1      21.325  35.740   8.896  1.00  0.00     0.198 C 
BRANCH  34  35
HETATM   35  O3  UNL     1      20.128  35.779   9.602  1.00  0.00    -0.398 OA
ATOM     36  H3  UNL     1      19.739  36.643   9.556  1.00  0.00     0.209 HD
ENDBRANCH  34  35
ENDBRANCH  31  34
ENDBRANCH   3  31
BRANCH   4  37
HETATM   37  N5  UNL     1      21.667  33.849   4.778  1.00  0.00    -0.253 N 
HETATM   38  N6  UNL     1      22.369  32.938   4.100  1.00  0.00    -0.276 N 
HETATM   39  C8  UNL     1      21.633  31.882   3.762  1.00  0.00     0.189 A 
ATOM     40  H6  UNL     1      23.357  33.041   3.868  1.00  0.00     0.189 HD
HETATM   41  N8  UNL     1      20.386  32.120   4.247  1.00  0.00    -0.310 N 
HETATM   42  C10 UNL     1      20.442  33.312   4.851  1.00  0.00     0.211 A 
ATOM     43  H8  UNL     1      19.572  31.512   4.165  1.00  0.00     0.170 HD
HETATM   44  N9  UNL     1      19.344  33.924   5.487  1.00  0.00    -0.062 NA
BRANCH  39  45
HETATM   45  C9  UNL     1      22.066  30.702   3.022  1.00  0.00     0.300 C 
HETATM   46  N7  UNL     1      23.296  30.731   2.348  1.00  0.00    -0.054 NA
HETATM   47  O4  UNL     1      21.343  29.688   2.998  1.00  0.00    -0.268 OA
ENDBRANCH  39  45
ENDBRANCH   4  37
TORSDOF 12
ENDMDL
MODEL 3
REMARK VINA RESULT: -7.101582156      2.245      4.039
REMARK  12 active torsions:
REMARK  status: ('A' for Active; 'I' for Inactive)
REMARK    1  A    between atoms: N1_1  and  C1_4 
REMARK    2  A    between atoms: N4_11  and  C3_12 
REMARK    3  A    between atoms: C4_14  and  C5_15 
REMARK    4  A    between atoms: C5_15  and  O2_16 
REMARK    5  A    between atoms: C5_15  and  C6_18 
REMARK    6  A    between atoms: C6_18  and  O3_19 
REMARK    7  A    between atoms: C7_21  and  N5_22 
REMARK    8  A    between atoms: C8_25  and  C9_26 
REMARK    9  A    between atoms: C11_33  and  O5_34 
REMARK   10  A    between atoms: C12_36  and  N10_37 
REMARK   11  A    between atoms: C13_42  and  N12_43 
REMARK   12  A    between atoms: N12_43  and  N13_45 
ROOT
HETATM    1  C3  UNL     1      25.486  35.797   4.915  1.00  0.00     0.295 C 
HETATM    2  O1  UNL     1      24.600  36.815   5.243  1.00  0.00    -0.352 OA
HETATM    3  C4  UNL     1      23.296  36.346   5.090  1.00  0.00     0.182 C 
HETATM    4  C7  UNL     1      23.429  35.272   4.083  1.00  0.00     0.175 C 
HETATM    5  C11 UNL     1      24.669  34.552   4.633  1.00  0.00     0.196 C 
ENDROOT
BRANCH   1   6
HETATM    6  N4  UNL     1      26.513  35.608   5.874  1.00  0.00     0.016 N 
HETATM    7  C2  UNL     1      26.338  36.165   7.083  1.00  0.00     0.696 C 
HETATM    8  N2  UNL     1      27.299  36.601   7.954  1.00  0.00    -0.173 N 
HETATM    9  N3  UNL     1      25.147  36.331   7.523  1.00  0.00    -0.234 N 
HETATM   10  C1  UNL     1      28.613  36.309   7.935  1.00  0.00     0.161 C 
ATOM     11  H2  UNL     1      26.983  37.216   8.703  1.00  0.00     0.186 HD
HETATM   12  C13 UNL     1      29.249  35.326   7.187  1.00  0.00     0.179 C 
HETATM   13  N11 UNL     1      28.811  34.767   6.058  1.00  0.00    -0.171 N 
HETATM   14  C12 UNL     1      27.574  34.890   5.484  1.00  0.00     0.696 C 
ATOM     15  H11 UNL     1      29.478  34.177   5.562  1.00  0.00     0.186 HD
ATOM     16  H32 UNL     1      25.014  36.754   8.441  1.00  0.00     0.174 HD
ATOM     17  H31 UNL     1      24.431  36.007   6.873  1.00  0.00     0.174 HD
BRANCH  10  18
HETATM   18  N1  UNL     1      29.390  36.991   8.673  1.00  0.00    -0.382 N 
ATOM     19  H12 UNL     1      30.216  36.487   8.993  1.00  0.00     0.157 HD
ATOM     20  H11 UNL     1      29.133  37.956   8.881  1.00  0.00     0.157 HD
ENDBRANCH  10  18
BRANCH  12  21
HETATM   21  N12 UNL     1      30.388  34.922   7.652  1.00  0.00    -0.289 N 
ATOM     22  H12 UNL     1      31.215  35.517   7.606  1.00  0.00     0.188 HD
BRANCH  21  23
HETATM   23  N13 UNL     1      30.451  33.653   8.215  1.00  0.00    -0.344 N 
ATOM     24 2H13 UNL     1      31.323  33.124   8.185  1.00  0.00     0.176 HD
ATOM     25 1H13 UNL     1      29.607  33.279   8.649  1.00  0.00     0.176 HD
ENDBRANCH  21  23
ENDBRANCH  12  21
BRANCH  14  26
HETATM   26  N10 UNL     1      27.487  34.183   4.415  1.00  0.00    -0.234 N 
ATOM     27 2H10 UNL     1      26.525  34.140   4.080  1.00  0.00     0.174 HD
ATOM     28 1H10 UNL     1      28.334  33.763   4.031  1.00  0.00     0.174 HD
ENDBRANCH  14  26
ENDBRANCH   1   6
BRANCH   5  29
HETATM   29  O5  UNL     1      24.422  33.903   5.814  1.00  0.00    -0.389 OA
ATOM     30  H5  UNL     1      24.332  32.973   5.644  1.00  0.00     0.210 HD
ENDBRANCH   5  29
BRANCH   3  31
HETATM   31  C5  UNL     1      22.368  37.462   4.659  1.00  0.00     0.172 C 
BRANCH  31  32
HETATM   32  O2  UNL     1      22.805  38.669   5.201  1.00  0.00    -0.391 OA
ATOM     33  H2  UNL     1      22.935  38.570   6.137  1.00  0.00     0.210 HD
ENDBRANCH  31  32
BRANCH  31  34
HETATM   34  C6  UNL     1      20.956  37.204   5.147  1.00  0.00     0.198 C 
BRANCH  34  35
HETATM   35  O3  UNL     1      20.968  36.426   6.300  1.00  0.00    -0.398 OA
ATOM     36  H3  UNL     1      20.203  35.865   6.334  1.00  0.00     0.209 HD
ENDBRANCH  34  35
ENDBRANCH  31  34
ENDBRANCH   3  31
BRANCH   4  37
HETATM   37  N5  UNL     1      22.323  34.449   3.826  1.00  0.00    -0.253 N 
HETATM   38  N6  UNL     1      21.709  33.737   4.773  1.00  0.00    -0.276 N 
HETATM   39  C8  UNL     1      20.687  33.032   4.292  1.00  0.00     0.189 A 
ATOM     40  H6  UNL     1      21.991  33.733   5.753  1.00  0.00     0.189 HD
HETATM   41  N8  UNL     1      20.636  33.302   2.962  1.00  0.00    -0.310 N 
HETATM   42  C10 UNL     1      21.634  34.157   2.715  1.00  0.00     0.211 A 
ATOM     43  H8  UNL     1      19.969  32.927   2.287  1.00  0.00     0.170 HD
HETATM   44  N9  UNL     1      21.921  34.685   1.440  1.00  0.00    -0.062 NA
BRANCH  39  45
HETATM   45  C9  UNL     1      19.797  32.147   5.033  1.00  0.00     0.300 C 
HETATM   46  N7  UNL     1      18.698  32.695   5.714  1.00  0.00    -0.054 NA
HETATM   47  O4  UNL     1      20.020  30.922   5.054  1.00  0.00    -0.268 OA
ENDBRANCH  39  45
ENDBRANCH   4  37
TORSDOF 12
ENDMDL
MODEL 4
REMARK VINA RESULT: -7.062542666      2.727      4.382
REMARK  12 active torsions:
REMARK  status: ('A' for Active; 'I' for Inactive)
REMARK    1  A    between atoms: N1_1  and  C1_4 
REMARK    2  A    between atoms: N4_11  and  C3_12 
REMARK    3  A    between atoms: C4_14  and  C5_15 
REMARK    4  A    between atoms: C5_15  and  O2_16 
REMARK    5  A    between atoms: C5_15  and  C6_18 
REMARK    6  A    between atoms: C6_18  and  O3_19 
REMARK    7  A    between atoms: C7_21  and  N5_22 
REMARK    8  A    between atoms: C8_25  and  C9_26 
REMARK    9  A    between atoms: C11_33  and  O5_34 
REMARK   10  A    between atoms: C12_36  and  N10_37 
REMARK   11  A    between atoms: C13_42  and  N12_43 
REMARK   12  A    between atoms: N12_43  and  N13_45 
ROOT
HETATM    1  C3  UNL     1      24.733  35.434   4.926  1.00  0.00     0.295 C 
HETATM    2  O1  UNL     1      23.763  36.350   5.311  1.00  0.00    -0.352 OA
HETATM    3  C4  UNL     1      22.520  35.718   5.314  1.00  0.00     0.182 C 
HETATM    4  C7  UNL     1      22.686  34.622   4.337  1.00  0.00     0.175 C 
HETATM    5  C11 UNL     1      24.056  34.085   4.776  1.00  0.00     0.196 C 
ENDROOT
BRANCH   1   6
HETATM    6  N4  UNL     1      25.867  35.418   5.776  1.00  0.00     0.016 N 
HETATM    7  C2  UNL     1      25.748  36.009   6.976  1.00  0.00     0.696 C 
HETATM    8  N2  UNL     1      26.730  36.600   7.722  1.00  0.00    -0.173 N 
HETATM    9  N3  UNL     1      24.596  36.052   7.533  1.00  0.00    -0.234 N 
HETATM   10  C1  UNL     1      28.061  36.469   7.574  1.00  0.00     0.161 C 
ATOM     11  H2  UNL     1      26.417  37.210   8.478  1.00  0.00     0.186 HD
HETATM   12  C13 UNL     1      28.737  35.534   6.799  1.00  0.00     0.179 C 
HETATM   13  N11 UNL     1      28.259  34.871   5.745  1.00  0.00    -0.171 N 
HETATM   14  C12 UNL     1      26.965  34.814   5.302  1.00  0.00     0.696 C 
ATOM     15  H11 UNL     1      28.941  34.341   5.202  1.00  0.00     0.186 HD
ATOM     16  H32 UNL     1      24.505  36.501   8.444  1.00  0.00     0.174 HD
ATOM     17  H31 UNL     1      23.864  35.611   6.977  1.00  0.00     0.174 HD
BRANCH  10  18
HETATM   18  N1  UNL     1      28.818  37.276   8.199  1.00  0.00    -0.382 N 
ATOM     19  H12 UNL     1      29.733  37.411   7.771  1.00  0.00     0.157 HD
ATOM     20  H11 UNL     1      28.460  37.708   9.051  1.00  0.00     0.157 HD
ENDBRANCH  10  18
BRANCH  12  21
HETATM   21  N12 UNL     1      29.958  35.294   7.154  1.00  0.00    -0.289 N 
ATOM     22  H12 UNL     1      30.715  35.924   6.890  1.00  0.00     0.188 HD
BRANCH  21  23
HETATM   23  N13 UNL     1      30.208  34.151   7.906  1.00  0.00    -0.344 N 
ATOM     24 2H13 UNL     1      29.826  34.067   8.848  1.00  0.00     0.176 HD
ATOM     25 1H13 UNL     1      30.777  33.416   7.486  1.00  0.00     0.176 HD
ENDBRANCH  21  23
ENDBRANCH  12  21
BRANCH  14  26
HETATM   26  N10 UNL     1      26.859  34.050   4.275  1.00  0.00    -0.234 N 
ATOM     27 2H10 UNL     1      26.325  33.210   4.495  1.00  0.00     0.174 HD
ATOM     28 1H10 UNL     1      27.290  34.341   3.397  1.00  0.00     0.174 HD
ENDBRANCH  14  26
ENDBRANCH   1   6
BRANCH   5  29
HETATM   29  O5  UNL     1      24.014  33.469   5.999  1.00  0.00    -0.389 OA
ATOM     30  H5  UNL     1      23.173  33.641   6.404  1.00  0.00     0.210 HD
ENDBRANCH   5  29
BRANCH   3  31
HETATM   31  C5  UNL     1      21.419  36.690   4.946  1.00  0.00     0.172 C 
BRANCH  31  32
HETATM   32  O2  UNL     1      21.968  37.947   4.700  1.00  0.00    -0.391 OA
ATOM     33  H2  UNL     1      22.547  37.901   3.948  1.00  0.00     0.210 HD
ENDBRANCH  31  32
BRANCH  31  34
HETATM   34  C6  UNL     1      20.418  36.820   6.077  1.00  0.00     0.198 C 
BRANCH  34  35
HETATM   35  O3  UNL     1      20.124  35.574   6.619  1.00  0.00    -0.398 OA
ATOM     36  H3  UNL     1      19.199  35.506   6.822  1.00  0.00     0.209 HD
ENDBRANCH  34  35
ENDBRANCH  31  34
ENDBRANCH   3  31
BRANCH   4  37
HETATM   37  N5  UNL     1      21.672  33.658   4.228  1.00  0.00    -0.253 N 
HETATM   38  N6  UNL     1      20.937  33.254   5.266  1.00  0.00    -0.276 N 
HETATM   39  C8  UNL     1      20.040  32.333   4.920  1.00  0.00     0.189 A 
ATOM     40  H6  UNL     1      21.050  33.610   6.215  1.00  0.00     0.189 HD
HETATM   41  N8  UNL     1      20.202  32.129   3.587  1.00  0.00    -0.310 N 
HETATM   42  C10 UNL     1      21.192  32.941   3.202  1.00  0.00     0.211 A 
ATOM     43  H8  UNL     1      19.674  31.485   2.998  1.00  0.00     0.170 HD
HETATM   44  N9  UNL     1      21.669  33.030   1.879  1.00  0.00    -0.062 NA
BRANCH  39  45
HETATM   45  C9  UNL     1      19.073  31.670   5.788  1.00  0.00     0.300 C 
HETATM   46  N7  UNL     1      17.777  32.198   5.897  1.00  0.00    -0.054 NA
HETATM   47  O4  UNL     1      19.407  30.651   6.420  1.00  0.00    -0.268 OA
ENDBRANCH  39  45
ENDBRANCH   4  37
TORSDOF 12
ENDMDL
MODEL 5
REMARK VINA RESULT: -6.859357143      2.207      3.688
REMARK  12 active torsions:
REMARK  status: ('A' for Active; 'I' for Inactive)
REMARK    1  A    between atoms: N1_1  and  C1_4 
REMARK    2  A    between atoms: N4_11  and  C3_12 
REMARK    3  A    between atoms: C4_14  and  C5_15 
REMARK    4  A    between atoms: C5_15  and  O2_16 
REMARK    5  A    between atoms: C5_15  and  C6_18 
REMARK    6  A    between atoms: C6_18  and  O3_19 
REMARK    7  A    between atoms: C7_21  and  N5_22 
REMARK    8  A    between atoms: C8_25  and  C9_26 
REMARK    9  A    between atoms: C11_33  and  O5_34 
REMARK   10  A    between atoms: C12_36  and  N10_37 
REMARK   11  A    between atoms: C13_42  and  N12_43 
REMARK   12  A    between atoms: N12_43  and  N13_45 
ROOT
HETATM    1  C3  UNL     1      26.251  36.711   5.628  1.00  0.00     0.295 C 
HETATM    2  O1  UNL     1      25.285  36.729   6.625  1.00  0.00    -0.352 OA
HETATM    3  C4  UNL     1      24.246  35.873   6.264  1.00  0.00     0.182 C 
HETATM    4  C7  UNL     1      24.317  35.843   4.788  1.00  0.00     0.175 C 
HETATM    5  C11 UNL     1      25.833  35.674   4.604  1.00  0.00     0.196 C 
ENDROOT
BRANCH   1   6
HETATM    6  N4  UNL     1      27.569  36.536   6.119  1.00  0.00     0.016 N 
HETATM    7  C2  UNL     1      28.566  36.513   5.219  1.00  0.00     0.696 C 
HETATM    8  N2  UNL     1      29.765  35.861   5.310  1.00  0.00    -0.173 N 
HETATM    9  N3  UNL     1      28.428  37.164   4.126  1.00  0.00    -0.234 N 
HETATM   10  C1  UNL     1      30.336  35.349   6.417  1.00  0.00     0.161 C 
ATOM     11  H2  UNL     1      30.286  35.750   4.440  1.00  0.00     0.186 HD
HETATM   12  C13 UNL     1      29.966  35.569   7.737  1.00  0.00     0.179 C 
HETATM   13  N11 UNL     1      28.769  35.958   8.181  1.00  0.00    -0.171 N 
HETATM   14  C12 UNL     1      27.704  36.404   7.445  1.00  0.00     0.696 C 
ATOM     15  H11 UNL     1      28.630  35.918   9.191  1.00  0.00     0.186 HD
ATOM     16  H32 UNL     1      29.185  37.147   3.443  1.00  0.00     0.174 HD
ATOM     17  H31 UNL     1      27.534  37.650   4.058  1.00  0.00     0.174 HD
BRANCH  10  18
HETATM   18  N1  UNL     1      31.330  34.572   6.274  1.00  0.00    -0.382 N 
ATOM     19  H12 UNL     1      31.148  33.760   5.684  1.00  0.00     0.157 HD
ATOM     20  H11 UNL     1      32.202  34.812   6.746  1.00  0.00     0.157 HD
ENDBRANCH  10  18
BRANCH  12  21
HETATM   21  N12 UNL     1      30.894  35.371   8.617  1.00  0.00    -0.289 N 
ATOM     22  H12 UNL     1      31.028  34.453   9.042  1.00  0.00     0.188 HD
BRANCH  21  23
HETATM   23  N13 UNL     1      31.704  36.446   8.967  1.00  0.00    -0.344 N 
ATOM     24 2H13 UNL     1      31.457  37.389   8.666  1.00  0.00     0.176 HD
ATOM     25 1H13 UNL     1      32.537  36.257   9.523  1.00  0.00     0.176 HD
ENDBRANCH  21  23
ENDBRANCH  12  21
BRANCH  14  26
HETATM   26  N10 UNL     1      26.719  36.728   8.204  1.00  0.00    -0.234 N 
ATOM     27 2H10 UNL     1      25.969  37.164   7.668  1.00  0.00     0.174 HD
ATOM     28 1H10 UNL     1      26.780  36.528   9.203  1.00  0.00     0.174 HD
ENDBRANCH  14  26
ENDBRANCH   1   6
BRANCH   5  29
HETATM   29  O5  UNL     1      26.280  34.443   5.007  1.00  0.00    -0.389 OA
ATOM     30  H5  UNL     1      25.641  33.785   4.759  1.00  0.00     0.210 HD
ENDBRANCH   5  29
BRANCH   3  31
HETATM   31  C5  UNL     1      22.920  36.379   6.791  1.00  0.00     0.172 C 
BRANCH  31  32
HETATM   32  O2  UNL     1      23.012  37.745   7.053  1.00  0.00    -0.391 OA
ATOM     33  H2  UNL     1      23.338  37.879   7.935  1.00  0.00     0.210 HD
ENDBRANCH  31  32
BRANCH  31  34
HETATM   34  C6  UNL     1      22.549  35.672   8.080  1.00  0.00     0.198 C 
BRANCH  34  35
HETATM   35  O3  UNL     1      23.492  34.699   8.395  1.00  0.00    -0.398 OA
ATOM     36  H3  UNL     1      23.876  34.867   9.247  1.00  0.00     0.209 HD
ENDBRANCH  34  35
ENDBRANCH  31  34
ENDBRANCH   3  31
BRANCH   4  37
HETATM   37  N5  UNL     1      23.523  34.918   4.094  1.00  0.00    -0.253 N 
HETATM   38  N6  UNL     1      23.674  33.597   4.209  1.00  0.00    -0.276 N 
HETATM   39  C8  UNL     1      22.808  32.923   3.455  1.00  0.00     0.189 A 
ATOM     40  H6  UNL     1      24.373  33.155   4.806  1.00  0.00     0.189 HD
HETATM   41  N8  UNL     1      22.056  33.857   2.817  1.00  0.00    -0.310 N 
HETATM   42  C10 UNL     1      22.512  35.046   3.223  1.00  0.00     0.211 A 
ATOM     43  H8  UNL     1      21.295  33.685   2.159  1.00  0.00     0.170 HD
HETATM   44  N9  UNL     1      21.991  36.281   2.788  1.00  0.00    -0.062 NA
BRANCH  39  45
HETATM   45  C9  UNL     1      22.683  31.475   3.331  1.00  0.00     0.300 C 
HETATM   46  N7  UNL     1      21.695  30.808   4.071  1.00  0.00    -0.054 NA
HETATM   47  O4  UNL     1      23.450  30.852   2.574  1.00  0.00    -0.268 OA
ENDBRANCH  39  45
ENDBRANCH   4  37
TORSDOF 12
ENDMDL
