MODEL 1
REMARK VINA RESULT: -7.400629064      0.000      0.000
REMARK  14 active torsions:
REMARK  status: ('A' for Active; 'I' for Inactive)
REMARK    1  A    between atoms: N1_1  and  N2_4 
REMARK    2  A    between atoms: N2_4  and  N3_5 
REMARK    3  A    between atoms: N3_5  and  N4_6 
REMARK    4  A    between atoms: N4_6  and  C1_8 
REMARK    5  A    between atoms: N6_11  and  N7_12 
REMARK    6  A    between atoms: C3_16  and  O1_17 
REMARK    7  A    between atoms: C5_21  and  O2_22 
REMARK    8  A    between atoms: C6_24  and  C7_25 
REMARK    9  A    between atoms: C7_25  and  O3_26 
REMARK   10  A    between atoms: C7_25  and  C8_28 
REMARK   11  A    between atoms: C8_28  and  O4_29 
REMARK   12  A    between atoms: C8_28  and  C9_31 
REMARK   13  A    between atoms: C9_31  and  O5_32 
REMARK   14  A    between atoms: C9_31  and  O6_34 
ROOT
HETATM    1  N7  UNL     1      20.035  31.924   4.879  1.00  0.00    -0.118 N 
HETATM    2  N8  UNL     1      21.206  31.566   4.361  1.00  0.00    -0.271 N 
ATOM      3  H8  UNL     1      21.414  30.655   3.953  1.00  0.00     0.189 HD
HETATM    4  C2  UNL     1      22.071  32.584   4.454  1.00  0.00     0.101 A 
HETATM    5  C3  UNL     1      23.361  32.695   4.014  1.00  0.00     0.115 A 
HETATM    6  C4  UNL     1      24.051  33.865   4.166  1.00  0.00     0.080 A 
HETATM    7 BR1  UNL     1      25.860  34.042   3.578  1.00  0.00    -0.045 Br
HETATM    8  C5  UNL     1      23.490  34.961   4.758  1.00  0.00     0.096 A 
HETATM    9  C6  UNL     1      22.143  34.859   5.224  1.00  0.00     0.026 A 
HETATM   10  C10 UNL     1      21.452  33.692   5.069  1.00  0.00     0.078 A 
HETATM   11  C11 UNL     1      20.185  33.189   5.296  1.00  0.00     0.297 A 
HETATM   12  O7  UNL     1      19.208  33.773   5.829  1.00  0.00    -0.264 OA
ENDROOT
BRANCH   1  13
HETATM   13  N6  UNL     1      18.880  31.118   4.969  1.00  0.00     0.022 N 
HETATM   14  C1  UNL     1      17.798  30.656   5.677  1.00  0.00     0.750 A 
HETATM   15  N5  UNL     1      17.983  30.229   4.382  1.00  0.00    -0.090 N 
ATOM     16  H5  UNL     1      17.683  29.672   3.582  1.00  0.00     0.208 HD
BRANCH  14  17
HETATM   17  N4  UNL     1      16.904  30.478   6.733  1.00  0.00    -0.113 N 
ATOM     18  H4  UNL     1      16.111  31.115   6.805  1.00  0.00     0.203 HD
BRANCH  17  19
HETATM   19  N3  UNL     1      17.037  29.458   7.716  1.00  0.00     0.006 NA
BRANCH  19  20
HETATM   20  N2  UNL     1      18.277  28.798   7.607  1.00  0.00    -0.015 NA
BRANCH  20  21
HETATM   21  N1  UNL     1      18.137  27.529   7.027  1.00  0.00    -0.330 N 
ATOM     22  H12 UNL     1      18.326  26.659   7.525  1.00  0.00     0.173 HD
ATOM     23  H11 UNL     1      17.826  27.592   6.057  1.00  0.00     0.173 HD
ENDBRANCH  20  21
ENDBRANCH  19  20
ENDBRANCH  17  19
ENDBRANCH  14  17
ENDBRANCH   1  13
BRANCH   5  24
HETATM   24  O1  UNL     1      23.970  31.583   3.400  1.00  0.00    -0.357 OA
ATOM     25  H1  UNL     1      23.593  30.720   3.534  1.00  0.00     0.217 HD
ENDBRANCH   5  24
BRANCH   9  26
HETATM   26  C7  UNL     1      21.549  36.054   5.762  1.00  0.00     0.188 C 
BRANCH  26  27
HETATM   27  O3  UNL     1      20.298  36.172   5.065  1.00  0.00    -0.388 OA
ATOM     28  H3  UNL     1      20.518  36.641   4.268  1.00  0.00     0.210 HD
ENDBRANCH  26  27
BRANCH  26  29
HETATM   29  C8  UNL     1      21.279  36.343   7.148  1.00  0.00     0.206 C 
BRANCH  29  30
HETATM   30  O4  UNL     1      19.975  35.878   7.428  1.00  0.00    -0.388 OA
ATOM     31  H4  UNL     1      19.723  36.235   8.271  1.00  0.00     0.210 HD
ENDBRANCH  29  30
BRANCH  29  32
HETATM   32  C9  UNL     1      22.110  35.933   8.287  1.00  0.00     0.285 C 
BRANCH  32  33
HETATM   33  O5  UNL     1      22.192  34.589   8.539  1.00  0.00    -0.369 OA
ATOM     34  H5  UNL     1      22.552  34.045   7.847  1.00  0.00     0.212 HD
ENDBRANCH  32  33
BRANCH  32  35
HETATM   35  O6  UNL     1      23.446  36.379   8.068  1.00  0.00    -0.369 OA
ATOM     36  H6  UNL     1      24.000  36.046   8.764  1.00  0.00     0.212 HD
ENDBRANCH  32  35
ENDBRANCH  29  32
ENDBRANCH  26  29
ENDBRANCH   9  26
BRANCH   8  37
HETATM   37  O2  UNL     1      24.109  36.165   4.946  1.00  0.00    -0.359 OA
ATOM     38  H2  UNL     1      23.838  36.833   5.564  1.00  0.00     0.217 HD
ENDBRANCH   8  37
TORSDOF 14
ENDMDL
MODEL 2
REMARK VINA RESULT: -7.392627760      0.707      1.380
REMARK  14 active torsions:
REMARK  status: ('A' for Active; 'I' for Inactive)
REMARK    1  A    between atoms: N1_1  and  N2_4 
REMARK    2  A    between atoms: N2_4  and  N3_5 
REMARK    3  A    between atoms: N3_5  and  N4_6 
REMARK    4  A    between atoms: N4_6  and  C1_8 
REMARK    5  A    between atoms: N6_11  and  N7_12 
REMARK    6  A    between atoms: C3_16  and  O1_17 
REMARK    7  A    between atoms: C5_21  and  O2_22 
REMARK    8  A    between atoms: C6_24  and  C7_25 
REMARK    9  A    between atoms: C7_25  and  O3_26 
REMARK   10  A    between atoms: C7_25  and  C8_28 
REMARK   11  A    between atoms: C8_28  and  O4_29 
REMARK   12  A    between atoms: C8_28  and  C9_31 
REMARK   13  A    between atoms: C9_31  and  O5_32 
REMARK   14  A    between atoms: C9_31  and  O6_34 
ROOT
HETATM    1  N7  UNL     1      20.001  31.862   4.848  1.00  0.00    -0.118 N 
HETATM    2  N8  UNL     1      21.181  31.532   4.332  1.00  0.00    -0.271 N 
ATOM      3  H8  UNL     1      21.407  30.631   3.911  1.00  0.00     0.189 HD
HETATM    4  C2  UNL     1      22.029  32.562   4.448  1.00  0.00     0.101 A 
HETATM    5  C3  UNL     1      23.320  32.701   4.019  1.00  0.00     0.115 A 
HETATM    6  C4  UNL     1      23.990  33.880   4.194  1.00  0.00     0.080 A 
HETATM    7 BR1  UNL     1      25.800  34.095   3.621  1.00  0.00    -0.045 Br
HETATM    8  C5  UNL     1      23.408  34.956   4.800  1.00  0.00     0.096 A 
HETATM    9  C6  UNL     1      22.059  34.825   5.255  1.00  0.00     0.026 A 
HETATM   10  C10 UNL     1      21.388  33.649   5.077  1.00  0.00     0.078 A 
HETATM   11  C11 UNL     1      20.128  33.122   5.287  1.00  0.00     0.297 A 
HETATM   12  O7  UNL     1      19.138  33.682   5.822  1.00  0.00    -0.264 OA
ENDROOT
BRANCH   1  13
HETATM   13  N6  UNL     1      18.860  31.036   4.917  1.00  0.00     0.022 N 
HETATM   14  C1  UNL     1      17.850  30.451   5.642  1.00  0.00     0.750 A 
HETATM   15  N5  UNL     1      17.907  30.242   4.283  1.00  0.00    -0.090 N 
ATOM     16  H5  UNL     1      17.529  29.818   3.436  1.00  0.00     0.208 HD
BRANCH  14  17
HETATM   17  N4  UNL     1      17.064  30.091   6.737  1.00  0.00    -0.113 N 
ATOM     18  H4  UNL     1      16.756  29.121   6.809  1.00  0.00     0.203 HD
BRANCH  17  19
HETATM   19  N3  UNL     1      16.668  31.000   7.758  1.00  0.00     0.006 NA
BRANCH  19  20
HETATM   20  N2  UNL     1      16.407  32.281   7.232  1.00  0.00    -0.015 NA
BRANCH  20  21
HETATM   21  N1  UNL     1      15.109  32.368   6.708  1.00  0.00    -0.330 N 
ATOM     22  H12 UNL     1      14.904  32.345   5.709  1.00  0.00     0.173 HD
ATOM     23  H11 UNL     1      14.412  32.457   7.448  1.00  0.00     0.173 HD
ENDBRANCH  20  21
ENDBRANCH  19  20
ENDBRANCH  17  19
ENDBRANCH  14  17
ENDBRANCH   1  13
BRANCH   5  24
HETATM   24  O1  UNL     1      23.951  31.609   3.391  1.00  0.00    -0.357 OA
ATOM     25  H1  UNL     1      24.378  30.952   3.929  1.00  0.00     0.217 HD
ENDBRANCH   5  24
BRANCH   9  26
HETATM   26  C7  UNL     1      21.442  36.001   5.808  1.00  0.00     0.188 C 
BRANCH  26  27
HETATM   27  O3  UNL     1      20.172  36.081   5.141  1.00  0.00    -0.388 OA
ATOM     28  H3  UNL     1      20.368  36.509   4.315  1.00  0.00     0.210 HD
ENDBRANCH  26  27
BRANCH  26  29
HETATM   29  C8  UNL     1      21.197  36.281   7.201  1.00  0.00     0.206 C 
BRANCH  29  30
HETATM   30  O4  UNL     1      19.926  35.754   7.518  1.00  0.00    -0.388 OA
ATOM     31  H4  UNL     1      20.049  35.120   8.214  1.00  0.00     0.210 HD
ENDBRANCH  29  30
BRANCH  29  32
HETATM   32  C9  UNL     1      22.079  35.917   8.317  1.00  0.00     0.285 C 
BRANCH  32  33
HETATM   33  O5  UNL     1      22.220  34.580   8.580  1.00  0.00    -0.369 OA
ATOM     34  H5  UNL     1      22.731  34.074   7.960  1.00  0.00     0.212 HD
ENDBRANCH  32  33
BRANCH  32  35
HETATM   35  O6  UNL     1      23.389  36.410   8.050  1.00  0.00    -0.369 OA
ATOM     36  H6  UNL     1      24.007  35.965   8.618  1.00  0.00     0.212 HD
ENDBRANCH  32  35
ENDBRANCH  29  32
ENDBRANCH  26  29
ENDBRANCH   9  26
BRANCH   8  37
HETATM   37  O2  UNL     1      24.005  36.167   5.011  1.00  0.00    -0.359 OA
ATOM     38  H2  UNL     1      23.600  36.916   5.432  1.00  0.00     0.217 HD
ENDBRANCH   8  37
TORSDOF 14
ENDMDL
MODEL 3
REMARK VINA RESULT: -7.343775764      1.429      1.868
REMARK  14 active torsions:
REMARK  status: ('A' for Active; 'I' for Inactive)
REMARK    1  A    between atoms: N1_1  and  N2_4 
REMARK    2  A    between atoms: N2_4  and  N3_5 
REMARK    3  A    between atoms: N3_5  and  N4_6 
REMARK    4  A    between atoms: N4_6  and  C1_8 
REMARK    5  A    between atoms: N6_11  and  N7_12 
REMARK    6  A    between atoms: C3_16  and  O1_17 
REMARK    7  A    between atoms: C5_21  and  O2_22 
REMARK    8  A    between atoms: C6_24  and  C7_25 
REMARK    9  A    between atoms: C7_25  and  O3_26 
REMARK   10  A    between atoms: C7_25  and  C8_28 
REMARK   11  A    between atoms: C8_28  and  O4_29 
REMARK   12  A    between atoms: C8_28  and  C9_31 
REMARK   13  A    between atoms: C9_31  and  O5_32 
REMARK   14  A    between atoms: C9_31  and  O6_34 
ROOT
HETATM    1  N7  UNL     1      21.986  32.243   4.386  1.00  0.00    -0.118 N 
HETATM    2  N8  UNL     1      23.255  32.362   4.008  1.00  0.00    -0.271 N 
ATOM      3  H8  UNL     1      23.796  31.642   3.530  1.00  0.00     0.189 HD
HETATM    4  C2  UNL     1      23.716  33.572   4.350  1.00  0.00     0.101 A 
HETATM    5  C3  UNL     1      24.933  34.154   4.124  1.00  0.00     0.115 A 
HETATM    6  C4  UNL     1      25.173  35.442   4.516  1.00  0.00     0.080 A 
HETATM    7 BR1  UNL     1      26.868  36.274   4.228  1.00  0.00    -0.045 Br
HETATM    8  C5  UNL     1      24.221  36.193   5.144  1.00  0.00     0.096 A 
HETATM    9  C6  UNL     1      22.946  35.597   5.389  1.00  0.00     0.026 A 
HETATM   10  C10 UNL     1      22.704  34.312   4.995  1.00  0.00     0.078 A 
HETATM   11  C11 UNL     1      21.661  33.405   4.969  1.00  0.00     0.297 A 
HETATM   12  O7  UNL     1      20.497  33.557   5.416  1.00  0.00    -0.264 OA
ENDROOT
BRANCH   1  13
HETATM   13  N6  UNL     1      21.164  31.110   4.206  1.00  0.00     0.022 N 
HETATM   14  C1  UNL     1      20.191  30.255   4.662  1.00  0.00     0.750 A 
HETATM   15  N5  UNL     1      20.723  30.056   3.409  1.00  0.00    -0.090 N 
ATOM     16  H5  UNL     1      20.764  29.526   2.539  1.00  0.00     0.208 HD
BRANCH  14  17
HETATM   17  N4  UNL     1      19.241  29.688   5.512  1.00  0.00    -0.113 N 
ATOM     18  H4  UNL     1      18.842  28.786   5.253  1.00  0.00     0.203 HD
BRANCH  17  19
HETATM   19  N3  UNL     1      18.797  30.297   6.720  1.00  0.00     0.006 NA
BRANCH  19  20
HETATM   20  N2  UNL     1      17.922  29.451   7.430  1.00  0.00    -0.015 NA
BRANCH  20  21
HETATM   21  N1  UNL     1      18.386  28.128   7.449  1.00  0.00    -0.330 N 
ATOM     22  H12 UNL     1      19.194  27.808   6.914  1.00  0.00     0.173 HD
ATOM     23  H11 UNL     1      17.818  27.540   8.059  1.00  0.00     0.173 HD
ENDBRANCH  20  21
ENDBRANCH  19  20
ENDBRANCH  17  19
ENDBRANCH  14  17
ENDBRANCH   1  13
BRANCH   5  24
HETATM   24  O1  UNL     1      25.937  33.406   3.478  1.00  0.00    -0.357 OA
ATOM     25  H1  UNL     1      26.203  33.655   2.601  1.00  0.00     0.217 HD
ENDBRANCH   5  24
BRANCH   9  26
HETATM   26  C7  UNL     1      21.935  36.439   5.972  1.00  0.00     0.188 C 
BRANCH  26  27
HETATM   27  O3  UNL     1      20.883  36.458   4.994  1.00  0.00    -0.388 OA
ATOM     28  H3  UNL     1      20.599  37.364   4.973  1.00  0.00     0.210 HD
ENDBRANCH  26  27
BRANCH  26  29
HETATM   29  C8  UNL     1      21.303  36.277   7.258  1.00  0.00     0.206 C 
BRANCH  29  30
HETATM   30  O4  UNL     1      20.030  35.709   7.031  1.00  0.00    -0.388 OA
ATOM     31  H4  UNL     1      19.563  36.290   6.442  1.00  0.00     0.210 HD
ENDBRANCH  29  30
BRANCH  29  32
HETATM   32  C9  UNL     1      21.870  35.561   8.408  1.00  0.00     0.285 C 
BRANCH  32  33
HETATM   33  O5  UNL     1      23.087  35.992   8.863  1.00  0.00    -0.369 OA
ATOM     34  H5  UNL     1      23.848  35.495   8.585  1.00  0.00     0.212 HD
ENDBRANCH  32  33
BRANCH  32  35
HETATM   35  O6  UNL     1      20.971  35.672   9.508  1.00  0.00    -0.369 OA
ATOM     36  H6  UNL     1      21.203  36.439  10.019  1.00  0.00     0.212 HD
ENDBRANCH  32  35
ENDBRANCH  29  32
ENDBRANCH  26  29
ENDBRANCH   9  26
BRANCH   8  37
HETATM   37  O2  UNL     1      24.379  37.484   5.565  1.00  0.00    -0.359 OA
ATOM     38  H2  UNL     1      23.843  37.921   6.215  1.00  0.00     0.217 HD
ENDBRANCH   8  37
TORSDOF 14
ENDMDL
MODEL 4
REMARK VINA RESULT: -7.128586201      1.571      2.198
REMARK  14 active torsions:
REMARK  status: ('A' for Active; 'I' for Inactive)
REMARK    1  A    between atoms: N1_1  and  N2_4 
REMARK    2  A    between atoms: N2_4  and  N3_5 
REMARK    3  A    between atoms: N3_5  and  N4_6 
REMARK    4  A    between atoms: N4_6  and  C1_8 
REMARK    5  A    between atoms: N6_11  and  N7_12 
REMARK    6  A    between atoms: C3_16  and  O1_17 
REMARK    7  A    between atoms: C5_21  and  O2_22 
REMARK    8  A    between atoms: C6_24  and  C7_25 
REMARK    9  A    between atoms: C7_25  and  O3_26 
REMARK   10  A    between atoms: C7_25  and  C8_28 
REMARK   11  A    between atoms: C8_28  and  O4_29 
REMARK   12  A    between atoms: C8_28  and  C9_31 
REMARK   13  A    between atoms: C9_31  and  O5_32 
REMARK   14  A    between atoms: C9_31  and  O6_34 
ROOT
HETATM    1  N7  UNL     1      22.067  32.449   4.233  1.00  0.00    -0.118 N 
HETATM    2  N8  UNL     1      23.228  32.513   3.589  1.00  0.00    -0.271 N 
ATOM      3  H8  UNL     1      23.539  31.858   2.872  1.00  0.00     0.189 HD
HETATM    4  C2  UNL     1      23.928  33.569   4.024  1.00  0.00     0.101 A 
HETATM    5  C3  UNL     1      25.140  34.057   3.620  1.00  0.00     0.115 A 
HETATM    6  C4  UNL     1      25.649  35.201   4.169  1.00  0.00     0.080 A 
HETATM    7 BR1  UNL     1      27.348  35.894   3.637  1.00  0.00    -0.045 Br
HETATM    8  C5  UNL     1      24.979  35.896   5.134  1.00  0.00     0.096 A 
HETATM    9  C6  UNL     1      23.712  35.397   5.567  1.00  0.00     0.026 A 
HETATM   10  C10 UNL     1      23.201  34.257   5.017  1.00  0.00     0.078 A 
HETATM   11  C11 UNL     1      22.054  33.489   5.078  1.00  0.00     0.297 A 
HETATM   12  O7  UNL     1      21.049  33.662   5.813  1.00  0.00    -0.264 OA
ENDROOT
BRANCH   1  13
HETATM   13  N6  UNL     1      21.066  31.471   4.054  1.00  0.00     0.022 N 
HETATM   14  C1  UNL     1      20.179  30.560   4.574  1.00  0.00     0.750 A 
HETATM   15  N5  UNL     1      20.226  30.747   3.211  1.00  0.00    -0.090 N 
ATOM     16  H5  UNL     1      19.891  30.522   2.275  1.00  0.00     0.208 HD
BRANCH  14  17
HETATM   17  N4  UNL     1      19.489  29.795   5.515  1.00  0.00    -0.113 N 
ATOM     18  H4  UNL     1      19.307  28.815   5.297  1.00  0.00     0.203 HD
BRANCH  17  19
HETATM   19  N3  UNL     1      19.025  30.304   6.760  1.00  0.00     0.006 NA
BRANCH  19  20
HETATM   20  N2  UNL     1      17.996  29.501   7.291  1.00  0.00    -0.015 NA
BRANCH  20  21
HETATM   21  N1  UNL     1      18.402  28.166   7.428  1.00  0.00    -0.330 N 
ATOM     22  H12 UNL     1      19.205  27.878   7.987  1.00  0.00     0.173 HD
ATOM     23  H11 UNL     1      17.797  27.535   6.903  1.00  0.00     0.173 HD
ENDBRANCH  20  21
ENDBRANCH  19  20
ENDBRANCH  17  19
ENDBRANCH  14  17
ENDBRANCH   1  13
BRANCH   5  24
HETATM   24  O1  UNL     1      25.858  33.362   2.627  1.00  0.00    -0.357 OA
ATOM     25  H1  UNL     1      26.805  33.438   2.605  1.00  0.00     0.217 HD
ENDBRANCH   5  24
BRANCH   9  26
HETATM   26  C7  UNL     1      22.988  36.197   6.520  1.00  0.00     0.188 C 
BRANCH  26  27
HETATM   27  O3  UNL     1      21.909  36.763   5.759  1.00  0.00    -0.388 OA
ATOM     28  H3  UNL     1      21.127  36.382   6.142  1.00  0.00     0.210 HD
ENDBRANCH  26  27
BRANCH  26  29
HETATM   29  C8  UNL     1      22.427  35.761   7.774  1.00  0.00     0.206 C 
BRANCH  29  30
HETATM   30  O4  UNL     1      23.341  36.121   8.789  1.00  0.00    -0.388 OA
ATOM     31  H4  UNL     1      23.826  35.338   9.022  1.00  0.00     0.210 HD
ENDBRANCH  29  30
BRANCH  29  32
HETATM   32  C9  UNL     1      21.095  36.106   8.284  1.00  0.00     0.285 C 
BRANCH  32  33
HETATM   33  O5  UNL     1      20.022  35.655   7.561  1.00  0.00    -0.369 OA
ATOM     34  H5  UNL     1      19.264  35.366   8.055  1.00  0.00     0.212 HD
ENDBRANCH  32  33
BRANCH  32  35
HETATM   35  O6  UNL     1      20.947  35.564   9.594  1.00  0.00    -0.369 OA
ATOM     36  H6  UNL     1      20.229  36.006  10.031  1.00  0.00     0.212 HD
ENDBRANCH  32  35
ENDBRANCH  29  32
ENDBRANCH  26  29
ENDBRANCH   9  26
BRANCH   8  37
HETATM   37  O2  UNL     1      25.416  37.045   5.731  1.00  0.00    -0.359 OA
ATOM     38  H2  UNL     1      25.230  37.927   5.432  1.00  0.00     0.217 HD
ENDBRANCH   8  37
TORSDOF 14
ENDMDL
MODEL 5
REMARK VINA RESULT: -7.074370495      6.456      8.668
REMARK  14 active torsions:
REMARK  status: ('A' for Active; 'I' for Inactive)
REMARK    1  A    between atoms: N1_1  and  N2_4 
REMARK    2  A    between atoms: N2_4  and  N3_5 
REMARK    3  A    between atoms: N3_5  and  N4_6 
REMARK    4  A    between atoms: N4_6  and  C1_8 
REMARK    5  A    between atoms: N6_11  and  N7_12 
REMARK    6  A    between atoms: C3_16  and  O1_17 
REMARK    7  A    between atoms: C5_21  and  O2_22 
REMARK    8  A    between atoms: C6_24  and  C7_25 
REMARK    9  A    between atoms: C7_25  and  O3_26 
REMARK   10  A    between atoms: C7_25  and  C8_28 
REMARK   11  A    between atoms: C8_28  and  O4_29 
REMARK   12  A    between atoms: C8_28  and  C9_31 
REMARK   13  A    between atoms: C9_31  and  O5_32 
REMARK   14  A    between atoms: C9_31  and  O6_34 
ROOT
HETATM    1  N7  UNL     1      27.147  36.284   6.620  1.00  0.00    -0.118 N 
HETATM    2  N8  UNL     1      27.148  35.929   5.338  1.00  0.00    -0.271 N 
ATOM      3  H8  UNL     1      27.952  35.992   4.713  1.00  0.00     0.189 HD
HETATM    4  C2  UNL     1      25.936  35.478   4.993  1.00  0.00     0.101 A 
HETATM    5  C3  UNL     1      25.485  34.964   3.808  1.00  0.00     0.115 A 
HETATM    6  C4  UNL     1      24.204  34.502   3.692  1.00  0.00     0.080 A 
HETATM    7 BR1  UNL     1      23.543  33.796   2.045  1.00  0.00    -0.045 Br
HETATM    8  C5  UNL     1      23.328  34.535   4.739  1.00  0.00     0.096 A 
HETATM    9  C6  UNL     1      23.785  35.072   5.982  1.00  0.00     0.026 A 
HETATM   10  C10 UNL     1      25.066  35.530   6.101  1.00  0.00     0.078 A 
HETATM   11  C11 UNL     1      25.908  36.042   7.070  1.00  0.00     0.297 A 
HETATM   12  O7  UNL     1      25.638  36.289   8.272  1.00  0.00    -0.264 OA
ENDROOT
BRANCH   1  13
HETATM   13  N6  UNL     1      28.238  36.812   7.341  1.00  0.00     0.022 N 
HETATM   14  C1  UNL     1      29.348  37.618   7.409  1.00  0.00     0.750 A 
HETATM   15  N5  UNL     1      28.957  36.923   8.529  1.00  0.00    -0.090 N 
ATOM     16  H5  UNL     1      29.093  36.672   9.508  1.00  0.00     0.208 HD
BRANCH  14  17
HETATM   17  N4  UNL     1      30.346  38.507   7.009  1.00  0.00    -0.113 N 
ATOM     18  H4  UNL     1      30.374  38.790   6.029  1.00  0.00     0.203 HD
BRANCH  17  19
HETATM   19  N3  UNL     1      31.327  39.042   7.891  1.00  0.00     0.006 NA
BRANCH  19  20
HETATM   20  N2  UNL     1      30.769  39.366   9.144  1.00  0.00    -0.015 NA
BRANCH  20  21
HETATM   21  N1  UNL     1      31.753  39.772  10.056  1.00  0.00    -0.330 N 
ATOM     22  H12 UNL     1      31.906  40.746  10.321  1.00  0.00     0.173 HD
ATOM     23  H11 UNL     1      32.285  38.978  10.413  1.00  0.00     0.173 HD
ENDBRANCH  20  21
ENDBRANCH  19  20
ENDBRANCH  17  19
ENDBRANCH  14  17
ENDBRANCH   1  13
BRANCH   5  24
HETATM   24  O1  UNL     1      26.364  34.917   2.708  1.00  0.00    -0.357 OA
ATOM     25  H1  UNL     1      26.043  34.582   1.878  1.00  0.00     0.217 HD
ENDBRANCH   5  24
BRANCH   9  26
HETATM   26  C7  UNL     1      22.871  35.013   7.092  1.00  0.00     0.188 C 
BRANCH  26  27
HETATM   27  O3  UNL     1      23.651  34.463   8.165  1.00  0.00    -0.388 OA
ATOM     28  H3  UNL     1      23.007  34.093   8.758  1.00  0.00     0.210 HD
ENDBRANCH  26  27
BRANCH  26  29
HETATM   29  C8  UNL     1      22.107  36.101   7.649  1.00  0.00     0.206 C 
BRANCH  29  30
HETATM   30  O4  UNL     1      22.769  37.299   7.299  1.00  0.00    -0.388 OA
ATOM     31  H4  UNL     1      23.329  37.535   8.028  1.00  0.00     0.210 HD
ENDBRANCH  29  30
BRANCH  29  32
HETATM   32  C9  UNL     1      20.677  36.346   7.429  1.00  0.00     0.285 C 
BRANCH  32  33
HETATM   33  O5  UNL     1      20.104  35.729   6.349  1.00  0.00    -0.369 OA
ATOM     34  H5  UNL     1      19.221  35.996   6.122  1.00  0.00     0.212 HD
ENDBRANCH  32  33
BRANCH  32  35
HETATM   35  O6  UNL     1      19.952  35.901   8.573  1.00  0.00    -0.369 OA
ATOM     36  H6  UNL     1      19.117  35.547   8.289  1.00  0.00     0.212 HD
ENDBRANCH  32  35
ENDBRANCH  29  32
ENDBRANCH  26  29
ENDBRANCH   9  26
BRANCH   8  37
HETATM   37  O2  UNL     1      22.035  34.093   4.706  1.00  0.00    -0.359 OA
ATOM     38  H2  UNL     1      21.710  33.310   5.133  1.00  0.00     0.217 HD
ENDBRANCH   8  37
TORSDOF 14
ENDMDL
