MODEL 1
REMARK VINA RESULT: -6.980375774      0.000      0.000
REMARK  5 active torsions:
REMARK  status: ('A' for Active; 'I' for Inactive)
REMARK    1  A    between atoms: O1_2  and  C2_3 
REMARK       I    between atoms: C2_3  and  N1_5 
REMARK    2  A    between atoms: N1_5  and  C3_7 
REMARK    3  A    between atoms: C3_7  and  C4_8 
REMARK    4  A    between atoms: C3_7  and  C8_15 
REMARK    5  A    between atoms: N2_11  and  O3_12 
ROOT
HETATM    1  C3  UNL     1      33.942  48.651  18.227  1.00  0.00     0.161 C 
ENDROOT
BRANCH   1   2
HETATM    2  N1  UNL     1      34.634  47.521  17.678  1.00  0.00    -0.324 N 
HETATM    3  C2  UNL     1      33.940  46.471  17.034  1.00  0.00     0.360 C 
HETATM    4  O2  UNL     1      32.690  46.525  16.938  1.00  0.00    -0.239 OA
ATOM      5  H1  UNL     1      35.650  47.474  17.753  1.00  0.00     0.165 HD
BRANCH   3   6
HETATM    6  O1  UNL     1      34.640  45.397  16.516  1.00  0.00    -0.309 OA
HETATM    7  C1  UNL     1      34.294  44.087  16.972  1.00  0.00     0.215 C 
ENDBRANCH   3   6
ENDBRANCH   1   2
BRANCH   1   8
HETATM    8  C4  UNL     1      34.851  49.818  18.244  1.00  0.00    -0.011 A 
HETATM    9  C5  UNL     1      36.130  49.876  17.721  1.00  0.00     0.030 A 
HETATM   10  C6  UNL     1      36.600  51.139  17.958  1.00  0.00     0.123 A 
HETATM   11  N2  UNL     1      35.671  51.875  18.607  1.00  0.00    -0.247 N 
HETATM   12  C7  UNL     1      34.614  51.067  18.777  1.00  0.00     0.132 A 
BRANCH  11  13
HETATM   13  O3  UNL     1      35.771  53.195  19.021  1.00  0.00    -0.284 OA
ATOM     14  H3  UNL     1      35.133  53.702  19.509  1.00  0.00     0.245 HD
ENDBRANCH  11  13
ENDBRANCH   1   8
BRANCH   1  15
HETATM   15  C8  UNL     1      33.482  48.370  19.635  1.00  0.00     0.010 A 
HETATM   16  C9  UNL     1      32.199  48.229  20.087  1.00  0.00     0.017 A 
HETATM   17  C10 UNL     1      32.025  47.982  21.387  1.00  0.00     0.008 A 
HETATM   18  C11 UNL     1      33.148  47.888  22.166  1.00  0.00     0.050 A 
HETATM   19  S1  UNL     1      34.410  48.151  21.047  1.00  0.00    -0.104 SA
ENDBRANCH   1  15
TORSDOF 5
ENDMDL
MODEL 2
REMARK VINA RESULT: -6.957148602      2.632      4.803
REMARK  5 active torsions:
REMARK  status: ('A' for Active; 'I' for Inactive)
REMARK    1  A    between atoms: O1_2  and  C2_3 
REMARK       I    between atoms: C2_3  and  N1_5 
REMARK    2  A    between atoms: N1_5  and  C3_7 
REMARK    3  A    between atoms: C3_7  and  C4_8 
REMARK    4  A    between atoms: C3_7  and  C8_15 
REMARK    5  A    between atoms: N2_11  and  O3_12 
ROOT
HETATM    1  C3  UNL     1      33.517  47.762  18.320  1.00  0.00     0.161 C 
ENDROOT
BRANCH   1   2
HETATM    2  N1  UNL     1      34.793  48.339  18.012  1.00  0.00    -0.324 N 
HETATM    3  C2  UNL     1      34.902  49.624  17.433  1.00  0.00     0.360 C 
HETATM    4  O2  UNL     1      33.861  50.280  17.181  1.00  0.00    -0.239 OA
ATOM      5  H1  UNL     1      35.641  47.811  18.216  1.00  0.00     0.165 HD
BRANCH   3   6
HETATM    6  O1  UNL     1      36.150  50.149  17.149  1.00  0.00    -0.309 OA
HETATM    7  C1  UNL     1      36.658  51.175  18.006  1.00  0.00     0.215 C 
ENDBRANCH   3   6
ENDBRANCH   1   2
BRANCH   1   8
HETATM    8  C4  UNL     1      33.239  47.936  19.763  1.00  0.00    -0.011 A 
HETATM    9  C5  UNL     1      31.995  47.986  20.364  1.00  0.00     0.030 A 
HETATM   10  C6  UNL     1      32.207  48.157  21.705  1.00  0.00     0.123 A 
HETATM   11  N2  UNL     1      33.531  48.217  21.970  1.00  0.00    -0.247 N 
HETATM   12  C7  UNL     1      34.150  48.083  20.788  1.00  0.00     0.132 A 
BRANCH  11  13
HETATM   13  O3  UNL     1      34.143  48.384  23.204  1.00  0.00    -0.284 OA
ATOM     14  H3  UNL     1      34.948  48.851  23.396  1.00  0.00     0.245 HD
ENDBRANCH  11  13
ENDBRANCH   1   8
BRANCH   1  15
HETATM   15  C8  UNL     1      33.496  46.291  17.993  1.00  0.00     0.010 A 
HETATM   16  C9  UNL     1      33.954  45.677  16.860  1.00  0.00     0.017 A 
HETATM   17  C10 UNL     1      33.832  44.350  16.784  1.00  0.00     0.008 A 
HETATM   18  C11 UNL     1      33.257  43.708  17.850  1.00  0.00     0.050 A 
HETATM   19  S1  UNL     1      32.907  44.990  18.921  1.00  0.00    -0.104 SA
ENDBRANCH   1  15
TORSDOF 5
ENDMDL
MODEL 3
REMARK VINA RESULT: -6.745210902      2.647      5.529
REMARK  5 active torsions:
REMARK  status: ('A' for Active; 'I' for Inactive)
REMARK    1  A    between atoms: O1_2  and  C2_3 
REMARK       I    between atoms: C2_3  and  N1_5 
REMARK    2  A    between atoms: N1_5  and  C3_7 
REMARK    3  A    between atoms: C3_7  and  C4_8 
REMARK    4  A    between atoms: C3_7  and  C8_15 
REMARK    5  A    between atoms: N2_11  and  O3_12 
ROOT
HETATM    1  C3  UNL     1      33.467  47.867  18.903  1.00  0.00     0.161 C 
ENDROOT
BRANCH   1   2
HETATM    2  N1  UNL     1      34.732  48.498  19.143  1.00  0.00    -0.324 N 
HETATM    3  C2  UNL     1      34.937  49.870  18.870  1.00  0.00     0.360 C 
HETATM    4  O2  UNL     1      33.993  50.556  18.409  1.00  0.00    -0.239 OA
ATOM      5  H1  UNL     1      35.502  47.944  19.519  1.00  0.00     0.165 HD
BRANCH   3   6
HETATM    6  O1  UNL     1      36.172  50.445  19.114  1.00  0.00    -0.309 OA
HETATM    7  C1  UNL     1      36.801  51.161  18.048  1.00  0.00     0.215 C 
ENDBRANCH   3   6
ENDBRANCH   1   2
BRANCH   1   8
HETATM    8  C4  UNL     1      32.880  47.446  20.194  1.00  0.00    -0.011 A 
HETATM    9  C5  UNL     1      31.622  47.762  20.671  1.00  0.00     0.030 A 
HETATM   10  C6  UNL     1      31.499  47.167  21.897  1.00  0.00     0.123 A 
HETATM   11  N2  UNL     1      32.627  46.491  22.209  1.00  0.00    -0.247 N 
HETATM   12  C7  UNL     1      33.460  46.666  21.173  1.00  0.00     0.132 A 
BRANCH  11  13
HETATM   13  O3  UNL     1      32.889  45.762  23.360  1.00  0.00    -0.284 OA
ATOM     14  H3  UNL     1      33.564  45.106  23.492  1.00  0.00     0.245 HD
ENDBRANCH  11  13
ENDBRANCH   1   8
BRANCH   1  15
HETATM   15  C8  UNL     1      33.626  46.655  18.021  1.00  0.00     0.010 A 
HETATM   16  C9  UNL     1      34.364  46.542  16.876  1.00  0.00     0.017 A 
HETATM   17  C10 UNL     1      34.359  45.362  16.251  1.00  0.00     0.008 A 
HETATM   18  C11 UNL     1      33.613  44.357  16.809  1.00  0.00     0.050 A 
HETATM   19  S1  UNL     1      32.945  45.103  18.191  1.00  0.00    -0.104 SA
ENDBRANCH   1  15
TORSDOF 5
ENDMDL
MODEL 4
REMARK VINA RESULT: -6.693861067      0.968      1.243
REMARK  5 active torsions:
REMARK  status: ('A' for Active; 'I' for Inactive)
REMARK    1  A    between atoms: O1_2  and  C2_3 
REMARK       I    between atoms: C2_3  and  N1_5 
REMARK    2  A    between atoms: N1_5  and  C3_7 
REMARK    3  A    between atoms: C3_7  and  C4_8 
REMARK    4  A    between atoms: C3_7  and  C8_15 
REMARK    5  A    between atoms: N2_11  and  O3_12 
ROOT
HETATM    1  C3  UNL     1      33.803  49.006  18.722  1.00  0.00     0.161 C 
ENDROOT
BRANCH   1   2
HETATM    2  N1  UNL     1      34.487  47.866  18.185  1.00  0.00    -0.324 N 
HETATM    3  C2  UNL     1      33.796  46.856  17.477  1.00  0.00     0.360 C 
HETATM    4  O2  UNL     1      32.556  46.955  17.312  1.00  0.00    -0.239 OA
ATOM      5  H1  UNL     1      35.495  47.782  18.316  1.00  0.00     0.165 HD
BRANCH   3   6
HETATM    6  O1  UNL     1      34.489  45.770  16.973  1.00  0.00    -0.309 OA
HETATM    7  C1  UNL     1      33.787  44.533  16.831  1.00  0.00     0.215 C 
ENDBRANCH   3   6
ENDBRANCH   1   2
BRANCH   1   8
HETATM    8  C4  UNL     1      34.698  50.183  18.666  1.00  0.00    -0.011 A 
HETATM    9  C5  UNL     1      34.350  51.498  18.913  1.00  0.00     0.030 A 
HETATM   10  C6  UNL     1      35.483  52.247  18.748  1.00  0.00     0.123 A 
HETATM   11  N2  UNL     1      36.526  51.459  18.408  1.00  0.00    -0.247 N 
HETATM   12  C7  UNL     1      36.043  50.209  18.360  1.00  0.00     0.132 A 
BRANCH  11  13
HETATM   13  O3  UNL     1      37.835  51.844  18.157  1.00  0.00    -0.284 OA
ATOM     14  H3  UNL     1      38.517  51.341  17.726  1.00  0.00     0.245 HD
ENDBRANCH  11  13
ENDBRANCH   1   8
BRANCH   1  15
HETATM   15  C8  UNL     1      33.399  48.768  20.155  1.00  0.00     0.010 A 
HETATM   16  C9  UNL     1      32.158  48.453  20.636  1.00  0.00     0.017 A 
HETATM   17  C10 UNL     1      32.030  48.286  21.954  1.00  0.00     0.008 A 
HETATM   18  C11 UNL     1      33.154  48.443  22.721  1.00  0.00     0.050 A 
HETATM   19  S1  UNL     1      34.353  48.821  21.565  1.00  0.00    -0.104 SA
ENDBRANCH   1  15
TORSDOF 5
ENDMDL
MODEL 5
REMARK VINA RESULT: -6.672716483      2.490      5.298
REMARK  5 active torsions:
REMARK  status: ('A' for Active; 'I' for Inactive)
REMARK    1  A    between atoms: O1_2  and  C2_3 
REMARK       I    between atoms: C2_3  and  N1_5 
REMARK    2  A    between atoms: N1_5  and  C3_7 
REMARK    3  A    between atoms: C3_7  and  C4_8 
REMARK    4  A    between atoms: C3_7  and  C8_15 
REMARK    5  A    between atoms: N2_11  and  O3_12 
ROOT
HETATM    1  C3  UNL     1      33.654  47.679  20.149  1.00  0.00     0.161 C 
ENDROOT
BRANCH   1   2
HETATM    2  N1  UNL     1      33.893  48.583  19.062  1.00  0.00    -0.324 N 
HETATM    3  C2  UNL     1      34.938  49.533  19.106  1.00  0.00     0.360 C 
HETATM    4  O2  UNL     1      35.678  49.591  20.119  1.00  0.00    -0.239 OA
ATOM      5  H1  UNL     1      33.295  48.538  18.236  1.00  0.00     0.165 HD
BRANCH   3   6
HETATM    6  O1  UNL     1      35.139  50.389  18.038  1.00  0.00    -0.309 OA
HETATM    7  C1  UNL     1      36.395  51.066  17.946  1.00  0.00     0.215 C 
ENDBRANCH   3   6
ENDBRANCH   1   2
BRANCH   1   8
HETATM    8  C4  UNL     1      33.281  46.353  19.609  1.00  0.00    -0.011 A 
HETATM    9  C5  UNL     1      32.990  46.051  18.292  1.00  0.00     0.030 A 
HETATM   10  C6  UNL     1      32.699  44.715  18.245  1.00  0.00     0.123 A 
HETATM   11  N2  UNL     1      32.796  44.166  19.475  1.00  0.00    -0.247 N 
HETATM   12  C7  UNL     1      33.149  45.166  20.298  1.00  0.00     0.132 A 
BRANCH  11  13
HETATM   13  O3  UNL     1      32.579  42.845  19.836  1.00  0.00    -0.284 OA
ATOM     14  H3  UNL     1      32.006  42.514  20.518  1.00  0.00     0.245 HD
ENDBRANCH  11  13
ENDBRANCH   1   8
BRANCH   1  15
HETATM   15  C8  UNL     1      32.538  48.178  21.031  1.00  0.00     0.010 A 
HETATM   16  C9  UNL     1      31.191  48.042  20.838  1.00  0.00     0.017 A 
HETATM   17  C10 UNL     1      30.378  48.569  21.757  1.00  0.00     0.008 A 
HETATM   18  C11 UNL     1      30.961  49.204  22.823  1.00  0.00     0.050 A 
HETATM   19  S1  UNL     1      32.629  49.040  22.497  1.00  0.00    -0.104 SA
ENDBRANCH   1  15
TORSDOF 5
ENDMDL
