MODEL 1
REMARK VINA RESULT: -7.888872138      0.000      0.000
REMARK  10 active torsions:
REMARK  status: ('A' for Active; 'I' for Inactive)
REMARK    1  A    between atoms: C2_2  and  O1_3 
REMARK    2  A    between atoms: O1_3  and  C3_4 
REMARK    3  A    between atoms: C3_4  and  C4_6 
REMARK    4  A    between atoms: C5_8  and  N1_9 
REMARK    5  A    between atoms: N1_9  and  C6_11 
REMARK    6  A    between atoms: C6_11  and  C7_12 
REMARK    7  A    between atoms: C7_12  and  N2_13 
REMARK    8  A    between atoms: N2_13  and  C8_15 
REMARK    9  A    between atoms: C11_22  and  O3_23 
REMARK   10  A    between atoms: C15_31  and  C16_32 
ROOT
HETATM    1  C7  UNL     1       2.724  44.814  53.263  1.00  0.00     0.141 C 
ENDROOT
BRANCH   1   2
HETATM    2  C6  UNL     1       2.417  44.965  54.757  1.00  0.00     0.141 C 
BRANCH   2   3
HETATM    3  N1  UNL     1       3.605  45.087  55.536  1.00  0.00    -0.369 N 
ATOM      4  H1  UNL     1       3.692  44.519  56.379  1.00  0.00     0.161 HD
BRANCH   3   5
HETATM    5  C5  UNL     1       4.588  45.891  55.224  1.00  0.00     0.145 A 
HETATM    6  S1  UNL     1       6.192  45.481  54.840  1.00  0.00    -0.046 SA
HETATM    7  C4  UNL     1       6.798  47.071  54.569  1.00  0.00     0.106 A 
HETATM    8  C15 UNL     1       5.680  47.834  54.801  1.00  0.00     0.034 A 
HETATM    9  N5  UNL     1       4.581  47.219  55.129  1.00  0.00    -0.339 N 
ATOM     10  H5  UNL     1       3.727  47.746  55.310  1.00  0.00     0.168 HD
BRANCH   7  11
HETATM   11  C3  UNL     1       8.162  47.469  54.189  1.00  0.00     0.302 C 
HETATM   12  O2  UNL     1       9.041  47.432  55.081  1.00  0.00    -0.259 OA
BRANCH  11  13
HETATM   13  O1  UNL     1       8.520  47.872  52.931  1.00  0.00    -0.317 OA
BRANCH  13  14
HETATM   14  C2  UNL     1       8.518  46.988  51.806  1.00  0.00     0.174 C 
HETATM   15  C1  UNL     1       9.853  46.288  51.790  1.00  0.00     0.034 C 
ENDBRANCH  13  14
ENDBRANCH  11  13
ENDBRANCH   7  11
BRANCH   8  16
HETATM   16  C16 UNL     1       5.758  49.354  54.676  1.00  0.00     0.054 C 
HETATM   17  C17 UNL     1       4.444  50.002  54.960  1.00  0.00     0.011 C 
ENDBRANCH   8  16
ENDBRANCH   3   5
ENDBRANCH   2   3
ENDBRANCH   1   2
BRANCH   1  18
HETATM   18  N2  UNL     1       3.464  43.631  53.071  1.00  0.00    -0.373 N 
ATOM     19  H2  UNL     1       4.029  43.332  53.866  1.00  0.00     0.161 HD
BRANCH  18  20
HETATM   20  C8  UNL     1       3.523  42.887  52.048  1.00  0.00     0.134 A 
HETATM   21  N3  UNL     1       2.606  41.962  51.723  1.00  0.00    -0.285 N 
HETATM   22  N4  UNL     1       2.810  41.267  50.627  1.00  0.00    -0.309 N 
ATOM     23  H3  UNL     1       1.783  41.804  52.304  1.00  0.00     0.188 HD
HETATM   24  C9  UNL     1       3.845  41.403  49.812  1.00  0.00     0.122 A 
ATOM     25  H4  UNL     1       2.111  40.566  50.383  1.00  0.00     0.186 HD
HETATM   26  C10 UNL     1       4.851  42.352  50.084  1.00  0.00     0.036 A 
HETATM   27  C11 UNL     1       5.957  42.616  49.371  1.00  0.00     0.091 A 
HETATM   28  C14 UNL     1       4.647  43.076  51.220  1.00  0.00     0.065 A 
HETATM   29  C12 UNL     1       6.793  43.595  49.845  1.00  0.00     0.014 A 
HETATM   30  C13 UNL     1       8.088  44.085  49.245  1.00  0.00     0.059 C 
HETATM   31  S2  UNL     1       6.000  44.109  51.270  1.00  0.00    -0.087 SA
BRANCH  27  32
HETATM   32  O3  UNL     1       6.311  41.949  48.165  1.00  0.00    -0.359 OA
ATOM     33  H3  UNL     1       7.201  41.861  47.844  1.00  0.00     0.217 HD
ENDBRANCH  27  32
ENDBRANCH  18  20
ENDBRANCH   1  18
TORSDOF 10
ENDMDL
MODEL 2
REMARK VINA RESULT: -7.734969495      1.967      2.957
REMARK  10 active torsions:
REMARK  status: ('A' for Active; 'I' for Inactive)
REMARK    1  A    between atoms: C2_2  and  O1_3 
REMARK    2  A    between atoms: O1_3  and  C3_4 
REMARK    3  A    between atoms: C3_4  and  C4_6 
REMARK    4  A    between atoms: C5_8  and  N1_9 
REMARK    5  A    between atoms: N1_9  and  C6_11 
REMARK    6  A    between atoms: C6_11  and  C7_12 
REMARK    7  A    between atoms: C7_12  and  N2_13 
REMARK    8  A    between atoms: N2_13  and  C8_15 
REMARK    9  A    between atoms: C11_22  and  O3_23 
REMARK   10  A    between atoms: C15_31  and  C16_32 
ROOT
HETATM    1  C7  UNL     1       1.528  43.183  51.937  1.00  0.00     0.141 C 
ENDROOT
BRANCH   1   2
HETATM    2  C6  UNL     1       0.727  43.055  53.237  1.00  0.00     0.141 C 
BRANCH   2   3
HETATM    3  N1  UNL     1       0.698  44.279  53.969  1.00  0.00    -0.369 N 
ATOM      4  H1  UNL     1      -0.199  44.610  54.324  1.00  0.00     0.161 HD
BRANCH   3   5
HETATM    5  C5  UNL     1       1.765  44.997  54.206  1.00  0.00     0.145 A 
HETATM    6  S1  UNL     1       2.163  46.521  53.568  1.00  0.00    -0.046 SA
HETATM    7  C4  UNL     1       3.676  46.738  54.364  1.00  0.00     0.106 A 
HETATM    8  C15 UNL     1       3.771  45.578  55.093  1.00  0.00     0.034 A 
HETATM    9  N5  UNL     1       2.799  44.718  54.998  1.00  0.00    -0.339 N 
ATOM     10  H5  UNL     1       2.828  43.844  55.522  1.00  0.00     0.168 HD
BRANCH   7  11
HETATM   11  C3  UNL     1       4.597  47.880  54.265  1.00  0.00     0.302 C 
HETATM   12  O2  UNL     1       4.164  48.999  54.628  1.00  0.00    -0.259 OA
BRANCH  11  13
HETATM   13  O1  UNL     1       5.883  47.790  53.807  1.00  0.00    -0.317 OA
BRANCH  13  14
HETATM   14  C2  UNL     1       6.990  48.391  54.485  1.00  0.00     0.174 C 
HETATM   15  C1  UNL     1       8.048  48.668  53.448  1.00  0.00     0.034 C 
ENDBRANCH  13  14
ENDBRANCH  11  13
ENDBRANCH   7  11
BRANCH   8  16
HETATM   16  C16 UNL     1       4.994  45.332  55.974  1.00  0.00     0.054 C 
HETATM   17  C17 UNL     1       5.953  44.382  55.340  1.00  0.00     0.011 C 
ENDBRANCH   8  16
ENDBRANCH   3   5
ENDBRANCH   2   3
ENDBRANCH   1   2
BRANCH   1  18
HETATM   18  N2  UNL     1       2.734  42.469  52.078  1.00  0.00    -0.373 N 
ATOM     19  H2  UNL     1       2.984  42.212  53.033  1.00  0.00     0.161 HD
BRANCH  18  20
HETATM   20  C8  UNL     1       3.551  42.103  51.182  1.00  0.00     0.134 A 
HETATM   21  N3  UNL     1       3.411  41.005  50.423  1.00  0.00    -0.285 N 
HETATM   22  N4  UNL     1       4.345  40.759  49.534  1.00  0.00    -0.309 N 
ATOM     23  H3  UNL     1       2.608  40.385  50.532  1.00  0.00     0.188 HD
HETATM   24  C9  UNL     1       5.419  41.506  49.321  1.00  0.00     0.122 A 
ATOM     25  H4  UNL     1       4.235  39.924  48.959  1.00  0.00     0.186 HD
HETATM   26  C10 UNL     1       5.639  42.675  50.077  1.00  0.00     0.036 A 
HETATM   27  C11 UNL     1       6.665  43.537  49.992  1.00  0.00     0.091 A 
HETATM   28  C14 UNL     1       4.673  42.936  51.002  1.00  0.00     0.065 A 
HETATM   29  C12 UNL     1       6.657  44.611  50.845  1.00  0.00     0.014 A 
HETATM   30  C13 UNL     1       7.676  45.718  50.958  1.00  0.00     0.059 C 
HETATM   31  S2  UNL     1       5.214  44.376  51.732  1.00  0.00    -0.087 SA
BRANCH  27  32
HETATM   32  O3  UNL     1       7.749  43.404  49.080  1.00  0.00    -0.359 OA
ATOM     33  H3  UNL     1       7.864  43.941  48.304  1.00  0.00     0.217 HD
ENDBRANCH  27  32
ENDBRANCH  18  20
ENDBRANCH   1  18
TORSDOF 10
ENDMDL
MODEL 3
REMARK VINA RESULT: -7.708584549      2.517      3.843
REMARK  10 active torsions:
REMARK  status: ('A' for Active; 'I' for Inactive)
REMARK    1  A    between atoms: C2_2  and  O1_3 
REMARK    2  A    between atoms: O1_3  and  C3_4 
REMARK    3  A    between atoms: C3_4  and  C4_6 
REMARK    4  A    between atoms: C5_8  and  N1_9 
REMARK    5  A    between atoms: N1_9  and  C6_11 
REMARK    6  A    between atoms: C6_11  and  C7_12 
REMARK    7  A    between atoms: C7_12  and  N2_13 
REMARK    8  A    between atoms: N2_13  and  C8_15 
REMARK    9  A    between atoms: C11_22  and  O3_23 
REMARK   10  A    between atoms: C15_31  and  C16_32 
ROOT
HETATM    1  C7  UNL     1       2.137  42.928  51.448  1.00  0.00     0.141 C 
ENDROOT
BRANCH   1   2
HETATM    2  C6  UNL     1       2.159  43.293  52.937  1.00  0.00     0.141 C 
BRANCH   2   3
HETATM    3  N1  UNL     1       3.468  43.185  53.493  1.00  0.00    -0.369 N 
ATOM      4  H1  UNL     1       3.758  42.287  53.879  1.00  0.00     0.161 HD
BRANCH   3   5
HETATM    5  C5  UNL     1       4.314  44.182  53.534  1.00  0.00     0.145 A 
HETATM    6  S1  UNL     1       4.582  45.275  54.808  1.00  0.00    -0.046 SA
HETATM    7  C4  UNL     1       5.808  46.231  54.064  1.00  0.00     0.106 A 
HETATM    8  C15 UNL     1       5.929  45.617  52.841  1.00  0.00     0.034 A 
HETATM    9  N5  UNL     1       5.168  44.590  52.597  1.00  0.00    -0.339 N 
ATOM     10  H5  UNL     1       5.226  44.104  51.702  1.00  0.00     0.168 HD
BRANCH   7  11
HETATM   11  C3  UNL     1       6.517  47.391  54.623  1.00  0.00     0.302 C 
HETATM   12  O2  UNL     1       5.869  48.458  54.738  1.00  0.00    -0.259 OA
BRANCH  11  13
HETATM   13  O1  UNL     1       7.826  47.371  55.020  1.00  0.00    -0.317 OA
BRANCH  13  14
HETATM   14  C2  UNL     1       8.818  48.236  54.462  1.00  0.00     0.174 C 
HETATM   15  C1  UNL     1       9.831  47.361  53.768  1.00  0.00     0.034 C 
ENDBRANCH  13  14
ENDBRANCH  11  13
ENDBRANCH   7  11
BRANCH   8  16
HETATM   16  C16 UNL     1       6.931  46.151  51.819  1.00  0.00     0.054 C 
HETATM   17  C17 UNL     1       7.009  45.279  50.611  1.00  0.00     0.011 C 
ENDBRANCH   8  16
ENDBRANCH   3   5
ENDBRANCH   2   3
ENDBRANCH   1   2
BRANCH   1  18
HETATM   18  N2  UNL     1       3.023  41.854  51.234  1.00  0.00    -0.373 N 
ATOM     19  H2  UNL     1       2.996  41.115  51.935  1.00  0.00     0.161 HD
BRANCH  18  20
HETATM   20  C8  UNL     1       3.849  41.682  50.289  1.00  0.00     0.134 A 
HETATM   21  N3  UNL     1       5.150  42.009  50.343  1.00  0.00    -0.285 N 
HETATM   22  N4  UNL     1       5.880  41.767  49.279  1.00  0.00    -0.309 N 
ATOM     23  H3  UNL     1       5.556  42.430  51.179  1.00  0.00     0.188 HD
HETATM   24  C9  UNL     1       5.441  41.226  48.153  1.00  0.00     0.122 A 
ATOM     25  H4  UNL     1       6.868  42.017  49.323  1.00  0.00     0.186 HD
HETATM   26  C10 UNL     1       4.088  40.854  48.016  1.00  0.00     0.036 A 
HETATM   27  C11 UNL     1       3.483  40.299  46.955  1.00  0.00     0.091 A 
HETATM   28  C14 UNL     1       3.324  41.102  49.117  1.00  0.00     0.065 A 
HETATM   29  C12 UNL     1       2.143  40.027  47.065  1.00  0.00     0.014 A 
HETATM   30  C13 UNL     1       1.229  39.412  46.033  1.00  0.00     0.059 C 
HETATM   31  S2  UNL     1       1.781  40.557  48.649  1.00  0.00    -0.087 SA
BRANCH  27  32
HETATM   32  O3  UNL     1       4.141  39.979  45.734  1.00  0.00    -0.359 OA
ATOM     33  H3  UNL     1       3.746  39.481  45.028  1.00  0.00     0.217 HD
ENDBRANCH  27  32
ENDBRANCH  18  20
ENDBRANCH   1  18
TORSDOF 10
ENDMDL
MODEL 4
REMARK VINA RESULT: -7.615969602      2.046      7.105
REMARK  10 active torsions:
REMARK  status: ('A' for Active; 'I' for Inactive)
REMARK    1  A    between atoms: C2_2  and  O1_3 
REMARK    2  A    between atoms: O1_3  and  C3_4 
REMARK    3  A    between atoms: C3_4  and  C4_6 
REMARK    4  A    between atoms: C5_8  and  N1_9 
REMARK    5  A    between atoms: N1_9  and  C6_11 
REMARK    6  A    between atoms: C6_11  and  C7_12 
REMARK    7  A    between atoms: C7_12  and  N2_13 
REMARK    8  A    between atoms: N2_13  and  C8_15 
REMARK    9  A    between atoms: C11_22  and  O3_23 
REMARK   10  A    between atoms: C15_31  and  C16_32 
ROOT
HETATM    1  C7  UNL     1       2.614  46.809  52.787  1.00  0.00     0.141 C 
ENDROOT
BRANCH   1   2
HETATM    2  C6  UNL     1       1.998  45.512  52.251  1.00  0.00     0.141 C 
BRANCH   2   3
HETATM    3  N1  UNL     1       2.722  44.360  52.679  1.00  0.00    -0.369 N 
ATOM      4  H1  UNL     1       2.964  44.279  53.667  1.00  0.00     0.161 HD
BRANCH   3   5
HETATM    5  C5  UNL     1       3.090  43.402  51.868  1.00  0.00     0.145 A 
HETATM    6  S1  UNL     1       2.098  42.355  50.969  1.00  0.00    -0.046 SA
HETATM    7  C4  UNL     1       3.336  41.436  50.201  1.00  0.00     0.106 A 
HETATM    8  C15 UNL     1       4.469  42.022  50.710  1.00  0.00     0.034 A 
HETATM    9  N5  UNL     1       4.320  43.009  51.546  1.00  0.00    -0.339 N 
ATOM     10  H5  UNL     1       5.134  43.474  51.948  1.00  0.00     0.168 HD
BRANCH   7  11
HETATM   11  C3  UNL     1       3.183  40.322  49.253  1.00  0.00     0.302 C 
HETATM   12  O2  UNL     1       2.552  39.315  49.649  1.00  0.00    -0.259 OA
BRANCH  11  13
HETATM   13  O1  UNL     1       3.684  40.325  47.979  1.00  0.00    -0.317 OA
BRANCH  13  14
HETATM   14  C2  UNL     1       3.580  41.455  47.110  1.00  0.00     0.174 C 
HETATM   15  C1  UNL     1       4.977  41.794  46.654  1.00  0.00     0.034 C 
ENDBRANCH  13  14
ENDBRANCH  11  13
ENDBRANCH   7  11
BRANCH   8  16
HETATM   16  C16 UNL     1       5.845  41.508  50.293  1.00  0.00     0.054 C 
HETATM   17  C17 UNL     1       6.750  42.618  49.875  1.00  0.00     0.011 C 
ENDBRANCH   8  16
ENDBRANCH   3   5
ENDBRANCH   2   3
ENDBRANCH   1   2
BRANCH   1  18
HETATM   18  N2  UNL     1       4.017  46.688  52.755  1.00  0.00    -0.373 N 
ATOM     19  H2  UNL     1       4.385  45.998  52.101  1.00  0.00     0.161 HD
BRANCH  18  20
HETATM   20  C8  UNL     1       4.885  47.319  53.428  1.00  0.00     0.134 A 
HETATM   21  N3  UNL     1       4.603  48.196  54.406  1.00  0.00    -0.285 N 
HETATM   22  N4  UNL     1       5.615  48.771  55.013  1.00  0.00    -0.309 N 
ATOM     23  H3  UNL     1       3.640  48.406  54.668  1.00  0.00     0.188 HD
HETATM   24  C9  UNL     1       6.895  48.560  54.743  1.00  0.00     0.122 A 
ATOM     25  H4  UNL     1       5.398  49.436  55.755  1.00  0.00     0.186 HD
HETATM   26  C10 UNL     1       7.273  47.656  53.730  1.00  0.00     0.036 A 
HETATM   27  C11 UNL     1       8.512  47.328  53.331  1.00  0.00     0.091 A 
HETATM   28  C14 UNL     1       6.227  47.054  53.096  1.00  0.00     0.065 A 
HETATM   29  C12 UNL     1       8.624  46.413  52.313  1.00  0.00     0.014 A 
HETATM   30  C13 UNL     1       9.884  45.876  51.680  1.00  0.00     0.059 C 
HETATM   31  S2  UNL     1       6.993  46.046  51.957  1.00  0.00    -0.087 SA
BRANCH  27  32
HETATM   32  O3  UNL     1       9.703  47.866  53.892  1.00  0.00    -0.359 OA
ATOM     33  H3  UNL     1      10.565  47.777  53.503  1.00  0.00     0.217 HD
ENDBRANCH  27  32
ENDBRANCH  18  20
ENDBRANCH   1  18
TORSDOF 10
ENDMDL
MODEL 5
REMARK VINA RESULT: -7.565912680      3.114      8.510
REMARK  10 active torsions:
REMARK  status: ('A' for Active; 'I' for Inactive)
REMARK    1  A    between atoms: C2_2  and  O1_3 
REMARK    2  A    between atoms: O1_3  and  C3_4 
REMARK    3  A    between atoms: C3_4  and  C4_6 
REMARK    4  A    between atoms: C5_8  and  N1_9 
REMARK    5  A    between atoms: N1_9  and  C6_11 
REMARK    6  A    between atoms: C6_11  and  C7_12 
REMARK    7  A    between atoms: C7_12  and  N2_13 
REMARK    8  A    between atoms: N2_13  and  C8_15 
REMARK    9  A    between atoms: C11_22  and  O3_23 
REMARK   10  A    between atoms: C15_31  and  C16_32 
ROOT
HETATM    1  C7  UNL     1       7.107  45.223  49.952  1.00  0.00     0.141 C 
ENDROOT
BRANCH   1   2
HETATM    2  C6  UNL     1       7.931  44.057  49.394  1.00  0.00     0.141 C 
BRANCH   2   3
HETATM    3  N1  UNL     1       7.459  42.796  49.866  1.00  0.00    -0.369 N 
ATOM      4  H1  UNL     1       8.024  42.292  50.550  1.00  0.00     0.161 HD
BRANCH   3   5
HETATM    5  C5  UNL     1       6.338  42.254  49.465  1.00  0.00     0.145 A 
HETATM    6  S1  UNL     1       5.039  41.712  50.417  1.00  0.00    -0.046 SA
HETATM    7  C4  UNL     1       4.013  41.159  49.148  1.00  0.00     0.106 A 
HETATM    8  C15 UNL     1       4.771  41.443  48.039  1.00  0.00     0.034 A 
HETATM    9  N5  UNL     1       5.936  41.993  48.223  1.00  0.00    -0.339 N 
ATOM     10  H5  UNL     1       6.532  42.221  47.427  1.00  0.00     0.168 HD
BRANCH   7  11
HETATM   11  C3  UNL     1       2.679  40.550  49.261  1.00  0.00     0.302 C 
HETATM   12  O2  UNL     1       2.619  39.383  49.714  1.00  0.00    -0.259 OA
BRANCH  11  13
HETATM   13  O1  UNL     1       1.517  41.178  48.905  1.00  0.00    -0.317 OA
BRANCH  13  14
HETATM   14  C2  UNL     1       0.510  41.539  49.855  1.00  0.00     0.174 C 
HETATM   15  C1  UNL     1       1.033  42.725  50.626  1.00  0.00     0.034 C 
ENDBRANCH  13  14
ENDBRANCH  11  13
ENDBRANCH   7  11
BRANCH   8  16
HETATM   16  C16 UNL     1       4.238  41.107  46.648  1.00  0.00     0.054 C 
HETATM   17  C17 UNL     1       4.753  42.051  45.613  1.00  0.00     0.011 C 
ENDBRANCH   8  16
ENDBRANCH   3   5
ENDBRANCH   2   3
ENDBRANCH   1   2
BRANCH   1  18
HETATM   18  N2  UNL     1       7.265  45.259  51.351  1.00  0.00    -0.373 N 
ATOM     19  H2  UNL     1       6.680  44.610  51.877  1.00  0.00     0.161 HD
BRANCH  18  20
HETATM   20  C8  UNL     1       8.034  45.986  52.046  1.00  0.00     0.134 A 
HETATM   21  N3  UNL     1       9.376  45.921  52.021  1.00  0.00    -0.285 N 
HETATM   22  N4  UNL     1      10.036  46.744  52.802  1.00  0.00    -0.309 N 
ATOM     23  H3  UNL     1       9.863  45.257  51.419  1.00  0.00     0.188 HD
HETATM   24  C9  UNL     1       9.491  47.637  53.614  1.00  0.00     0.122 A 
ATOM     25  H4  UNL     1      11.054  46.692  52.781  1.00  0.00     0.186 HD
HETATM   26  C10 UNL     1       8.090  47.768  53.698  1.00  0.00     0.036 A 
HETATM   27  C11 UNL     1       7.380  48.613  54.462  1.00  0.00     0.091 A 
HETATM   28  C14 UNL     1       7.398  46.916  52.890  1.00  0.00     0.065 A 
HETATM   29  C12 UNL     1       6.012  48.548  54.368  1.00  0.00     0.014 A 
HETATM   30  C13 UNL     1       4.988  49.375  55.107  1.00  0.00     0.059 C 
HETATM   31  S2  UNL     1       5.773  47.311  53.213  1.00  0.00    -0.087 SA
BRANCH  27  32
HETATM   32  O3  UNL     1       7.954  49.560  55.355  1.00  0.00    -0.359 OA
ATOM     33  H3  UNL     1       8.458  50.317  55.080  1.00  0.00     0.217 HD
ENDBRANCH  27  32
ENDBRANCH  18  20
ENDBRANCH   1  18
TORSDOF 10
ENDMDL
