MODEL 1
REMARK VINA RESULT: -9.563249841      0.000      0.000
REMARK  13 active torsions:
REMARK  status: ('A' for Active; 'I' for Inactive)
REMARK    1  A    between atoms: C2_2  and  N1_4 
REMARK    2  A    between atoms: N1_4  and  C4_5 
REMARK    3  A    between atoms: N1_4  and  C16_26 
REMARK    4  A    between atoms: N1_4  and  C21_32 
REMARK    5  A    between atoms: C4_5  and  C5_6 
REMARK    6  A    between atoms: C5_6  and  N2_7 
REMARK       I    between atoms: N2_7  and  C6_9 
REMARK       I    between atoms: C6_9  and  N4_13 
REMARK    7  A    between atoms: N4_13  and  C7_15 
REMARK    8  A    between atoms: C7_15  and  C8_16 
REMARK    9  A    between atoms: C7_15  and  C15_23 
REMARK   10  A    between atoms: C8_16  and  C9_17 
REMARK   11  A    between atoms: C16_26  and  C17_27 
REMARK   12  A    between atoms: C17_27  and  N5_28 
REMARK   13  A    between atoms: C21_32  and  C22_33 
ROOT
HETATM    1  C5  UNL     1       3.918  65.641  67.431  1.00  0.00     0.166 C 
ENDROOT
BRANCH   1   2
HETATM    2  C4  UNL     1       2.717  65.890  66.602  1.00  0.00     0.263 C 
BRANCH   2   3
HETATM    3  N1  UNL     1       2.072  67.177  66.739  1.00  0.00    -0.040 N 
BRANCH   3   4
HETATM    4  C2  UNL     1       2.432  67.762  68.010  1.00  0.00     0.187 C 
HETATM    5  C1  UNL     1       1.754  67.286  69.226  1.00  0.00     0.040 C 
HETATM    6  C3  UNL     1       2.250  69.292  68.037  1.00  0.00     0.040 C 
ENDBRANCH   3   4
BRANCH   3   7
HETATM    7  C16 UNL     1       0.667  66.768  66.917  1.00  0.00     0.271 C 
BRANCH   7   8
HETATM    8  C17 UNL     1      -0.301  67.402  65.997  1.00  0.00     0.264 C 
BRANCH   8   9
HETATM    9  N5  UNL     1      -1.495  67.884  66.693  1.00  0.00    -0.077 N 
HETATM   10  C18 UNL     1      -1.955  66.890  67.655  1.00  0.00     0.271 C 
HETATM   11  C19 UNL     1      -2.576  68.164  65.799  1.00  0.00     0.271 C 
HETATM   12  C20 UNL     1      -1.204  69.093  67.443  1.00  0.00     0.271 C 
ENDBRANCH   8   9
ENDBRANCH   7   8
ENDBRANCH   3   7
BRANCH   3  13
HETATM   13  C21 UNL     1       2.032  67.987  65.618  1.00  0.00     0.214 C 
BRANCH  13  14
HETATM   14  C22 UNL     1       3.134  68.226  64.719  1.00  0.00    -0.013 A 
HETATM   15  C23 UNL     1       2.822  68.018  63.360  1.00  0.00     0.013 A 
HETATM   16  C24 UNL     1       3.748  68.204  62.370  1.00  0.00     0.001 A 
HETATM   17  C25 UNL     1       5.029  68.603  62.641  1.00  0.00     0.000 A 
HETATM   18  C26 UNL     1       5.352  68.812  63.973  1.00  0.00     0.001 A 
HETATM   19  C27 UNL     1       4.407  68.619  64.959  1.00  0.00     0.013 A 
ENDBRANCH  13  14
ENDBRANCH   3  13
ENDBRANCH   2   3
ENDBRANCH   1   2
BRANCH   1  20
HETATM   20  N2  UNL     1       3.803  64.401  68.181  1.00  0.00    -0.225 N 
HETATM   21  C6  UNL     1       3.947  64.328  69.586  1.00  0.00     0.668 C 
HETATM   22  N3  UNL     1       5.129  64.385  70.084  1.00  0.00    -0.235 N 
HETATM   23  N4  UNL     1       2.850  64.195  70.476  1.00  0.00    -0.212 N 
ATOM     24  H32 UNL     1       5.917  64.482  69.444  1.00  0.00     0.174 HD
ATOM     25  H31 UNL     1       5.233  64.332  71.097  1.00  0.00     0.174 HD
ATOM     26  H4  UNL     1       2.923  64.667  71.377  1.00  0.00     0.178 HD
ATOM     27  H2  UNL     1       3.607  63.542  67.669  1.00  0.00     0.177 HD
BRANCH  23  28
HETATM   28  C7  UNL     1       1.649  63.455  70.223  1.00  0.00     0.204 C 
BRANCH  28  29
HETATM   29  C8  UNL     1       1.575  62.114  70.864  1.00  0.00     0.075 C 
BRANCH  29  30
HETATM   30  C9  UNL     1       2.785  61.307  70.860  1.00  0.00    -0.056 A 
HETATM   31  C10 UNL     1       3.624  61.250  71.939  1.00  0.00     0.007 A 
HETATM   32  C11 UNL     1       4.774  60.494  71.964  1.00  0.00     0.001 A 
HETATM   33  C12 UNL     1       5.128  59.745  70.869  1.00  0.00     0.000 A 
HETATM   34  C13 UNL     1       4.309  59.778  69.765  1.00  0.00     0.001 A 
HETATM   35  C14 UNL     1       3.144  60.554  69.760  1.00  0.00     0.007 A 
ENDBRANCH  29  30
ENDBRANCH  28  29
BRANCH  28  36
HETATM   36  C15 UNL     1       0.456  64.240  70.542  1.00  0.00     0.197 C 
HETATM   37  O1  UNL     1      -0.326  64.705  69.649  1.00  0.00    -0.646 OA
HETATM   38  O2  UNL     1       0.083  64.535  71.845  1.00  0.00    -0.646 OA
ENDBRANCH  28  36
ENDBRANCH  23  28
ENDBRANCH   1  20
TORSDOF 13
ENDMDL
MODEL 2
REMARK VINA RESULT: -9.549429291      0.031      1.064
REMARK  13 active torsions:
REMARK  status: ('A' for Active; 'I' for Inactive)
REMARK    1  A    between atoms: C2_2  and  N1_4 
REMARK    2  A    between atoms: N1_4  and  C4_5 
REMARK    3  A    between atoms: N1_4  and  C16_26 
REMARK    4  A    between atoms: N1_4  and  C21_32 
REMARK    5  A    between atoms: C4_5  and  C5_6 
REMARK    6  A    between atoms: C5_6  and  N2_7 
REMARK       I    between atoms: N2_7  and  C6_9 
REMARK       I    between atoms: C6_9  and  N4_13 
REMARK    7  A    between atoms: N4_13  and  C7_15 
REMARK    8  A    between atoms: C7_15  and  C8_16 
REMARK    9  A    between atoms: C7_15  and  C15_23 
REMARK   10  A    between atoms: C8_16  and  C9_17 
REMARK   11  A    between atoms: C16_26  and  C17_27 
REMARK   12  A    between atoms: C17_27  and  N5_28 
REMARK   13  A    between atoms: C21_32  and  C22_33 
ROOT
HETATM    1  C5  UNL     1       3.930  65.654  67.451  1.00  0.00     0.166 C 
ENDROOT
BRANCH   1   2
HETATM    2  C4  UNL     1       2.744  65.901  66.601  1.00  0.00     0.263 C 
BRANCH   2   3
HETATM    3  N1  UNL     1       2.077  67.176  66.745  1.00  0.00    -0.040 N 
BRANCH   3   4
HETATM    4  C2  UNL     1       2.418  67.753  68.024  1.00  0.00     0.187 C 
HETATM    5  C1  UNL     1       1.724  67.267  69.228  1.00  0.00     0.040 C 
HETATM    6  C3  UNL     1       2.231  69.283  68.060  1.00  0.00     0.040 C 
ENDBRANCH   3   4
BRANCH   3   7
HETATM    7  C16 UNL     1       0.677  66.743  66.908  1.00  0.00     0.271 C 
BRANCH   7   8
HETATM    8  C17 UNL     1      -0.298  67.397  66.011  1.00  0.00     0.264 C 
BRANCH   8   9
HETATM    9  N5  UNL     1      -1.488  67.860  66.727  1.00  0.00    -0.077 N 
HETATM   10  C18 UNL     1      -1.197  69.094  67.446  1.00  0.00     0.271 C 
HETATM   11  C19 UNL     1      -1.965  66.901  67.676  1.00  0.00     0.271 C 
HETATM   12  C20 UNL     1      -2.567  68.156  65.802  1.00  0.00     0.271 C 
ENDBRANCH   8   9
ENDBRANCH   7   8
ENDBRANCH   3   7
BRANCH   3  13
HETATM   13  C21 UNL     1       2.033  67.997  65.633  1.00  0.00     0.214 C 
BRANCH  13  14
HETATM   14  C22 UNL     1       3.128  68.232  64.723  1.00  0.00    -0.013 A 
HETATM   15  C23 UNL     1       2.803  68.021  63.367  1.00  0.00     0.013 A 
HETATM   16  C24 UNL     1       3.720  68.204  62.368  1.00  0.00     0.001 A 
HETATM   17  C25 UNL     1       5.004  68.602  62.626  1.00  0.00     0.000 A 
HETATM   18  C26 UNL     1       5.340  68.814  63.955  1.00  0.00     0.001 A 
HETATM   19  C27 UNL     1       4.403  68.624  64.951  1.00  0.00     0.013 A 
ENDBRANCH  13  14
ENDBRANCH   3  13
ENDBRANCH   2   3
ENDBRANCH   1   2
BRANCH   1  20
HETATM   20  N2  UNL     1       3.809  64.407  68.188  1.00  0.00    -0.225 N 
HETATM   21  C6  UNL     1       3.947  64.318  69.592  1.00  0.00     0.668 C 
HETATM   22  N3  UNL     1       5.127  64.368  70.096  1.00  0.00    -0.235 N 
HETATM   23  N4  UNL     1       2.846  64.176  70.476  1.00  0.00    -0.212 N 
ATOM     24  H32 UNL     1       5.918  64.470  69.460  1.00  0.00     0.174 HD
ATOM     25  H31 UNL     1       5.226  64.304  71.109  1.00  0.00     0.174 HD
ATOM     26  H4  UNL     1       2.916  64.639  71.382  1.00  0.00     0.178 HD
ATOM     27  H2  UNL     1       3.615  63.553  67.665  1.00  0.00     0.177 HD
BRANCH  23  28
HETATM   28  C7  UNL     1       1.645  63.441  70.209  1.00  0.00     0.204 C 
BRANCH  28  29
HETATM   29  C8  UNL     1       1.575  62.085  70.820  1.00  0.00     0.075 C 
BRANCH  29  30
HETATM   30  C9  UNL     1       2.798  61.300  70.838  1.00  0.00    -0.056 A 
HETATM   31  C10 UNL     1       3.179  60.523  69.778  1.00  0.00     0.007 A 
HETATM   32  C11 UNL     1       4.331  59.771  69.765  1.00  0.00     0.001 A 
HETATM   33  C12 UNL     1       5.166  59.776  70.855  1.00  0.00     0.000 A 
HETATM   34  C13 UNL     1       4.816  60.544  71.941  1.00  0.00     0.001 A 
HETATM   35  C14 UNL     1       3.639  61.302  71.932  1.00  0.00     0.007 A 
ENDBRANCH  29  30
ENDBRANCH  28  29
BRANCH  28  36
HETATM   36  C15 UNL     1       0.453  64.217  70.550  1.00  0.00     0.197 C 
HETATM   37  O1  UNL     1      -0.340  64.690  69.670  1.00  0.00    -0.646 OA
HETATM   38  O2  UNL     1       0.091  64.494  71.860  1.00  0.00    -0.646 OA
ENDBRANCH  28  36
ENDBRANCH  23  28
ENDBRANCH   1  20
TORSDOF 13
ENDMDL
MODEL 3
REMARK VINA RESULT: -9.214604614      1.752      2.568
REMARK  13 active torsions:
REMARK  status: ('A' for Active; 'I' for Inactive)
REMARK    1  A    between atoms: C2_2  and  N1_4 
REMARK    2  A    between atoms: N1_4  and  C4_5 
REMARK    3  A    between atoms: N1_4  and  C16_26 
REMARK    4  A    between atoms: N1_4  and  C21_32 
REMARK    5  A    between atoms: C4_5  and  C5_6 
REMARK    6  A    between atoms: C5_6  and  N2_7 
REMARK       I    between atoms: N2_7  and  C6_9 
REMARK       I    between atoms: C6_9  and  N4_13 
REMARK    7  A    between atoms: N4_13  and  C7_15 
REMARK    8  A    between atoms: C7_15  and  C8_16 
REMARK    9  A    between atoms: C7_15  and  C15_23 
REMARK   10  A    between atoms: C8_16  and  C9_17 
REMARK   11  A    between atoms: C16_26  and  C17_27 
REMARK   12  A    between atoms: C17_27  and  N5_28 
REMARK   13  A    between atoms: C21_32  and  C22_33 
ROOT
HETATM    1  C5  UNL     1       3.136  66.471  68.255  1.00  0.00     0.166 C 
ENDROOT
BRANCH   1   2
HETATM    2  C4  UNL     1       3.552  66.873  66.892  1.00  0.00     0.263 C 
BRANCH   2   3
HETATM    3  N1  UNL     1       2.511  67.039  65.902  1.00  0.00    -0.040 N 
BRANCH   3   4
HETATM    4  C2  UNL     1       2.772  68.231  65.128  1.00  0.00     0.187 C 
HETATM    5  C1  UNL     1       2.275  68.300  63.745  1.00  0.00     0.040 C 
HETATM    6  C3  UNL     1       4.276  68.553  65.017  1.00  0.00     0.040 C 
ENDBRANCH   3   4
BRANCH   3   7
HETATM    7  C16 UNL     1       1.369  67.410  66.757  1.00  0.00     0.271 C 
BRANCH   7   8
HETATM    8  C17 UNL     1       0.054  66.898  66.317  1.00  0.00     0.264 C 
BRANCH   8   9
HETATM    9  N5  UNL     1      -1.059  67.626  66.930  1.00  0.00    -0.077 N 
HETATM   10  C18 UNL     1      -1.783  66.758  67.851  1.00  0.00     0.271 C 
HETATM   11  C19 UNL     1      -1.992  68.118  65.964  1.00  0.00     0.271 C 
HETATM   12  C20 UNL     1      -0.575  68.753  67.707  1.00  0.00     0.271 C 
ENDBRANCH   8   9
ENDBRANCH   7   8
ENDBRANCH   3   7
BRANCH   3  13
HETATM   13  C21 UNL     1       2.070  65.903  65.250  1.00  0.00     0.214 C 
BRANCH  13  14
HETATM   14  C22 UNL     1       2.913  64.841  64.757  1.00  0.00    -0.013 A 
HETATM   15  C23 UNL     1       3.800  65.239  63.735  1.00  0.00     0.013 A 
HETATM   16  C24 UNL     1       4.675  64.361  63.158  1.00  0.00     0.001 A 
HETATM   17  C25 UNL     1       4.743  63.047  63.537  1.00  0.00     0.000 A 
HETATM   18  C26 UNL     1       3.878  62.640  64.541  1.00  0.00     0.001 A 
HETATM   19  C27 UNL     1       3.000  63.538  65.113  1.00  0.00     0.013 A 
ENDBRANCH  13  14
ENDBRANCH   3  13
ENDBRANCH   2   3
ENDBRANCH   1   2
BRANCH   1  20
HETATM   20  N2  UNL     1       3.254  65.036  68.449  1.00  0.00    -0.225 N 
HETATM   21  C6  UNL     1       3.883  64.453  69.572  1.00  0.00     0.668 C 
HETATM   22  N3  UNL     1       5.167  64.449  69.622  1.00  0.00    -0.235 N 
HETATM   23  N4  UNL     1       3.169  63.871  70.651  1.00  0.00    -0.212 N 
ATOM     24  H32 UNL     1       5.680  64.868  68.847  1.00  0.00     0.174 HD
ATOM     25  H31 UNL     1       5.621  64.029  70.432  1.00  0.00     0.174 HD
ATOM     26  H4  UNL     1       3.572  63.972  71.583  1.00  0.00     0.178 HD
ATOM     27  H2  UNL     1       2.862  64.418  67.738  1.00  0.00     0.177 HD
BRANCH  23  28
HETATM   28  C7  UNL     1       1.934  63.153  70.549  1.00  0.00     0.204 C 
BRANCH  28  29
HETATM   29  C8  UNL     1       1.778  62.007  71.487  1.00  0.00     0.075 C 
BRANCH  29  30
HETATM   30  C9  UNL     1       2.357  60.736  71.085  1.00  0.00    -0.056 A 
HETATM   31  C10 UNL     1       2.327  59.634  71.897  1.00  0.00     0.007 A 
HETATM   32  C11 UNL     1       2.863  58.418  71.543  1.00  0.00     0.001 A 
HETATM   33  C12 UNL     1       3.468  58.264  70.319  1.00  0.00     0.000 A 
HETATM   34  C13 UNL     1       3.517  59.349  69.476  1.00  0.00     0.001 A 
HETATM   35  C14 UNL     1       2.964  60.577  69.856  1.00  0.00     0.007 A 
ENDBRANCH  29  30
ENDBRANCH  28  29
BRANCH  28  36
HETATM   36  C15 UNL     1       0.781  64.049  70.643  1.00  0.00     0.197 C 
HETATM   37  O1  UNL     1       0.360  64.741  69.659  1.00  0.00    -0.646 OA
HETATM   38  O2  UNL     1       0.054  64.211  71.814  1.00  0.00    -0.646 OA
ENDBRANCH  28  36
ENDBRANCH  23  28
ENDBRANCH   1  20
TORSDOF 13
ENDMDL
MODEL 4
REMARK VINA RESULT: -9.129069305      3.088      8.731
REMARK  13 active torsions:
REMARK  status: ('A' for Active; 'I' for Inactive)
REMARK    1  A    between atoms: C2_2  and  N1_4 
REMARK    2  A    between atoms: N1_4  and  C4_5 
REMARK    3  A    between atoms: N1_4  and  C16_26 
REMARK    4  A    between atoms: N1_4  and  C21_32 
REMARK    5  A    between atoms: C4_5  and  C5_6 
REMARK    6  A    between atoms: C5_6  and  N2_7 
REMARK       I    between atoms: N2_7  and  C6_9 
REMARK       I    between atoms: C6_9  and  N4_13 
REMARK    7  A    between atoms: N4_13  and  C7_15 
REMARK    8  A    between atoms: C7_15  and  C8_16 
REMARK    9  A    between atoms: C7_15  and  C15_23 
REMARK   10  A    between atoms: C8_16  and  C9_17 
REMARK   11  A    between atoms: C16_26  and  C17_27 
REMARK   12  A    between atoms: C17_27  and  N5_28 
REMARK   13  A    between atoms: C21_32  and  C22_33 
ROOT
HETATM    1  C5  UNL     1       0.643  63.731  71.453  1.00  0.00     0.166 C 
ENDROOT
BRANCH   1   2
HETATM    2  C4  UNL     1       0.349  62.281  71.410  1.00  0.00     0.263 C 
BRANCH   2   3
HETATM    3  N1  UNL     1       0.524  61.532  72.636  1.00  0.00    -0.040 N 
BRANCH   3   4
HETATM    4  C2  UNL     1      -0.524  60.544  72.746  1.00  0.00     0.187 C 
HETATM    5  C1  UNL     1      -1.784  60.919  73.409  1.00  0.00     0.040 C 
HETATM    6  C3  UNL     1      -0.066  59.266  73.478  1.00  0.00     0.040 C 
ENDBRANCH   3   4
BRANCH   3   7
HETATM    7  C16 UNL     1       0.165  62.550  73.639  1.00  0.00     0.271 C 
BRANCH   7   8
HETATM    8  C17 UNL     1       1.088  62.661  74.789  1.00  0.00     0.264 C 
BRANCH   8   9
HETATM    9  N5  UNL     1       0.382  62.652  76.071  1.00  0.00    -0.077 N 
HETATM   10  C18 UNL     1      -0.856  63.416  75.971  1.00  0.00     0.271 C 
HETATM   11  C19 UNL     1       1.161  63.215  77.130  1.00  0.00     0.271 C 
HETATM   12  C20 UNL     1       0.014  61.300  76.450  1.00  0.00     0.271 C 
ENDBRANCH   8   9
ENDBRANCH   7   8
ENDBRANCH   3   7
BRANCH   3  13
HETATM   13  C21 UNL     1       1.815  61.177  72.982  1.00  0.00     0.214 C 
BRANCH  13  14
HETATM   14  C22 UNL     1       2.811  60.657  72.078  1.00  0.00    -0.013 A 
HETATM   15  C23 UNL     1       4.131  61.039  72.395  1.00  0.00     0.013 A 
HETATM   16  C24 UNL     1       5.200  60.630  71.646  1.00  0.00     0.001 A 
HETATM   17  C25 UNL     1       5.052  59.825  70.548  1.00  0.00     0.000 A 
HETATM   18  C26 UNL     1       3.760  59.440  70.223  1.00  0.00     0.001 A 
HETATM   19  C27 UNL     1       2.692  59.862  70.989  1.00  0.00     0.013 A 
ENDBRANCH  13  14
ENDBRANCH   3  13
ENDBRANCH   2   3
ENDBRANCH   1   2
BRANCH   1  20
HETATM   20  N2  UNL     1       0.802  64.283  70.118  1.00  0.00    -0.225 N 
HETATM   21  C6  UNL     1       1.341  65.566  69.868  1.00  0.00     0.668 C 
HETATM   22  N3  UNL     1       0.600  66.594  70.081  1.00  0.00    -0.235 N 
HETATM   23  N4  UNL     1       2.661  65.779  69.394  1.00  0.00    -0.212 N 
ATOM     24  H32 UNL     1      -0.348  66.441  70.422  1.00  0.00     0.174 HD
ATOM     25  H31 UNL     1       0.989  67.519  69.900  1.00  0.00     0.174 HD
ATOM     26  H4  UNL     1       3.149  66.607  69.733  1.00  0.00     0.178 HD
ATOM     27  H2  UNL     1       0.510  63.717  69.322  1.00  0.00     0.177 HD
BRANCH  23  28
HETATM   28  C7  UNL     1       3.370  64.933  68.480  1.00  0.00     0.204 C 
BRANCH  28  29
HETATM   29  C8  UNL     1       4.616  65.511  67.906  1.00  0.00     0.075 C 
BRANCH  29  30
HETATM   30  C9  UNL     1       4.470  66.431  66.790  1.00  0.00    -0.056 A 
HETATM   31  C10 UNL     1       3.507  67.404  66.771  1.00  0.00     0.007 A 
HETATM   32  C11 UNL     1       3.346  68.289  65.730  1.00  0.00     0.001 A 
HETATM   33  C12 UNL     1       4.177  68.224  64.638  1.00  0.00     0.000 A 
HETATM   34  C13 UNL     1       5.157  67.259  64.622  1.00  0.00     0.001 A 
HETATM   35  C14 UNL     1       5.303  66.368  65.692  1.00  0.00     0.007 A 
ENDBRANCH  29  30
ENDBRANCH  28  29
BRANCH  28  36
HETATM   36  C15 UNL     1       3.638  63.617  69.061  1.00  0.00     0.197 C 
HETATM   37  O1  UNL     1       4.500  63.430  69.982  1.00  0.00    -0.646 OA
HETATM   38  O2  UNL     1       2.971  62.471  68.653  1.00  0.00    -0.646 OA
ENDBRANCH  28  36
ENDBRANCH  23  28
ENDBRANCH   1  20
TORSDOF 13
ENDMDL
MODEL 5
REMARK VINA RESULT: -9.125695456      1.041      1.773
REMARK  13 active torsions:
REMARK  status: ('A' for Active; 'I' for Inactive)
REMARK    1  A    between atoms: C2_2  and  N1_4 
REMARK    2  A    between atoms: N1_4  and  C4_5 
REMARK    3  A    between atoms: N1_4  and  C16_26 
REMARK    4  A    between atoms: N1_4  and  C21_32 
REMARK    5  A    between atoms: C4_5  and  C5_6 
REMARK    6  A    between atoms: C5_6  and  N2_7 
REMARK       I    between atoms: N2_7  and  C6_9 
REMARK       I    between atoms: C6_9  and  N4_13 
REMARK    7  A    between atoms: N4_13  and  C7_15 
REMARK    8  A    between atoms: C7_15  and  C8_16 
REMARK    9  A    between atoms: C7_15  and  C15_23 
REMARK   10  A    between atoms: C8_16  and  C9_17 
REMARK   11  A    between atoms: C16_26  and  C17_27 
REMARK   12  A    between atoms: C17_27  and  N5_28 
REMARK   13  A    between atoms: C21_32  and  C22_33 
ROOT
HETATM    1  C5  UNL     1       4.092  65.769  67.476  1.00  0.00     0.166 C 
ENDROOT
BRANCH   1   2
HETATM    2  C4  UNL     1       2.859  65.952  66.678  1.00  0.00     0.263 C 
BRANCH   2   3
HETATM    3  N1  UNL     1       2.122  67.182  66.868  1.00  0.00    -0.040 N 
BRANCH   3   4
HETATM    4  C2  UNL     1       2.365  67.685  68.200  1.00  0.00     0.187 C 
HETATM    5  C1  UNL     1       1.617  67.101  69.325  1.00  0.00     0.040 C 
HETATM    6  C3  UNL     1       2.121  69.203  68.319  1.00  0.00     0.040 C 
ENDBRANCH   3   4
BRANCH   3   7
HETATM    7  C16 UNL     1       0.739  66.674  66.923  1.00  0.00     0.271 C 
BRANCH   7   8
HETATM    8  C17 UNL     1      -0.231  67.379  66.059  1.00  0.00     0.264 C 
BRANCH   8   9
HETATM    9  N5  UNL     1      -1.408  67.832  66.802  1.00  0.00    -0.077 N 
HETATM   10  C18 UNL     1      -2.529  68.043  65.894  1.00  0.00     0.271 C 
HETATM   11  C19 UNL     1      -1.176  69.057  67.505  1.00  0.00     0.271 C 
HETATM   12  C20 UNL     1      -1.829  66.831  67.766  1.00  0.00     0.271 C 
ENDBRANCH   8   9
ENDBRANCH   7   8
ENDBRANCH   3   7
BRANCH   3  13
HETATM   13  C21 UNL     1       2.096  68.074  65.811  1.00  0.00     0.214 C 
BRANCH  13  14
HETATM   14  C22 UNL     1       3.159  68.270  64.856  1.00  0.00    -0.013 A 
HETATM   15  C23 UNL     1       2.785  68.020  63.520  1.00  0.00     0.013 A 
HETATM   16  C24 UNL     1       3.668  68.163  62.485  1.00  0.00     0.001 A 
HETATM   17  C25 UNL     1       4.963  68.558  62.684  1.00  0.00     0.000 A 
HETATM   18  C26 UNL     1       5.347  68.808  63.993  1.00  0.00     0.001 A 
HETATM   19  C27 UNL     1       4.445  68.659  65.026  1.00  0.00     0.013 A 
ENDBRANCH  13  14
ENDBRANCH   3  13
ENDBRANCH   2   3
ENDBRANCH   1   2
BRANCH   1  20
HETATM   20  N2  UNL     1       4.124  64.466  68.120  1.00  0.00    -0.225 N 
HETATM   21  C6  UNL     1       4.206  64.294  69.520  1.00  0.00     0.668 C 
HETATM   22  N3  UNL     1       5.340  64.478  70.095  1.00  0.00    -0.235 N 
HETATM   23  N4  UNL     1       3.098  63.929  70.327  1.00  0.00    -0.212 N 
ATOM     24  H32 UNL     1       6.136  64.741  69.515  1.00  0.00     0.174 HD
ATOM     25  H31 UNL     1       5.399  64.354  71.105  1.00  0.00     0.174 HD
ATOM     26  H4  UNL     1       3.054  64.328  71.265  1.00  0.00     0.178 HD
ATOM     27  H2  UNL     1       4.085  63.635  67.531  1.00  0.00     0.177 HD
BRANCH  23  28
HETATM   28  C7  UNL     1       2.034  63.049  69.943  1.00  0.00     0.204 C 
BRANCH  28  29
HETATM   29  C8  UNL     1       2.290  61.599  70.165  1.00  0.00     0.075 C 
BRANCH  29  30
HETATM   30  C9  UNL     1       2.091  61.087  71.511  1.00  0.00    -0.056 A 
HETATM   31  C10 UNL     1       0.964  60.397  71.867  1.00  0.00     0.007 A 
HETATM   32  C11 UNL     1       0.749  59.899  73.131  1.00  0.00     0.001 A 
HETATM   33  C12 UNL     1       1.693  60.084  74.112  1.00  0.00     0.000 A 
HETATM   34  C13 UNL     1       2.839  60.773  73.791  1.00  0.00     0.001 A 
HETATM   35  C14 UNL     1       3.037  61.271  72.498  1.00  0.00     0.007 A 
ENDBRANCH  29  30
ENDBRANCH  28  29
BRANCH  28  36
HETATM   36  C15 UNL     1       0.763  63.441  70.551  1.00  0.00     0.197 C 
HETATM   37  O1  UNL     1       0.691  64.106  71.637  1.00  0.00    -0.646 OA
HETATM   38  O2  UNL     1      -0.464  63.121  69.989  1.00  0.00    -0.646 OA
ENDBRANCH  28  36
ENDBRANCH  23  28
ENDBRANCH   1  20
TORSDOF 13
ENDMDL
