MODEL 1
REMARK VINA RESULT: -8.656203959      0.000      0.000
REMARK  13 active torsions:
REMARK  status: ('A' for Active; 'I' for Inactive)
REMARK    1  A    between atoms: C2_2  and  C3_3 
REMARK    2  A    between atoms: C3_3  and  C4_4 
REMARK    3  A    between atoms: C4_4  and  C5_5 
REMARK       I    between atoms: C5_5  and  N1_7 
REMARK       I    between atoms: N2_10  and  C8_11 
REMARK    4  A    between atoms: C8_11  and  C9_13 
REMARK    5  A    between atoms: C9_13  and  C10_14 
REMARK    6  A    between atoms: C9_13  and  N6_22 
REMARK    7  A    between atoms: C10_14  and  C11_15 
REMARK    8  A    between atoms: C11_15  and  C12_16 
REMARK    9  A    between atoms: C12_16  and  N3_17 
REMARK       I    between atoms: N6_22  and  C14_24 
REMARK   10  A    between atoms: C14_24  and  C15_26 
REMARK       I    between atoms: N7_31  and  C20_32 
REMARK   11  A    between atoms: C20_32  and  C21_34 
REMARK   12  A    between atoms: C21_34  and  C22_36 
REMARK   13  A    between atoms: C22_36  and  C23_37 
ROOT
HETATM    1  C9  UNL     1      -9.971  15.211  25.234  1.00  0.00     0.176 C 
ENDROOT
BRANCH   1   2
HETATM    2  C8  UNL     1     -11.114  15.778  26.016  1.00  0.00     0.242 C 
HETATM    3  N2  UNL     1     -11.536  15.399  27.280  1.00  0.00    -0.347 N 
HETATM    4  C7  UNL     1     -10.895  14.376  28.062  1.00  0.00     0.145 C 
HETATM    5  C29 UNL     1     -12.714  16.067  27.871  1.00  0.00     0.145 C 
HETATM    6  C6  UNL     1     -11.892  13.280  28.414  1.00  0.00     0.145 C 
HETATM    7  N1  UNL     1     -12.993  13.933  29.082  1.00  0.00    -0.349 N 
HETATM    8  C5  UNL     1     -13.436  13.419  30.324  1.00  0.00     0.219 C 
HETATM    9  C30 UNL     1     -13.633  15.074  28.496  1.00  0.00     0.145 C 
HETATM   10  O1  UNL     1     -14.385  13.974  30.920  1.00  0.00    -0.273 OA
HETATM   11  O2  UNL     1     -11.745  16.713  25.424  1.00  0.00    -0.271 OA
BRANCH   8  12
HETATM   12  C4  UNL     1     -12.800  12.233  30.937  1.00  0.00     0.103 C 
BRANCH  12  13
HETATM   13  C3  UNL     1     -13.679  11.032  30.778  1.00  0.00     0.009 C 
BRANCH  13  14
HETATM   14  C2  UNL     1     -13.397  10.000  31.841  1.00  0.00    -0.004 C 
HETATM   15  C1  UNL     1     -12.594   8.870  31.268  1.00  0.00     0.005 C 
ENDBRANCH  13  14
ENDBRANCH  12  13
ENDBRANCH   8  12
ENDBRANCH   1   2
BRANCH   1  16
HETATM   16  C10 UNL     1     -10.087  15.423  23.783  1.00  0.00     0.036 C 
BRANCH  16  17
HETATM   17  C11 UNL     1      -9.136  14.783  22.856  1.00  0.00     0.022 C 
BRANCH  17  18
HETATM   18  C12 UNL     1      -8.649  15.620  21.717  1.00  0.00     0.122 C 
BRANCH  18  19
HETATM   19  N3  UNL     1      -7.826  16.717  22.240  1.00  0.00    -0.367 N 
HETATM   20  C13 UNL     1      -7.840  17.885  21.703  1.00  0.00     0.196 C 
HETATM   21  N4  UNL     1      -8.647  18.192  20.571  1.00  0.00    -0.067 NA
HETATM   22  N5  UNL     1      -7.017  18.897  22.270  1.00  0.00    -0.067 NA
ATOM     23  H3  UNL     1      -7.229  16.549  23.050  1.00  0.00     0.161 HD
ENDBRANCH  18  19
ENDBRANCH  17  18
ENDBRANCH  16  17
ENDBRANCH   1  16
BRANCH   1  24
HETATM   24  N6  UNL     1      -8.736  15.474  25.874  1.00  0.00    -0.346 N 
HETATM   25  C14 UNL     1      -8.046  16.738  25.749  1.00  0.00     0.241 C 
HETATM   26  O3  UNL     1      -8.601  17.610  25.019  1.00  0.00    -0.271 OA
ATOM     27  H6  UNL     1      -8.315  14.741  26.446  1.00  0.00     0.163 HD
BRANCH  25  28
HETATM   28  C15 UNL     1      -6.776  17.045  26.405  1.00  0.00     0.183 C 
HETATM   29  C16 UNL     1      -6.015  18.107  25.673  1.00  0.00     0.015 C 
HETATM   30  C17 UNL     1      -4.783  17.565  25.037  1.00  0.00     0.012 C 
HETATM   31  C18 UNL     1      -5.749  19.203  26.697  1.00  0.00     0.027 C 
HETATM   32  C19 UNL     1      -7.022  19.031  27.562  1.00  0.00     0.127 C 
HETATM   33  N7  UNL     1      -6.986  17.610  27.753  1.00  0.00    -0.334 N 
HETATM   34  C20 UNL     1      -7.169  16.876  28.920  1.00  0.00     0.264 C 
HETATM   35  O4  UNL     1      -7.249  15.600  28.807  1.00  0.00    -0.267 OA
BRANCH  34  36
HETATM   36  C21 UNL     1      -7.285  17.401  30.279  1.00  0.00     0.092 C 
HETATM   37  N8  UNL     1      -6.071  17.369  31.062  1.00  0.00    -0.101 NA
BRANCH  36  38
HETATM   38  C22 UNL     1      -8.492  16.985  31.053  1.00  0.00     0.064 C 
BRANCH  38  39
HETATM   39  C23 UNL     1      -8.336  16.075  32.194  1.00  0.00    -0.009 C 
HETATM   40  C24 UNL     1      -8.968  14.710  31.942  1.00  0.00     0.005 C 
HETATM   41  C25 UNL     1     -10.457  14.751  31.982  1.00  0.00     0.000 C 
HETATM   42  C26 UNL     1     -11.087  15.884  32.690  1.00  0.00     0.000 C 
HETATM   43  C27 UNL     1     -10.270  16.584  33.721  1.00  0.00     0.000 C 
HETATM   44  C28 UNL     1      -8.796  16.517  33.532  1.00  0.00     0.005 C 
ENDBRANCH  38  39
ENDBRANCH  36  38
ENDBRANCH  34  36
ENDBRANCH  25  28
ENDBRANCH   1  24
TORSDOF 13
ENDMDL
MODEL 2
REMARK VINA RESULT: -8.498603425      2.904      6.915
REMARK  13 active torsions:
REMARK  status: ('A' for Active; 'I' for Inactive)
REMARK    1  A    between atoms: C2_2  and  C3_3 
REMARK    2  A    between atoms: C3_3  and  C4_4 
REMARK    3  A    between atoms: C4_4  and  C5_5 
REMARK       I    between atoms: C5_5  and  N1_7 
REMARK       I    between atoms: N2_10  and  C8_11 
REMARK    4  A    between atoms: C8_11  and  C9_13 
REMARK    5  A    between atoms: C9_13  and  C10_14 
REMARK    6  A    between atoms: C9_13  and  N6_22 
REMARK    7  A    between atoms: C10_14  and  C11_15 
REMARK    8  A    between atoms: C11_15  and  C12_16 
REMARK    9  A    between atoms: C12_16  and  N3_17 
REMARK       I    between atoms: N6_22  and  C14_24 
REMARK   10  A    between atoms: C14_24  and  C15_26 
REMARK       I    between atoms: N7_31  and  C20_32 
REMARK   11  A    between atoms: C20_32  and  C21_34 
REMARK   12  A    between atoms: C21_34  and  C22_36 
REMARK   13  A    between atoms: C22_36  and  C23_37 
ROOT
HETATM    1  C9  UNL     1     -12.825  13.851  29.621  1.00  0.00     0.176 C 
ENDROOT
BRANCH   1   2
HETATM    2  C8  UNL     1     -12.846  12.367  29.803  1.00  0.00     0.242 C 
HETATM    3  N2  UNL     1     -13.385  11.659  30.865  1.00  0.00    -0.347 N 
HETATM    4  C7  UNL     1     -14.048  12.278  31.982  1.00  0.00     0.145 C 
HETATM    5  C29 UNL     1     -13.276  10.186  30.872  1.00  0.00     0.145 C 
HETATM    6  C6  UNL     1     -13.356  11.893  33.283  1.00  0.00     0.145 C 
HETATM    7  N1  UNL     1     -13.347  10.450  33.326  1.00  0.00    -0.349 N 
HETATM    8  C5  UNL     1     -13.817   9.801  34.493  1.00  0.00     0.219 C 
HETATM    9  C30 UNL     1     -12.862   9.687  32.214  1.00  0.00     0.145 C 
HETATM   10  O1  UNL     1     -13.822   8.552  34.547  1.00  0.00    -0.273 OA
HETATM   11  O2  UNL     1     -12.301  11.712  28.857  1.00  0.00    -0.271 OA
BRANCH   8  12
HETATM   12  C4  UNL     1     -14.306  10.570  35.657  1.00  0.00     0.103 C 
BRANCH  12  13
HETATM   13  C3  UNL     1     -13.434  10.321  36.847  1.00  0.00     0.009 C 
BRANCH  13  14
HETATM   14  C2  UNL     1     -12.170  11.142  36.785  1.00  0.00    -0.004 C 
HETATM   15  C1  UNL     1     -12.493  12.603  36.883  1.00  0.00     0.005 C 
ENDBRANCH  13  14
ENDBRANCH  12  13
ENDBRANCH   8  12
ENDBRANCH   1   2
BRANCH   1  16
HETATM   16  C10 UNL     1     -13.198  14.599  30.831  1.00  0.00     0.036 C 
BRANCH  16  17
HETATM   17  C11 UNL     1     -12.223  15.486  31.493  1.00  0.00     0.022 C 
BRANCH  17  18
HETATM   18  C12 UNL     1     -11.326  14.852  32.507  1.00  0.00     0.122 C 
BRANCH  18  19
HETATM   19  N3  UNL     1     -10.189  15.742  32.770  1.00  0.00    -0.367 N 
HETATM   20  C13 UNL     1     -10.151  16.497  33.809  1.00  0.00     0.196 C 
HETATM   21  N4  UNL     1     -11.203  16.524  34.769  1.00  0.00    -0.067 NA
HETATM   22  N5  UNL     1      -9.013  17.330  33.996  1.00  0.00    -0.067 NA
ATOM     23  H3  UNL     1      -9.409  15.761  32.112  1.00  0.00     0.161 HD
ENDBRANCH  18  19
ENDBRANCH  17  18
ENDBRANCH  16  17
ENDBRANCH   1  16
BRANCH   1  24
HETATM   24  N6  UNL     1     -11.688  14.258  28.881  1.00  0.00    -0.346 N 
HETATM   25  C14 UNL     1     -11.772  15.169  27.761  1.00  0.00     0.241 C 
HETATM   26  O3  UNL     1     -12.928  15.583  27.461  1.00  0.00    -0.271 OA
ATOM     27  H6  UNL     1     -10.773  13.893  29.147  1.00  0.00     0.163 HD
BRANCH  25  28
HETATM   28  C15 UNL     1     -10.618  15.616  26.983  1.00  0.00     0.183 C 
HETATM   29  C16 UNL     1     -11.019  16.542  25.877  1.00  0.00     0.015 C 
HETATM   30  C17 UNL     1     -10.829  15.920  24.538  1.00  0.00     0.012 C 
HETATM   31  C18 UNL     1     -10.204  17.813  26.087  1.00  0.00     0.027 C 
HETATM   32  C19 UNL     1     -10.103  17.775  27.632  1.00  0.00     0.127 C 
HETATM   33  N7  UNL     1      -9.687  16.413  27.807  1.00  0.00    -0.334 N 
HETATM   34  C20 UNL     1      -8.677  15.902  28.615  1.00  0.00     0.264 C 
HETATM   35  O4  UNL     1      -8.601  14.625  28.723  1.00  0.00    -0.267 OA
BRANCH  34  36
HETATM   36  C21 UNL     1      -7.682  16.663  29.366  1.00  0.00     0.092 C 
HETATM   37  N8  UNL     1      -8.154  17.259  30.595  1.00  0.00    -0.101 NA
BRANCH  36  38
HETATM   38  C22 UNL     1      -6.805  17.575  28.573  1.00  0.00     0.064 C 
BRANCH  38  39
HETATM   39  C23 UNL     1      -6.174  17.078  27.344  1.00  0.00    -0.009 C 
HETATM   40  C24 UNL     1      -4.652  17.156  27.397  1.00  0.00     0.005 C 
HETATM   41  C25 UNL     1      -4.144  18.551  27.275  1.00  0.00     0.000 C 
HETATM   42  C26 UNL     1      -5.046  19.552  26.669  1.00  0.00     0.000 C 
HETATM   43  C27 UNL     1      -6.126  19.047  25.776  1.00  0.00     0.000 C 
HETATM   44  C28 UNL     1      -6.585  17.657  26.042  1.00  0.00     0.005 C 
ENDBRANCH  38  39
ENDBRANCH  36  38
ENDBRANCH  34  36
ENDBRANCH  25  28
ENDBRANCH   1  24
TORSDOF 13
ENDMDL
MODEL 3
REMARK VINA RESULT: -8.410717231      2.114      6.338
REMARK  13 active torsions:
REMARK  status: ('A' for Active; 'I' for Inactive)
REMARK    1  A    between atoms: C2_2  and  C3_3 
REMARK    2  A    between atoms: C3_3  and  C4_4 
REMARK    3  A    between atoms: C4_4  and  C5_5 
REMARK       I    between atoms: C5_5  and  N1_7 
REMARK       I    between atoms: N2_10  and  C8_11 
REMARK    4  A    between atoms: C8_11  and  C9_13 
REMARK    5  A    between atoms: C9_13  and  C10_14 
REMARK    6  A    between atoms: C9_13  and  N6_22 
REMARK    7  A    between atoms: C10_14  and  C11_15 
REMARK    8  A    between atoms: C11_15  and  C12_16 
REMARK    9  A    between atoms: C12_16  and  N3_17 
REMARK       I    between atoms: N6_22  and  C14_24 
REMARK   10  A    between atoms: C14_24  and  C15_26 
REMARK       I    between atoms: N7_31  and  C20_32 
REMARK   11  A    between atoms: C20_32  and  C21_34 
REMARK   12  A    between atoms: C21_34  and  C22_36 
REMARK   13  A    between atoms: C22_36  and  C23_37 
ROOT
HETATM    1  C9  UNL     1      -8.516  16.330  29.656  1.00  0.00     0.176 C 
ENDROOT
BRANCH   1   2
HETATM    2  C8  UNL     1      -8.654  16.659  31.109  1.00  0.00     0.242 C 
HETATM    3  N2  UNL     1      -9.277  15.899  32.086  1.00  0.00    -0.347 N 
HETATM    4  C7  UNL     1      -9.888  14.621  31.834  1.00  0.00     0.145 C 
HETATM    5  C29 UNL     1      -9.334  16.418  33.468  1.00  0.00     0.145 C 
HETATM    6  C6  UNL     1     -11.358  14.653  32.233  1.00  0.00     0.145 C 
HETATM    7  N1  UNL     1     -11.393  15.063  33.617  1.00  0.00    -0.349 N 
HETATM    8  C5  UNL     1     -12.141  14.291  34.537  1.00  0.00     0.219 C 
HETATM    9  C30 UNL     1     -10.693  16.237  34.052  1.00  0.00     0.145 C 
HETATM   10  O1  UNL     1     -12.180  14.628  35.740  1.00  0.00    -0.273 OA
HETATM   11  O2  UNL     1      -8.127  17.766  31.451  1.00  0.00    -0.271 OA
BRANCH   8  12
HETATM   12  C4  UNL     1     -12.884  13.087  34.105  1.00  0.00     0.103 C 
BRANCH  12  13
HETATM   13  C3  UNL     1     -12.554  11.928  34.992  1.00  0.00     0.009 C 
BRANCH  13  14
HETATM   14  C2  UNL     1     -12.954  10.619  34.358  1.00  0.00    -0.004 C 
HETATM   15  C1  UNL     1     -13.327  10.830  32.920  1.00  0.00     0.005 C 
ENDBRANCH  13  14
ENDBRANCH  12  13
ENDBRANCH   8  12
ENDBRANCH   1   2
BRANCH   1  16
HETATM   16  C10 UNL     1      -9.772  15.893  29.028  1.00  0.00     0.036 C 
BRANCH  16  17
HETATM   17  C11 UNL     1     -10.798  16.879  28.643  1.00  0.00     0.022 C 
BRANCH  17  18
HETATM   18  C12 UNL     1     -12.046  16.336  28.022  1.00  0.00     0.122 C 
BRANCH  18  19
HETATM   19  N3  UNL     1     -12.964  15.903  29.083  1.00  0.00    -0.367 N 
HETATM   20  C13 UNL     1     -13.506  14.738  29.069  1.00  0.00     0.196 C 
HETATM   21  N4  UNL     1     -13.256  13.794  28.032  1.00  0.00    -0.067 NA
HETATM   22  N5  UNL     1     -14.383  14.390  30.134  1.00  0.00    -0.067 NA
ATOM     23  H3  UNL     1     -13.178  16.542  29.848  1.00  0.00     0.161 HD
ENDBRANCH  18  19
ENDBRANCH  17  18
ENDBRANCH  16  17
ENDBRANCH   1  16
BRANCH   1  24
HETATM   24  N6  UNL     1      -7.707  17.284  28.992  1.00  0.00    -0.346 N 
HETATM   25  C14 UNL     1      -6.806  16.930  27.919  1.00  0.00     0.241 C 
HETATM   26  O3  UNL     1      -6.764  15.706  27.603  1.00  0.00    -0.271 OA
ATOM     27  H6  UNL     1      -7.762  18.261  29.283  1.00  0.00     0.163 HD
BRANCH  25  28
HETATM   28  C15 UNL     1      -5.966  17.891  27.206  1.00  0.00     0.183 C 
HETATM   29  C16 UNL     1      -4.513  17.687  27.504  1.00  0.00     0.015 C 
HETATM   30  C17 UNL     1      -3.948  18.809  28.303  1.00  0.00     0.012 C 
HETATM   31  C18 UNL     1      -3.837  17.494  26.151  1.00  0.00     0.027 C 
HETATM   32  C19 UNL     1      -5.008  16.812  25.400  1.00  0.00     0.127 C 
HETATM   33  N7  UNL     1      -6.067  17.716  25.743  1.00  0.00    -0.334 N 
HETATM   34  C20 UNL     1      -7.039  18.280  24.925  1.00  0.00     0.264 C 
HETATM   35  O4  UNL     1      -7.981  18.938  25.497  1.00  0.00    -0.267 OA
BRANCH  34  36
HETATM   36  C21 UNL     1      -7.112  18.205  23.467  1.00  0.00     0.092 C 
HETATM   37  N8  UNL     1      -6.738  19.410  22.764  1.00  0.00    -0.101 NA
BRANCH  36  38
HETATM   38  C22 UNL     1      -8.323  17.545  22.894  1.00  0.00     0.064 C 
BRANCH  38  39
HETATM   39  C23 UNL     1      -8.440  16.083  22.950  1.00  0.00    -0.009 C 
HETATM   40  C24 UNL     1      -9.725  15.576  22.304  1.00  0.00     0.005 C 
HETATM   41  C25 UNL     1     -10.933  15.857  23.129  1.00  0.00     0.000 C 
HETATM   42  C26 UNL     1     -10.727  16.116  24.569  1.00  0.00     0.000 C 
HETATM   43  C27 UNL     1      -9.480  15.583  25.187  1.00  0.00     0.000 C 
HETATM   44  C28 UNL     1      -8.328  15.404  24.263  1.00  0.00     0.005 C 
ENDBRANCH  38  39
ENDBRANCH  36  38
ENDBRANCH  34  36
ENDBRANCH  25  28
ENDBRANCH   1  24
TORSDOF 13
ENDMDL
MODEL 4
REMARK VINA RESULT: -8.353902992      2.150      7.879
REMARK  13 active torsions:
REMARK  status: ('A' for Active; 'I' for Inactive)
REMARK    1  A    between atoms: C2_2  and  C3_3 
REMARK    2  A    between atoms: C3_3  and  C4_4 
REMARK    3  A    between atoms: C4_4  and  C5_5 
REMARK       I    between atoms: C5_5  and  N1_7 
REMARK       I    between atoms: N2_10  and  C8_11 
REMARK    4  A    between atoms: C8_11  and  C9_13 
REMARK    5  A    between atoms: C9_13  and  C10_14 
REMARK    6  A    between atoms: C9_13  and  N6_22 
REMARK    7  A    between atoms: C10_14  and  C11_15 
REMARK    8  A    between atoms: C11_15  and  C12_16 
REMARK    9  A    between atoms: C12_16  and  N3_17 
REMARK       I    between atoms: N6_22  and  C14_24 
REMARK   10  A    between atoms: C14_24  and  C15_26 
REMARK       I    between atoms: N7_31  and  C20_32 
REMARK   11  A    between atoms: C20_32  and  C21_34 
REMARK   12  A    between atoms: C21_34  and  C22_36 
REMARK   13  A    between atoms: C22_36  and  C23_37 
ROOT
HETATM    1  C9  UNL     1      -7.850  18.046  27.888  1.00  0.00     0.176 C 
ENDROOT
BRANCH   1   2
HETATM    2  C8  UNL     1      -6.437  18.063  27.396  1.00  0.00     0.242 C 
HETATM    3  N2  UNL     1      -5.998  18.355  26.116  1.00  0.00    -0.347 N 
HETATM    4  C7  UNL     1      -6.874  18.720  25.035  1.00  0.00     0.145 C 
HETATM    5  C29 UNL     1      -4.551  18.286  25.822  1.00  0.00     0.145 C 
HETATM    6  C6  UNL     1      -6.706  17.751  23.871  1.00  0.00     0.145 C 
HETATM    7  N1  UNL     1      -5.304  17.769  23.528  1.00  0.00    -0.349 N 
HETATM    8  C5  UNL     1      -4.937  17.968  22.175  1.00  0.00     0.219 C 
HETATM    9  C30 UNL     1      -4.300  17.580  24.533  1.00  0.00     0.145 C 
HETATM   10  O1  UNL     1      -3.728  17.992  21.859  1.00  0.00    -0.273 OA
HETATM   11  O2  UNL     1      -5.568  17.774  28.281  1.00  0.00    -0.271 OA
BRANCH   8  12
HETATM   12  C4  UNL     1      -5.958  18.149  21.120  1.00  0.00     0.103 C 
BRANCH  12  13
HETATM   13  C3  UNL     1      -6.158  16.871  20.367  1.00  0.00     0.009 C 
BRANCH  13  14
HETATM   14  C2  UNL     1      -7.559  16.341  20.544  1.00  0.00    -0.004 C 
HETATM   15  C1  UNL     1      -8.524  17.474  20.730  1.00  0.00     0.005 C 
ENDBRANCH  13  14
ENDBRANCH  12  13
ENDBRANCH   8  12
ENDBRANCH   1   2
BRANCH   1  16
HETATM   16  C10 UNL     1      -8.825  18.526  26.897  1.00  0.00     0.036 C 
BRANCH  16  17
HETATM   17  C11 UNL     1     -10.271  18.345  27.122  1.00  0.00     0.022 C 
BRANCH  17  18
HETATM   18  C12 UNL     1     -10.829  16.991  26.821  1.00  0.00     0.122 C 
BRANCH  18  19
HETATM   19  N3  UNL     1     -11.124  16.898  25.386  1.00  0.00    -0.367 N 
HETATM   20  C13 UNL     1     -10.417  16.168  24.599  1.00  0.00     0.196 C 
HETATM   21  N4  UNL     1      -9.307  15.406  25.061  1.00  0.00    -0.067 NA
HETATM   22  N5  UNL     1     -10.768  16.127  23.221  1.00  0.00    -0.067 NA
ATOM     23  H3  UNL     1     -11.909  17.426  25.004  1.00  0.00     0.161 HD
ENDBRANCH  18  19
ENDBRANCH  17  18
ENDBRANCH  16  17
ENDBRANCH   1  16
BRANCH   1  24
HETATM   24  N6  UNL     1      -8.125  16.859  28.609  1.00  0.00    -0.346 N 
HETATM   25  C14 UNL     1      -8.552  16.867  29.990  1.00  0.00     0.241 C 
HETATM   26  O3  UNL     1      -8.659  18.002  30.537  1.00  0.00    -0.271 OA
ATOM     27  H6  UNL     1      -8.017  15.962  28.136  1.00  0.00     0.163 HD
BRANCH  25  28
HETATM   28  C15 UNL     1      -8.854  15.661  30.759  1.00  0.00     0.183 C 
HETATM   29  C16 UNL     1      -8.904  15.939  32.230  1.00  0.00     0.015 C 
HETATM   30  C17 UNL     1      -7.769  15.300  32.952  1.00  0.00     0.012 C 
HETATM   31  C18 UNL     1     -10.275  15.461  32.694  1.00  0.00     0.027 C 
HETATM   32  C19 UNL     1     -11.074  15.750  31.399  1.00  0.00     0.127 C 
HETATM   33  N7  UNL     1     -10.199  15.140  30.441  1.00  0.00    -0.334 N 
HETATM   34  C20 UNL     1     -10.509  14.289  29.386  1.00  0.00     0.264 C 
HETATM   35  O4  UNL     1      -9.566  14.000  28.566  1.00  0.00    -0.267 OA
BRANCH  34  36
HETATM   36  C21 UNL     1     -11.807  13.681  29.100  1.00  0.00     0.092 C 
HETATM   37  N8  UNL     1     -12.828  14.589  28.631  1.00  0.00    -0.101 NA
BRANCH  36  38
HETATM   38  C22 UNL     1     -12.315  12.696  30.101  1.00  0.00     0.064 C 
BRANCH  38  39
HETATM   39  C23 UNL     1     -13.722  12.752  30.517  1.00  0.00    -0.009 C 
HETATM   40  C24 UNL     1     -13.900  13.413  31.880  1.00  0.00     0.005 C 
HETATM   41  C25 UNL     1     -13.445  12.545  33.002  1.00  0.00     0.000 C 
HETATM   42  C26 UNL     1     -13.351  11.094  32.744  1.00  0.00     0.000 C 
HETATM   43  C27 UNL     1     -14.176  10.543  31.633  1.00  0.00     0.000 C 
HETATM   44  C28 UNL     1     -14.513  11.499  30.544  1.00  0.00     0.005 C 
ENDBRANCH  38  39
ENDBRANCH  36  38
ENDBRANCH  34  36
ENDBRANCH  25  28
ENDBRANCH   1  24
TORSDOF 13
ENDMDL
MODEL 5
REMARK VINA RESULT: -8.301517950      2.688      9.407
REMARK  13 active torsions:
REMARK  status: ('A' for Active; 'I' for Inactive)
REMARK    1  A    between atoms: C2_2  and  C3_3 
REMARK    2  A    between atoms: C3_3  and  C4_4 
REMARK    3  A    between atoms: C4_4  and  C5_5 
REMARK       I    between atoms: C5_5  and  N1_7 
REMARK       I    between atoms: N2_10  and  C8_11 
REMARK    4  A    between atoms: C8_11  and  C9_13 
REMARK    5  A    between atoms: C9_13  and  C10_14 
REMARK    6  A    between atoms: C9_13  and  N6_22 
REMARK    7  A    between atoms: C10_14  and  C11_15 
REMARK    8  A    between atoms: C11_15  and  C12_16 
REMARK    9  A    between atoms: C12_16  and  N3_17 
REMARK       I    between atoms: N6_22  and  C14_24 
REMARK   10  A    between atoms: C14_24  and  C15_26 
REMARK       I    between atoms: N7_31  and  C20_32 
REMARK   11  A    between atoms: C20_32  and  C21_34 
REMARK   12  A    between atoms: C21_34  and  C22_36 
REMARK   13  A    between atoms: C22_36  and  C23_37 
ROOT
HETATM    1  C9  UNL     1     -10.338  15.760  32.073  1.00  0.00     0.176 C 
ENDROOT
BRANCH   1   2
HETATM    2  C8  UNL     1      -9.320  16.652  31.434  1.00  0.00     0.242 C 
HETATM    3  N2  UNL     1      -9.109  16.850  30.080  1.00  0.00    -0.347 N 
HETATM    4  C7  UNL     1      -9.887  16.213  29.050  1.00  0.00     0.145 C 
HETATM    5  C29 UNL     1      -8.025  17.756  29.649  1.00  0.00     0.145 C 
HETATM    6  C6  UNL     1      -8.979  15.409  28.128  1.00  0.00     0.145 C 
HETATM    7  N1  UNL     1      -7.984  16.330  27.634  1.00  0.00    -0.349 N 
HETATM    8  C5  UNL     1      -7.751  16.397  26.239  1.00  0.00     0.219 C 
HETATM    9  C30 UNL     1      -7.236  17.155  28.536  1.00  0.00     0.145 C 
HETATM   10  O1  UNL     1      -6.897  17.192  25.792  1.00  0.00    -0.273 OA
HETATM   11  O2  UNL     1      -8.585  17.286  32.258  1.00  0.00    -0.271 OA
BRANCH   8  12
HETATM   12  C4  UNL     1      -8.500  15.543  25.293  1.00  0.00     0.103 C 
BRANCH  12  13
HETATM   13  C3  UNL     1      -9.543  16.346  24.581  1.00  0.00     0.009 C 
BRANCH  13  14
HETATM   14  C2  UNL     1     -10.304  15.504  23.587  1.00  0.00    -0.004 C 
HETATM   15  C1  UNL     1      -9.351  14.736  22.721  1.00  0.00     0.005 C 
ENDBRANCH  13  14
ENDBRANCH  12  13
ENDBRANCH   8  12
ENDBRANCH   1   2
BRANCH   1  16
HETATM   16  C10 UNL     1     -10.485  15.975  33.520  1.00  0.00     0.036 C 
BRANCH  16  17
HETATM   17  C11 UNL     1     -11.700  15.524  34.223  1.00  0.00     0.022 C 
BRANCH  17  18
HETATM   18  C12 UNL     1     -11.779  14.067  34.550  1.00  0.00     0.122 C 
BRANCH  18  19
HETATM   19  N3  UNL     1     -13.180  13.631  34.481  1.00  0.00    -0.367 N 
HETATM   20  C13 UNL     1     -13.689  12.859  35.374  1.00  0.00     0.196 C 
HETATM   21  N4  UNL     1     -12.936  12.375  36.481  1.00  0.00    -0.067 NA
HETATM   22  N5  UNL     1     -15.055  12.483  35.239  1.00  0.00    -0.067 NA
ATOM     23  H3  UNL     1     -13.762  13.949  33.707  1.00  0.00     0.161 HD
ENDBRANCH  18  19
ENDBRANCH  17  18
ENDBRANCH  16  17
ENDBRANCH   1  16
BRANCH   1  24
HETATM   24  N6  UNL     1     -11.498  15.653  31.268  1.00  0.00    -0.346 N 
HETATM   25  C14 UNL     1     -11.983  14.388  30.764  1.00  0.00     0.241 C 
HETATM   26  O3  UNL     1     -11.305  13.365  31.070  1.00  0.00    -0.271 OA
ATOM     27  H6  UNL     1     -12.013  16.503  31.034  1.00  0.00     0.163 HD
BRANCH  25  28
HETATM   28  C15 UNL     1     -13.182  14.242  29.941  1.00  0.00     0.183 C 
HETATM   29  C16 UNL     1     -12.865  14.315  28.479  1.00  0.00     0.015 C 
HETATM   30  C17 UNL     1     -13.408  15.553  27.856  1.00  0.00     0.012 C 
HETATM   31  C18 UNL     1     -13.415  13.029  27.873  1.00  0.00     0.027 C 
HETATM   32  C19 UNL     1     -13.216  12.092  29.091  1.00  0.00     0.127 C 
HETATM   33  N7  UNL     1     -13.798  12.911  30.115  1.00  0.00    -0.334 N 
HETATM   34  C20 UNL     1     -14.698  12.558  31.115  1.00  0.00     0.264 C 
HETATM   35  O4  UNL     1     -14.951  13.437  32.015  1.00  0.00    -0.267 OA
BRANCH  34  36
HETATM   36  C21 UNL     1     -15.396  11.283  31.258  1.00  0.00     0.092 C 
HETATM   37  N8  UNL     1     -16.839  11.360  31.248  1.00  0.00    -0.101 NA
BRANCH  36  38
HETATM   38  C22 UNL     1     -14.867  10.347  32.296  1.00  0.00     0.064 C 
BRANCH  38  39
HETATM   39  C23 UNL     1     -13.415  10.212  32.469  1.00  0.00    -0.009 C 
HETATM   40  C24 UNL     1     -12.776   9.353  31.383  1.00  0.00     0.005 C 
HETATM   41  C25 UNL     1     -13.084   7.904  31.542  1.00  0.00     0.000 C 
HETATM   42  C26 UNL     1     -13.509   7.443  32.880  1.00  0.00     0.000 C 
HETATM   43  C27 UNL     1     -13.110   8.277  34.048  1.00  0.00     0.000 C 
HETATM   44  C28 UNL     1     -12.890   9.720  33.765  1.00  0.00     0.005 C 
ENDBRANCH  38  39
ENDBRANCH  36  38
ENDBRANCH  34  36
ENDBRANCH  25  28
ENDBRANCH   1  24
TORSDOF 13
ENDMDL
