MODEL 1
REMARK VINA RESULT: -7.975930112      0.000      0.000
REMARK  20 active torsions:
REMARK  status: ('A' for Active; 'I' for Inactive)
REMARK    1  A    between atoms: C7_7  and  C8_8 
REMARK    2  A    between atoms: C9_9  and  C10_10 
REMARK    3  A    between atoms: C11_11  and  C12_12 
REMARK    4  A    between atoms: C12_12  and  N1_13 
REMARK    5  A    between atoms: N2_16  and  C15_17 
REMARK    6  A    between atoms: C15_17  and  C16_18 
REMARK    7  A    between atoms: C16_18  and  C17_19 
REMARK    8  A    between atoms: C17_19  and  N3_20 
REMARK    9  A    between atoms: N3_20  and  C18_22 
REMARK   10  A    between atoms: C18_22  and  C19_23 
REMARK   11  A    between atoms: C18_22  and  N7_31 
REMARK   12  A    between atoms: C19_23  and  C20_24 
REMARK   13  A    between atoms: C20_24  and  C21_25 
REMARK   14  A    between atoms: C21_25  and  N4_26 
REMARK   15  A    between atoms: N7_31  and  C23_32 
REMARK   16  A    between atoms: C23_32  and  C24_33 
REMARK   17  A    between atoms: C24_33  and  O1_34 
REMARK   18  A    between atoms: C24_33  and  C25_36 
REMARK   19  A    between atoms: C25_36  and  O2_37 
REMARK   20  A    between atoms: C30_44  and  O4_45 
ROOT
HETATM    1  N1  UNL     1     -13.118  13.912  29.240  1.00  0.00    -0.322 N 
HETATM    2  C13 UNL     1     -12.190  12.948  28.724  1.00  0.00     0.148 C 
HETATM    3  C14 UNL     1     -12.732  11.596  29.077  1.00  0.00     0.147 C 
HETATM    4  N2  UNL     1     -13.646  11.888  30.173  1.00  0.00    -0.332 N 
HETATM    5  C26 UNL     1     -13.973  13.277  30.171  1.00  0.00     0.321 C 
HETATM    6  O3  UNL     1     -14.875  13.756  30.904  1.00  0.00    -0.247 OA
ENDROOT
BRANCH   4   7
HETATM    7  C15 UNL     1     -14.128  10.888  31.075  1.00  0.00     0.129 C 
BRANCH   7   8
HETATM    8  C16 UNL     1     -13.177  10.392  32.096  1.00  0.00     0.039 C 
BRANCH   8   9
HETATM    9  C17 UNL     1     -13.480  10.814  33.516  1.00  0.00     0.123 C 
BRANCH   9  10
HETATM   10  N3  UNL     1     -13.818  12.214  33.598  1.00  0.00    -0.369 N 
ATOM     11  H3  UNL     1     -14.756  12.504  33.322  1.00  0.00     0.161 HD
BRANCH  10  12
HETATM   12  C18 UNL     1     -12.892  13.226  34.054  1.00  0.00     0.150 C 
BRANCH  12  13
HETATM   13  C19 UNL     1     -12.232  12.866  35.378  1.00  0.00     0.093 C 
BRANCH  13  14
HETATM   14  C20 UNL     1     -12.886  13.673  36.479  1.00  0.00     0.028 C 
BRANCH  14  15
HETATM   15  C21 UNL     1     -13.925  12.845  37.192  1.00  0.00     0.122 C 
BRANCH  15  16
HETATM   16  N4  UNL     1     -15.163  13.573  37.240  1.00  0.00    -0.367 N 
HETATM   17  C22 UNL     1     -16.170  13.138  36.577  1.00  0.00     0.196 C 
HETATM   18  N5  UNL     1     -17.382  13.847  36.621  1.00  0.00    -0.067 NA
HETATM   19  N6  UNL     1     -16.086  11.956  35.803  1.00  0.00    -0.067 NA
ATOM     20  H4  UNL     1     -15.238  14.426  37.794  1.00  0.00     0.161 HD
ENDBRANCH  15  16
ENDBRANCH  14  15
ENDBRANCH  13  14
ENDBRANCH  12  13
BRANCH  12  21
HETATM   21  N7  UNL     1     -12.618  14.248  33.522  1.00  0.00    -0.406 NA
BRANCH  21  22
HETATM   22  C23 UNL     1     -12.238  15.357  32.870  1.00  0.00     0.191 C 
BRANCH  22  23
HETATM   23  C24 UNL     1     -10.743  15.680  32.881  1.00  0.00     0.193 C 
BRANCH  23  24
HETATM   24  O1  UNL     1      -9.958  14.553  32.897  1.00  0.00    -0.387 OA
ATOM     25  H1  UNL     1      -9.087  14.708  32.551  1.00  0.00     0.210 HD
ENDBRANCH  23  24
BRANCH  23  26
HETATM   26  C25 UNL     1     -10.480  16.457  34.162  1.00  0.00     0.202 C 
BRANCH  26  27
HETATM   27  O2  UNL     1     -11.670  16.543  34.877  1.00  0.00    -0.398 OA
ATOM     28  H2  UNL     1     -12.087  15.689  34.870  1.00  0.00     0.209 HD
ENDBRANCH  26  27
ENDBRANCH  23  26
ENDBRANCH  22  23
ENDBRANCH  21  22
ENDBRANCH  12  21
ENDBRANCH  10  12
ENDBRANCH   9  10
ENDBRANCH   8   9
ENDBRANCH   7   8
ENDBRANCH   4   7
BRANCH   1  29
HETATM   29  C12 UNL     1     -13.165  15.304  28.868  1.00  0.00     0.222 C 
BRANCH  29  30
HETATM   30  C11 UNL     1     -12.148  15.609  27.836  1.00  0.00    -0.081 C 
HETATM   31  C10 UNL     1     -11.305  15.840  27.001  1.00  0.00    -0.063 C 
BRANCH  31  32
HETATM   32  C9  UNL     1     -10.282  16.094  26.013  1.00  0.00     0.046 A 
HETATM   33  C8  UNL     1      -8.996  16.453  26.405  1.00  0.00     0.065 A 
HETATM   34  N8  UNL     1      -8.028  16.687  25.486  1.00  0.00    -0.330 N 
HETATM   35  C30 UNL     1      -8.341  16.565  24.184  1.00  0.00     0.148 A 
HETATM   36  C31 UNL     1      -6.711  17.056  25.952  1.00  0.00     0.158 C 
HETATM   37  C28 UNL     1      -9.615  16.208  23.752  1.00  0.00    -0.009 A 
HETATM   38  C27 UNL     1     -10.587  15.973  24.677  1.00  0.00     0.034 A 
HETATM   39  C29 UNL     1      -9.851  16.101  22.281  1.00  0.00     0.052 C 
BRANCH  33  40
HETATM   40  C7  UNL     1      -8.691  16.583  27.823  1.00  0.00    -0.002 A 
HETATM   41  C2  UNL     1      -8.326  15.478  28.561  1.00  0.00    -0.050 A 
HETATM   42  C1  UNL     1      -8.241  14.141  27.919  1.00  0.00     0.049 C 
HETATM   43  C3  UNL     1      -8.032  15.600  29.923  1.00  0.00     0.007 A 
HETATM   44  C4  UNL     1      -8.102  16.830  30.547  1.00  0.00     0.001 A 
HETATM   45  C5  UNL     1      -8.471  17.919  29.782  1.00  0.00     0.001 A 
HETATM   46  C6  UNL     1      -8.765  17.811  28.435  1.00  0.00     0.014 A 
ENDBRANCH  33  40
BRANCH  35  47
HETATM   47  O4  UNL     1      -7.327  16.812  23.272  1.00  0.00    -0.346 OA
ATOM     48  H4  UNL     1      -6.848  16.096  22.873  1.00  0.00     0.219 HD
ENDBRANCH  35  47
ENDBRANCH  31  32
ENDBRANCH  29  30
ENDBRANCH   1  29
TORSDOF 20
ENDMDL
MODEL 2
REMARK VINA RESULT: -7.925775933      2.343      5.446
REMARK  20 active torsions:
REMARK  status: ('A' for Active; 'I' for Inactive)
REMARK    1  A    between atoms: C7_7  and  C8_8 
REMARK    2  A    between atoms: C9_9  and  C10_10 
REMARK    3  A    between atoms: C11_11  and  C12_12 
REMARK    4  A    between atoms: C12_12  and  N1_13 
REMARK    5  A    between atoms: N2_16  and  C15_17 
REMARK    6  A    between atoms: C15_17  and  C16_18 
REMARK    7  A    between atoms: C16_18  and  C17_19 
REMARK    8  A    between atoms: C17_19  and  N3_20 
REMARK    9  A    between atoms: N3_20  and  C18_22 
REMARK   10  A    between atoms: C18_22  and  C19_23 
REMARK   11  A    between atoms: C18_22  and  N7_31 
REMARK   12  A    between atoms: C19_23  and  C20_24 
REMARK   13  A    between atoms: C20_24  and  C21_25 
REMARK   14  A    between atoms: C21_25  and  N4_26 
REMARK   15  A    between atoms: N7_31  and  C23_32 
REMARK   16  A    between atoms: C23_32  and  C24_33 
REMARK   17  A    between atoms: C24_33  and  O1_34 
REMARK   18  A    between atoms: C24_33  and  C25_36 
REMARK   19  A    between atoms: C25_36  and  O2_37 
REMARK   20  A    between atoms: C30_44  and  O4_45 
ROOT
HETATM    1  N1  UNL     1      -8.378  15.255  28.970  1.00  0.00    -0.322 N 
HETATM    2  C13 UNL     1      -7.627  16.467  29.119  1.00  0.00     0.148 C 
HETATM    3  C14 UNL     1      -7.797  16.908  30.541  1.00  0.00     0.147 C 
HETATM    4  N2  UNL     1      -9.005  16.208  30.956  1.00  0.00    -0.332 N 
HETATM    5  C26 UNL     1      -9.265  15.125  30.065  1.00  0.00     0.321 C 
HETATM    6  O3  UNL     1     -10.147  14.260  30.298  1.00  0.00    -0.247 OA
ENDROOT
BRANCH   4   7
HETATM    7  C15 UNL     1      -9.767  16.582  32.107  1.00  0.00     0.129 C 
BRANCH   7   8
HETATM    8  C16 UNL     1      -9.717  15.668  33.271  1.00  0.00     0.039 C 
BRANCH   8   9
HETATM    9  C17 UNL     1     -11.048  15.091  33.694  1.00  0.00     0.123 C 
BRANCH   9  10
HETATM   10  N3  UNL     1     -11.507  14.073  32.781  1.00  0.00    -0.369 N 
ATOM     11  H3  UNL     1     -10.813  13.477  32.330  1.00  0.00     0.161 HD
BRANCH  10  12
HETATM   12  C18 UNL     1     -12.902  13.857  32.473  1.00  0.00     0.150 C 
BRANCH  12  13
HETATM   13  C19 UNL     1     -13.409  14.774  31.367  1.00  0.00     0.093 C 
BRANCH  13  14
HETATM   14  C20 UNL     1     -13.729  13.932  30.151  1.00  0.00     0.028 C 
BRANCH  14  15
HETATM   15  C21 UNL     1     -13.350  14.666  28.888  1.00  0.00     0.122 C 
BRANCH  15  16
HETATM   16  N4  UNL     1     -12.701  15.901  29.233  1.00  0.00    -0.367 N 
HETATM   17  C22 UNL     1     -11.959  16.481  28.363  1.00  0.00     0.196 C 
HETATM   18  N5  UNL     1     -11.322  17.688  28.696  1.00  0.00    -0.067 NA
HETATM   19  N6  UNL     1     -11.769  15.929  27.073  1.00  0.00    -0.067 NA
ATOM     20  H4  UNL     1     -12.830  16.311  30.158  1.00  0.00     0.161 HD
ENDBRANCH  15  16
ENDBRANCH  14  15
ENDBRANCH  13  14
ENDBRANCH  12  13
BRANCH  12  21
HETATM   21  N7  UNL     1     -13.641  13.080  32.973  1.00  0.00    -0.406 NA
BRANCH  21  22
HETATM   22  C23 UNL     1     -14.414  12.189  33.614  1.00  0.00     0.191 C 
BRANCH  22  23
HETATM   23  C24 UNL     1     -14.143  11.995  35.106  1.00  0.00     0.193 C 
BRANCH  23  24
HETATM   24  O1  UNL     1     -13.806  13.165  35.740  1.00  0.00    -0.387 OA
ATOM     25  H1  UNL     1     -14.271  13.285  36.560  1.00  0.00     0.210 HD
ENDBRANCH  23  24
BRANCH  23  26
HETATM   26  C25 UNL     1     -12.958  11.045  35.208  1.00  0.00     0.202 C 
BRANCH  26  27
HETATM   27  O2  UNL     1     -11.790  11.780  35.034  1.00  0.00    -0.398 OA
ATOM     28  H2  UNL     1     -11.298  11.397  34.317  1.00  0.00     0.209 HD
ENDBRANCH  26  27
ENDBRANCH  23  26
ENDBRANCH  22  23
ENDBRANCH  21  22
ENDBRANCH  12  21
ENDBRANCH  10  12
ENDBRANCH   9  10
ENDBRANCH   8   9
ENDBRANCH   7   8
ENDBRANCH   4   7
BRANCH   1  29
HETATM   29  C12 UNL     1      -8.250  14.325  27.877  1.00  0.00     0.222 C 
BRANCH  29  30
HETATM   30  C11 UNL     1      -8.301  15.030  26.576  1.00  0.00    -0.081 C 
HETATM   31  C10 UNL     1      -8.321  15.611  25.516  1.00  0.00    -0.063 C 
BRANCH  31  32
HETATM   32  C9  UNL     1      -8.318  16.313  24.254  1.00  0.00     0.046 A 
HETATM   33  C8  UNL     1      -7.431  17.363  24.032  1.00  0.00     0.065 A 
HETATM   34  N8  UNL     1      -7.416  18.023  22.849  1.00  0.00    -0.330 N 
HETATM   35  C30 UNL     1      -8.280  17.640  21.893  1.00  0.00     0.148 A 
HETATM   36  C31 UNL     1      -6.473  19.104  22.676  1.00  0.00     0.158 C 
HETATM   37  C28 UNL     1      -9.182  16.597  22.076  1.00  0.00    -0.009 A 
HETATM   38  C27 UNL     1      -9.196  15.933  23.266  1.00  0.00     0.034 A 
HETATM   39  C29 UNL     1     -10.097  16.255  20.945  1.00  0.00     0.052 C 
BRANCH  33  40
HETATM   40  C7  UNL     1      -6.512  17.757  25.090  1.00  0.00    -0.002 A 
HETATM   41  C2  UNL     1      -6.952  18.532  26.142  1.00  0.00    -0.050 A 
HETATM   42  C1  UNL     1      -8.368  18.976  26.206  1.00  0.00     0.049 C 
HETATM   43  C3  UNL     1      -6.071  18.911  27.161  1.00  0.00     0.007 A 
HETATM   44  C4  UNL     1      -4.749  18.513  27.128  1.00  0.00     0.001 A 
HETATM   45  C5  UNL     1      -4.338  17.738  26.062  1.00  0.00     0.001 A 
HETATM   46  C6  UNL     1      -5.198  17.356  25.049  1.00  0.00     0.014 A 
ENDBRANCH  33  40
BRANCH  35  47
HETATM   47  O4  UNL     1      -8.237  18.338  20.696  1.00  0.00    -0.346 OA
ATOM     48  H4  UNL     1      -7.414  18.472  20.242  1.00  0.00     0.219 HD
ENDBRANCH  35  47
ENDBRANCH  31  32
ENDBRANCH  29  30
ENDBRANCH   1  29
TORSDOF 20
ENDMDL
MODEL 3
REMARK VINA RESULT: -7.863497614      3.033     11.226
REMARK  20 active torsions:
REMARK  status: ('A' for Active; 'I' for Inactive)
REMARK    1  A    between atoms: C7_7  and  C8_8 
REMARK    2  A    between atoms: C9_9  and  C10_10 
REMARK    3  A    between atoms: C11_11  and  C12_12 
REMARK    4  A    between atoms: C12_12  and  N1_13 
REMARK    5  A    between atoms: N2_16  and  C15_17 
REMARK    6  A    between atoms: C15_17  and  C16_18 
REMARK    7  A    between atoms: C16_18  and  C17_19 
REMARK    8  A    between atoms: C17_19  and  N3_20 
REMARK    9  A    between atoms: N3_20  and  C18_22 
REMARK   10  A    between atoms: C18_22  and  C19_23 
REMARK   11  A    between atoms: C18_22  and  N7_31 
REMARK   12  A    between atoms: C19_23  and  C20_24 
REMARK   13  A    between atoms: C20_24  and  C21_25 
REMARK   14  A    between atoms: C21_25  and  N4_26 
REMARK   15  A    between atoms: N7_31  and  C23_32 
REMARK   16  A    between atoms: C23_32  and  C24_33 
REMARK   17  A    between atoms: C24_33  and  O1_34 
REMARK   18  A    between atoms: C24_33  and  C25_36 
REMARK   19  A    between atoms: C25_36  and  O2_37 
REMARK   20  A    between atoms: C30_44  and  O4_45 
ROOT
HETATM    1  N1  UNL     1      -8.058  16.022  26.901  1.00  0.00    -0.322 N 
HETATM    2  C13 UNL     1      -9.135  16.857  26.458  1.00  0.00     0.148 C 
HETATM    3  C14 UNL     1      -8.512  18.044  25.786  1.00  0.00     0.147 C 
HETATM    4  N2  UNL     1      -7.157  18.046  26.321  1.00  0.00    -0.332 N 
HETATM    5  C26 UNL     1      -6.855  16.766  26.873  1.00  0.00     0.321 C 
HETATM    6  O3  UNL     1      -5.695  16.450  27.242  1.00  0.00    -0.247 OA
ENDROOT
BRANCH   4   7
HETATM    7  C15 UNL     1      -6.295  19.185  26.255  1.00  0.00     0.129 C 
BRANCH   7   8
HETATM    8  C16 UNL     1      -5.272  19.191  25.184  1.00  0.00     0.039 C 
BRANCH   8   9
HETATM    9  C17 UNL     1      -5.398  20.316  24.182  1.00  0.00     0.123 C 
BRANCH   9  10
HETATM   10  N3  UNL     1      -6.272  19.966  23.088  1.00  0.00    -0.369 N 
ATOM     11  H3  UNL     1      -7.042  20.594  22.862  1.00  0.00     0.161 HD
BRANCH  10  12
HETATM   12  C18 UNL     1      -6.108  18.767  22.298  1.00  0.00     0.150 C 
BRANCH  12  13
HETATM   13  C19 UNL     1      -7.316  17.842  22.375  1.00  0.00     0.093 C 
BRANCH  13  14
HETATM   14  C20 UNL     1      -7.963  17.779  21.009  1.00  0.00     0.028 C 
BRANCH  14  15
HETATM   15  C21 UNL     1      -9.372  17.251  21.118  1.00  0.00     0.122 C 
BRANCH  15  16
HETATM   16  N4  UNL     1      -9.331  15.849  21.433  1.00  0.00    -0.367 N 
HETATM   17  C22 UNL     1     -10.014  15.411  22.426  1.00  0.00     0.196 C 
HETATM   18  N5  UNL     1      -9.977  14.043  22.738  1.00  0.00    -0.067 NA
HETATM   19  N6  UNL     1     -10.805  16.281  23.215  1.00  0.00    -0.067 NA
ATOM     20  H4  UNL     1      -8.766  15.211  20.873  1.00  0.00     0.161 HD
ENDBRANCH  15  16
ENDBRANCH  14  15
ENDBRANCH  13  14
ENDBRANCH  12  13
BRANCH  12  21
HETATM   21  N7  UNL     1      -5.175  18.459  21.637  1.00  0.00    -0.406 NA
BRANCH  21  22
HETATM   22  C23 UNL     1      -4.138  18.015  20.910  1.00  0.00     0.191 C 
BRANCH  22  23
HETATM   23  C24 UNL     1      -4.367  17.871  19.406  1.00  0.00     0.193 C 
BRANCH  23  24
HETATM   24  O1  UNL     1      -5.473  18.558  18.970  1.00  0.00    -0.387 OA
ATOM     25  H1  UNL     1      -5.320  19.020  18.154  1.00  0.00     0.210 HD
ENDBRANCH  23  24
BRANCH  23  26
HETATM   26  C25 UNL     1      -4.599  16.389  19.146  1.00  0.00     0.202 C 
BRANCH  26  27
HETATM   27  O2  UNL     1      -5.125  15.817  20.300  1.00  0.00    -0.398 OA
ATOM     28  H2  UNL     1      -5.534  14.992  20.067  1.00  0.00     0.209 HD
ENDBRANCH  26  27
ENDBRANCH  23  26
ENDBRANCH  22  23
ENDBRANCH  21  22
ENDBRANCH  12  21
ENDBRANCH  10  12
ENDBRANCH   9  10
ENDBRANCH   8   9
ENDBRANCH   7   8
ENDBRANCH   4   7
BRANCH   1  29
HETATM   29  C12 UNL     1      -8.186  14.646  27.312  1.00  0.00     0.222 C 
BRANCH  29  30
HETATM   30  C11 UNL     1      -9.240  14.498  28.341  1.00  0.00    -0.081 C 
HETATM   31  C10 UNL     1     -10.104  14.401  29.181  1.00  0.00    -0.063 C 
BRANCH  31  32
HETATM   32  C9  UNL     1     -11.137  14.314  30.186  1.00  0.00     0.046 A 
HETATM   33  C8  UNL     1     -10.952  14.885  31.442  1.00  0.00     0.065 A 
HETATM   34  N8  UNL     1     -11.919  14.813  32.388  1.00  0.00    -0.330 N 
HETATM   35  C30 UNL     1     -13.063  14.175  32.085  1.00  0.00     0.148 A 
HETATM   36  C31 UNL     1     -11.671  15.425  33.673  1.00  0.00     0.158 C 
HETATM   37  C28 UNL     1     -13.287  13.592  30.843  1.00  0.00    -0.009 A 
HETATM   38  C27 UNL     1     -12.314  13.664  29.891  1.00  0.00     0.034 A 
HETATM   39  C29 UNL     1     -14.596  12.909  30.614  1.00  0.00     0.052 C 
BRANCH  33  40
HETATM   40  C7  UNL     1      -9.699  15.563  31.740  1.00  0.00    -0.002 A 
HETATM   41  C2  UNL     1      -9.438  16.809  31.211  1.00  0.00    -0.050 A 
HETATM   42  C1  UNL     1     -10.432  17.474  30.330  1.00  0.00     0.049 C 
HETATM   43  C3  UNL     1      -8.235  17.464  31.497  1.00  0.00     0.007 A 
HETATM   44  C4  UNL     1      -7.293  16.870  32.313  1.00  0.00     0.001 A 
HETATM   45  C5  UNL     1      -7.581  15.622  32.827  1.00  0.00     0.001 A 
HETATM   46  C6  UNL     1      -8.767  14.964  32.553  1.00  0.00     0.014 A 
ENDBRANCH  33  40
BRANCH  35  47
HETATM   47  O4  UNL     1     -14.030  14.121  33.078  1.00  0.00    -0.346 OA
ATOM     48  H4  UNL     1     -14.655  14.828  33.185  1.00  0.00     0.219 HD
ENDBRANCH  35  47
ENDBRANCH  31  32
ENDBRANCH  29  30
ENDBRANCH   1  29
TORSDOF 20
ENDMDL
MODEL 4
REMARK VINA RESULT: -7.837938119      4.664     13.175
REMARK  20 active torsions:
REMARK  status: ('A' for Active; 'I' for Inactive)
REMARK    1  A    between atoms: C7_7  and  C8_8 
REMARK    2  A    between atoms: C9_9  and  C10_10 
REMARK    3  A    between atoms: C11_11  and  C12_12 
REMARK    4  A    between atoms: C12_12  and  N1_13 
REMARK    5  A    between atoms: N2_16  and  C15_17 
REMARK    6  A    between atoms: C15_17  and  C16_18 
REMARK    7  A    between atoms: C16_18  and  C17_19 
REMARK    8  A    between atoms: C17_19  and  N3_20 
REMARK    9  A    between atoms: N3_20  and  C18_22 
REMARK   10  A    between atoms: C18_22  and  C19_23 
REMARK   11  A    between atoms: C18_22  and  N7_31 
REMARK   12  A    between atoms: C19_23  and  C20_24 
REMARK   13  A    between atoms: C20_24  and  C21_25 
REMARK   14  A    between atoms: C21_25  and  N4_26 
REMARK   15  A    between atoms: N7_31  and  C23_32 
REMARK   16  A    between atoms: C23_32  and  C24_33 
REMARK   17  A    between atoms: C24_33  and  O1_34 
REMARK   18  A    between atoms: C24_33  and  C25_36 
REMARK   19  A    between atoms: C25_36  and  O2_37 
REMARK   20  A    between atoms: C30_44  and  O4_45 
ROOT
HETATM    1  N1  UNL     1      -5.386  18.788  25.781  1.00  0.00    -0.322 N 
HETATM    2  C13 UNL     1      -5.182  17.370  25.731  1.00  0.00     0.148 C 
HETATM    3  C14 UNL     1      -3.873  17.147  25.034  1.00  0.00     0.147 C 
HETATM    4  N2  UNL     1      -3.672  18.397  24.313  1.00  0.00    -0.332 N 
HETATM    5  C26 UNL     1      -4.503  19.414  24.870  1.00  0.00     0.321 C 
HETATM    6  O3  UNL     1      -4.393  20.623  24.545  1.00  0.00    -0.247 OA
ENDROOT
BRANCH   4   7
HETATM    7  C15 UNL     1      -2.751  18.531  23.228  1.00  0.00     0.129 C 
BRANCH   7   8
HETATM    8  C16 UNL     1      -3.320  18.518  21.860  1.00  0.00     0.039 C 
BRANCH   8   9
HETATM    9  C17 UNL     1      -2.810  17.414  20.962  1.00  0.00     0.123 C 
BRANCH   9  10
HETATM   10  N3  UNL     1      -3.788  16.368  20.789  1.00  0.00    -0.369 N 
ATOM     11  H3  UNL     1      -3.666  15.499  21.309  1.00  0.00     0.161 HD
BRANCH  10  12
HETATM   12  C18 UNL     1      -4.932  16.491  19.916  1.00  0.00     0.150 C 
BRANCH  12  13
HETATM   13  C19 UNL     1      -4.549  16.885  18.496  1.00  0.00     0.093 C 
BRANCH  13  14
HETATM   14  C20 UNL     1      -4.104  15.643  17.754  1.00  0.00     0.028 C 
BRANCH  14  15
HETATM   15  C21 UNL     1      -2.603  15.625  17.611  1.00  0.00     0.122 C 
BRANCH  15  16
HETATM   16  N4  UNL     1      -2.156  14.266  17.475  1.00  0.00    -0.367 N 
HETATM   17  C22 UNL     1      -1.608  13.684  18.479  1.00  0.00     0.196 C 
HETATM   18  N5  UNL     1      -1.169  12.357  18.350  1.00  0.00    -0.067 NA
HETATM   19  N6  UNL     1      -1.438  14.355  19.715  1.00  0.00    -0.067 NA
ATOM     20  H4  UNL     1      -2.272  13.770  16.592  1.00  0.00     0.161 HD
ENDBRANCH  15  16
ENDBRANCH  14  15
ENDBRANCH  13  14
ENDBRANCH  12  13
BRANCH  12  21
HETATM   21  N7  UNL     1      -6.072  16.324  20.190  1.00  0.00    -0.406 NA
BRANCH  21  22
HETATM   22  C23 UNL     1      -7.380  16.229  20.472  1.00  0.00     0.191 C 
BRANCH  22  23
HETATM   23  C24 UNL     1      -8.066  17.495  20.985  1.00  0.00     0.193 C 
BRANCH  23  24
HETATM   24  O1  UNL     1      -7.900  18.566  20.142  1.00  0.00    -0.387 OA
ATOM     25  H1  UNL     1      -8.653  19.144  20.131  1.00  0.00     0.210 HD
ENDBRANCH  23  24
BRANCH  23  26
HETATM   26  C25 UNL     1      -7.404  17.834  22.313  1.00  0.00     0.202 C 
BRANCH  26  27
HETATM   27  O2  UNL     1      -7.238  16.656  23.035  1.00  0.00    -0.398 OA
ATOM     28  H2  UNL     1      -8.034  16.491  23.527  1.00  0.00     0.209 HD
ENDBRANCH  26  27
ENDBRANCH  23  26
ENDBRANCH  22  23
ENDBRANCH  21  22
ENDBRANCH  12  21
ENDBRANCH  10  12
ENDBRANCH   9  10
ENDBRANCH   8   9
ENDBRANCH   7   8
ENDBRANCH   4   7
BRANCH   1  29
HETATM   29  C12 UNL     1      -6.341  19.462  26.624  1.00  0.00     0.222 C 
BRANCH  29  30
HETATM   30  C11 UNL     1      -6.971  18.513  27.571  1.00  0.00    -0.081 C 
HETATM   31  C10 UNL     1      -7.481  17.754  28.361  1.00  0.00    -0.063 C 
BRANCH  31  32
HETATM   32  C9  UNL     1      -8.086  16.865  29.326  1.00  0.00     0.046 A 
HETATM   33  C8  UNL     1      -9.130  16.024  28.954  1.00  0.00     0.065 A 
HETATM   34  N8  UNL     1      -9.699  15.182  29.851  1.00  0.00    -0.330 N 
HETATM   35  C30 UNL     1      -9.230  15.180  31.111  1.00  0.00     0.148 A 
HETATM   36  C31 UNL     1     -10.780  14.332  29.407  1.00  0.00     0.158 C 
HETATM   37  C28 UNL     1      -8.189  16.005  31.522  1.00  0.00    -0.009 A 
HETATM   38  C27 UNL     1      -7.617  16.851  30.619  1.00  0.00     0.034 A 
HETATM   39  C29 UNL     1      -7.747  15.920  32.947  1.00  0.00     0.052 C 
BRANCH  33  40
HETATM   40  C7  UNL     1      -9.619  16.055  27.583  1.00  0.00    -0.002 A 
HETATM   41  C2  UNL     1     -10.644  16.906  27.228  1.00  0.00    -0.050 A 
HETATM   42  C1  UNL     1     -11.263  17.799  28.241  1.00  0.00     0.049 C 
HETATM   43  C3  UNL     1     -11.114  16.940  25.911  1.00  0.00     0.007 A 
HETATM   44  C4  UNL     1     -10.558  16.121  24.948  1.00  0.00     0.001 A 
HETATM   45  C5  UNL     1      -9.533  15.280  25.333  1.00  0.00     0.001 A 
HETATM   46  C6  UNL     1      -9.059  15.237  26.632  1.00  0.00     0.014 A 
ENDBRANCH  33  40
BRANCH  35  47
HETATM   47  O4  UNL     1      -9.836  14.307  32.001  1.00  0.00    -0.346 OA
ATOM     48  H4  UNL     1      -9.321  13.676  32.488  1.00  0.00     0.219 HD
ENDBRANCH  35  47
ENDBRANCH  31  32
ENDBRANCH  29  30
ENDBRANCH   1  29
TORSDOF 20
ENDMDL
MODEL 5
REMARK VINA RESULT: -7.797679561      3.005     11.409
REMARK  20 active torsions:
REMARK  status: ('A' for Active; 'I' for Inactive)
REMARK    1  A    between atoms: C7_7  and  C8_8 
REMARK    2  A    between atoms: C9_9  and  C10_10 
REMARK    3  A    between atoms: C11_11  and  C12_12 
REMARK    4  A    between atoms: C12_12  and  N1_13 
REMARK    5  A    between atoms: N2_16  and  C15_17 
REMARK    6  A    between atoms: C15_17  and  C16_18 
REMARK    7  A    between atoms: C16_18  and  C17_19 
REMARK    8  A    between atoms: C17_19  and  N3_20 
REMARK    9  A    between atoms: N3_20  and  C18_22 
REMARK   10  A    between atoms: C18_22  and  C19_23 
REMARK   11  A    between atoms: C18_22  and  N7_31 
REMARK   12  A    between atoms: C19_23  and  C20_24 
REMARK   13  A    between atoms: C20_24  and  C21_25 
REMARK   14  A    between atoms: C21_25  and  N4_26 
REMARK   15  A    between atoms: N7_31  and  C23_32 
REMARK   16  A    between atoms: C23_32  and  C24_33 
REMARK   17  A    between atoms: C24_33  and  O1_34 
REMARK   18  A    between atoms: C24_33  and  C25_36 
REMARK   19  A    between atoms: C25_36  and  O2_37 
REMARK   20  A    between atoms: C30_44  and  O4_45 
ROOT
HETATM    1  N1  UNL     1      -7.692  15.762  27.224  1.00  0.00    -0.322 N 
HETATM    2  C13 UNL     1      -7.091  16.379  28.370  1.00  0.00     0.148 C 
HETATM    3  C14 UNL     1      -6.885  17.823  28.023  1.00  0.00     0.147 C 
HETATM    4  N2  UNL     1      -6.922  17.816  26.567  1.00  0.00    -0.332 N 
HETATM    5  C26 UNL     1      -7.537  16.615  26.106  1.00  0.00     0.321 C 
HETATM    6  O3  UNL     1      -7.848  16.439  24.900  1.00  0.00    -0.247 OA
ENDROOT
BRANCH   4   7
HETATM    7  C15 UNL     1      -6.418  18.891  25.769  1.00  0.00     0.129 C 
BRANCH   7   8
HETATM    8  C16 UNL     1      -5.627  18.523  24.571  1.00  0.00     0.039 C 
BRANCH   8   9
HETATM    9  C17 UNL     1      -6.145  19.076  23.264  1.00  0.00     0.123 C 
BRANCH   9  10
HETATM   10  N3  UNL     1      -7.454  18.561  22.944  1.00  0.00    -0.369 N 
ATOM     11  H3  UNL     1      -8.195  18.656  23.638  1.00  0.00     0.161 HD
BRANCH  10  12
HETATM   12  C18 UNL     1      -7.766  17.917  21.689  1.00  0.00     0.150 C 
BRANCH  12  13
HETATM   13  C19 UNL     1      -6.717  18.180  20.616  1.00  0.00     0.093 C 
BRANCH  13  14
HETATM   14  C20 UNL     1      -6.064  16.865  20.248  1.00  0.00     0.028 C 
BRANCH  14  15
HETATM   15  C21 UNL     1      -4.579  17.048  20.064  1.00  0.00     0.122 C 
BRANCH  15  16
HETATM   16  N4  UNL     1      -3.896  16.609  21.250  1.00  0.00    -0.367 N 
HETATM   17  C22 UNL     1      -3.160  17.441  21.892  1.00  0.00     0.196 C 
HETATM   18  N5  UNL     1      -2.490  17.016  23.051  1.00  0.00    -0.067 NA
HETATM   19  N6  UNL     1      -3.009  18.779  21.455  1.00  0.00    -0.067 NA
ATOM     20  H4  UNL     1      -3.996  15.649  21.578  1.00  0.00     0.161 HD
ENDBRANCH  15  16
ENDBRANCH  14  15
ENDBRANCH  13  14
ENDBRANCH  12  13
BRANCH  12  21
HETATM   21  N7  UNL     1      -8.708  17.246  21.435  1.00  0.00    -0.406 NA
BRANCH  21  22
HETATM   22  C23 UNL     1      -9.759  16.438  21.232  1.00  0.00     0.191 C 
BRANCH  22  23
HETATM   23  C24 UNL     1     -10.415  15.840  22.477  1.00  0.00     0.193 C 
BRANCH  23  24
HETATM   24  O1  UNL     1     -10.211  16.602  23.601  1.00  0.00    -0.387 OA
ATOM     25  H1  UNL     1     -10.459  17.511  23.478  1.00  0.00     0.210 HD
ENDBRANCH  23  24
BRANCH  23  26
HETATM   26  C25 UNL     1      -9.759  14.485  22.701  1.00  0.00     0.202 C 
BRANCH  26  27
HETATM   27  O2  UNL     1      -8.379  14.658  22.694  1.00  0.00    -0.398 OA
ATOM     28  H2  UNL     1      -8.129  15.050  21.866  1.00  0.00     0.209 HD
ENDBRANCH  26  27
ENDBRANCH  23  26
ENDBRANCH  22  23
ENDBRANCH  21  22
ENDBRANCH  12  21
ENDBRANCH  10  12
ENDBRANCH   9  10
ENDBRANCH   8   9
ENDBRANCH   7   8
ENDBRANCH   4   7
BRANCH   1  29
HETATM   29  C12 UNL     1      -8.345  14.476  27.217  1.00  0.00     0.222 C 
BRANCH  29  30
HETATM   30  C11 UNL     1      -9.369  14.399  28.284  1.00  0.00    -0.081 C 
HETATM   31  C10 UNL     1     -10.221  14.336  29.139  1.00  0.00    -0.063 C 
BRANCH  31  32
HETATM   32  C9  UNL     1     -11.259  14.262  30.140  1.00  0.00     0.046 A 
HETATM   33  C8  UNL     1     -11.089  14.867  31.382  1.00  0.00     0.065 A 
HETATM   34  N8  UNL     1     -12.060  14.808  32.324  1.00  0.00    -0.330 N 
HETATM   35  C30 UNL     1     -13.195  14.149  32.031  1.00  0.00     0.148 A 
HETATM   36  C31 UNL     1     -11.826  15.455  33.595  1.00  0.00     0.158 C 
HETATM   37  C28 UNL     1     -13.404  13.531  30.803  1.00  0.00    -0.009 A 
HETATM   38  C27 UNL     1     -12.426  13.591  29.855  1.00  0.00     0.034 A 
HETATM   39  C29 UNL     1     -14.703  12.827  30.585  1.00  0.00     0.052 C 
BRANCH  33  40
HETATM   40  C7  UNL     1      -9.845  15.567  31.669  1.00  0.00    -0.002 A 
HETATM   41  C2  UNL     1      -9.608  16.815  31.133  1.00  0.00    -0.050 A 
HETATM   42  C1  UNL     1     -10.618  17.459  30.254  1.00  0.00     0.049 C 
HETATM   43  C3  UNL     1      -8.415  17.491  31.409  1.00  0.00     0.007 A 
HETATM   44  C4  UNL     1      -7.458  16.918  32.223  1.00  0.00     0.001 A 
HETATM   45  C5  UNL     1      -7.723  15.668  32.745  1.00  0.00     0.001 A 
HETATM   46  C6  UNL     1      -8.898  14.989  32.480  1.00  0.00     0.014 A 
ENDBRANCH  33  40
BRANCH  35  47
HETATM   47  O4  UNL     1     -14.166  14.108  33.020  1.00  0.00    -0.346 OA
ATOM     48  H4  UNL     1     -14.712  14.865  33.195  1.00  0.00     0.219 HD
ENDBRANCH  35  47
ENDBRANCH  31  32
ENDBRANCH  29  30
ENDBRANCH   1  29
TORSDOF 20
ENDMDL
