MODEL 1
REMARK VINA RESULT: -9.462171635      0.000      0.000
REMARK  9 active torsions:
REMARK  status: ('A' for Active; 'I' for Inactive)
REMARK    1  A    between atoms: C3_3  and  C4_4 
REMARK    2  A    between atoms: C11_13  and  C12_14 
REMARK    3  A    between atoms: C13_15  and  C14_16 
REMARK    4  A    between atoms: C17_19  and  C18_20 
REMARK    5  A    between atoms: N2_30  and  C27_31 
REMARK    6  A    between atoms: C27_31  and  O1_32 
REMARK    7  A    between atoms: C27_31  and  C28_34 
REMARK    8  A    between atoms: C28_34  and  N3_35 
REMARK    9  A    between atoms: C28_34  and  C29_39 
ROOT
HETATM    1  C1  UNL     1     -10.244   2.498 -22.491  1.00  0.00     0.112 C 
HETATM    2  C2  UNL     1      -8.834   2.674 -22.135  1.00  0.00    -0.104 C 
HETATM    3  C3  UNL     1      -7.645   2.808 -21.858  1.00  0.00    -0.049 C 
ENDROOT
BRANCH   3   4
HETATM    4  C4  UNL     1      -6.245   2.895 -21.553  1.00  0.00     0.096 A 
HETATM    5  N1  UNL     1      -5.514   1.818 -21.173  1.00  0.00    -0.348 N 
HETATM    6  C5  UNL     1      -4.235   2.187 -21.040  1.00  0.00     0.044 A 
ATOM      7  H1  UNL     1      -5.879   0.879 -21.013  1.00  0.00     0.167 HD
HETATM    8  C6  UNL     1      -3.140   1.453 -20.673  1.00  0.00     0.030 A 
HETATM    9  C10 UNL     1      -4.151   3.550 -21.348  1.00  0.00     0.002 A 
HETATM   10  C7  UNL     1      -1.898   2.041 -20.592  1.00  0.00     0.002 A 
HETATM   11  C8  UNL     1      -1.801   3.378 -20.890  1.00  0.00     0.001 A 
HETATM   12  C9  UNL     1      -2.910   4.112 -21.259  1.00  0.00     0.014 A 
HETATM   13  C11 UNL     1      -5.430   4.025 -21.679  1.00  0.00     0.014 A 
BRANCH  13  14
HETATM   14  C12 UNL     1      -5.885   5.408 -21.982  1.00  0.00     0.142 C 
HETATM   15  C13 UNL     1      -4.757   6.329 -22.320  1.00  0.00     0.109 C 
HETATM   16  S1  UNL     1      -4.652   7.558 -20.972  1.00  0.00    -0.137 SA
HETATM   17  C26 UNL     1      -5.815   6.616 -19.912  1.00  0.00     0.200 C 
HETATM   18  N2  UNL     1      -6.673   6.009 -20.947  1.00  0.00    -0.344 N 
BRANCH  15  19
HETATM   19  C14 UNL     1      -4.991   7.143 -23.569  1.00  0.00    -0.042 A 
HETATM   20  C15 UNL     1      -4.030   8.077 -23.949  1.00  0.00     0.009 A 
HETATM   21  C16 UNL     1      -4.224   8.869 -25.073  1.00  0.00     0.013 A 
HETATM   22  C17 UNL     1      -5.370   8.751 -25.843  1.00  0.00    -0.026 A 
HETATM   23  C24 UNL     1      -6.307   7.841 -25.474  1.00  0.00     0.013 A 
HETATM   24  C25 UNL     1      -6.100   7.057 -24.347  1.00  0.00     0.009 A 
BRANCH  22  25
HETATM   25  C18 UNL     1      -5.510   9.628 -27.019  1.00  0.00    -0.026 A 
HETATM   26  C19 UNL     1      -4.696   9.493 -28.111  1.00  0.00     0.012 A 
HETATM   27  C20 UNL     1      -4.841  10.311 -29.211  1.00  0.00     0.001 A 
HETATM   28  C21 UNL     1      -5.830  11.279 -29.191  1.00  0.00     0.000 A 
HETATM   29  C22 UNL     1      -6.662  11.433 -28.102  1.00  0.00     0.001 A 
HETATM   30  C23 UNL     1      -6.483  10.593 -27.022  1.00  0.00     0.012 A 
ENDBRANCH  22  25
ENDBRANCH  15  19
BRANCH  18  31
HETATM   31  C27 UNL     1      -8.043   6.188 -20.839  1.00  0.00     0.150 C 
BRANCH  31  32
HETATM   32  O1  UNL     1      -8.544   5.955 -19.628  1.00  0.00    -0.348 OA
ATOM     33  H1  UNL     1      -9.087   6.651 -19.279  1.00  0.00     0.219 HD
ENDBRANCH  31  32
BRANCH  31  34
HETATM   34  C28 UNL     1      -9.098   6.591 -21.759  1.00  0.00     0.290 C 
BRANCH  34  35
HETATM   35  N3  UNL     1      -9.475   5.697 -22.786  1.00  0.00    -0.064 N 
ATOM     36  H33 UNL     1      -9.370   4.741 -22.448  1.00  0.00     0.275 HD
ATOM     37  H32 UNL     1     -10.485   5.749 -22.916  1.00  0.00     0.275 HD
ATOM     38  H31 UNL     1      -9.020   5.780 -23.695  1.00  0.00     0.275 HD
ENDBRANCH  34  35
BRANCH  34  39
HETATM   39  C29 UNL     1      -8.849   7.944 -22.349  1.00  0.00    -0.019 A 
HETATM   40  C30 UNL     1      -7.928   8.801 -21.800  1.00  0.00     0.012 A 
HETATM   41  C31 UNL     1      -7.703  10.073 -22.341  1.00  0.00     0.033 A 
HETATM   42  C32 UNL     1      -8.439  10.450 -23.452  1.00  0.00     0.067 A 
HETATM   43  N4  UNL     1      -8.461  11.580 -24.186  1.00  0.00    -0.261 N 
HETATM   44  C34 UNL     1      -9.368   9.607 -24.018  1.00  0.00     0.017 A 
HETATM   45  O2  UNL     1      -9.330  11.477 -25.148  1.00  0.00    -0.249 OA
ATOM     46  H4  UNL     1      -7.878  12.399 -24.012  1.00  0.00     0.195 HD
HETATM   47  C33 UNL     1      -9.909  10.286 -25.083  1.00  0.00     0.181 A 
HETATM   48  C35 UNL     1      -9.554   8.376 -23.460  1.00  0.00     0.025 A 
ENDBRANCH  34  39
ENDBRANCH  31  34
ENDBRANCH  18  31
ENDBRANCH  13  14
ENDBRANCH   3   4
TORSDOF 9
ENDMDL
MODEL 2
REMARK VINA RESULT: -9.393483481      2.111      7.335
REMARK  9 active torsions:
REMARK  status: ('A' for Active; 'I' for Inactive)
REMARK    1  A    between atoms: C3_3  and  C4_4 
REMARK    2  A    between atoms: C11_13  and  C12_14 
REMARK    3  A    between atoms: C13_15  and  C14_16 
REMARK    4  A    between atoms: C17_19  and  C18_20 
REMARK    5  A    between atoms: N2_30  and  C27_31 
REMARK    6  A    between atoms: C27_31  and  O1_32 
REMARK    7  A    between atoms: C27_31  and  C28_34 
REMARK    8  A    between atoms: C28_34  and  N3_35 
REMARK    9  A    between atoms: C28_34  and  C29_39 
ROOT
HETATM    1  C1  UNL     1      -8.216   1.580 -22.015  1.00  0.00     0.112 C 
HETATM    2  C2  UNL     1      -8.465   3.010 -22.210  1.00  0.00    -0.104 C 
HETATM    3  C3  UNL     1      -8.650   4.212 -22.383  1.00  0.00    -0.049 C 
ENDROOT
BRANCH   3   4
HETATM    4  C4  UNL     1      -8.800   5.628 -22.558  1.00  0.00     0.096 A 
HETATM    5  N1  UNL     1      -9.947   6.188 -23.018  1.00  0.00    -0.348 N 
HETATM    6  C5  UNL     1      -9.820   7.519 -22.994  1.00  0.00     0.044 A 
ATOM      7  H1  UNL     1     -10.773   5.677 -23.331  1.00  0.00     0.167 HD
HETATM    8  C6  UNL     1     -10.704   8.495 -23.365  1.00  0.00     0.030 A 
HETATM    9  C10 UNL     1      -8.544   7.817 -22.501  1.00  0.00     0.002 A 
HETATM   10  C7  UNL     1     -10.363   9.825 -23.265  1.00  0.00     0.002 A 
HETATM   11  C8  UNL     1      -9.113  10.131 -22.784  1.00  0.00     0.001 A 
HETATM   12  C9  UNL     1      -8.227   9.141 -22.412  1.00  0.00     0.014 A 
HETATM   13  C11 UNL     1      -7.872   6.617 -22.216  1.00  0.00     0.014 A 
BRANCH  13  14
HETATM   14  C12 UNL     1      -6.472   6.391 -21.769  1.00  0.00     0.142 C 
HETATM   15  C13 UNL     1      -6.386   5.899 -20.359  1.00  0.00     0.109 C 
HETATM   16  S1  UNL     1      -5.597   7.226 -19.380  1.00  0.00    -0.137 SA
HETATM   17  C26 UNL     1      -5.746   8.437 -20.749  1.00  0.00     0.200 C 
HETATM   18  N2  UNL     1      -5.618   7.533 -21.908  1.00  0.00    -0.344 N 
BRANCH  15  19
HETATM   19  C14 UNL     1      -5.482   4.702 -20.188  1.00  0.00    -0.042 A 
HETATM   20  C15 UNL     1      -4.288   4.658 -20.905  1.00  0.00     0.009 A 
HETATM   21  C16 UNL     1      -3.445   3.560 -20.800  1.00  0.00     0.013 A 
HETATM   22  C17 UNL     1      -3.766   2.485 -19.986  1.00  0.00    -0.026 A 
HETATM   23  C24 UNL     1      -4.930   2.527 -19.287  1.00  0.00     0.013 A 
HETATM   24  C25 UNL     1      -5.763   3.632 -19.403  1.00  0.00     0.009 A 
BRANCH  22  25
HETATM   25  C18 UNL     1      -2.827   1.352 -19.928  1.00  0.00    -0.026 A 
HETATM   26  C19 UNL     1      -3.083   0.251 -19.156  1.00  0.00     0.012 A 
HETATM   27  C20 UNL     1      -2.203  -0.810 -19.115  1.00  0.00     0.001 A 
HETATM   28  C21 UNL     1      -1.048  -0.741 -19.874  1.00  0.00     0.000 A 
HETATM   29  C22 UNL     1      -0.769   0.358 -20.660  1.00  0.00     0.001 A 
HETATM   30  C23 UNL     1      -1.677   1.397 -20.672  1.00  0.00     0.012 A 
ENDBRANCH  22  25
ENDBRANCH  15  19
BRANCH  18  31
HETATM   31  C27 UNL     1      -4.663   7.839 -22.865  1.00  0.00     0.150 C 
BRANCH  31  32
HETATM   32  O1  UNL     1      -3.526   8.335 -22.383  1.00  0.00    -0.348 OA
ATOM     33  H1  UNL     1      -3.346   9.235 -22.629  1.00  0.00     0.219 HD
ENDBRANCH  31  32
BRANCH  31  34
HETATM   34  C28 UNL     1      -4.601   7.740 -24.318  1.00  0.00     0.290 C 
BRANCH  34  35
HETATM   35  N3  UNL     1      -3.418   8.147 -24.972  1.00  0.00    -0.064 N 
ATOM     36  H33 UNL     1      -3.581   9.051 -25.418  1.00  0.00     0.275 HD
ATOM     37  H32 UNL     1      -2.721   8.397 -24.271  1.00  0.00     0.275 HD
ATOM     38  H31 UNL     1      -2.994   7.514 -25.650  1.00  0.00     0.275 HD
ENDBRANCH  34  35
BRANCH  34  39
HETATM   39  C29 UNL     1      -5.779   8.384 -24.979  1.00  0.00    -0.019 A 
HETATM   40  C30 UNL     1      -6.784   7.632 -25.535  1.00  0.00     0.012 A 
HETATM   41  C31 UNL     1      -7.880   8.232 -26.166  1.00  0.00     0.033 A 
HETATM   42  C32 UNL     1      -7.926   9.615 -26.221  1.00  0.00     0.067 A 
HETATM   43  N4  UNL     1      -8.820  10.474 -26.750  1.00  0.00    -0.261 N 
HETATM   44  C34 UNL     1      -6.929  10.389 -25.672  1.00  0.00     0.017 A 
HETATM   45  O2  UNL     1      -8.434  11.702 -26.558  1.00  0.00    -0.249 OA
ATOM     46  H4  UNL     1      -9.676  10.200 -27.231  1.00  0.00     0.195 HD
HETATM   47  C33 UNL     1      -7.282  11.696 -25.903  1.00  0.00     0.181 A 
HETATM   48  C35 UNL     1      -5.880   9.763 -25.064  1.00  0.00     0.025 A 
ENDBRANCH  34  39
ENDBRANCH  31  34
ENDBRANCH  18  31
ENDBRANCH  13  14
ENDBRANCH   3   4
TORSDOF 9
ENDMDL
MODEL 3
REMARK VINA RESULT: -9.186729123      2.725      7.389
REMARK  9 active torsions:
REMARK  status: ('A' for Active; 'I' for Inactive)
REMARK    1  A    between atoms: C3_3  and  C4_4 
REMARK    2  A    between atoms: C11_13  and  C12_14 
REMARK    3  A    between atoms: C13_15  and  C14_16 
REMARK    4  A    between atoms: C17_19  and  C18_20 
REMARK    5  A    between atoms: N2_30  and  C27_31 
REMARK    6  A    between atoms: C27_31  and  O1_32 
REMARK    7  A    between atoms: C27_31  and  C28_34 
REMARK    8  A    between atoms: C28_34  and  N3_35 
REMARK    9  A    between atoms: C28_34  and  C29_39 
ROOT
HETATM    1  C1  UNL     1     -10.132   2.076 -22.054  1.00  0.00     0.112 C 
HETATM    2  C2  UNL     1      -9.019   3.001 -22.282  1.00  0.00    -0.104 C 
HETATM    3  C3  UNL     1      -8.102   3.792 -22.488  1.00  0.00    -0.049 C 
ENDROOT
BRANCH   3   4
HETATM    4  C4  UNL     1      -7.051   4.719 -22.798  1.00  0.00     0.096 A 
HETATM    5  N1  UNL     1      -7.192   5.695 -23.730  1.00  0.00    -0.348 N 
HETATM    6  C5  UNL     1      -6.087   6.448 -23.738  1.00  0.00     0.044 A 
ATOM      7  H1  UNL     1      -8.007   5.832 -24.327  1.00  0.00     0.167 HD
HETATM    8  C6  UNL     1      -5.768   7.536 -24.504  1.00  0.00     0.030 A 
HETATM    9  C10 UNL     1      -5.211   5.932 -22.776  1.00  0.00     0.002 A 
HETATM   10  C7  UNL     1      -4.555   8.169 -24.354  1.00  0.00     0.002 A 
HETATM   11  C8  UNL     1      -3.685   7.672 -23.414  1.00  0.00     0.001 A 
HETATM   12  C9  UNL     1      -4.014   6.574 -22.645  1.00  0.00     0.014 A 
HETATM   13  C11 UNL     1      -5.810   4.820 -22.162  1.00  0.00     0.014 A 
BRANCH  13  14
HETATM   14  C12 UNL     1      -5.258   3.873 -21.157  1.00  0.00     0.142 C 
HETATM   15  C13 UNL     1      -5.030   2.504 -21.714  1.00  0.00     0.109 C 
HETATM   16  S1  UNL     1      -6.211   1.387 -20.880  1.00  0.00    -0.137 SA
HETATM   17  C26 UNL     1      -7.139   2.786 -20.141  1.00  0.00     0.200 C 
HETATM   18  N2  UNL     1      -6.042   3.757 -19.963  1.00  0.00    -0.344 N 
BRANCH  15  19
HETATM   19  C14 UNL     1      -3.668   1.937 -21.392  1.00  0.00    -0.042 A 
HETATM   20  C15 UNL     1      -2.611   2.203 -22.260  1.00  0.00     0.009 A 
HETATM   21  C16 UNL     1      -1.351   1.673 -22.016  1.00  0.00     0.013 A 
HETATM   22  C17 UNL     1      -1.112   0.871 -20.912  1.00  0.00    -0.026 A 
HETATM   23  C24 UNL     1      -2.142   0.611 -20.066  1.00  0.00     0.013 A 
HETATM   24  C25 UNL     1      -3.397   1.148 -20.322  1.00  0.00     0.009 A 
BRANCH  22  25
HETATM   25  C18 UNL     1       0.248   0.338 -20.720  1.00  0.00    -0.026 A 
HETATM   26  C19 UNL     1       0.458  -0.933 -20.258  1.00  0.00     0.012 A 
HETATM   27  C20 UNL     1       1.735  -1.426 -20.090  1.00  0.00     0.001 A 
HETATM   28  C21 UNL     1       2.807  -0.607 -20.399  1.00  0.00     0.000 A 
HETATM   29  C22 UNL     1       2.619   0.677 -20.867  1.00  0.00     0.001 A 
HETATM   30  C23 UNL     1       1.325   1.130 -21.020  1.00  0.00     0.012 A 
ENDBRANCH  22  25
ENDBRANCH  15  19
BRANCH  18  31
HETATM   31  C27 UNL     1      -5.865   4.310 -18.705  1.00  0.00     0.150 C 
BRANCH  31  32
HETATM   32  O1  UNL     1      -5.226   3.530 -17.836  1.00  0.00    -0.348 OA
ATOM     33  H1  UNL     1      -5.626   3.478 -16.976  1.00  0.00     0.219 HD
ENDBRANCH  31  32
BRANCH  31  34
HETATM   34  C28 UNL     1      -6.215   5.583 -18.088  1.00  0.00     0.290 C 
BRANCH  34  35
HETATM   35  N3  UNL     1      -7.305   5.620 -17.191  1.00  0.00    -0.064 N 
ATOM     36  H33 UNL     1      -8.174   5.613 -17.725  1.00  0.00     0.275 HD
ATOM     37  H32 UNL     1      -7.366   4.725 -16.705  1.00  0.00     0.275 HD
ATOM     38  H31 UNL     1      -7.345   6.373 -16.503  1.00  0.00     0.275 HD
ENDBRANCH  34  35
BRANCH  34  39
HETATM   39  C29 UNL     1      -6.368   6.677 -19.097  1.00  0.00    -0.019 A 
HETATM   40  C30 UNL     1      -5.395   7.630 -19.267  1.00  0.00     0.012 A 
HETATM   41  C31 UNL     1      -5.542   8.663 -20.201  1.00  0.00     0.033 A 
HETATM   42  C32 UNL     1      -6.703   8.704 -20.954  1.00  0.00     0.067 A 
HETATM   43  N4  UNL     1      -7.139   9.551 -21.907  1.00  0.00    -0.261 N 
HETATM   44  C34 UNL     1      -7.693   7.759 -20.800  1.00  0.00     0.017 A 
HETATM   45  O2  UNL     1      -8.312   9.185 -22.335  1.00  0.00    -0.249 OA
ATOM     46  H4  UNL     1      -6.622  10.362 -22.245  1.00  0.00     0.195 HD
HETATM   47  C33 UNL     1      -8.689   8.094 -21.684  1.00  0.00     0.181 A 
HETATM   48  C35 UNL     1      -7.508   6.768 -19.879  1.00  0.00     0.025 A 
ENDBRANCH  34  39
ENDBRANCH  31  34
ENDBRANCH  18  31
ENDBRANCH  13  14
ENDBRANCH   3   4
TORSDOF 9
ENDMDL
MODEL 4
REMARK VINA RESULT: -8.672998311     10.169     14.157
REMARK  9 active torsions:
REMARK  status: ('A' for Active; 'I' for Inactive)
REMARK    1  A    between atoms: C3_3  and  C4_4 
REMARK    2  A    between atoms: C11_13  and  C12_14 
REMARK    3  A    between atoms: C13_15  and  C14_16 
REMARK    4  A    between atoms: C17_19  and  C18_20 
REMARK    5  A    between atoms: N2_30  and  C27_31 
REMARK    6  A    between atoms: C27_31  and  O1_32 
REMARK    7  A    between atoms: C27_31  and  C28_34 
REMARK    8  A    between atoms: C28_34  and  N3_35 
REMARK    9  A    between atoms: C28_34  and  C29_39 
ROOT
HETATM    1  C1  UNL     1       3.586  -4.874 -26.019  1.00  0.00     0.112 C 
HETATM    2  C2  UNL     1       3.626  -3.769 -26.980  1.00  0.00    -0.104 C 
HETATM    3  C3  UNL     1       3.635  -2.848 -27.793  1.00  0.00    -0.049 C 
ENDROOT
BRANCH   3   4
HETATM    4  C4  UNL     1       3.613  -1.816 -28.789  1.00  0.00     0.096 A 
HETATM    5  N1  UNL     1       3.514  -2.085 -30.115  1.00  0.00    -0.348 N 
HETATM    6  C5  UNL     1       3.432  -0.932 -30.787  1.00  0.00     0.044 A 
ATOM      7  H1  UNL     1       3.504  -3.016 -30.533  1.00  0.00     0.167 HD
HETATM    8  C6  UNL     1       3.325  -0.701 -32.131  1.00  0.00     0.030 A 
HETATM    9  C10 UNL     1       3.480   0.110 -29.853  1.00  0.00     0.002 A 
HETATM   10  C7  UNL     1       3.261   0.585 -32.619  1.00  0.00     0.002 A 
HETATM   11  C8  UNL     1       3.308   1.616 -31.714  1.00  0.00     0.001 A 
HETATM   12  C9  UNL     1       3.417   1.376 -30.359  1.00  0.00     0.014 A 
HETATM   13  C11 UNL     1       3.598  -0.436 -28.564  1.00  0.00     0.014 A 
BRANCH  13  14
HETATM   14  C12 UNL     1       3.783   0.243 -27.255  1.00  0.00     0.142 C 
HETATM   15  C13 UNL     1       2.767   1.312 -27.006  1.00  0.00     0.109 C 
HETATM   16  S1  UNL     1       3.660   2.906 -27.010  1.00  0.00    -0.137 SA
HETATM   17  C26 UNL     1       5.192   2.140 -27.666  1.00  0.00     0.200 C 
HETATM   18  N2  UNL     1       5.090   0.799 -27.059  1.00  0.00    -0.344 N 
BRANCH  15  19
HETATM   19  C14 UNL     1       2.123   1.232 -25.643  1.00  0.00    -0.042 A 
HETATM   20  C15 UNL     1       2.059   2.386 -24.865  1.00  0.00     0.009 A 
HETATM   21  C16 UNL     1       1.504   2.347 -23.593  1.00  0.00     0.013 A 
HETATM   22  C17 UNL     1       1.002   1.167 -23.067  1.00  0.00    -0.026 A 
HETATM   23  C24 UNL     1       1.064   0.042 -23.824  1.00  0.00     0.013 A 
HETATM   24  C25 UNL     1       1.622   0.097 -25.095  1.00  0.00     0.009 A 
BRANCH  22  25
HETATM   25  C18 UNL     1       0.433   1.199 -21.708  1.00  0.00    -0.026 A 
HETATM   26  C19 UNL     1      -0.160   0.095 -21.156  1.00  0.00     0.012 A 
HETATM   27  C20 UNL     1      -0.682   0.132 -19.881  1.00  0.00     0.001 A 
HETATM   28  C21 UNL     1      -0.595   1.312 -19.163  1.00  0.00     0.000 A 
HETATM   29  C22 UNL     1      -0.002   2.436 -19.698  1.00  0.00     0.001 A 
HETATM   30  C23 UNL     1       0.508   2.356 -20.978  1.00  0.00     0.012 A 
ENDBRANCH  22  25
ENDBRANCH  15  19
BRANCH  18  31
HETATM   31  C27 UNL     1       6.173   0.334 -26.331  1.00  0.00     0.150 C 
BRANCH  31  32
HETATM   32  O1  UNL     1       7.214   1.163 -26.284  1.00  0.00    -0.348 OA
ATOM     33  H1  UNL     1       8.055   0.757 -26.455  1.00  0.00     0.219 HD
ENDBRANCH  31  32
BRANCH  31  34
HETATM   34  C28 UNL     1       6.452  -0.879 -25.574  1.00  0.00     0.290 C 
BRANCH  34  35
HETATM   35  N3  UNL     1       6.488  -2.111 -26.263  1.00  0.00    -0.064 N 
ATOM     36  H33 UNL     1       5.543  -2.349 -26.566  1.00  0.00     0.275 HD
ATOM     37  H32 UNL     1       6.953  -1.976 -27.160  1.00  0.00     0.275 HD
ATOM     38  H31 UNL     1       6.899  -2.920 -25.795  1.00  0.00     0.275 HD
ENDBRANCH  34  35
BRANCH  34  39
HETATM   39  C29 UNL     1       5.571  -1.011 -24.371  1.00  0.00    -0.019 A 
HETATM   40  C30 UNL     1       4.917  -2.185 -24.092  1.00  0.00     0.012 A 
HETATM   41  C31 UNL     1       4.081  -2.306 -22.975  1.00  0.00     0.033 A 
HETATM   42  C32 UNL     1       3.925  -1.203 -22.153  1.00  0.00     0.067 A 
HETATM   43  N4  UNL     1       3.205  -1.000 -21.032  1.00  0.00    -0.261 N 
HETATM   44  C34 UNL     1       4.570  -0.015 -22.414  1.00  0.00     0.017 A 
HETATM   45  O2  UNL     1       3.370   0.218 -20.603  1.00  0.00    -0.249 OA
ATOM     46  H4  UNL     1       2.615  -1.700 -20.584  1.00  0.00     0.195 HD
HETATM   47  C33 UNL     1       4.197   0.856 -21.419  1.00  0.00     0.181 A 
HETATM   48  C35 UNL     1       5.377   0.059 -23.513  1.00  0.00     0.025 A 
ENDBRANCH  34  39
ENDBRANCH  31  34
ENDBRANCH  18  31
ENDBRANCH  13  14
ENDBRANCH   3   4
TORSDOF 9
ENDMDL
MODEL 5
REMARK VINA RESULT: -8.553352092     10.192     14.049
REMARK  9 active torsions:
REMARK  status: ('A' for Active; 'I' for Inactive)
REMARK    1  A    between atoms: C3_3  and  C4_4 
REMARK    2  A    between atoms: C11_13  and  C12_14 
REMARK    3  A    between atoms: C13_15  and  C14_16 
REMARK    4  A    between atoms: C17_19  and  C18_20 
REMARK    5  A    between atoms: N2_30  and  C27_31 
REMARK    6  A    between atoms: C27_31  and  O1_32 
REMARK    7  A    between atoms: C27_31  and  C28_34 
REMARK    8  A    between atoms: C28_34  and  N3_35 
REMARK    9  A    between atoms: C28_34  and  C29_39 
ROOT
HETATM    1  C1  UNL     1       3.571  -4.769 -25.711  1.00  0.00     0.112 C 
HETATM    2  C2  UNL     1       3.616  -3.713 -26.725  1.00  0.00    -0.104 C 
HETATM    3  C3  UNL     1       3.626  -2.825 -27.573  1.00  0.00    -0.049 C 
ENDROOT
BRANCH   3   4
HETATM    4  C4  UNL     1       3.579  -1.815 -28.592  1.00  0.00     0.096 A 
HETATM    5  N1  UNL     1       3.481  -2.116 -29.911  1.00  0.00    -0.348 N 
HETATM    6  C5  UNL     1       3.373  -0.979 -30.607  1.00  0.00     0.044 A 
ATOM      7  H1  UNL     1       3.488  -3.055 -30.308  1.00  0.00     0.167 HD
HETATM    8  C6  UNL     1       3.255  -0.780 -31.956  1.00  0.00     0.030 A 
HETATM    9  C10 UNL     1       3.403   0.084 -29.697  1.00  0.00     0.002 A 
HETATM   10  C7  UNL     1       3.163   0.494 -32.471  1.00  0.00     0.002 A 
HETATM   11  C8  UNL     1       3.194   1.546 -31.589  1.00  0.00     0.001 A 
HETATM   12  C9  UNL     1       3.312   1.337 -30.230  1.00  0.00     0.014 A 
HETATM   13  C11 UNL     1       3.537  -0.431 -28.397  1.00  0.00     0.014 A 
BRANCH  13  14
HETATM   14  C12 UNL     1       3.714   0.280 -27.103  1.00  0.00     0.142 C 
HETATM   15  C13 UNL     1       2.693   1.351 -26.886  1.00  0.00     0.109 C 
HETATM   16  S1  UNL     1       3.581   2.947 -26.924  1.00  0.00    -0.137 SA
HETATM   17  C26 UNL     1       5.118   2.171 -27.553  1.00  0.00     0.200 C 
HETATM   18  N2  UNL     1       5.017   0.845 -26.915  1.00  0.00    -0.344 N 
BRANCH  15  19
HETATM   19  C14 UNL     1       2.042   1.302 -25.524  1.00  0.00    -0.042 A 
HETATM   20  C15 UNL     1       2.129   2.423 -24.701  1.00  0.00     0.009 A 
HETATM   21  C16 UNL     1       1.572   2.406 -23.429  1.00  0.00     0.013 A 
HETATM   22  C17 UNL     1       0.920   1.282 -22.948  1.00  0.00    -0.026 A 
HETATM   23  C24 UNL     1       0.835   0.189 -23.750  1.00  0.00     0.013 A 
HETATM   24  C25 UNL     1       1.397   0.221 -25.019  1.00  0.00     0.009 A 
BRANCH  22  25
HETATM   25  C18 UNL     1       0.358   1.334 -21.587  1.00  0.00    -0.026 A 
HETATM   26  C19 UNL     1       0.567   2.412 -20.769  1.00  0.00     0.012 A 
HETATM   27  C20 UNL     1       0.029   2.457 -19.500  1.00  0.00     0.001 A 
HETATM   28  C21 UNL     1      -0.730   1.384 -19.064  1.00  0.00     0.000 A 
HETATM   29  C22 UNL     1      -0.954   0.288 -19.871  1.00  0.00     0.001 A 
HETATM   30  C23 UNL     1      -0.398   0.285 -21.134  1.00  0.00     0.012 A 
ENDBRANCH  22  25
ENDBRANCH  15  19
BRANCH  18  31
HETATM   31  C27 UNL     1       6.098   0.401 -26.170  1.00  0.00     0.150 C 
BRANCH  31  32
HETATM   32  O1  UNL     1       7.192   1.153 -26.268  1.00  0.00    -0.348 OA
ATOM     33  H1  UNL     1       7.993   0.732 -25.980  1.00  0.00     0.219 HD
ENDBRANCH  31  32
BRANCH  31  34
HETATM   34  C28 UNL     1       6.330  -0.723 -25.272  1.00  0.00     0.290 C 
BRANCH  34  35
HETATM   35  N3  UNL     1       6.367  -2.026 -25.816  1.00  0.00    -0.064 N 
ATOM     36  H33 UNL     1       5.815  -2.647 -25.224  1.00  0.00     0.275 HD
ATOM     37  H32 UNL     1       5.821  -2.040 -26.678  1.00  0.00     0.275 HD
ATOM     38  H31 UNL     1       7.275  -2.455 -25.992  1.00  0.00     0.275 HD
ENDBRANCH  34  35
BRANCH  34  39
HETATM   39  C29 UNL     1       5.407  -0.705 -24.094  1.00  0.00    -0.019 A 
HETATM   40  C30 UNL     1       5.329   0.386 -23.266  1.00  0.00     0.012 A 
HETATM   41  C31 UNL     1       4.477   0.399 -22.155  1.00  0.00     0.033 A 
HETATM   42  C32 UNL     1       3.707  -0.725 -21.908  1.00  0.00     0.067 A 
HETATM   43  N4  UNL     1       2.815  -1.021 -20.943  1.00  0.00    -0.261 N 
HETATM   44  C34 UNL     1       3.769  -1.831 -22.725  1.00  0.00     0.017 A 
HETATM   45  O2  UNL     1       2.337  -2.219 -21.120  1.00  0.00    -0.249 OA
ATOM     46  H4  UNL     1       2.551  -0.396 -20.182  1.00  0.00     0.195 HD
HETATM   47  C33 UNL     1       2.894  -2.751 -22.199  1.00  0.00     0.181 A 
HETATM   48  C35 UNL     1       4.613  -1.801 -23.798  1.00  0.00     0.025 A 
ENDBRANCH  34  39
ENDBRANCH  31  34
ENDBRANCH  18  31
ENDBRANCH  13  14
ENDBRANCH   3   4
TORSDOF 9
ENDMDL
