MODEL 1
REMARK VINA RESULT: -5.998964702      0.000      0.000
REMARK  6 active torsions:
REMARK  status: ('A' for Active; 'I' for Inactive)
REMARK    1  A    between atoms: C2_2  and  C3_3 
REMARK    2  A    between atoms: C3_3  and  C4_4 
REMARK    3  A    between atoms: C4_4  and  C5_5 
REMARK    4  A    between atoms: C5_5  and  N1_6 
REMARK    5  A    between atoms: N1_6  and  C6_8 
REMARK    6  A    between atoms: C8_17  and  N5_18 
ROOT
HETATM    1  C6  UNL     1      -2.770  31.361  -6.960  1.00  0.00     0.707 A 
HETATM    2  N2  UNL     1      -2.709  30.302  -6.132  1.00  0.00    -0.022 N 
ATOM      3  H2  UNL     1      -2.059  29.549  -6.355  1.00  0.00     0.203 HD
HETATM    4  C7  UNL     1      -3.463  30.186  -5.023  1.00  0.00     0.705 A 
HETATM    5  N3  UNL     1      -3.372  29.154  -4.257  1.00  0.00    -0.234 N 
ATOM      6  H31 UNL     1      -3.943  29.066  -3.416  1.00  0.00     0.174 HD
ATOM      7  H32 UNL     1      -2.728  28.389  -4.459  1.00  0.00     0.174 HD
HETATM    8  N4  UNL     1      -4.326  31.211  -4.753  1.00  0.00    -0.022 N 
ATOM      9  H4  UNL     1      -4.915  31.159  -3.922  1.00  0.00     0.203 HD
HETATM   10  C8  UNL     1      -4.417  32.275  -5.546  1.00  0.00     0.706 A 
HETATM   11  N6  UNL     1      -3.649  32.352  -6.639  1.00  0.00    -0.022 N 
ATOM     12  H6  UNL     1      -3.723  33.170  -7.244  1.00  0.00     0.203 HD
ENDROOT
BRANCH   1  13
HETATM   13  N1  UNL     1      -2.067  31.484  -8.006  1.00  0.00    -0.225 N 
ATOM     14  H1  UNL     1      -1.905  30.644  -8.563  1.00  0.00     0.177 HD
BRANCH  13  15
HETATM   15  C5  UNL     1      -1.479  32.709  -8.472  1.00  0.00     0.138 C 
BRANCH  15  16
HETATM   16  C4  UNL     1      -1.443  32.683  -9.984  1.00  0.00     0.020 C 
BRANCH  16  17
HETATM   17  C3  UNL     1      -1.032  31.325 -10.511  1.00  0.00     0.001 C 
BRANCH  17  18
HETATM   18  C2  UNL     1      -1.887  31.028 -11.712  1.00  0.00    -0.004 C 
HETATM   19  C1  UNL     1      -3.358  31.175 -11.450  1.00  0.00     0.005 C 
ENDBRANCH  17  18
ENDBRANCH  16  17
ENDBRANCH  15  16
ENDBRANCH  13  15
ENDBRANCH   1  13
BRANCH  10  20
HETATM   20  N5  UNL     1      -5.229  33.222  -5.276  1.00  0.00    -0.229 N 
HETATM   21  C9  UNL     1      -4.893  34.587  -5.612  1.00  0.00     0.165 C 
ATOM     22  H5  UNL     1      -6.118  33.014  -4.821  1.00  0.00     0.177 HD
ENDBRANCH  10  20
TORSDOF 6
ENDMDL
MODEL 2
REMARK VINA RESULT: -5.891219278      0.611      2.624
REMARK  6 active torsions:
REMARK  status: ('A' for Active; 'I' for Inactive)
REMARK    1  A    between atoms: C2_2  and  C3_3 
REMARK    2  A    between atoms: C3_3  and  C4_4 
REMARK    3  A    between atoms: C4_4  and  C5_5 
REMARK    4  A    between atoms: C5_5  and  N1_6 
REMARK    5  A    between atoms: N1_6  and  C6_8 
REMARK    6  A    between atoms: C8_17  and  N5_18 
ROOT
HETATM    1  C6  UNL     1      -2.801  31.470  -7.048  1.00  0.00     0.707 A 
HETATM    2  N2  UNL     1      -3.713  32.416  -6.759  1.00  0.00    -0.022 N 
ATOM      3  H2  UNL     1      -3.821  33.198  -7.404  1.00  0.00     0.203 HD
HETATM    4  C7  UNL     1      -4.491  32.383  -5.661  1.00  0.00     0.705 A 
HETATM    5  N3  UNL     1      -5.353  33.311  -5.423  1.00  0.00    -0.234 N 
ATOM      6  H31 UNL     1      -5.942  33.285  -4.591  1.00  0.00     0.174 HD
ATOM      7  H32 UNL     1      -5.480  34.102  -6.054  1.00  0.00     0.174 HD
HETATM    8  N4  UNL     1      -4.320  31.323  -4.815  1.00  0.00    -0.022 N 
ATOM      9  H4  UNL     1      -4.890  31.263  -3.971  1.00  0.00     0.203 HD
HETATM   10  C8  UNL     1      -3.429  30.367  -5.064  1.00  0.00     0.706 A 
HETATM   11  N6  UNL     1      -2.676  30.437  -6.168  1.00  0.00    -0.022 N 
ATOM     12  H6  UNL     1      -1.994  29.701  -6.354  1.00  0.00     0.203 HD
ENDROOT
BRANCH   1  13
HETATM   13  N1  UNL     1      -2.064  31.488  -8.077  1.00  0.00    -0.225 N 
ATOM     14  H1  UNL     1      -1.908  30.602  -8.558  1.00  0.00     0.177 HD
BRANCH  13  15
HETATM   15  C5  UNL     1      -1.429  32.656  -8.623  1.00  0.00     0.138 C 
BRANCH  15  16
HETATM   16  C4  UNL     1      -1.525  32.598 -10.131  1.00  0.00     0.020 C 
BRANCH  16  17
HETATM   17  C3  UNL     1      -1.057  31.263 -10.671  1.00  0.00     0.001 C 
BRANCH  17  18
HETATM   18  C2  UNL     1      -1.960  30.897 -11.816  1.00  0.00    -0.004 C 
HETATM   19  C1  UNL     1      -3.416  31.113 -11.523  1.00  0.00     0.005 C 
ENDBRANCH  17  18
ENDBRANCH  16  17
ENDBRANCH  15  16
ENDBRANCH  13  15
ENDBRANCH   1  13
BRANCH  10  20
HETATM   20  N5  UNL     1      -3.286  29.385  -4.262  1.00  0.00    -0.229 N 
HETATM   21  C9  UNL     1      -2.266  29.425  -3.237  1.00  0.00     0.165 C 
ATOM     22  H5  UNL     1      -3.892  28.569  -4.344  1.00  0.00     0.177 HD
ENDBRANCH  10  20
TORSDOF 6
ENDMDL
MODEL 3
REMARK VINA RESULT: -5.840528351      1.145      2.957
REMARK  6 active torsions:
REMARK  status: ('A' for Active; 'I' for Inactive)
REMARK    1  A    between atoms: C2_2  and  C3_3 
REMARK    2  A    between atoms: C3_3  and  C4_4 
REMARK    3  A    between atoms: C4_4  and  C5_5 
REMARK    4  A    between atoms: C5_5  and  N1_6 
REMARK    5  A    between atoms: N1_6  and  C6_8 
REMARK    6  A    between atoms: C8_17  and  N5_18 
ROOT
HETATM    1  C6  UNL     1      -2.892  31.306  -7.069  1.00  0.00     0.707 A 
HETATM    2  N2  UNL     1      -3.755  32.300  -6.786  1.00  0.00    -0.022 N 
ATOM      3  H2  UNL     1      -3.869  33.050  -7.467  1.00  0.00     0.203 HD
HETATM    4  C7  UNL     1      -4.475  32.353  -5.651  1.00  0.00     0.705 A 
HETATM    5  N3  UNL     1      -5.291  33.324  -5.421  1.00  0.00    -0.234 N 
ATOM      6  H31 UNL     1      -5.837  33.364  -4.560  1.00  0.00     0.174 HD
ATOM      7  H32 UNL     1      -5.423  34.085  -6.088  1.00  0.00     0.174 HD
HETATM    8  N4  UNL     1      -4.297  31.334  -4.757  1.00  0.00    -0.022 N 
ATOM      9  H4  UNL     1      -4.824  31.340  -3.884  1.00  0.00     0.203 HD
HETATM   10  C8  UNL     1      -3.453  30.334  -4.998  1.00  0.00     0.706 A 
HETATM   11  N6  UNL     1      -2.757  30.318  -6.141  1.00  0.00    -0.022 N 
ATOM     12  H6  UNL     1      -2.111  29.548  -6.320  1.00  0.00     0.203 HD
ENDROOT
BRANCH   1  13
HETATM   13  N1  UNL     1      -2.209  31.243  -8.133  1.00  0.00    -0.225 N 
ATOM     14  H1  UNL     1      -1.387  31.843  -8.199  1.00  0.00     0.177 HD
BRANCH  13  15
HETATM   15  C5  UNL     1      -2.497  30.392  -9.255  1.00  0.00     0.138 C 
BRANCH  15  16
HETATM   16  C4  UNL     1      -3.316  31.176 -10.257  1.00  0.00     0.020 C 
BRANCH  16  17
HETATM   17  C3  UNL     1      -2.899  30.871 -11.680  1.00  0.00     0.001 C 
BRANCH  17  18
HETATM   18  C2  UNL     1      -1.400  30.972 -11.744  1.00  0.00    -0.004 C 
HETATM   19  C1  UNL     1      -0.799  30.226 -12.900  1.00  0.00     0.005 C 
ENDBRANCH  17  18
ENDBRANCH  16  17
ENDBRANCH  15  16
ENDBRANCH  13  15
ENDBRANCH   1  13
BRANCH  10  20
HETATM   20  N5  UNL     1      -3.302  29.391  -4.152  1.00  0.00    -0.229 N 
HETATM   21  C9  UNL     1      -2.227  29.445  -3.186  1.00  0.00     0.165 C 
ATOM     22  H5  UNL     1      -3.942  28.597  -4.156  1.00  0.00     0.177 HD
ENDBRANCH  10  20
TORSDOF 6
ENDMDL
MODEL 4
REMARK VINA RESULT: -5.665928675      1.070      1.317
REMARK  6 active torsions:
REMARK  status: ('A' for Active; 'I' for Inactive)
REMARK    1  A    between atoms: C2_2  and  C3_3 
REMARK    2  A    between atoms: C3_3  and  C4_4 
REMARK    3  A    between atoms: C4_4  and  C5_5 
REMARK    4  A    between atoms: C5_5  and  N1_6 
REMARK    5  A    between atoms: N1_6  and  C6_8 
REMARK    6  A    between atoms: C8_17  and  N5_18 
ROOT
HETATM    1  C6  UNL     1      -2.927  31.179  -6.785  1.00  0.00     0.707 A 
HETATM    2  N2  UNL     1      -2.875  30.235  -5.828  1.00  0.00    -0.022 N 
ATOM      3  H2  UNL     1      -2.264  29.432  -5.972  1.00  0.00     0.203 HD
HETATM    4  C7  UNL     1      -3.590  30.296  -4.689  1.00  0.00     0.705 A 
HETATM    5  N3  UNL     1      -3.509  29.369  -3.797  1.00  0.00    -0.234 N 
ATOM      6  H31 UNL     1      -4.050  29.416  -2.934  1.00  0.00     0.174 HD
ATOM      7  H32 UNL     1      -2.903  28.557  -3.919  1.00  0.00     0.174 HD
HETATM    8  N4  UNL     1      -4.402  31.384  -4.526  1.00  0.00    -0.022 N 
ATOM      9  H4  UNL     1      -4.960  31.465  -3.677  1.00  0.00     0.203 HD
HETATM   10  C8  UNL     1      -4.482  32.339  -5.448  1.00  0.00     0.706 A 
HETATM   11  N6  UNL     1      -3.754  32.240  -6.567  1.00  0.00    -0.022 N 
ATOM     12  H6  UNL     1      -3.820  32.976  -7.271  1.00  0.00     0.203 HD
ENDROOT
BRANCH   1  13
HETATM   13  N1  UNL     1      -2.261  31.135  -7.861  1.00  0.00    -0.225 N 
ATOM     14  H1  UNL     1      -2.757  31.337  -8.729  1.00  0.00     0.177 HD
BRANCH  13  15
HETATM   15  C5  UNL     1      -0.862  30.824  -7.957  1.00  0.00     0.138 C 
BRANCH  15  16
HETATM   16  C4  UNL     1      -0.669  29.798  -9.053  1.00  0.00     0.020 C 
BRANCH  16  17
HETATM   17  C3  UNL     1       0.043  30.388 -10.252  1.00  0.00     0.001 C 
BRANCH  17  18
HETATM   18  C2  UNL     1      -1.006  30.941 -11.175  1.00  0.00    -0.004 C 
HETATM   19  C1  UNL     1      -0.914  30.405 -12.575  1.00  0.00     0.005 C 
ENDBRANCH  17  18
ENDBRANCH  16  17
ENDBRANCH  15  16
ENDBRANCH  13  15
ENDBRANCH   1  13
BRANCH  10  20
HETATM   20  N5  UNL     1      -5.245  33.347  -5.278  1.00  0.00    -0.229 N 
HETATM   21  C9  UNL     1      -4.902  34.627  -5.856  1.00  0.00     0.165 C 
ATOM     22  H5  UNL     1      -6.101  33.249  -4.731  1.00  0.00     0.177 HD
ENDBRANCH  10  20
TORSDOF 6
ENDMDL
MODEL 5
REMARK VINA RESULT: -5.653342913      2.411      2.838
REMARK  6 active torsions:
REMARK  status: ('A' for Active; 'I' for Inactive)
REMARK    1  A    between atoms: C2_2  and  C3_3 
REMARK    2  A    between atoms: C3_3  and  C4_4 
REMARK    3  A    between atoms: C4_4  and  C5_5 
REMARK    4  A    between atoms: C5_5  and  N1_6 
REMARK    5  A    between atoms: N1_6  and  C6_8 
REMARK    6  A    between atoms: C8_17  and  N5_18 
ROOT
HETATM    1  C6  UNL     1      -1.592  29.826  -7.584  1.00  0.00     0.707 A 
HETATM    2  N2  UNL     1      -2.596  29.300  -6.859  1.00  0.00    -0.022 N 
ATOM      3  H2  UNL     1      -3.197  28.602  -7.297  1.00  0.00     0.203 HD
HETATM    4  C7  UNL     1      -2.848  29.648  -5.583  1.00  0.00     0.705 A 
HETATM    5  N3  UNL     1      -3.821  29.118  -4.925  1.00  0.00    -0.234 N 
ATOM      6  H31 UNL     1      -4.012  29.381  -3.958  1.00  0.00     0.174 HD
ATOM      7  H32 UNL     1      -4.434  28.417  -5.342  1.00  0.00     0.174 HD
HETATM    8  N4  UNL     1      -2.026  30.587  -5.025  1.00  0.00    -0.022 N 
ATOM      9  H4  UNL     1      -2.187  30.877  -4.060  1.00  0.00     0.203 HD
HETATM   10  C8  UNL     1      -1.024  31.131  -5.708  1.00  0.00     0.706 A 
HETATM   11  N6  UNL     1      -0.806  30.757  -6.974  1.00  0.00    -0.022 N 
ATOM     12  H6  UNL     1      -0.035  31.178  -7.493  1.00  0.00     0.203 HD
ENDROOT
BRANCH   1  13
HETATM   13  N1  UNL     1      -1.342  29.508  -8.784  1.00  0.00    -0.225 N 
ATOM     14  H1  UNL     1      -1.866  28.727  -9.180  1.00  0.00     0.177 HD
BRANCH  13  15
HETATM   15  C5  UNL     1      -0.383  30.157  -9.632  1.00  0.00     0.138 C 
BRANCH  15  16
HETATM   16  C4  UNL     1      -1.070  30.562 -10.918  1.00  0.00     0.020 C 
BRANCH  16  17
HETATM   17  C3  UNL     1      -1.911  31.808 -10.735  1.00  0.00     0.001 C 
BRANCH  17  18
HETATM   18  C2  UNL     1      -3.306  31.482 -11.191  1.00  0.00    -0.004 C 
HETATM   19  C1  UNL     1      -3.411  30.163 -11.900  1.00  0.00     0.005 C 
ENDBRANCH  17  18
ENDBRANCH  16  17
ENDBRANCH  15  16
ENDBRANCH  13  15
ENDBRANCH   1  13
BRANCH  10  20
HETATM   20  N5  UNL     1      -0.267  32.006  -5.168  1.00  0.00    -0.229 N 
HETATM   21  C9  UNL     1      -0.052  32.001  -3.738  1.00  0.00     0.165 C 
ATOM     22  H5  UNL     1       0.187  32.712  -5.748  1.00  0.00     0.177 HD
ENDBRANCH  10  20
TORSDOF 6
ENDMDL
