MODEL 1
REMARK VINA RESULT: -6.470319088      0.000      0.000
REMARK  5 active torsions:
REMARK  status: ('A' for Active; 'I' for Inactive)
REMARK    1  A    between atoms: N1_1  and  C1_4 
REMARK    2  A    between atoms: C3_11  and  C4_12 
REMARK    3  A    between atoms: C4_12  and  C5_13 
REMARK    4  A    between atoms: C5_13  and  C6_14 
REMARK    5  A    between atoms: C6_14  and  N5_15 
ROOT
HETATM    1  C1  UNL     1      -3.581  30.211  -4.602  1.00  0.00     0.123 A 
HETATM    2  N2  UNL     1      -4.627  30.881  -4.128  1.00  0.00    -0.284 N 
ATOM      3  H2  UNL     1      -5.243  30.538  -3.391  1.00  0.00     0.188 HD
HETATM    4  N3  UNL     1      -4.768  32.050  -4.733  1.00  0.00    -0.286 N 
ATOM      5  H3  UNL     1      -5.490  32.746  -4.550  1.00  0.00     0.188 HD
HETATM    6  C2  UNL     1      -3.766  32.144  -5.645  1.00  0.00     0.140 A 
HETATM    7  N4  UNL     1      -3.502  33.225  -6.550  1.00  0.00    -0.081 NA
HETATM    8  C3  UNL     1      -2.990  31.020  -5.607  1.00  0.00     0.029 A 
ENDROOT
BRANCH   8   9
HETATM    9  C4  UNL     1      -1.816  30.569  -6.322  1.00  0.00     0.048 C 
BRANCH   9  10
HETATM   10  C5  UNL     1      -1.997  29.986  -7.686  1.00  0.00     0.035 C 
BRANCH  10  11
HETATM   11  C6  UNL     1      -1.114  30.894  -8.588  1.00  0.00     0.272 C 
BRANCH  11  12
HETATM   12  N5  UNL     1      -1.969  31.789  -9.338  1.00  0.00     0.088 N 
HETATM   13  C7  UNL     1      -1.312  32.130 -10.580  1.00  0.00     0.272 C 
HETATM   14  C8  UNL     1      -1.115  30.950 -11.483  1.00  0.00     0.030 C 
HETATM   15  C9  UNL     1      -2.456  30.368 -11.929  1.00  0.00     0.003 C 
HETATM   16  C10 UNL     1      -3.520  31.095 -11.135  1.00  0.00     0.030 C 
HETATM   17  C11 UNL     1      -3.234  31.132  -9.667  1.00  0.00     0.272 C 
ENDBRANCH  11  12
ENDBRANCH  10  11
ENDBRANCH   9  10
ENDBRANCH   8   9
BRANCH   1  18
HETATM   18  N1  UNL     1      -3.169  29.061  -4.239  1.00  0.00    -0.384 N 
ATOM     19  H12 UNL     1      -3.545  28.168  -4.558  1.00  0.00     0.157 HD
ATOM     20  H11 UNL     1      -2.414  28.850  -3.586  1.00  0.00     0.157 HD
ENDBRANCH   1  18
TORSDOF 5
ENDMDL
MODEL 2
REMARK VINA RESULT: -6.372944196      0.777      1.481
REMARK  5 active torsions:
REMARK  status: ('A' for Active; 'I' for Inactive)
REMARK    1  A    between atoms: N1_1  and  C1_4 
REMARK    2  A    between atoms: C3_11  and  C4_12 
REMARK    3  A    between atoms: C4_12  and  C5_13 
REMARK    4  A    between atoms: C5_13  and  C6_14 
REMARK    5  A    between atoms: C6_14  and  N5_15 
ROOT
HETATM    1  C1  UNL     1      -3.622  30.320  -4.428  1.00  0.00     0.123 A 
HETATM    2  N2  UNL     1      -4.722  30.988  -4.094  1.00  0.00    -0.284 N 
ATOM      3  H2  UNL     1      -5.381  30.686  -3.377  1.00  0.00     0.188 HD
HETATM    4  N3  UNL     1      -4.852  32.094  -4.808  1.00  0.00    -0.286 N 
ATOM      5  H3  UNL     1      -5.607  32.776  -4.741  1.00  0.00     0.188 HD
HETATM    6  C2  UNL     1      -3.786  32.148  -5.649  1.00  0.00     0.140 A 
HETATM    7  N4  UNL     1      -3.488  33.156  -6.624  1.00  0.00    -0.081 NA
HETATM    8  C3  UNL     1      -2.981  31.061  -5.455  1.00  0.00     0.029 A 
ENDROOT
BRANCH   8   9
HETATM    9  C4  UNL     1      -1.743  30.594  -6.040  1.00  0.00     0.048 C 
BRANCH   9  10
HETATM   10  C5  UNL     1      -1.816  29.672  -7.212  1.00  0.00     0.035 C 
BRANCH  10  11
HETATM   11  C6  UNL     1      -1.555  30.608  -8.426  1.00  0.00     0.272 C 
BRANCH  11  12
HETATM   12  N5  UNL     1      -1.633  29.832  -9.645  1.00  0.00     0.088 N 
HETATM   13  C7  UNL     1      -3.022  29.557  -9.936  1.00  0.00     0.272 C 
HETATM   14  C8  UNL     1      -3.817  30.795 -10.223  1.00  0.00     0.030 C 
HETATM   15  C9  UNL     1      -3.312  31.492 -11.487  1.00  0.00     0.003 C 
HETATM   16  C10 UNL     1      -2.049  30.766 -11.896  1.00  0.00     0.030 C 
HETATM   17  C11 UNL     1      -1.082  30.589 -10.770  1.00  0.00     0.272 C 
ENDBRANCH  11  12
ENDBRANCH  10  11
ENDBRANCH   9  10
ENDBRANCH   8   9
BRANCH   1  18
HETATM   18  N1  UNL     1      -3.203  29.221  -3.936  1.00  0.00    -0.384 N 
ATOM     19  H12 UNL     1      -3.232  28.314  -4.401  1.00  0.00     0.157 HD
ATOM     20  H11 UNL     1      -2.783  29.073  -3.019  1.00  0.00     0.157 HD
ENDBRANCH   1  18
TORSDOF 5
ENDMDL
MODEL 3
REMARK VINA RESULT: -6.316839788      1.267      2.408
REMARK  5 active torsions:
REMARK  status: ('A' for Active; 'I' for Inactive)
REMARK    1  A    between atoms: N1_1  and  C1_4 
REMARK    2  A    between atoms: C3_11  and  C4_12 
REMARK    3  A    between atoms: C4_12  and  C5_13 
REMARK    4  A    between atoms: C5_13  and  C6_14 
REMARK    5  A    between atoms: C6_14  and  N5_15 
ROOT
HETATM    1  C1  UNL     1      -3.872  31.931  -4.756  1.00  0.00     0.123 A 
HETATM    2  N2  UNL     1      -4.626  30.944  -4.283  1.00  0.00    -0.284 N 
ATOM      3  H2  UNL     1      -5.494  31.081  -3.766  1.00  0.00     0.188 HD
HETATM    4  N3  UNL     1      -4.107  29.760  -4.567  1.00  0.00    -0.286 N 
ATOM      5  H3  UNL     1      -4.494  28.850  -4.316  1.00  0.00     0.188 HD
HETATM    6  C2  UNL     1      -2.959  29.988  -5.258  1.00  0.00     0.140 A 
HETATM    7  N4  UNL     1      -2.040  29.017  -5.778  1.00  0.00    -0.081 NA
HETATM    8  C3  UNL     1      -2.762  31.332  -5.407  1.00  0.00     0.029 A 
ENDROOT
BRANCH   8   9
HETATM    9  C4  UNL     1      -1.745  32.147  -6.035  1.00  0.00     0.048 C 
BRANCH   9  10
HETATM   10  C5  UNL     1      -2.081  32.836  -7.317  1.00  0.00     0.035 C 
BRANCH  10  11
HETATM   11  C6  UNL     1      -2.846  31.749  -8.123  1.00  0.00     0.272 C 
BRANCH  11  12
HETATM   12  N5  UNL     1      -1.903  31.012  -8.936  1.00  0.00     0.088 N 
HETATM   13  C7  UNL     1      -2.577  29.870  -9.514  1.00  0.00     0.272 C 
HETATM   14  C8  UNL     1      -3.674  30.254 -10.460  1.00  0.00     0.030 C 
HETATM   15  C9  UNL     1      -3.117  30.999 -11.673  1.00  0.00     0.003 C 
HETATM   16  C10 UNL     1      -1.652  31.248 -11.384  1.00  0.00     0.030 C 
HETATM   17  C11 UNL     1      -1.414  31.844 -10.034  1.00  0.00     0.272 C 
ENDBRANCH  11  12
ENDBRANCH  10  11
ENDBRANCH   9  10
ENDBRANCH   8   9
BRANCH   1  18
HETATM   18  N1  UNL     1      -4.084  33.184  -4.657  1.00  0.00    -0.384 N 
ATOM     19  H12 UNL     1      -4.879  33.684  -5.055  1.00  0.00     0.157 HD
ATOM     20  H11 UNL     1      -3.508  33.874  -4.175  1.00  0.00     0.157 HD
ENDBRANCH   1  18
TORSDOF 5
ENDMDL
MODEL 4
REMARK VINA RESULT: -6.298888314      0.948      2.428
REMARK  5 active torsions:
REMARK  status: ('A' for Active; 'I' for Inactive)
REMARK    1  A    between atoms: N1_1  and  C1_4 
REMARK    2  A    between atoms: C3_11  and  C4_12 
REMARK    3  A    between atoms: C4_12  and  C5_13 
REMARK    4  A    between atoms: C5_13  and  C6_14 
REMARK    5  A    between atoms: C6_14  and  N5_15 
ROOT
HETATM    1  C1  UNL     1      -3.646  32.084  -5.589  1.00  0.00     0.123 A 
HETATM    2  N2  UNL     1      -4.608  31.447  -4.927  1.00  0.00    -0.284 N 
ATOM      3  H2  UNL     1      -5.515  31.855  -4.699  1.00  0.00     0.188 HD
HETATM    4  N3  UNL     1      -4.239  30.219  -4.600  1.00  0.00    -0.286 N 
ATOM      5  H3  UNL     1      -4.796  29.532  -4.092  1.00  0.00     0.188 HD
HETATM    6  C2  UNL     1      -2.977  30.048  -5.071  1.00  0.00     0.140 A 
HETATM    7  N4  UNL     1      -2.148  28.883  -4.958  1.00  0.00    -0.081 NA
HETATM    8  C3  UNL     1      -2.554  31.184  -5.701  1.00  0.00     0.029 A 
ENDROOT
BRANCH   8   9
HETATM    9  C4  UNL     1      -1.339  31.580  -6.379  1.00  0.00     0.048 C 
BRANCH   9  10
HETATM   10  C5  UNL     1      -0.733  30.632  -7.361  1.00  0.00     0.035 C 
BRANCH  10  11
HETATM   11  C6  UNL     1      -1.121  31.241  -8.738  1.00  0.00     0.272 C 
BRANCH  11  12
HETATM   12  N5  UNL     1      -1.306  30.169  -9.693  1.00  0.00     0.088 N 
HETATM   13  C7  UNL     1      -2.693  29.761  -9.674  1.00  0.00     0.272 C 
HETATM   14  C8  UNL     1      -3.628  30.841 -10.130  1.00  0.00     0.030 C 
HETATM   15  C9  UNL     1      -3.375  31.204 -11.594  1.00  0.00     0.003 C 
HETATM   16  C10 UNL     1      -2.126  30.457 -12.008  1.00  0.00     0.030 C 
HETATM   17  C11 UNL     1      -0.994  30.629 -11.046  1.00  0.00     0.272 C 
ENDBRANCH  11  12
ENDBRANCH  10  11
ENDBRANCH   9  10
ENDBRANCH   8   9
BRANCH   1  18
HETATM   18  N1  UNL     1      -3.677  33.274  -6.045  1.00  0.00    -0.384 N 
ATOM     19  H12 UNL     1      -4.459  33.698  -6.543  1.00  0.00     0.157 HD
ATOM     20  H11 UNL     1      -2.941  33.978  -5.988  1.00  0.00     0.157 HD
ENDBRANCH   1  18
TORSDOF 5
ENDMDL
MODEL 5
REMARK VINA RESULT: -6.298598178      1.153      2.152
REMARK  5 active torsions:
REMARK  status: ('A' for Active; 'I' for Inactive)
REMARK    1  A    between atoms: N1_1  and  C1_4 
REMARK    2  A    between atoms: C3_11  and  C4_12 
REMARK    3  A    between atoms: C4_12  and  C5_13 
REMARK    4  A    between atoms: C5_13  and  C6_14 
REMARK    5  A    between atoms: C6_14  and  N5_15 
ROOT
HETATM    1  C1  UNL     1      -3.935  32.015  -5.293  1.00  0.00     0.123 A 
HETATM    2  N2  UNL     1      -4.697  31.184  -4.589  1.00  0.00    -0.284 N 
ATOM      3  H2  UNL     1      -5.569  31.452  -4.133  1.00  0.00     0.188 HD
HETATM    4  N3  UNL     1      -4.182  29.966  -4.553  1.00  0.00    -0.286 N 
ATOM      5  H3  UNL     1      -4.575  29.153  -4.080  1.00  0.00     0.188 HD
HETATM    6  C2  UNL     1      -3.027  30.006  -5.268  1.00  0.00     0.140 A 
HETATM    7  N4  UNL     1      -2.108  28.932  -5.512  1.00  0.00    -0.081 NA
HETATM    8  C3  UNL     1      -2.822  31.265  -5.757  1.00  0.00     0.029 A 
ENDROOT
BRANCH   8   9
HETATM    9  C4  UNL     1      -1.797  31.889  -6.564  1.00  0.00     0.048 C 
BRANCH   9  10
HETATM   10  C5  UNL     1      -2.143  32.299  -7.958  1.00  0.00     0.035 C 
BRANCH  10  11
HETATM   11  C6  UNL     1      -2.362  30.945  -8.690  1.00  0.00     0.272 C 
BRANCH  11  12
HETATM   12  N5  UNL     1      -3.255  31.153  -9.810  1.00  0.00     0.088 N 
HETATM   13  C7  UNL     1      -2.602  32.009 -10.775  1.00  0.00     0.272 C 
HETATM   14  C8  UNL     1      -1.377  31.388 -11.377  1.00  0.00     0.030 C 
HETATM   15  C9  UNL     1      -1.734  30.139 -12.182  1.00  0.00     0.003 C 
HETATM   16  C10 UNL     1      -3.201  29.870 -11.923  1.00  0.00     0.030 C 
HETATM   17  C11 UNL     1      -3.552  29.881 -10.470  1.00  0.00     0.272 C 
ENDBRANCH  11  12
ENDBRANCH  10  11
ENDBRANCH   9  10
ENDBRANCH   8   9
BRANCH   1  18
HETATM   18  N1  UNL     1      -4.143  33.252  -5.522  1.00  0.00    -0.384 N 
ATOM     19  H12 UNL     1      -4.330  33.962  -4.815  1.00  0.00     0.157 HD
ATOM     20  H11 UNL     1      -4.155  33.721  -6.427  1.00  0.00     0.157 HD
ENDBRANCH   1  18
TORSDOF 5
ENDMDL
