MODEL 1
REMARK VINA RESULT: -5.886928357      0.000      0.000
REMARK  6 active torsions:
REMARK  status: ('A' for Active; 'I' for Inactive)
REMARK    1  A    between atoms: C2_2  and  C3_3 
REMARK    2  A    between atoms: C3_3  and  C4_4 
REMARK    3  A    between atoms: C4_4  and  N1_5 
REMARK    4  A    between atoms: N1_5  and  C5_7 
REMARK    5  A    between atoms: C6_10  and  N3_11 
REMARK    6  A    between atoms: C9_18  and  C10_19 
ROOT
HETATM    1  C5  UNL     1      -2.323  30.225  -7.283  1.00  0.00     0.129 A 
HETATM    2  N2  UNL     1      -2.656  29.489  -6.213  1.00  0.00    -0.176 N 
ATOM      3  H2  UNL     1      -2.517  28.479  -6.241  1.00  0.00     0.186 HD
HETATM    4  C6  UNL     1      -3.169  30.050  -5.105  1.00  0.00     0.677 A 
HETATM    5  N4  UNL     1      -3.354  31.370  -5.066  1.00  0.00    -0.195 N 
ATOM      6  H4  UNL     1      -3.744  31.803  -4.229  1.00  0.00     0.184 HD
HETATM    7  C7  UNL     1      -3.025  32.144  -6.139  1.00  0.00     0.036 A 
HETATM    8  C8  UNL     1      -3.254  33.600  -6.029  1.00  0.00     0.070 C 
HETATM    9  C9  UNL     1      -2.500  31.629  -7.290  1.00  0.00     0.031 A 
ENDROOT
BRANCH   1  10
HETATM   10  N1  UNL     1      -1.834  29.694  -8.335  1.00  0.00    -0.375 N 
ATOM     11  H1  UNL     1      -0.911  29.995  -8.648  1.00  0.00     0.161 HD
BRANCH  10  12
HETATM   12  C4  UNL     1      -2.515  28.702  -9.089  1.00  0.00     0.125 C 
BRANCH  12  13
HETATM   13  C3  UNL     1      -3.523  29.274 -10.068  1.00  0.00     0.046 C 
BRANCH  13  14
HETATM   14  C2  UNL     1      -2.878  30.030 -11.161  1.00  0.00    -0.035 C 
HETATM   15  C1  UNL     1      -3.470  31.071 -11.713  1.00  0.00     0.007 C 
ENDBRANCH  13  14
ENDBRANCH  12  13
ENDBRANCH  10  12
ENDBRANCH   1  10
BRANCH   9  16
HETATM   16  C10 UNL     1      -2.130  32.354  -8.453  1.00  0.00     0.013 C 
HETATM   17  C11 UNL     1      -1.035  32.875  -8.887  1.00  0.00    -0.030 C 
HETATM   18  C12 UNL     1      -1.101  33.591 -10.242  1.00  0.00     0.036 C 
ENDBRANCH   9  16
BRANCH   4  19
HETATM   19  N3  UNL     1      -3.490  29.336  -4.070  1.00  0.00    -0.234 N 
ATOM     20  H32 UNL     1      -3.843  28.389  -4.210  1.00  0.00     0.174 HD
ATOM     21  H31 UNL     1      -3.397  29.700  -3.122  1.00  0.00     0.174 HD
ENDBRANCH   4  19
TORSDOF 6
ENDMDL
MODEL 2
REMARK VINA RESULT: -5.537262127      2.222      3.661
REMARK  6 active torsions:
REMARK  status: ('A' for Active; 'I' for Inactive)
REMARK    1  A    between atoms: C2_2  and  C3_3 
REMARK    2  A    between atoms: C3_3  and  C4_4 
REMARK    3  A    between atoms: C4_4  and  N1_5 
REMARK    4  A    between atoms: N1_5  and  C5_7 
REMARK    5  A    between atoms: C6_10  and  N3_11 
REMARK    6  A    between atoms: C9_18  and  C10_19 
ROOT
HETATM    1  C5  UNL     1      -3.798  31.890  -5.621  1.00  0.00     0.129 A 
HETATM    2  N2  UNL     1      -3.433  30.652  -5.260  1.00  0.00    -0.176 N 
ATOM      3  H2  UNL     1      -3.195  29.972  -5.983  1.00  0.00     0.186 HD
HETATM    4  C6  UNL     1      -3.375  30.283  -3.970  1.00  0.00     0.677 A 
HETATM    5  N4  UNL     1      -3.688  31.168  -3.022  1.00  0.00    -0.195 N 
ATOM      6  H4  UNL     1      -3.647  30.895  -2.040  1.00  0.00     0.184 HD
HETATM    7  C7  UNL     1      -4.063  32.434  -3.359  1.00  0.00     0.036 A 
HETATM    8  C8  UNL     1      -4.396  33.366  -2.260  1.00  0.00     0.070 C 
HETATM    9  C9  UNL     1      -4.140  32.864  -4.654  1.00  0.00     0.031 A 
ENDROOT
BRANCH   1  10
HETATM   10  N1  UNL     1      -3.852  32.242  -6.847  1.00  0.00    -0.375 N 
ATOM     11  H1  UNL     1      -4.652  32.792  -7.161  1.00  0.00     0.161 HD
BRANCH  10  12
HETATM   12  C4  UNL     1      -2.849  31.903  -7.793  1.00  0.00     0.125 C 
BRANCH  12  13
HETATM   13  C3  UNL     1      -1.770  32.960  -7.935  1.00  0.00     0.046 C 
BRANCH  13  14
HETATM   14  C2  UNL     1      -0.946  32.762  -9.145  1.00  0.00    -0.035 C 
HETATM   15  C1  UNL     1      -1.172  33.453 -10.246  1.00  0.00     0.007 C 
ENDBRANCH  13  14
ENDBRANCH  12  13
ENDBRANCH  10  12
ENDBRANCH   1  10
BRANCH   9  16
HETATM   16  C10 UNL     1      -4.519  34.158  -5.097  1.00  0.00     0.013 C 
HETATM   17  C11 UNL     1      -3.890  35.258  -5.333  1.00  0.00    -0.030 C 
HETATM   18  C12 UNL     1      -4.733  36.446  -5.813  1.00  0.00     0.036 C 
ENDBRANCH   9  16
BRANCH   4  19
HETATM   19  N3  UNL     1      -3.021  29.084  -3.622  1.00  0.00    -0.234 N 
ATOM     20  H32 UNL     1      -2.077  28.928  -3.267  1.00  0.00     0.174 HD
ATOM     21  H31 UNL     1      -3.665  28.296  -3.694  1.00  0.00     0.174 HD
ENDBRANCH   4  19
TORSDOF 6
ENDMDL
MODEL 3
REMARK VINA RESULT: -5.516749735      3.129      5.985
REMARK  6 active torsions:
REMARK  status: ('A' for Active; 'I' for Inactive)
REMARK    1  A    between atoms: C2_2  and  C3_3 
REMARK    2  A    between atoms: C3_3  and  C4_4 
REMARK    3  A    between atoms: C4_4  and  N1_5 
REMARK    4  A    between atoms: N1_5  and  C5_7 
REMARK    5  A    between atoms: C6_10  and  N3_11 
REMARK    6  A    between atoms: C9_18  and  C10_19 
ROOT
HETATM    1  C5  UNL     1      -2.903  29.468 -11.775  1.00  0.00     0.129 A 
HETATM    2  N2  UNL     1      -3.348  28.437 -12.506  1.00  0.00    -0.176 N 
ATOM      3  H2  UNL     1      -4.172  27.923 -12.192  1.00  0.00     0.186 HD
HETATM    4  C6  UNL     1      -2.737  28.063 -13.642  1.00  0.00     0.677 A 
HETATM    5  N4  UNL     1      -1.659  28.732 -14.055  1.00  0.00    -0.195 N 
ATOM      6  H4  UNL     1      -1.188  28.454 -14.916  1.00  0.00     0.184 HD
HETATM    7  C7  UNL     1      -1.183  29.784 -13.332  1.00  0.00     0.036 A 
HETATM    8  C8  UNL     1       0.015  30.483 -13.845  1.00  0.00     0.070 C 
HETATM    9  C9  UNL     1      -1.763  30.209 -12.170  1.00  0.00     0.031 A 
ENDROOT
BRANCH   1  10
HETATM   10  N1  UNL     1      -3.484  29.825 -10.696  1.00  0.00    -0.375 N 
ATOM     11  H1  UNL     1      -3.864  30.771 -10.637  1.00  0.00     0.161 HD
BRANCH  10  12
HETATM   12  C4  UNL     1      -3.628  28.966  -9.575  1.00  0.00     0.125 C 
BRANCH  12  13
HETATM   13  C3  UNL     1      -2.370  28.853  -8.735  1.00  0.00     0.046 C 
BRANCH  13  14
HETATM   14  C2  UNL     1      -2.093  30.084  -7.968  1.00  0.00    -0.035 C 
HETATM   15  C1  UNL     1      -0.867  30.391  -7.588  1.00  0.00     0.007 C 
ENDBRANCH  13  14
ENDBRANCH  12  13
ENDBRANCH  10  12
ENDBRANCH   1  10
BRANCH   9  16
HETATM   16  C10 UNL     1      -1.339  31.289 -11.354  1.00  0.00     0.013 C 
HETATM   17  C11 UNL     1      -1.888  32.373 -10.925  1.00  0.00    -0.030 C 
HETATM   18  C12 UNL     1      -1.025  33.280 -10.039  1.00  0.00     0.036 C 
ENDBRANCH   9  16
BRANCH   4  19
HETATM   19  N3  UNL     1      -3.170  27.065 -14.349  1.00  0.00    -0.234 N 
ATOM     20  H32 UNL     1      -2.898  26.117 -14.088  1.00  0.00     0.174 HD
ATOM     21  H31 UNL     1      -3.775  27.207 -15.157  1.00  0.00     0.174 HD
ENDBRANCH   4  19
TORSDOF 6
ENDMDL
MODEL 4
REMARK VINA RESULT: -5.428521415      1.603      4.350
REMARK  6 active torsions:
REMARK  status: ('A' for Active; 'I' for Inactive)
REMARK    1  A    between atoms: C2_2  and  C3_3 
REMARK    2  A    between atoms: C3_3  and  C4_4 
REMARK    3  A    between atoms: C4_4  and  N1_5 
REMARK    4  A    between atoms: N1_5  and  C5_7 
REMARK    5  A    between atoms: C6_10  and  N3_11 
REMARK    6  A    between atoms: C9_18  and  C10_19 
ROOT
HETATM    1  C5  UNL     1      -3.108  31.917  -6.459  1.00  0.00     0.129 A 
HETATM    2  N2  UNL     1      -3.456  31.174  -5.400  1.00  0.00    -0.176 N 
ATOM      3  H2  UNL     1      -3.943  31.616  -4.619  1.00  0.00     0.186 HD
HETATM    4  C6  UNL     1      -3.179  29.861  -5.340  1.00  0.00     0.677 A 
HETATM    5  N4  UNL     1      -2.540  29.280  -6.357  1.00  0.00    -0.195 N 
ATOM      6  H4  UNL     1      -2.325  28.283  -6.318  1.00  0.00     0.184 HD
HETATM    7  C7  UNL     1      -2.174  30.011  -7.447  1.00  0.00     0.036 A 
HETATM    8  C8  UNL     1      -1.470  29.306  -8.540  1.00  0.00     0.070 C 
HETATM    9  C9  UNL     1      -2.429  31.348  -7.563  1.00  0.00     0.031 A 
ENDROOT
BRANCH   1  10
HETATM   10  N1  UNL     1      -3.372  33.164  -6.518  1.00  0.00    -0.375 N 
ATOM     11  H1  UNL     1      -3.075  33.687  -7.342  1.00  0.00     0.161 HD
BRANCH  10  12
HETATM   12  C4  UNL     1      -4.063  33.857  -5.489  1.00  0.00     0.125 C 
BRANCH  12  13
HETATM   13  C3  UNL     1      -5.098  34.837  -6.009  1.00  0.00     0.046 C 
BRANCH  13  14
HETATM   14  C2  UNL     1      -4.739  36.241  -5.720  1.00  0.00    -0.035 C 
HETATM   15  C1  UNL     1      -5.381  37.242  -6.291  1.00  0.00     0.007 C 
ENDBRANCH  13  14
ENDBRANCH  12  13
ENDBRANCH  10  12
ENDBRANCH   1  10
BRANCH   9  16
HETATM   16  C10 UNL     1      -2.086  32.187  -8.655  1.00  0.00     0.013 C 
HETATM   17  C11 UNL     1      -1.005  32.766  -9.050  1.00  0.00    -0.030 C 
HETATM   18  C12 UNL     1      -1.100  33.606 -10.330  1.00  0.00     0.036 C 
ENDBRANCH   9  16
BRANCH   4  19
HETATM   19  N3  UNL     1      -3.517  29.142  -4.313  1.00  0.00    -0.234 N 
ATOM     20  H32 UNL     1      -4.302  29.440  -3.735  1.00  0.00     0.174 HD
ATOM     21  H31 UNL     1      -3.016  28.286  -4.074  1.00  0.00     0.174 HD
ENDBRANCH   4  19
TORSDOF 6
ENDMDL
MODEL 5
REMARK VINA RESULT: -5.207511015      1.941      4.834
REMARK  6 active torsions:
REMARK  status: ('A' for Active; 'I' for Inactive)
REMARK    1  A    between atoms: C2_2  and  C3_3 
REMARK    2  A    between atoms: C3_3  and  C4_4 
REMARK    3  A    between atoms: C4_4  and  N1_5 
REMARK    4  A    between atoms: N1_5  and  C5_7 
REMARK    5  A    between atoms: C6_10  and  N3_11 
REMARK    6  A    between atoms: C9_18  and  C10_19 
ROOT
HETATM    1  C5  UNL     1      -1.788  30.035  -8.169  1.00  0.00     0.129 A 
HETATM    2  N2  UNL     1      -0.853  29.339  -8.831  1.00  0.00    -0.176 N 
ATOM      3  H2  UNL     1      -0.721  28.351  -8.612  1.00  0.00     0.186 HD
HETATM    4  C6  UNL     1      -0.086  29.909  -9.774  1.00  0.00     0.677 A 
HETATM    5  N4  UNL     1      -0.254  31.201 -10.062  1.00  0.00    -0.195 N 
ATOM      6  H4  UNL     1       0.325  31.641 -10.776  1.00  0.00     0.184 HD
HETATM    7  C7  UNL     1      -1.197  31.935  -9.405  1.00  0.00     0.036 A 
HETATM    8  C8  UNL     1      -1.333  33.361  -9.772  1.00  0.00     0.070 C 
HETATM    9  C9  UNL     1      -2.005  31.408  -8.437  1.00  0.00     0.031 A 
ENDROOT
BRANCH   1  10
HETATM   10  N1  UNL     1      -2.519  29.494  -7.274  1.00  0.00    -0.375 N 
ATOM     11  H1  UNL     1      -3.419  29.102  -7.552  1.00  0.00     0.161 HD
BRANCH  10  12
HETATM   12  C4  UNL     1      -2.137  29.413  -5.909  1.00  0.00     0.125 C 
BRANCH  12  13
HETATM   13  C3  UNL     1      -3.309  29.480  -4.948  1.00  0.00     0.046 C 
BRANCH  13  14
HETATM   14  C2  UNL     1      -2.979  30.216  -3.711  1.00  0.00    -0.035 C 
HETATM   15  C1  UNL     1      -3.835  31.062  -3.171  1.00  0.00     0.007 C 
ENDBRANCH  13  14
ENDBRANCH  12  13
ENDBRANCH  10  12
ENDBRANCH   1  10
BRANCH   9  16
HETATM   16  C10 UNL     1      -3.008  32.094  -7.704  1.00  0.00     0.013 C 
HETATM   17  C11 UNL     1      -3.009  32.882  -6.684  1.00  0.00    -0.030 C 
HETATM   18  C12 UNL     1      -4.373  33.403  -6.216  1.00  0.00     0.036 C 
ENDBRANCH   9  16
BRANCH   4  19
HETATM   19  N3  UNL     1       0.818  29.233 -10.414  1.00  0.00    -0.234 N 
ATOM     20  H32 UNL     1       1.640  28.901  -9.909  1.00  0.00     0.174 HD
ATOM     21  H31 UNL     1       0.724  29.025 -11.408  1.00  0.00     0.174 HD
ENDBRANCH   4  19
TORSDOF 6
ENDMDL
