MODEL 1
REMARK VINA RESULT: -7.508636137      0.000      0.000
REMARK  15 active torsions:
REMARK  status: ('A' for Active; 'I' for Inactive)
REMARK    1  A    between atoms: O1_2  and  C2_3 
REMARK    2  A    between atoms: C6_8  and  N1_9 
REMARK    3  A    between atoms: N1_9  and  C7_11 
REMARK    4  A    between atoms: C7_11  and  O3_12 
REMARK    5  A    between atoms: N2_14  and  O4_16 
REMARK    6  A    between atoms: C8_19  and  C9_20 
REMARK    7  A    between atoms: C8_19  and  O8_25 
REMARK    8  A    between atoms: C9_20  and  O6_21 
REMARK    9  A    between atoms: O6_21  and  C10_22 
REMARK   10  A    between atoms: C13_27  and  S1_28 
REMARK   11  A    between atoms: S1_28  and  N3_31 
REMARK   12  A    between atoms: N3_31  and  C14_33 
REMARK   13  A    between atoms: C14_33  and  C15_34 
REMARK   14  A    between atoms: C14_33  and  C18_45 
REMARK   15  A    between atoms: C15_34  and  C16_35 
ROOT
HETATM    1  C2  UNL     1      30.459  42.405  35.569  1.00  0.00     0.285 C 
HETATM    2  O2  UNL     1      31.162  43.534  35.183  1.00  0.00    -0.315 OA
HETATM    3  C3  UNL     1      31.056  43.886  33.854  1.00  0.00     0.247 C 
HETATM    4  C4  UNL     1      30.526  42.668  33.058  1.00  0.00     0.080 C 
HETATM    5  C5  UNL     1      29.072  42.577  33.468  1.00  0.00     0.036 C 
HETATM    6  C6  UNL     1      29.095  42.271  34.950  1.00  0.00     0.140 C 
HETATM    7  O5  UNL     1      30.158  44.852  33.683  1.00  0.00    -0.306 OA
HETATM    8  C8  UNL     1      30.428  46.189  33.839  1.00  0.00     0.222 C 
HETATM    9  C13 UNL     1      31.742  46.625  34.279  1.00  0.00     0.323 C 
HETATM   10  S3  UNL     1      33.135  45.639  33.731  1.00  0.00     0.239 S 
HETATM   11  O13 UNL     1      33.973  46.295  32.715  1.00  0.00    -0.218 OA
HETATM   12  O14 UNL     1      34.006  45.281  34.939  1.00  0.00    -0.218 OA
HETATM   13  C19 UNL     1      32.410  44.128  33.228  1.00  0.00     0.306 C 
HETATM   14  O15 UNL     1      32.960  43.393  32.468  1.00  0.00    -0.274 OA
ENDROOT
BRANCH   9  15
HETATM   15  S1  UNL     1      32.158  48.331  34.241  1.00  0.00     0.251 S 
HETATM   16  O9  UNL     1      33.516  48.498  34.985  1.00  0.00    -0.204 OA
HETATM   17  O10 UNL     1      31.204  49.102  35.131  1.00  0.00    -0.204 OA
BRANCH  15  18
HETATM   18  N3  UNL     1      32.306  49.061  32.707  1.00  0.00    -0.303 N 
ATOM     19  H3  UNL     1      31.923  48.680  31.842  1.00  0.00     0.173 HD
BRANCH  18  20
HETATM   20  C14 UNL     1      33.062  50.313  32.805  1.00  0.00     0.199 C 
BRANCH  20  21
HETATM   21  C15 UNL     1      33.967  50.395  31.536  1.00  0.00     0.103 C 
BRANCH  21  22
HETATM   22  C16 UNL     1      35.255  49.741  31.889  1.00  0.00     0.072 A 
HETATM   23  N4  UNL     1      35.503  48.656  32.595  1.00  0.00    -0.296 N 
HETATM   24  N5  UNL     1      36.683  48.229  32.758  1.00  0.00    -0.279 N 
ATOM     25  H4  UNL     1      34.726  48.148  33.019  1.00  0.00     0.187 HD
HETATM   26  C17 UNL     1      37.693  48.899  32.198  1.00  0.00     0.158 A 
ATOM     27  H5  UNL     1      36.859  47.387  33.307  1.00  0.00     0.189 HD
HETATM   28  N6  UNL     1      38.973  48.632  32.243  1.00  0.00    -0.379 N 
HETATM   29  S2  UNL     1      36.869  50.179  31.421  1.00  0.00    -0.038 SA
ATOM     30  H62 UNL     1      39.465  47.868  32.706  1.00  0.00     0.158 HD
ATOM     31  H61 UNL     1      39.744  49.144  31.815  1.00  0.00     0.158 HD
ENDBRANCH  21  22
ENDBRANCH  20  21
BRANCH  20  32
HETATM   32  C18 UNL     1      32.242  51.518  32.786  1.00  0.00     0.197 C 
HETATM   33  O11 UNL     1      32.715  52.664  32.983  1.00  0.00    -0.646 OA
HETATM   34  O12 UNL     1      30.884  51.419  32.540  1.00  0.00    -0.646 OA
ENDBRANCH  20  32
ENDBRANCH  18  20
ENDBRANCH  15  18
ENDBRANCH   9  15
BRANCH   8  35
HETATM   35  C9  UNL     1      29.346  46.727  34.871  1.00  0.00     0.249 C 
BRANCH  35  36
HETATM   36  O6  UNL     1      28.491  45.675  35.228  1.00  0.00    -0.316 OA
BRANCH  36  37
HETATM   37  C10 UNL     1      27.146  45.639  35.007  1.00  0.00     0.254 C 
HETATM   38  C11 UNL     1      26.455  44.995  33.872  1.00  0.00     0.126 C 
HETATM   39  O7  UNL     1      26.407  46.221  35.866  1.00  0.00    -0.266 OA
ENDBRANCH  36  37
ENDBRANCH  35  36
ENDBRANCH   8  35
BRANCH   8  40
HETATM   40  O8  UNL     1      30.008  46.787  32.681  1.00  0.00    -0.356 OA
HETATM   41  C12 UNL     1      29.000  47.682  32.713  1.00  0.00     0.205 C 
ENDBRANCH   8  40
BRANCH   1  42
HETATM   42  O1  UNL     1      30.251  42.547  36.945  1.00  0.00    -0.364 OA
HETATM   43  C1  UNL     1      31.375  42.853  37.663  1.00  0.00     0.204 C 
ENDBRANCH   1  42
BRANCH   6  44
HETATM   44  N1  UNL     1      28.601  40.923  35.084  1.00  0.00    -0.346 N 
ATOM     45  H1  UNL     1      29.121  40.234  35.626  1.00  0.00     0.163 HD
BRANCH  44  46
HETATM   46  C7  UNL     1      27.387  40.568  34.454  1.00  0.00     0.237 C 
HETATM   47  N2  UNL     1      27.195  39.445  33.857  1.00  0.00    -0.233 N 
ATOM     48  H2  UNL     1      26.305  39.222  33.412  1.00  0.00     0.198 HD
BRANCH  46  49
HETATM   49  O3  UNL     1      26.308  41.470  34.463  1.00  0.00    -0.331 OA
ATOM     50  H3  UNL     1      26.182  42.045  35.208  1.00  0.00     0.221 HD
ENDBRANCH  46  49
BRANCH  47  51
HETATM   51  O4  UNL     1      28.252  38.555  33.844  1.00  0.00    -0.287 OA
ATOM     52  H4  UNL     1      28.292  37.945  33.116  1.00  0.00     0.244 HD
ENDBRANCH  47  51
ENDBRANCH  44  46
ENDBRANCH   6  44
TORSDOF 15
ENDMDL
MODEL 2
REMARK VINA RESULT: -7.443031053      2.893      9.247
REMARK  15 active torsions:
REMARK  status: ('A' for Active; 'I' for Inactive)
REMARK    1  A    between atoms: O1_2  and  C2_3 
REMARK    2  A    between atoms: C6_8  and  N1_9 
REMARK    3  A    between atoms: N1_9  and  C7_11 
REMARK    4  A    between atoms: C7_11  and  O3_12 
REMARK    5  A    between atoms: N2_14  and  O4_16 
REMARK    6  A    between atoms: C8_19  and  C9_20 
REMARK    7  A    between atoms: C8_19  and  O8_25 
REMARK    8  A    between atoms: C9_20  and  O6_21 
REMARK    9  A    between atoms: O6_21  and  C10_22 
REMARK   10  A    between atoms: C13_27  and  S1_28 
REMARK   11  A    between atoms: S1_28  and  N3_31 
REMARK   12  A    between atoms: N3_31  and  C14_33 
REMARK   13  A    between atoms: C14_33  and  C15_34 
REMARK   14  A    between atoms: C14_33  and  C18_45 
REMARK   15  A    between atoms: C15_34  and  C16_35 
ROOT
HETATM    1  C2  UNL     1      32.896  49.296  32.126  1.00  0.00     0.285 C 
HETATM    2  O2  UNL     1      32.378  48.094  32.578  1.00  0.00    -0.315 OA
HETATM    3  C3  UNL     1      32.160  48.004  33.937  1.00  0.00     0.247 C 
HETATM    4  C4  UNL     1      32.963  49.123  34.644  1.00  0.00     0.080 C 
HETATM    5  C5  UNL     1      32.206  50.385  34.294  1.00  0.00     0.036 C 
HETATM    6  C6  UNL     1      32.325  50.518  32.791  1.00  0.00     0.140 C 
HETATM    7  O5  UNL     1      30.883  48.229  34.233  1.00  0.00    -0.306 OA
HETATM    8  C8  UNL     1      29.902  47.270  34.185  1.00  0.00     0.222 C 
HETATM    9  C13 UNL     1      30.212  45.926  33.726  1.00  0.00     0.323 C 
HETATM   10  S3  UNL     1      31.848  45.306  34.120  1.00  0.00     0.239 S 
HETATM   11  O13 UNL     1      31.859  44.256  35.151  1.00  0.00    -0.218 OA
HETATM   12  O14 UNL     1      32.500  44.760  32.847  1.00  0.00    -0.218 OA
HETATM   13  C19 UNL     1      32.759  46.745  34.519  1.00  0.00     0.306 C 
HETATM   14  O15 UNL     1      33.747  46.695  35.184  1.00  0.00    -0.274 OA
ENDROOT
BRANCH   9  15
HETATM   15  S1  UNL     1      29.023  44.645  33.897  1.00  0.00     0.251 S 
HETATM   16  O9  UNL     1      27.726  45.113  33.173  1.00  0.00    -0.204 OA
HETATM   17  O10 UNL     1      28.575  44.563  35.342  1.00  0.00    -0.204 OA
BRANCH  15  18
HETATM   18  N3  UNL     1      29.442  43.109  33.286  1.00  0.00    -0.303 N 
ATOM     19  H3  UNL     1      30.336  42.880  32.853  1.00  0.00     0.173 HD
BRANCH  18  20
HETATM   20  C14 UNL     1      28.336  42.165  33.469  1.00  0.00     0.199 C 
BRANCH  20  21
HETATM   21  C15 UNL     1      28.297  41.263  32.196  1.00  0.00     0.103 C 
BRANCH  21  22
HETATM   22  C16 UNL     1      26.867  41.141  31.805  1.00  0.00     0.072 A 
HETATM   23  N4  UNL     1      25.767  41.415  32.476  1.00  0.00    -0.296 N 
HETATM   24  N5  UNL     1      24.623  41.278  31.952  1.00  0.00    -0.279 N 
ATOM     25  H4  UNL     1      25.838  41.746  33.438  1.00  0.00     0.187 HD
HETATM   26  C17 UNL     1      24.539  40.845  30.691  1.00  0.00     0.158 A 
ATOM     27  H5  UNL     1      23.779  41.494  32.483  1.00  0.00     0.189 HD
HETATM   28  N6  UNL     1      23.468  40.637  29.970  1.00  0.00    -0.379 N 
HETATM   29  S2  UNL     1      26.188  40.642  30.287  1.00  0.00    -0.038 SA
ATOM     30  H62 UNL     1      22.484  40.758  30.211  1.00  0.00     0.158 HD
ATOM     31  H61 UNL     1      23.404  40.306  29.007  1.00  0.00     0.158 HD
ENDBRANCH  21  22
ENDBRANCH  20  21
BRANCH  20  32
HETATM   32  C18 UNL     1      28.499  41.254  34.596  1.00  0.00     0.197 C 
HETATM   33  O11 UNL     1      27.643  40.387  34.897  1.00  0.00    -0.646 OA
HETATM   34  O12 UNL     1      29.638  41.329  35.379  1.00  0.00    -0.646 OA
ENDBRANCH  20  32
ENDBRANCH  18  20
ENDBRANCH  15  18
ENDBRANCH   9  15
BRANCH   8  35
HETATM   35  C9  UNL     1      28.762  47.870  33.256  1.00  0.00     0.249 C 
BRANCH  35  36
HETATM   36  O6  UNL     1      29.034  49.223  33.013  1.00  0.00    -0.316 OA
BRANCH  36  37
HETATM   37  C10 UNL     1      28.098  50.197  32.825  1.00  0.00     0.254 C 
HETATM   38  C11 UNL     1      28.264  51.442  32.049  1.00  0.00     0.126 C 
HETATM   39  O7  UNL     1      26.963  50.016  33.374  1.00  0.00    -0.266 OA
ENDBRANCH  36  37
ENDBRANCH  35  36
ENDBRANCH   8  35
BRANCH   8  40
HETATM   40  O8  UNL     1      29.291  47.306  35.410  1.00  0.00    -0.356 OA
HETATM   41  C12 UNL     1      29.396  48.407  36.182  1.00  0.00     0.205 C 
ENDBRANCH   8  40
BRANCH   1  42
HETATM   42  O1  UNL     1      32.527  49.378  30.779  1.00  0.00    -0.364 OA
HETATM   43  C1  UNL     1      31.200  49.631  30.565  1.00  0.00     0.204 C 
ENDBRANCH   1  42
BRANCH   6  44
HETATM   44  N1  UNL     1      33.164  51.667  32.561  1.00  0.00    -0.346 N 
ATOM     45  H1  UNL     1      34.128  51.677  32.893  1.00  0.00     0.163 HD
BRANCH  44  46
HETATM   46  C7  UNL     1      32.635  52.780  31.871  1.00  0.00     0.237 C 
HETATM   47  N2  UNL     1      32.818  52.995  30.616  1.00  0.00    -0.233 N 
ATOM     48  H2  UNL     1      32.420  53.810  30.150  1.00  0.00     0.198 HD
BRANCH  46  49
HETATM   49  O3  UNL     1      31.860  53.727  32.566  1.00  0.00    -0.331 OA
ATOM     50  H3  UNL     1      31.653  54.558  32.156  1.00  0.00     0.221 HD
ENDBRANCH  46  49
BRANCH  47  51
HETATM   51  O4  UNL     1      33.579  52.069  29.928  1.00  0.00    -0.287 OA
ATOM     52  H4  UNL     1      34.517  52.218  29.901  1.00  0.00     0.244 HD
ENDBRANCH  47  51
ENDBRANCH  44  46
ENDBRANCH   6  44
TORSDOF 15
ENDMDL
MODEL 3
REMARK VINA RESULT: -7.423669631      3.644      6.432
REMARK  15 active torsions:
REMARK  status: ('A' for Active; 'I' for Inactive)
REMARK    1  A    between atoms: O1_2  and  C2_3 
REMARK    2  A    between atoms: C6_8  and  N1_9 
REMARK    3  A    between atoms: N1_9  and  C7_11 
REMARK    4  A    between atoms: C7_11  and  O3_12 
REMARK    5  A    between atoms: N2_14  and  O4_16 
REMARK    6  A    between atoms: C8_19  and  C9_20 
REMARK    7  A    between atoms: C8_19  and  O8_25 
REMARK    8  A    between atoms: C9_20  and  O6_21 
REMARK    9  A    between atoms: O6_21  and  C10_22 
REMARK   10  A    between atoms: C13_27  and  S1_28 
REMARK   11  A    between atoms: S1_28  and  N3_31 
REMARK   12  A    between atoms: N3_31  and  C14_33 
REMARK   13  A    between atoms: C14_33  and  C15_34 
REMARK   14  A    between atoms: C14_33  and  C18_45 
REMARK   15  A    between atoms: C15_34  and  C16_35 
ROOT
HETATM    1  C2  UNL     1      34.101  44.211  33.793  1.00  0.00     0.285 C 
HETATM    2  O2  UNL     1      32.842  44.787  33.818  1.00  0.00    -0.315 OA
HETATM    3  C3  UNL     1      32.555  45.562  34.922  1.00  0.00     0.247 C 
HETATM    4  C4  UNL     1      33.567  45.222  36.043  1.00  0.00     0.080 C 
HETATM    5  C5  UNL     1      34.861  45.842  35.561  1.00  0.00     0.036 C 
HETATM    6  C6  UNL     1      35.209  45.097  34.291  1.00  0.00     0.140 C 
HETATM    7  O5  UNL     1      32.725  46.854  34.658  1.00  0.00    -0.306 OA
HETATM    8  C8  UNL     1      31.775  47.650  34.065  1.00  0.00     0.222 C 
HETATM    9  C13 UNL     1      30.514  47.079  33.623  1.00  0.00     0.323 C 
HETATM   10  S3  UNL     1      29.857  45.734  34.608  1.00  0.00     0.239 S 
HETATM   11  O13 UNL     1      28.670  46.094  35.400  1.00  0.00    -0.218 OA
HETATM   12  O14 UNL     1      29.506  44.560  33.690  1.00  0.00    -0.218 OA
HETATM   13  C19 UNL     1      31.231  45.186  35.543  1.00  0.00     0.306 C 
HETATM   14  O15 UNL     1      31.093  44.580  36.560  1.00  0.00    -0.274 OA
ENDROOT
BRANCH   9  15
HETATM   15  S1  UNL     1      29.213  48.133  33.094  1.00  0.00     0.251 S 
HETATM   16  O9  UNL     1      28.433  48.584  34.364  1.00  0.00    -0.204 OA
HETATM   17  O10 UNL     1      28.175  47.318  32.350  1.00  0.00    -0.204 OA
BRANCH  15  18
HETATM   18  N3  UNL     1      29.651  49.532  32.222  1.00  0.00    -0.303 N 
ATOM     19  H3  UNL     1      30.597  49.907  32.162  1.00  0.00     0.173 HD
BRANCH  18  20
HETATM   20  C14 UNL     1      28.476  50.119  31.571  1.00  0.00     0.199 C 
BRANCH  20  21
HETATM   21  C15 UNL     1      28.838  51.600  31.238  1.00  0.00     0.103 C 
BRANCH  21  22
HETATM   22  C16 UNL     1      30.323  51.682  31.217  1.00  0.00     0.072 A 
HETATM   23  N4  UNL     1      31.205  51.073  30.451  1.00  0.00    -0.296 N 
HETATM   24  N5  UNL     1      32.445  51.303  30.561  1.00  0.00    -0.279 N 
ATOM     25  H4  UNL     1      30.883  50.402  29.754  1.00  0.00     0.187 HD
HETATM   26  C17 UNL     1      32.858  52.185  31.476  1.00  0.00     0.158 A 
ATOM     27  H5  UNL     1      33.117  50.825  29.961  1.00  0.00     0.189 HD
HETATM   28  N6  UNL     1      34.079  52.563  31.750  1.00  0.00    -0.379 N 
HETATM   29  S2  UNL     1      31.377  52.672  32.177  1.00  0.00    -0.038 SA
ATOM     30  H62 UNL     1      34.963  52.272  31.332  1.00  0.00     0.158 HD
ATOM     31  H61 UNL     1      34.395  53.237  32.449  1.00  0.00     0.158 HD
ENDBRANCH  21  22
ENDBRANCH  20  21
BRANCH  20  32
HETATM   32  C18 UNL     1      28.118  49.502  30.299  1.00  0.00     0.197 C 
HETATM   33  O11 UNL     1      26.929  49.362  29.925  1.00  0.00    -0.646 OA
HETATM   34  O12 UNL     1      29.114  49.050  29.452  1.00  0.00    -0.646 OA
ENDBRANCH  20  32
ENDBRANCH  18  20
ENDBRANCH  15  18
ENDBRANCH   9  15
BRANCH   8  35
HETATM   35  C9  UNL     1      32.494  48.318  32.816  1.00  0.00     0.249 C 
BRANCH  35  36
HETATM   36  O6  UNL     1      33.737  47.701  32.619  1.00  0.00    -0.316 OA
BRANCH  36  37
HETATM   37  C10 UNL     1      34.901  48.345  32.323  1.00  0.00     0.254 C 
HETATM   38  C11 UNL     1      36.242  47.736  32.206  1.00  0.00     0.126 C 
HETATM   39  O7  UNL     1      34.829  49.601  32.126  1.00  0.00    -0.266 OA
ENDBRANCH  36  37
ENDBRANCH  35  36
ENDBRANCH   8  35
BRANCH   8  40
HETATM   40  O8  UNL     1      31.630  48.730  34.895  1.00  0.00    -0.356 OA
HETATM   41  C12 UNL     1      32.340  49.853  34.667  1.00  0.00     0.205 C 
ENDBRANCH   8  40
BRANCH   1  42
HETATM   42  O1  UNL     1      34.373  43.968  32.442  1.00  0.00    -0.364 OA
HETATM   43  C1  UNL     1      33.531  43.072  31.843  1.00  0.00     0.204 C 
ENDBRANCH   1  42
BRANCH   6  44
HETATM   44  N1  UNL     1      36.387  44.323  34.597  1.00  0.00    -0.346 N 
ATOM     45  H1  UNL     1      36.365  43.621  35.337  1.00  0.00     0.163 HD
BRANCH  44  46
HETATM   46  C7  UNL     1      37.571  44.548  33.860  1.00  0.00     0.237 C 
HETATM   47  N2  UNL     1      38.415  45.479  34.133  1.00  0.00    -0.233 N 
ATOM     48  H2  UNL     1      39.261  45.612  33.578  1.00  0.00     0.198 HD
BRANCH  46  49
HETATM   49  O3  UNL     1      37.873  43.724  32.760  1.00  0.00    -0.331 OA
ATOM     50  H3  UNL     1      38.380  44.073  32.037  1.00  0.00     0.221 HD
ENDBRANCH  46  49
BRANCH  47  51
HETATM   51  O4  UNL     1      38.123  46.292  35.211  1.00  0.00    -0.287 OA
ATOM     52  H4  UNL     1      37.699  47.121  35.022  1.00  0.00     0.244 HD
ENDBRANCH  47  51
ENDBRANCH  44  46
ENDBRANCH   6  44
TORSDOF 15
ENDMDL
MODEL 4
REMARK VINA RESULT: -7.386109058      1.979      2.975
REMARK  15 active torsions:
REMARK  status: ('A' for Active; 'I' for Inactive)
REMARK    1  A    between atoms: O1_2  and  C2_3 
REMARK    2  A    between atoms: C6_8  and  N1_9 
REMARK    3  A    between atoms: N1_9  and  C7_11 
REMARK    4  A    between atoms: C7_11  and  O3_12 
REMARK    5  A    between atoms: N2_14  and  O4_16 
REMARK    6  A    between atoms: C8_19  and  C9_20 
REMARK    7  A    between atoms: C8_19  and  O8_25 
REMARK    8  A    between atoms: C9_20  and  O6_21 
REMARK    9  A    between atoms: O6_21  and  C10_22 
REMARK   10  A    between atoms: C13_27  and  S1_28 
REMARK   11  A    between atoms: S1_28  and  N3_31 
REMARK   12  A    between atoms: N3_31  and  C14_33 
REMARK   13  A    between atoms: C14_33  and  C15_34 
REMARK   14  A    between atoms: C14_33  and  C18_45 
REMARK   15  A    between atoms: C15_34  and  C16_35 
ROOT
HETATM    1  C2  UNL     1      30.465  42.340  35.486  1.00  0.00     0.285 C 
HETATM    2  O2  UNL     1      31.116  43.524  35.183  1.00  0.00    -0.315 OA
HETATM    3  C3  UNL     1      31.037  43.938  33.870  1.00  0.00     0.247 C 
HETATM    4  C4  UNL     1      30.605  42.735  32.996  1.00  0.00     0.080 C 
HETATM    5  C5  UNL     1      29.145  42.542  33.346  1.00  0.00     0.036 C 
HETATM    6  C6  UNL     1      29.133  42.163  34.811  1.00  0.00     0.140 C 
HETATM    7  O5  UNL     1      30.092  44.860  33.713  1.00  0.00    -0.306 OA
HETATM    8  C8  UNL     1      30.278  46.200  33.945  1.00  0.00     0.222 C 
HETATM    9  C13 UNL     1      31.549  46.685  34.455  1.00  0.00     0.323 C 
HETATM   10  S3  UNL     1      33.015  45.807  33.912  1.00  0.00     0.239 S 
HETATM   11  O13 UNL     1      33.849  46.560  32.963  1.00  0.00    -0.218 OA
HETATM   12  O14 UNL     1      33.862  45.436  35.133  1.00  0.00    -0.218 OA
HETATM   13  C19 UNL     1      32.395  44.286  33.309  1.00  0.00     0.306 C 
HETATM   14  O15 UNL     1      33.013  43.623  32.535  1.00  0.00    -0.274 OA
ENDROOT
BRANCH   9  15
HETATM   15  S1  UNL     1      31.868  48.411  34.517  1.00  0.00     0.251 S 
HETATM   16  O9  UNL     1      33.293  48.602  35.113  1.00  0.00    -0.204 OA
HETATM   17  O10 UNL     1      30.987  49.049  35.572  1.00  0.00    -0.204 OA
BRANCH  15  18
HETATM   18  N3  UNL     1      31.795  49.268  33.044  1.00  0.00    -0.303 N 
ATOM     19  H3  UNL     1      30.935  49.506  32.551  1.00  0.00     0.173 HD
BRANCH  18  20
HETATM   20  C14 UNL     1      33.144  49.614  32.584  1.00  0.00     0.199 C 
BRANCH  20  21
HETATM   21  C15 UNL     1      33.048  49.858  31.046  1.00  0.00     0.103 C 
BRANCH  21  22
HETATM   22  C16 UNL     1      31.778  50.593  30.809  1.00  0.00     0.072 A 
HETATM   23  N4  UNL     1      31.505  51.880  30.878  1.00  0.00    -0.296 N 
HETATM   24  N5  UNL     1      30.353  52.327  30.601  1.00  0.00    -0.279 N 
ATOM     25  H4  UNL     1      32.238  52.531  31.160  1.00  0.00     0.187 HD
HETATM   26  C17 UNL     1      29.401  51.467  30.231  1.00  0.00     0.158 A 
ATOM     27  H5  UNL     1      30.156  53.326  30.658  1.00  0.00     0.189 HD
HETATM   28  N6  UNL     1      28.159  51.716  29.906  1.00  0.00    -0.379 N 
HETATM   29  S2  UNL     1      30.236  49.977  30.300  1.00  0.00    -0.038 SA
ATOM     30  H62 UNL     1      27.660  52.605  29.865  1.00  0.00     0.158 HD
ATOM     31  H61 UNL     1      27.431  51.060  29.624  1.00  0.00     0.158 HD
ENDBRANCH  21  22
ENDBRANCH  20  21
BRANCH  20  32
HETATM   32  C18 UNL     1      33.678  50.847  33.150  1.00  0.00     0.197 C 
HETATM   33  O11 UNL     1      34.908  51.085  33.219  1.00  0.00    -0.646 OA
HETATM   34  O12 UNL     1      32.811  51.811  33.633  1.00  0.00    -0.646 OA
ENDBRANCH  20  32
ENDBRANCH  18  20
ENDBRANCH  15  18
ENDBRANCH   9  15
BRANCH   8  35
HETATM   35  C9  UNL     1      29.132  46.624  34.959  1.00  0.00     0.249 C 
BRANCH  35  36
HETATM   36  O6  UNL     1      28.279  45.531  35.170  1.00  0.00    -0.316 OA
BRANCH  36  37
HETATM   37  C10 UNL     1      26.926  45.539  35.000  1.00  0.00     0.254 C 
HETATM   38  C11 UNL     1      26.159  44.783  33.990  1.00  0.00     0.126 C 
HETATM   39  O7  UNL     1      26.253  46.273  35.793  1.00  0.00    -0.266 OA
ENDBRANCH  36  37
ENDBRANCH  35  36
ENDBRANCH   8  35
BRANCH   8  40
HETATM   40  O8  UNL     1      29.866  46.832  32.802  1.00  0.00    -0.356 OA
HETATM   41  C12 UNL     1      28.735  47.566  32.810  1.00  0.00     0.205 C 
ENDBRANCH   8  40
BRANCH   1  42
HETATM   42  O1  UNL     1      30.201  42.400  36.859  1.00  0.00    -0.364 OA
HETATM   43  C1  UNL     1      31.242  42.856  37.620  1.00  0.00     0.204 C 
ENDBRANCH   1  42
BRANCH   6  44
HETATM   44  N1  UNL     1      28.713  40.784  34.859  1.00  0.00    -0.346 N 
ATOM     45  H1  UNL     1      29.339  40.066  35.224  1.00  0.00     0.163 HD
BRANCH  44  46
HETATM   46  C7  UNL     1      27.424  40.439  34.395  1.00  0.00     0.237 C 
HETATM   47  N2  UNL     1      27.133  39.297  33.881  1.00  0.00    -0.233 N 
ATOM     48  H2  UNL     1      26.190  39.082  33.557  1.00  0.00     0.198 HD
BRANCH  46  49
HETATM   49  O3  UNL     1      26.378  41.376  34.485  1.00  0.00    -0.331 OA
ATOM     50  H3  UNL     1      26.569  42.272  34.736  1.00  0.00     0.221 HD
ENDBRANCH  46  49
BRANCH  47  51
HETATM   51  O4  UNL     1      28.156  38.373  33.789  1.00  0.00    -0.287 OA
ATOM     52  H4  UNL     1      27.912  37.456  33.829  1.00  0.00     0.244 HD
ENDBRANCH  47  51
ENDBRANCH  44  46
ENDBRANCH   6  44
TORSDOF 15
ENDMDL
MODEL 5
REMARK VINA RESULT: -7.373529242      3.049      9.460
REMARK  15 active torsions:
REMARK  status: ('A' for Active; 'I' for Inactive)
REMARK    1  A    between atoms: O1_2  and  C2_3 
REMARK    2  A    between atoms: C6_8  and  N1_9 
REMARK    3  A    between atoms: N1_9  and  C7_11 
REMARK    4  A    between atoms: C7_11  and  O3_12 
REMARK    5  A    between atoms: N2_14  and  O4_16 
REMARK    6  A    between atoms: C8_19  and  C9_20 
REMARK    7  A    between atoms: C8_19  and  O8_25 
REMARK    8  A    between atoms: C9_20  and  O6_21 
REMARK    9  A    between atoms: O6_21  and  C10_22 
REMARK   10  A    between atoms: C13_27  and  S1_28 
REMARK   11  A    between atoms: S1_28  and  N3_31 
REMARK   12  A    between atoms: N3_31  and  C14_33 
REMARK   13  A    between atoms: C14_33  and  C15_34 
REMARK   14  A    between atoms: C14_33  and  C18_45 
REMARK   15  A    between atoms: C15_34  and  C16_35 
ROOT
HETATM    1  C2  UNL     1      32.162  51.476  32.185  1.00  0.00     0.285 C 
HETATM    2  O2  UNL     1      31.850  50.268  32.786  1.00  0.00    -0.315 OA
HETATM    3  C3  UNL     1      31.711  49.190  31.937  1.00  0.00     0.247 C 
HETATM    4  C4  UNL     1      31.513  49.716  30.494  1.00  0.00     0.080 C 
HETATM    5  C5  UNL     1      32.882  50.234  30.110  1.00  0.00     0.036 C 
HETATM    6  C6  UNL     1      33.154  51.382  31.059  1.00  0.00     0.140 C 
HETATM    7  O5  UNL     1      32.819  48.456  31.908  1.00  0.00    -0.306 OA
HETATM    8  C8  UNL     1      33.117  47.477  32.824  1.00  0.00     0.222 C 
HETATM    9  C13 UNL     1      32.232  47.234  33.951  1.00  0.00     0.323 C 
HETATM   10  S3  UNL     1      30.481  47.476  33.656  1.00  0.00     0.239 S 
HETATM   11  O13 UNL     1      29.702  46.228  33.610  1.00  0.00    -0.218 OA
HETATM   12  O14 UNL     1      29.906  48.381  34.750  1.00  0.00    -0.218 OA
HETATM   13  C19 UNL     1      30.428  48.436  32.195  1.00  0.00     0.306 C 
HETATM   14  O15 UNL     1      29.459  48.464  31.501  1.00  0.00    -0.274 OA
ENDROOT
BRANCH   9  15
HETATM   15  S1  UNL     1      32.485  45.831  34.976  1.00  0.00     0.251 S 
HETATM   16  O9  UNL     1      31.544  45.977  36.209  1.00  0.00    -0.204 OA
HETATM   17  O10 UNL     1      33.860  45.908  35.608  1.00  0.00    -0.204 OA
BRANCH  15  18
HETATM   18  N3  UNL     1      32.204  44.299  34.280  1.00  0.00    -0.303 N 
ATOM     19  H3  UNL     1      32.680  43.940  33.453  1.00  0.00     0.173 HD
BRANCH  18  20
HETATM   20  C14 UNL     1      31.182  43.571  35.038  1.00  0.00     0.199 C 
BRANCH  20  21
HETATM   21  C15 UNL     1      30.761  42.346  34.166  1.00  0.00     0.103 C 
BRANCH  21  22
HETATM   22  C16 UNL     1      29.315  42.514  33.865  1.00  0.00     0.072 A 
HETATM   23  N4  UNL     1      28.621  43.591  33.559  1.00  0.00    -0.296 N 
HETATM   24  N5  UNL     1      27.384  43.527  33.296  1.00  0.00    -0.279 N 
ATOM     25  H4  UNL     1      29.090  44.497  33.532  1.00  0.00     0.187 HD
HETATM   26  C17 UNL     1      26.779  42.338  33.333  1.00  0.00     0.158 A 
ATOM     27  H5  UNL     1      26.860  44.370  33.060  1.00  0.00     0.189 HD
HETATM   28  N6  UNL     1      25.524  42.054  33.098  1.00  0.00    -0.379 N 
HETATM   29  S2  UNL     1      28.072  41.306  33.764  1.00  0.00    -0.038 SA
ATOM     30  H62 UNL     1      24.752  42.670  32.840  1.00  0.00     0.158 HD
ATOM     31  H61 UNL     1      25.061  41.146  33.125  1.00  0.00     0.158 HD
ENDBRANCH  21  22
ENDBRANCH  20  21
BRANCH  20  32
HETATM   32  C18 UNL     1      31.646  43.017  36.304  1.00  0.00     0.197 C 
HETATM   33  O11 UNL     1      32.803  42.555  36.459  1.00  0.00    -0.646 OA
HETATM   34  O12 UNL     1      30.795  42.993  37.395  1.00  0.00    -0.646 OA
ENDBRANCH  20  32
ENDBRANCH  18  20
ENDBRANCH  15  18
ENDBRANCH   9  15
BRANCH   8  35
HETATM   35  C9  UNL     1      34.559  47.840  33.384  1.00  0.00     0.249 C 
BRANCH  35  36
HETATM   36  O6  UNL     1      35.039  48.974  32.714  1.00  0.00    -0.316 OA
BRANCH  36  37
HETATM   37  C10 UNL     1      36.228  49.058  32.053  1.00  0.00     0.254 C 
HETATM   38  C11 UNL     1      37.298  48.040  32.029  1.00  0.00     0.126 C 
HETATM   39  O7  UNL     1      36.441  50.122  31.387  1.00  0.00    -0.266 OA
ENDBRANCH  36  37
ENDBRANCH  35  36
ENDBRANCH   8  35
BRANCH   8  40
HETATM   40  O8  UNL     1      33.394  46.356  32.089  1.00  0.00    -0.356 OA
HETATM   41  C12 UNL     1      34.608  45.775  32.179  1.00  0.00     0.205 C 
ENDBRANCH   8  40
BRANCH   1  42
HETATM   42  O1  UNL     1      32.776  52.241  33.182  1.00  0.00    -0.364 OA
HETATM   43  C1  UNL     1      33.668  51.555  33.960  1.00  0.00     0.204 C 
ENDBRANCH   1  42
BRANCH   6  44
HETATM   44  N1  UNL     1      33.130  52.576  30.252  1.00  0.00    -0.346 N 
ATOM     45  H1  UNL     1      32.278  53.132  30.178  1.00  0.00     0.163 HD
BRANCH  44  46
HETATM   46  C7  UNL     1      34.300  52.969  29.565  1.00  0.00     0.237 C 
HETATM   47  N2  UNL     1      34.348  53.957  28.743  1.00  0.00    -0.233 N 
ATOM     48  H2  UNL     1      35.212  54.212  28.264  1.00  0.00     0.198 HD
BRANCH  46  49
HETATM   49  O3  UNL     1      35.499  52.260  29.771  1.00  0.00    -0.331 OA
ATOM     50  H3  UNL     1      36.315  52.611  29.436  1.00  0.00     0.221 HD
ENDBRANCH  46  49
BRANCH  47  51
HETATM   51  O4  UNL     1      33.174  54.656  28.536  1.00  0.00    -0.287 OA
ATOM     52  H4  UNL     1      32.402  54.345  28.995  1.00  0.00     0.244 HD
ENDBRANCH  47  51
ENDBRANCH  44  46
ENDBRANCH   6  44
TORSDOF 15
ENDMDL
