MODEL 1
REMARK VINA RESULT: -7.177709395      0.000      0.000
REMARK  10 active torsions:
REMARK  status: ('A' for Active; 'I' for Inactive)
REMARK    1  A    between atoms: O1_2  and  C2_3 
REMARK       I    between atoms: C2_3  and  N1_5 
REMARK    2  A    between atoms: N1_5  and  C4_7 
REMARK    3  A    between atoms: C5_8  and  N2_9 
REMARK    4  A    between atoms: C5_8  and  C9_19 
REMARK       I    between atoms: N2_9  and  C6_11 
REMARK    5  A    between atoms: C6_11  and  C7_13 
REMARK    6  A    between atoms: C7_13  and  N3_15 
REMARK    7  A    between atoms: C10_21  and  S1_22 
REMARK    8  A    between atoms: S1_22  and  C11_23 
REMARK    9  A    between atoms: C12_30  and  O5_31 
REMARK   10  A    between atoms: C12_30  and  C13_33 
ROOT
HETATM    1  C9  UNL     1      13.196  15.736   8.579  1.00  0.00     0.242 C 
HETATM    2  O4  UNL     1      12.787  15.280   7.332  1.00  0.00    -0.314 OA
HETATM    3  C10 UNL     1      13.946  14.683   6.789  1.00  0.00     0.184 C 
HETATM    4  N8  UNL     1      14.656  14.202   7.744  1.00  0.00    -0.327 N 
ATOM      5  H8  UNL     1      15.547  13.718   7.633  1.00  0.00     0.165 HD
HETATM    6  C12 UNL     1      13.994  14.456   9.000  1.00  0.00     0.215 C 
ENDROOT
BRANCH   1   7
HETATM    7  C5  UNL     1      12.218  16.102   9.560  1.00  0.00     0.062 C 
HETATM    8  C4  UNL     1      12.347  16.986  10.494  1.00  0.00     0.123 C 
BRANCH   8   9
HETATM    9  N1  UNL     1      13.229  17.943  10.937  1.00  0.00    -0.306 N 
HETATM   10  C2  UNL     1      14.089  18.013  12.008  1.00  0.00     0.366 C 
HETATM   11  O2  UNL     1      14.373  17.086  12.772  1.00  0.00    -0.238 OA
HETATM   12  C3  UNL     1      13.197  19.231  10.128  1.00  0.00     0.161 C 
BRANCH  10  13
HETATM   13  O1  UNL     1      14.771  19.229  12.352  1.00  0.00    -0.309 OA
HETATM   14  C1  UNL     1      15.479  19.335  13.581  1.00  0.00     0.215 C 
ENDBRANCH  10  13
ENDBRANCH   8   9
BRANCH   7  15
HETATM   15  N2  UNL     1      10.975  15.354   9.610  1.00  0.00    -0.325 N 
HETATM   16  C6  UNL     1      10.762  14.478  10.679  1.00  0.00     0.252 C 
HETATM   17  O3  UNL     1      11.603  14.297  11.621  1.00  0.00    -0.271 OA
ATOM     18  H2  UNL     1      10.271  15.465   8.881  1.00  0.00     0.168 HD
BRANCH  16  19
HETATM   19  C7  UNL     1       9.508  13.663  10.814  1.00  0.00     0.271 C 
HETATM   20  C8  UNL     1       8.356  14.590  10.504  1.00  0.00     0.050 C 
BRANCH  19  21
HETATM   21  N3  UNL     1       9.501  12.583   9.881  1.00  0.00    -0.067 N 
ATOM     22  H33 UNL     1      10.253  11.920  10.068  1.00  0.00     0.275 HD
ATOM     23  H32 UNL     1       8.707  11.962  10.030  1.00  0.00     0.275 HD
ATOM     24  H31 UNL     1       9.533  12.931   8.922  1.00  0.00     0.275 HD
ENDBRANCH  19  21
ENDBRANCH  16  19
ENDBRANCH   7  15
ENDBRANCH   1   7
BRANCH   6  25
HETATM   25  O5  UNL     1      13.217  13.384   9.269  1.00  0.00    -0.364 OA
ATOM     26  H5  UNL     1      12.303  13.593   9.420  1.00  0.00     0.213 HD
ENDBRANCH   6  25
BRANCH   6  27
HETATM   27  C13 UNL     1      14.962  14.824  10.096  1.00  0.00     0.327 A 
HETATM   28  N9  UNL     1      14.514  14.443  11.386  1.00  0.00    -0.281 N 
HETATM   29  N10 UNL     1      15.395  13.562  11.462  1.00  0.00    -0.207 N 
ATOM     30  H9  UNL     1      13.769  14.762  12.006  1.00  0.00     0.185 HD
HETATM   31  O6  UNL     1      15.923  13.825  10.242  1.00  0.00    -0.233 OA
ATOM     32  H10 UNL     1      15.633  12.884  12.186  1.00  0.00     0.215 HD
ENDBRANCH   6  27
BRANCH   3  33
HETATM   33  S1  UNL     1      14.388  14.591   5.043  1.00  0.00    -0.046 SA
BRANCH  33  34
HETATM   34  C11 UNL     1      14.402  12.883   4.504  1.00  0.00     0.276 C 
HETATM   35  N4  UNL     1      15.713  12.327   4.348  1.00  0.00    -0.094 NA
HETATM   36  N5  UNL     1      15.463  10.950   4.374  1.00  0.00    -0.019 NA
HETATM   37  N6  UNL     1      14.258  10.741   5.013  1.00  0.00    -0.019 NA
HETATM   38  N7  UNL     1      13.763  11.986   5.415  1.00  0.00    -0.094 NA
ENDBRANCH  33  34
ENDBRANCH   3  33
TORSDOF 10
ENDMDL
MODEL 2
REMARK VINA RESULT: -7.059091868      0.867      1.245
REMARK  10 active torsions:
REMARK  status: ('A' for Active; 'I' for Inactive)
REMARK    1  A    between atoms: O1_2  and  C2_3 
REMARK       I    between atoms: C2_3  and  N1_5 
REMARK    2  A    between atoms: N1_5  and  C4_7 
REMARK    3  A    between atoms: C5_8  and  N2_9 
REMARK    4  A    between atoms: C5_8  and  C9_19 
REMARK       I    between atoms: N2_9  and  C6_11 
REMARK    5  A    between atoms: C6_11  and  C7_13 
REMARK    6  A    between atoms: C7_13  and  N3_15 
REMARK    7  A    between atoms: C10_21  and  S1_22 
REMARK    8  A    between atoms: S1_22  and  C11_23 
REMARK    9  A    between atoms: C12_30  and  O5_31 
REMARK   10  A    between atoms: C12_30  and  C13_33 
ROOT
HETATM    1  C9  UNL     1      13.257  15.785   8.633  1.00  0.00     0.242 C 
HETATM    2  O4  UNL     1      12.845  15.341   7.383  1.00  0.00    -0.314 OA
HETATM    3  C10 UNL     1      13.995  14.724   6.843  1.00  0.00     0.184 C 
HETATM    4  N8  UNL     1      14.692  14.227   7.799  1.00  0.00    -0.327 N 
ATOM      5  H8  UNL     1      15.574  13.727   7.689  1.00  0.00     0.165 HD
HETATM    6  C12 UNL     1      14.029  14.490   9.053  1.00  0.00     0.215 C 
ENDROOT
BRANCH   1   7
HETATM    7  C5  UNL     1      12.283  16.166   9.612  1.00  0.00     0.062 C 
HETATM    8  C4  UNL     1      12.419  17.056  10.540  1.00  0.00     0.123 C 
BRANCH   8   9
HETATM    9  N1  UNL     1      13.309  18.009  10.975  1.00  0.00    -0.306 N 
HETATM   10  C2  UNL     1      13.833  19.144  10.402  1.00  0.00     0.366 C 
HETATM   11  O2  UNL     1      13.464  19.660   9.343  1.00  0.00    -0.238 OA
HETATM   12  C3  UNL     1      13.907  17.714  12.342  1.00  0.00     0.161 C 
BRANCH  10  13
HETATM   13  O1  UNL     1      14.909  19.871  11.014  1.00  0.00    -0.309 OA
HETATM   14  C1  UNL     1      15.558  20.925  10.312  1.00  0.00     0.215 C 
ENDBRANCH  10  13
ENDBRANCH   8   9
BRANCH   7  15
HETATM   15  N2  UNL     1      11.034  15.429   9.668  1.00  0.00    -0.325 N 
HETATM   16  C6  UNL     1      10.824  14.544  10.730  1.00  0.00     0.252 C 
HETATM   17  O3  UNL     1      11.673  14.345  11.660  1.00  0.00    -0.271 OA
ATOM     18  H2  UNL     1      10.323  15.554   8.947  1.00  0.00     0.168 HD
BRANCH  16  19
HETATM   19  C7  UNL     1       9.564  13.739  10.869  1.00  0.00     0.271 C 
HETATM   20  C8  UNL     1       8.423  14.656  10.496  1.00  0.00     0.050 C 
BRANCH  19  21
HETATM   21  N3  UNL     1       9.574  12.622   9.981  1.00  0.00    -0.067 N 
ATOM     22  H33 UNL     1      10.230  11.903  10.288  1.00  0.00     0.275 HD
ATOM     23  H32 UNL     1       8.712  12.081  10.046  1.00  0.00     0.275 HD
ATOM     24  H31 UNL     1       9.761  12.920   9.023  1.00  0.00     0.275 HD
ENDBRANCH  19  21
ENDBRANCH  16  19
ENDBRANCH   7  15
ENDBRANCH   1   7
BRANCH   6  25
HETATM   25  O5  UNL     1      13.232  13.431   9.316  1.00  0.00    -0.364 OA
ATOM     26  H5  UNL     1      13.429  12.658   8.799  1.00  0.00     0.213 HD
ENDBRANCH   6  25
BRANCH   6  27
HETATM   27  C13 UNL     1      15.000  14.835  10.154  1.00  0.00     0.327 A 
HETATM   28  N9  UNL     1      14.550  14.439  11.439  1.00  0.00    -0.281 N 
HETATM   29  N10 UNL     1      15.424  13.552  11.502  1.00  0.00    -0.207 N 
ATOM     30  H9  UNL     1      13.806  14.754  12.063  1.00  0.00     0.185 HD
HETATM   31  O6  UNL     1      15.954  13.828  10.286  1.00  0.00    -0.233 OA
ATOM     32  H10 UNL     1      15.658  12.862  12.217  1.00  0.00     0.215 HD
ENDBRANCH   6  27
BRANCH   3  33
HETATM   33  S1  UNL     1      14.442  14.630   5.098  1.00  0.00    -0.046 SA
BRANCH  33  34
HETATM   34  C11 UNL     1      14.390  12.928   4.544  1.00  0.00     0.276 C 
HETATM   35  N4  UNL     1      15.679  12.338   4.336  1.00  0.00    -0.094 NA
HETATM   36  N5  UNL     1      15.393  10.968   4.358  1.00  0.00    -0.019 NA
HETATM   37  N6  UNL     1      14.207  10.785   5.039  1.00  0.00    -0.019 NA
HETATM   38  N7  UNL     1      13.760  12.039   5.470  1.00  0.00    -0.094 NA
ENDBRANCH  33  34
ENDBRANCH   3  33
TORSDOF 10
ENDMDL
MODEL 3
REMARK VINA RESULT: -6.853633292      1.240      1.590
REMARK  10 active torsions:
REMARK  status: ('A' for Active; 'I' for Inactive)
REMARK    1  A    between atoms: O1_2  and  C2_3 
REMARK       I    between atoms: C2_3  and  N1_5 
REMARK    2  A    between atoms: N1_5  and  C4_7 
REMARK    3  A    between atoms: C5_8  and  N2_9 
REMARK    4  A    between atoms: C5_8  and  C9_19 
REMARK       I    between atoms: N2_9  and  C6_11 
REMARK    5  A    between atoms: C6_11  and  C7_13 
REMARK    6  A    between atoms: C7_13  and  N3_15 
REMARK    7  A    between atoms: C10_21  and  S1_22 
REMARK    8  A    between atoms: S1_22  and  C11_23 
REMARK    9  A    between atoms: C12_30  and  O5_31 
REMARK   10  A    between atoms: C12_30  and  C13_33 
ROOT
HETATM    1  C9  UNL     1      12.950  15.177   7.777  1.00  0.00     0.242 C 
HETATM    2  O4  UNL     1      12.539  14.402   6.701  1.00  0.00    -0.314 OA
HETATM    3  C10 UNL     1      13.720  13.760   6.270  1.00  0.00     0.184 C 
HETATM    4  N8  UNL     1      14.489  13.575   7.281  1.00  0.00    -0.327 N 
ATOM      5  H8  UNL     1      15.408  13.133   7.252  1.00  0.00     0.165 HD
HETATM    6  C12 UNL     1      13.846  14.093   8.464  1.00  0.00     0.215 C 
ENDROOT
BRANCH   1   7
HETATM    7  C5  UNL     1      11.978  15.717   8.681  1.00  0.00     0.062 C 
HETATM    8  C4  UNL     1      12.063  16.822   9.346  1.00  0.00     0.123 C 
BRANCH   8   9
HETATM    9  N1  UNL     1      12.876  17.924   9.477  1.00  0.00    -0.306 N 
HETATM   10  C2  UNL     1      13.722  18.361  10.469  1.00  0.00     0.366 C 
HETATM   11  O2  UNL     1      14.062  17.720  11.468  1.00  0.00    -0.238 OA
HETATM   12  C3  UNL     1      12.763  18.912   8.326  1.00  0.00     0.161 C 
BRANCH  10  13
HETATM   13  O1  UNL     1      14.317  19.667  10.433  1.00  0.00    -0.309 OA
HETATM   14  C1  UNL     1      15.105  20.130  11.523  1.00  0.00     0.215 C 
ENDBRANCH  10  13
ENDBRANCH   8   9
BRANCH   7  15
HETATM   15  N2  UNL     1      10.805  14.921   8.990  1.00  0.00    -0.325 N 
HETATM   16  C6  UNL     1      10.697  14.351  10.263  1.00  0.00     0.252 C 
HETATM   17  O3  UNL     1      11.576  14.492  11.175  1.00  0.00    -0.271 OA
ATOM     18  H2  UNL     1      10.074  14.780   8.293  1.00  0.00     0.168 HD
BRANCH  16  19
HETATM   19  C7  UNL     1       9.520  13.512  10.671  1.00  0.00     0.271 C 
HETATM   20  C8  UNL     1       8.301  14.397  10.562  1.00  0.00     0.050 C 
BRANCH  19  21
HETATM   21  N3  UNL     1       9.365  12.395   9.797  1.00  0.00    -0.067 N 
ATOM     22  H33 UNL     1       9.335  12.682   8.819  1.00  0.00     0.275 HD
ATOM     23  H32 UNL     1      10.209  11.823   9.765  1.00  0.00     0.275 HD
ATOM     24  H31 UNL     1       8.545  11.843  10.054  1.00  0.00     0.275 HD
ENDBRANCH  19  21
ENDBRANCH  16  19
ENDBRANCH   7  15
ENDBRANCH   1   7
BRANCH   6  25
HETATM   25  O5  UNL     1      13.154  13.076   9.024  1.00  0.00    -0.364 OA
ATOM     26  H5  UNL     1      12.305  13.327   9.369  1.00  0.00     0.213 HD
ENDBRANCH   6  25
BRANCH   6  27
HETATM   27  C13 UNL     1      14.819  14.779   9.391  1.00  0.00     0.327 A 
HETATM   28  N9  UNL     1      14.412  14.744  10.749  1.00  0.00    -0.281 N 
HETATM   29  N10 UNL     1      15.331  13.951  11.033  1.00  0.00    -0.207 N 
ATOM     30  H9  UNL     1      13.665  15.191  11.282  1.00  0.00     0.185 HD
HETATM   31  O6  UNL     1      15.825  13.893   9.772  1.00  0.00    -0.233 OA
ATOM     32  H10 UNL     1      15.612  13.503  11.906  1.00  0.00     0.215 HD
ENDBRANCH   6  27
BRANCH   3  33
HETATM   33  S1  UNL     1      14.117  13.263   4.582  1.00  0.00    -0.046 SA
BRANCH  33  34
HETATM   34  C11 UNL     1      15.861  12.877   4.452  1.00  0.00     0.276 C 
HETATM   35  N4  UNL     1      16.142  11.658   3.755  1.00  0.00    -0.094 NA
HETATM   36  N5  UNL     1      17.488  11.811   3.406  1.00  0.00    -0.019 NA
HETATM   37  N6  UNL     1      17.786  13.159   3.409  1.00  0.00    -0.019 NA
HETATM   38  N7  UNL     1      16.616  13.855   3.733  1.00  0.00    -0.094 NA
ENDBRANCH  33  34
ENDBRANCH   3  33
TORSDOF 10
ENDMDL
MODEL 4
REMARK VINA RESULT: -6.724790858      3.477      6.377
REMARK  10 active torsions:
REMARK  status: ('A' for Active; 'I' for Inactive)
REMARK    1  A    between atoms: O1_2  and  C2_3 
REMARK       I    between atoms: C2_3  and  N1_5 
REMARK    2  A    between atoms: N1_5  and  C4_7 
REMARK    3  A    between atoms: C5_8  and  N2_9 
REMARK    4  A    between atoms: C5_8  and  C9_19 
REMARK       I    between atoms: N2_9  and  C6_11 
REMARK    5  A    between atoms: C6_11  and  C7_13 
REMARK    6  A    between atoms: C7_13  and  N3_15 
REMARK    7  A    between atoms: C10_21  and  S1_22 
REMARK    8  A    between atoms: S1_22  and  C11_23 
REMARK    9  A    between atoms: C12_30  and  O5_31 
REMARK   10  A    between atoms: C12_30  and  C13_33 
ROOT
HETATM    1  C9  UNL     1      12.836  14.707   6.050  1.00  0.00     0.242 C 
HETATM    2  O4  UNL     1      11.722  14.123   5.461  1.00  0.00    -0.314 OA
HETATM    3  C10 UNL     1      11.067  15.198   4.823  1.00  0.00     0.184 C 
HETATM    4  N8  UNL     1      11.943  16.061   4.453  1.00  0.00    -0.327 N 
ATOM      5  H8  UNL     1      11.742  16.937   3.969  1.00  0.00     0.165 HD
HETATM    6  C12 UNL     1      13.255  15.595   4.830  1.00  0.00     0.215 C 
ENDROOT
BRANCH   1   7
HETATM    7  C5  UNL     1      13.916  13.885   6.507  1.00  0.00     0.062 C 
HETATM    8  C4  UNL     1      14.282  13.691   7.731  1.00  0.00     0.123 C 
BRANCH   8   9
HETATM    9  N1  UNL     1      13.895  13.991   9.016  1.00  0.00    -0.306 N 
HETATM   10  C2  UNL     1      12.679  13.998   9.659  1.00  0.00     0.366 C 
HETATM   11  O2  UNL     1      11.618  13.556   9.210  1.00  0.00    -0.238 OA
HETATM   12  C3  UNL     1      15.025  14.500   9.897  1.00  0.00     0.161 C 
BRANCH  10  13
HETATM   13  O1  UNL     1      12.525  14.545  10.977  1.00  0.00    -0.309 OA
HETATM   14  C1  UNL     1      11.229  14.719  11.538  1.00  0.00     0.215 C 
ENDBRANCH  10  13
ENDBRANCH   8   9
BRANCH   7  15
HETATM   15  N2  UNL     1      14.779  13.266   5.518  1.00  0.00    -0.325 N 
HETATM   16  C6  UNL     1      14.479  11.972   5.081  1.00  0.00     0.252 C 
HETATM   17  O3  UNL     1      13.483  11.298   5.504  1.00  0.00    -0.271 OA
ATOM     18  H2  UNL     1      15.589  13.765   5.149  1.00  0.00     0.168 HD
BRANCH  16  19
HETATM   19  C7  UNL     1      15.316  11.253   4.062  1.00  0.00     0.271 C 
HETATM   20  C8  UNL     1      14.748  11.610   2.709  1.00  0.00     0.050 C 
BRANCH  19  21
HETATM   21  N3  UNL     1      16.675  11.682   4.127  1.00  0.00    -0.067 N 
ATOM     22  H33 UNL     1      16.841  12.290   4.929  1.00  0.00     0.275 HD
ATOM     23  H32 UNL     1      17.300  10.917   4.381  1.00  0.00     0.275 HD
ATOM     24  H31 UNL     1      16.958  12.125   3.252  1.00  0.00     0.275 HD
ENDBRANCH  19  21
ENDBRANCH  16  19
ENDBRANCH   7  15
ENDBRANCH   1   7
BRANCH   6  25
HETATM   25  O5  UNL     1      13.751  14.899   3.784  1.00  0.00    -0.364 OA
ATOM     26  H5  UNL     1      14.195  15.434   3.136  1.00  0.00     0.213 HD
ENDBRANCH   6  25
BRANCH   6  27
HETATM   27  C13 UNL     1      14.141  16.712   5.321  1.00  0.00     0.327 A 
HETATM   28  N9  UNL     1      15.488  16.581   4.897  1.00  0.00    -0.281 N 
HETATM   29  N10 UNL     1      15.370  17.559   4.131  1.00  0.00    -0.207 N 
ATOM     30  H9  UNL     1      16.249  15.942   5.126  1.00  0.00     0.185 HD
HETATM   31  O6  UNL     1      14.074  17.796   4.448  1.00  0.00    -0.233 OA
ATOM     32  H10 UNL     1      16.020  18.018   3.492  1.00  0.00     0.215 HD
ENDBRANCH   6  27
BRANCH   3  33
HETATM   33  S1  UNL     1       9.291  15.366   4.553  1.00  0.00    -0.046 SA
BRANCH  33  34
HETATM   34  C11 UNL     1       8.483  13.787   4.800  1.00  0.00     0.276 C 
HETATM   35  N4  UNL     1       7.052  13.847   4.756  1.00  0.00    -0.094 NA
HETATM   36  N5  UNL     1       6.700  12.512   4.524  1.00  0.00    -0.019 NA
HETATM   37  N6  UNL     1       7.783  11.871   3.957  1.00  0.00    -0.019 NA
HETATM   38  N7  UNL     1       8.808  12.811   3.807  1.00  0.00    -0.094 NA
ENDBRANCH  33  34
ENDBRANCH   3  33
TORSDOF 10
ENDMDL
MODEL 5
REMARK VINA RESULT: -6.721555294      3.550      6.869
REMARK  10 active torsions:
REMARK  status: ('A' for Active; 'I' for Inactive)
REMARK    1  A    between atoms: O1_2  and  C2_3 
REMARK       I    between atoms: C2_3  and  N1_5 
REMARK    2  A    between atoms: N1_5  and  C4_7 
REMARK    3  A    between atoms: C5_8  and  N2_9 
REMARK    4  A    between atoms: C5_8  and  C9_19 
REMARK       I    between atoms: N2_9  and  C6_11 
REMARK    5  A    between atoms: C6_11  and  C7_13 
REMARK    6  A    between atoms: C7_13  and  N3_15 
REMARK    7  A    between atoms: C10_21  and  S1_22 
REMARK    8  A    between atoms: S1_22  and  C11_23 
REMARK    9  A    between atoms: C12_30  and  O5_31 
REMARK   10  A    between atoms: C12_30  and  C13_33 
ROOT
HETATM    1  C9  UNL     1      14.670  19.068  11.467  1.00  0.00     0.242 C 
HETATM    2  O4  UNL     1      13.721  18.106  11.143  1.00  0.00    -0.314 OA
HETATM    3  C10 UNL     1      14.008  17.034  12.016  1.00  0.00     0.184 C 
HETATM    4  N8  UNL     1      14.491  17.502  13.109  1.00  0.00    -0.327 N 
ATOM      5  H8  UNL     1      14.786  16.945  13.912  1.00  0.00     0.165 HD
HETATM    6  C12 UNL     1      14.550  18.941  13.023  1.00  0.00     0.215 C 
ENDROOT
BRANCH   1   7
HETATM    7  C5  UNL     1      14.495  20.420  11.028  1.00  0.00     0.062 C 
HETATM    8  C4  UNL     1      13.401  20.967  10.611  1.00  0.00     0.123 C 
BRANCH   8   9
HETATM    9  N1  UNL     1      12.060  20.691  10.472  1.00  0.00    -0.306 N 
HETATM   10  C2  UNL     1      11.025  20.559  11.368  1.00  0.00     0.366 C 
HETATM   11  O2  UNL     1      11.067  20.831  12.571  1.00  0.00    -0.238 OA
HETATM   12  C3  UNL     1      11.640  20.387   9.043  1.00  0.00     0.161 C 
BRANCH  10  13
HETATM   13  O1  UNL     1       9.736  20.071  10.966  1.00  0.00    -0.309 OA
HETATM   14  C1  UNL     1       9.236  18.845  11.486  1.00  0.00     0.215 C 
ENDBRANCH  10  13
ENDBRANCH   8   9
BRANCH   7  15
HETATM   15  N2  UNL     1      15.666  21.271  10.928  1.00  0.00    -0.325 N 
HETATM   16  C6  UNL     1      16.218  21.508   9.665  1.00  0.00     0.252 C 
HETATM   17  O3  UNL     1      15.748  21.015   8.587  1.00  0.00    -0.271 OA
ATOM     18  H2  UNL     1      16.078  21.689  11.762  1.00  0.00     0.168 HD
BRANCH  16  19
HETATM   19  C7  UNL     1      17.428  22.374   9.465  1.00  0.00     0.271 C 
HETATM   20  C8  UNL     1      18.444  21.939  10.495  1.00  0.00     0.050 C 
BRANCH  19  21
HETATM   21  N3  UNL     1      17.977  22.188   8.161  1.00  0.00    -0.067 N 
ATOM     22  H33 UNL     1      18.861  21.680   8.193  1.00  0.00     0.275 HD
ATOM     23  H32 UNL     1      17.433  21.518   7.617  1.00  0.00     0.275 HD
ATOM     24  H31 UNL     1      18.071  23.080   7.676  1.00  0.00     0.275 HD
ENDBRANCH  19  21
ENDBRANCH  16  19
ENDBRANCH   7  15
ENDBRANCH   1   7
BRANCH   6  25
HETATM   25  O5  UNL     1      13.393  19.421  13.530  1.00  0.00    -0.364 OA
ATOM     26  H5  UNL     1      13.504  20.156  14.122  1.00  0.00     0.213 HD
ENDBRANCH   6  25
BRANCH   6  27
HETATM   27  C13 UNL     1      15.798  19.503  13.657  1.00  0.00     0.327 A 
HETATM   28  N9  UNL     1      15.540  20.604  14.512  1.00  0.00    -0.281 N 
HETATM   29  N10 UNL     1      15.826  19.925  15.518  1.00  0.00    -0.207 N 
ATOM     30  H9  UNL     1      15.240  21.568  14.363  1.00  0.00     0.185 HD
HETATM   31  O6  UNL     1      16.104  18.798  14.819  1.00  0.00    -0.233 OA
ATOM     32  H10 UNL     1      15.843  20.142  16.515  1.00  0.00     0.215 HD
ENDBRANCH   6  27
BRANCH   3  33
HETATM   33  S1  UNL     1      13.751  15.280  11.681  1.00  0.00    -0.046 SA
BRANCH  33  34
HETATM   34  C11 UNL     1      14.122  14.923   9.966  1.00  0.00     0.276 C 
HETATM   35  N4  UNL     1      15.459  14.460   9.739  1.00  0.00    -0.094 NA
HETATM   36  N5  UNL     1      15.359  13.850   8.483  1.00  0.00    -0.019 NA
HETATM   37  N6  UNL     1      14.037  13.516   8.268  1.00  0.00    -0.019 NA
HETATM   38  N7  UNL     1      13.310  13.891   9.403  1.00  0.00    -0.094 NA
ENDBRANCH  33  34
ENDBRANCH   3  33
TORSDOF 10
ENDMDL
