MODEL 1
REMARK VINA RESULT: -7.681183552      0.000      0.000
REMARK  10 active torsions:
REMARK  status: ('A' for Active; 'I' for Inactive)
REMARK    1  A    between atoms: N1_1  and  C1_4 
REMARK    2  A    between atoms: C2_10  and  N4_11 
REMARK    3  A    between atoms: C4_17  and  C5_18 
REMARK    4  A    between atoms: C5_18  and  N7_19 
REMARK    5  A    between atoms: N7_19  and  N8_21 
REMARK    6  A    between atoms: N8_21  and  N9_23 
REMARK       I    between atoms: N9_23  and  C6_25 
REMARK    7  A    between atoms: C6_25  and  C7_27 
REMARK    8  A    between atoms: C7_27  and  O3_28 
REMARK    9  A    between atoms: N11_36  and  N12_38 
REMARK   10  A    between atoms: N13_40  and  N14_42 
ROOT
HETATM    1  C5  UNL     1      15.021  20.197  12.729  1.00  0.00     0.169 C 
HETATM    2  N11 UNL     1      13.961  20.948  12.775  1.00  0.00    -0.267 N 
ATOM      3  H11 UNL     1      14.063  21.902  13.120  1.00  0.00     0.190 HD
ENDROOT
BRANCH   1   4
HETATM    4  C4  UNL     1      16.321  20.670  13.149  1.00  0.00     0.138 A 
HETATM    5  N4  UNL     1      17.253  21.192  12.317  1.00  0.00    -0.212 N 
HETATM    6  N5  UNL     1      18.282  21.495  13.087  1.00  0.00    -0.012 NA
HETATM    7  N6  UNL     1      18.041  21.191  14.351  1.00  0.00    -0.275 N 
HETATM    8  C3  UNL     1      16.796  20.659  14.443  1.00  0.00     0.126 A 
ATOM      9  H6  UNL     1      18.685  21.332  15.129  1.00  0.00     0.185 HD
HETATM   10  S1  UNL     1      15.971  20.076  15.925  1.00  0.00    -0.029 SA
BRANCH   5  11
HETATM   11  C2  UNL     1      17.123  21.365  10.910  1.00  0.00     0.194 A 
HETATM   12  C1  UNL     1      18.065  21.959  10.074  1.00  0.00     0.169 A 
HETATM   13  N2  UNL     1      17.587  21.940   8.813  1.00  0.00    -0.222 N 
HETATM   14  O1  UNL     1      16.419  21.373   8.851  1.00  0.00    -0.153 OA
ATOM     15  H2  UNL     1      18.056  22.304   7.983  1.00  0.00     0.198 HD
HETATM   16  N3  UNL     1      16.121  21.022  10.080  1.00  0.00    -0.221 N 
ATOM     17  H3  UNL     1      15.258  20.559  10.364  1.00  0.00     0.198 HD
BRANCH  12  18
HETATM   18  N1  UNL     1      19.187  22.433  10.466  1.00  0.00    -0.381 N 
ATOM     19  H12 UNL     1      19.797  23.020   9.898  1.00  0.00     0.157 HD
ATOM     20  H11 UNL     1      19.626  22.299  11.377  1.00  0.00     0.157 HD
ENDBRANCH  12  18
ENDBRANCH   5  11
ENDBRANCH   1   4
BRANCH   1  21
HETATM   21  N7  UNL     1      14.839  18.873  12.242  1.00  0.00    -0.268 N 
ATOM     22  H7  UNL     1      14.688  18.708  11.246  1.00  0.00     0.190 HD
BRANCH  21  23
HETATM   23  N8  UNL     1      14.865  17.884  13.062  1.00  0.00    -0.238 N 
ATOM     24  H8  UNL     1      15.250  17.998  14.001  1.00  0.00     0.208 HD
BRANCH  23  25
HETATM   25  N9  UNL     1      14.358  16.651  12.646  1.00  0.00    -0.252 N 
HETATM   26  C6  UNL     1      13.061  16.522  12.085  1.00  0.00     0.284 C 
HETATM   27  O2  UNL     1      12.364  17.557  11.967  1.00  0.00    -0.267 OA
ATOM     28  H9  UNL     1      14.938  15.818  12.748  1.00  0.00     0.191 HD
BRANCH  26  29
HETATM   29  C7  UNL     1      12.517  15.239  11.646  1.00  0.00     0.216 C 
HETATM   30  C8  UNL     1      11.033  15.098  12.018  1.00  0.00     0.165 C 
HETATM   31  C9  UNL     1      10.460  14.076  11.113  1.00  0.00     0.231 C 
HETATM   32  O4  UNL     1       9.753  13.075  11.489  1.00  0.00    -0.273 OA
HETATM   33  N10 UNL     1      10.784  14.326   9.753  1.00  0.00    -0.298 N 
HETATM   34  S2  UNL     1      12.352  15.159   9.816  1.00  0.00    -0.003 SA
ATOM     35  H10 UNL     1      10.239  14.083   8.926  1.00  0.00     0.177 HD
BRANCH  29  36
HETATM   36  O3  UNL     1      13.253  14.183  12.125  1.00  0.00    -0.369 OA
ATOM     37  H3  UNL     1      13.562  14.342  13.009  1.00  0.00     0.212 HD
ENDBRANCH  29  36
ENDBRANCH  26  29
ENDBRANCH  23  25
ENDBRANCH  21  23
ENDBRANCH   1  21
BRANCH   2  38
HETATM   38  N12 UNL     1      12.711  20.528  12.383  1.00  0.00    -0.227 N 
HETATM   39  N13 UNL     1      11.874  20.185  13.276  1.00  0.00    -0.235 N 
ATOM     40  H13 UNL     1      12.146  20.228  14.258  1.00  0.00     0.209 HD
ATOM     41  H12 UNL     1      12.460  20.492  11.395  1.00  0.00     0.210 HD
BRANCH  39  42
HETATM   42  N14 UNL     1      10.572  19.744  12.935  1.00  0.00    -0.330 N 
ATOM     43 2H14 UNL     1      10.157  18.989  13.481  1.00  0.00     0.178 HD
ATOM     44 1H14 UNL     1      10.055  20.166  12.164  1.00  0.00     0.178 HD
ENDBRANCH  39  42
ENDBRANCH   2  38
TORSDOF 10
ENDMDL
MODEL 2
REMARK VINA RESULT: -7.510239018      5.248      8.124
REMARK  10 active torsions:
REMARK  status: ('A' for Active; 'I' for Inactive)
REMARK    1  A    between atoms: N1_1  and  C1_4 
REMARK    2  A    between atoms: C2_10  and  N4_11 
REMARK    3  A    between atoms: C4_17  and  C5_18 
REMARK    4  A    between atoms: C5_18  and  N7_19 
REMARK    5  A    between atoms: N7_19  and  N8_21 
REMARK    6  A    between atoms: N8_21  and  N9_23 
REMARK       I    between atoms: N9_23  and  C6_25 
REMARK    7  A    between atoms: C6_25  and  C7_27 
REMARK    8  A    between atoms: C7_27  and  O3_28 
REMARK    9  A    between atoms: N11_36  and  N12_38 
REMARK   10  A    between atoms: N13_40  and  N14_42 
ROOT
HETATM    1  C5  UNL     1      12.821  15.960  10.677  1.00  0.00     0.169 C 
HETATM    2  N11 UNL     1      13.499  15.889  11.784  1.00  0.00    -0.267 N 
ATOM      3  H11 UNL     1      13.168  16.426  12.586  1.00  0.00     0.190 HD
ENDROOT
BRANCH   1   4
HETATM    4  C4  UNL     1      11.629  16.767  10.552  1.00  0.00     0.138 A 
HETATM    5  N4  UNL     1      10.369  16.275  10.526  1.00  0.00    -0.212 N 
HETATM    6  N5  UNL     1       9.582  17.329  10.402  1.00  0.00    -0.012 NA
HETATM    7  N6  UNL     1      10.284  18.448  10.351  1.00  0.00    -0.275 N 
HETATM    8  C3  UNL     1      11.602  18.142  10.444  1.00  0.00     0.126 A 
ATOM      9  H6  UNL     1       9.898  19.387  10.257  1.00  0.00     0.185 HD
HETATM   10  S1  UNL     1      12.986  19.283  10.426  1.00  0.00    -0.029 SA
BRANCH   5  11
HETATM   11  C2  UNL     1       9.998  14.903  10.614  1.00  0.00     0.194 A 
HETATM   12  C1  UNL     1       9.870  14.025   9.541  1.00  0.00     0.169 A 
HETATM   13  N2  UNL     1       9.505  12.818  10.020  1.00  0.00    -0.222 N 
HETATM   14  O1  UNL     1       9.409  12.928  11.311  1.00  0.00    -0.153 OA
ATOM     15  H2  UNL     1       9.337  11.975   9.470  1.00  0.00     0.198 HD
HETATM   16  N3  UNL     1       9.696  14.152  11.688  1.00  0.00    -0.221 N 
ATOM     17  H3  UNL     1       9.690  14.484  12.652  1.00  0.00     0.198 HD
BRANCH  12  18
HETATM   18  N1  UNL     1      10.072  14.339   8.317  1.00  0.00    -0.381 N 
ATOM     19  H12 UNL     1      10.992  14.439   7.890  1.00  0.00     0.157 HD
ATOM     20  H11 UNL     1       9.364  14.531   7.607  1.00  0.00     0.157 HD
ENDBRANCH  12  18
ENDBRANCH   5  11
ENDBRANCH   1   4
BRANCH   1  21
HETATM   21  N7  UNL     1      13.315  15.197   9.582  1.00  0.00    -0.268 N 
ATOM     22  H7  UNL     1      13.641  14.241   9.728  1.00  0.00     0.190 HD
BRANCH  21  23
HETATM   23  N8  UNL     1      13.348  15.718   8.408  1.00  0.00    -0.238 N 
ATOM     24  H8  UNL     1      12.810  16.559   8.198  1.00  0.00     0.208 HD
BRANCH  23  25
HETATM   25  N9  UNL     1      14.133  15.111   7.425  1.00  0.00    -0.252 N 
HETATM   26  C6  UNL     1      13.665  14.011   6.661  1.00  0.00     0.284 C 
HETATM   27  O2  UNL     1      12.508  13.585   6.889  1.00  0.00    -0.267 OA
ATOM     28  H9  UNL     1      15.072  15.470   7.250  1.00  0.00     0.191 HD
BRANCH  26  29
HETATM   29  C7  UNL     1      14.475  13.365   5.631  1.00  0.00     0.216 C 
HETATM   30  C8  UNL     1      13.872  12.021   5.198  1.00  0.00     0.165 C 
HETATM   31  C9  UNL     1      14.417  11.719   3.855  1.00  0.00     0.231 C 
HETATM   32  O4  UNL     1      14.946  10.603   3.511  1.00  0.00    -0.273 OA
HETATM   33  N10 UNL     1      14.289  12.821   2.968  1.00  0.00    -0.298 N 
HETATM   34  S2  UNL     1      14.361  14.249   4.021  1.00  0.00    -0.003 SA
ATOM     35  H10 UNL     1      14.181  12.797   1.954  1.00  0.00     0.177 HD
BRANCH  29  36
HETATM   36  O3  UNL     1      15.781  13.222   6.027  1.00  0.00    -0.369 OA
ATOM     37  H3  UNL     1      16.381  13.641   5.421  1.00  0.00     0.212 HD
ENDBRANCH  29  36
ENDBRANCH  26  29
ENDBRANCH  23  25
ENDBRANCH  21  23
ENDBRANCH   1  21
BRANCH   2  38
HETATM   38  N12 UNL     1      14.637  15.130  11.935  1.00  0.00    -0.227 N 
HETATM   39  N13 UNL     1      14.649  14.216  12.819  1.00  0.00    -0.235 N 
ATOM     40  H13 UNL     1      13.820  14.066  13.394  1.00  0.00     0.209 HD
ATOM     41  H12 UNL     1      15.456  15.297  11.349  1.00  0.00     0.210 HD
BRANCH  39  42
HETATM   42  N14 UNL     1      15.791  13.403  13.021  1.00  0.00    -0.330 N 
ATOM     43 2H14 UNL     1      16.328  13.109  12.204  1.00  0.00     0.178 HD
ATOM     44 1H14 UNL     1      16.077  13.114  13.956  1.00  0.00     0.178 HD
ENDBRANCH  39  42
ENDBRANCH   2  38
TORSDOF 10
ENDMDL
MODEL 3
REMARK VINA RESULT: -7.226308106      6.068      8.613
REMARK  10 active torsions:
REMARK  status: ('A' for Active; 'I' for Inactive)
REMARK    1  A    between atoms: N1_1  and  C1_4 
REMARK    2  A    between atoms: C2_10  and  N4_11 
REMARK    3  A    between atoms: C4_17  and  C5_18 
REMARK    4  A    between atoms: C5_18  and  N7_19 
REMARK    5  A    between atoms: N7_19  and  N8_21 
REMARK    6  A    between atoms: N8_21  and  N9_23 
REMARK       I    between atoms: N9_23  and  C6_25 
REMARK    7  A    between atoms: C6_25  and  C7_27 
REMARK    8  A    between atoms: C7_27  and  O3_28 
REMARK    9  A    between atoms: N11_36  and  N12_38 
REMARK   10  A    between atoms: N13_40  and  N14_42 
ROOT
HETATM    1  C5  UNL     1      14.085  14.516   6.146  1.00  0.00     0.169 C 
HETATM    2  N11 UNL     1      15.029  14.702   7.020  1.00  0.00    -0.267 N 
ATOM      3  H11 UNL     1      15.794  15.330   6.774  1.00  0.00     0.190 HD
ENDROOT
BRANCH   1   4
HETATM    4  C4  UNL     1      14.090  15.163   4.853  1.00  0.00     0.138 A 
HETATM    5  N4  UNL     1      14.586  14.611   3.722  1.00  0.00    -0.212 N 
HETATM    6  N5  UNL     1      14.400  15.517   2.778  1.00  0.00    -0.012 NA
HETATM    7  N6  UNL     1      13.816  16.600   3.261  1.00  0.00    -0.275 N 
HETATM    8  C3  UNL     1      13.596  16.423   4.588  1.00  0.00     0.126 A 
ATOM      9  H6  UNL     1      13.571  17.432   2.725  1.00  0.00     0.185 HD
HETATM   10  S1  UNL     1      12.833  17.580   5.726  1.00  0.00    -0.029 SA
BRANCH   5  11
HETATM   11  C2  UNL     1      15.179  13.322   3.602  1.00  0.00     0.194 A 
HETATM   12  C1  UNL     1      16.544  13.051   3.617  1.00  0.00     0.169 A 
HETATM   13  N2  UNL     1      16.715  11.720   3.480  1.00  0.00    -0.222 N 
HETATM   14  O1  UNL     1      15.535  11.187   3.384  1.00  0.00    -0.153 OA
ATOM     15  H2  UNL     1      17.607  11.224   3.457  1.00  0.00     0.198 HD
HETATM   16  N3  UNL     1      14.607  12.113   3.454  1.00  0.00    -0.221 N 
ATOM     17  H3  UNL     1      13.604  11.942   3.404  1.00  0.00     0.198 HD
BRANCH  12  18
HETATM   18  N1  UNL     1      17.459  13.936   3.742  1.00  0.00    -0.381 N 
ATOM     19  H12 UNL     1      18.419  13.740   4.024  1.00  0.00     0.157 HD
ATOM     20  H11 UNL     1      17.369  14.940   3.582  1.00  0.00     0.157 HD
ENDBRANCH  12  18
ENDBRANCH   5  11
ENDBRANCH   1   4
BRANCH   1  21
HETATM   21  N7  UNL     1      13.035  13.633   6.526  1.00  0.00    -0.268 N 
ATOM     22  H7  UNL     1      13.251  12.696   6.867  1.00  0.00     0.190 HD
BRANCH  21  23
HETATM   23  N8  UNL     1      11.814  14.023   6.438  1.00  0.00    -0.238 N 
ATOM     24  H8  UNL     1      11.318  13.980   5.547  1.00  0.00     0.208 HD
BRANCH  23  25
HETATM   25  N9  UNL     1      11.178  14.506   7.585  1.00  0.00    -0.252 N 
HETATM   26  C6  UNL     1      11.506  14.035   8.881  1.00  0.00     0.284 C 
HETATM   27  O2  UNL     1      12.398  13.158   8.983  1.00  0.00    -0.267 OA
ATOM     28  H9  UNL     1      10.455  15.219   7.486  1.00  0.00     0.191 HD
BRANCH  26  29
HETATM   29  C7  UNL     1      10.849  14.530  10.089  1.00  0.00     0.216 C 
HETATM   30  C8  UNL     1      11.415  15.890  10.523  1.00  0.00     0.165 C 
HETATM   31  C9  UNL     1      10.387  16.530  11.374  1.00  0.00     0.231 C 
HETATM   32  O4  UNL     1      10.605  17.049  12.525  1.00  0.00    -0.273 OA
HETATM   33  N10 UNL     1       9.103  16.507  10.767  1.00  0.00    -0.298 N 
HETATM   34  S2  UNL     1       9.115  15.045   9.758  1.00  0.00    -0.003 SA
ATOM     35  H10 UNL     1       8.344  17.179  10.884  1.00  0.00     0.177 HD
BRANCH  29  36
HETATM   36  O3  UNL     1      10.909  13.615  11.112  1.00  0.00    -0.369 OA
ATOM     37  H3  UNL     1      11.608  13.817  11.723  1.00  0.00     0.212 HD
ENDBRANCH  29  36
ENDBRANCH  26  29
ENDBRANCH  23  25
ENDBRANCH  21  23
ENDBRANCH   1  21
BRANCH   2  38
HETATM   38  N12 UNL     1      15.053  14.102   8.257  1.00  0.00    -0.227 N 
HETATM   39  N13 UNL     1      14.906  14.826   9.291  1.00  0.00    -0.235 N 
ATOM     40  H13 UNL     1      14.775  15.832   9.182  1.00  0.00     0.209 HD
ATOM     41  H12 UNL     1      15.186  13.094   8.344  1.00  0.00     0.210 HD
BRANCH  39  42
HETATM   42  N14 UNL     1      14.922  14.266  10.592  1.00  0.00    -0.330 N 
ATOM     43 2H14 UNL     1      14.076  13.809  10.933  1.00  0.00     0.178 HD
ATOM     44 1H14 UNL     1      15.755  14.313  11.179  1.00  0.00     0.178 HD
ENDBRANCH  39  42
ENDBRANCH   2  38
TORSDOF 10
ENDMDL
MODEL 4
REMARK VINA RESULT: -7.174394609      3.307      8.017
REMARK  10 active torsions:
REMARK  status: ('A' for Active; 'I' for Inactive)
REMARK    1  A    between atoms: N1_1  and  C1_4 
REMARK    2  A    between atoms: C2_10  and  N4_11 
REMARK    3  A    between atoms: C4_17  and  C5_18 
REMARK    4  A    between atoms: C5_18  and  N7_19 
REMARK    5  A    between atoms: N7_19  and  N8_21 
REMARK    6  A    between atoms: N8_21  and  N9_23 
REMARK       I    between atoms: N9_23  and  C6_25 
REMARK    7  A    between atoms: C6_25  and  C7_27 
REMARK    8  A    between atoms: C7_27  and  O3_28 
REMARK    9  A    between atoms: N11_36  and  N12_38 
REMARK   10  A    between atoms: N13_40  and  N14_42 
ROOT
HETATM    1  C5  UNL     1      12.315  16.579  10.362  1.00  0.00     0.169 C 
HETATM    2  N11 UNL     1      12.501  16.466  11.644  1.00  0.00    -0.267 N 
ATOM      3  H11 UNL     1      12.081  15.669  12.122  1.00  0.00     0.190 HD
ENDROOT
BRANCH   1   4
HETATM    4  C4  UNL     1      11.541  15.620   9.607  1.00  0.00     0.138 A 
HETATM    5  N4  UNL     1      12.073  14.649   8.828  1.00  0.00    -0.212 N 
HETATM    6  N5  UNL     1      11.040  13.999   8.321  1.00  0.00    -0.012 NA
HETATM    7  N6  UNL     1       9.897  14.512   8.744  1.00  0.00    -0.275 N 
HETATM    8  C3  UNL     1      10.165  15.553   9.571  1.00  0.00     0.126 A 
ATOM      9  H6  UNL     1       8.967  14.180   8.489  1.00  0.00     0.185 HD
HETATM   10  S1  UNL     1       8.979  16.600  10.418  1.00  0.00    -0.029 SA
BRANCH   5  11
HETATM   11  C2  UNL     1      13.459  14.404   8.616  1.00  0.00     0.194 A 
HETATM   12  C1  UNL     1      14.064  14.169   7.384  1.00  0.00     0.169 A 
HETATM   13  N2  UNL     1      15.384  13.981   7.587  1.00  0.00    -0.222 N 
HETATM   14  O1  UNL     1      15.598  14.089   8.864  1.00  0.00    -0.153 OA
ATOM     15  H2  UNL     1      16.085  13.790   6.871  1.00  0.00     0.198 HD
HETATM   16  N3  UNL     1      14.475  14.339   9.496  1.00  0.00    -0.221 N 
ATOM     17  H3  UNL     1      14.386  14.467  10.504  1.00  0.00     0.198 HD
BRANCH  12  18
HETATM   18  N1  UNL     1      13.446  14.144   6.264  1.00  0.00    -0.381 N 
ATOM     19  H12 UNL     1      12.830  14.883   5.926  1.00  0.00     0.157 HD
ATOM     20  H11 UNL     1      13.476  13.403   5.563  1.00  0.00     0.157 HD
ENDBRANCH  12  18
ENDBRANCH   5  11
ENDBRANCH   1   4
BRANCH   1  21
HETATM   21  N7  UNL     1      12.915  17.705   9.732  1.00  0.00    -0.268 N 
ATOM     22  H7  UNL     1      13.740  17.584   9.144  1.00  0.00     0.190 HD
BRANCH  21  23
HETATM   23  N8  UNL     1      12.413  18.874   9.907  1.00  0.00    -0.238 N 
ATOM     24  H8  UNL     1      11.450  18.983  10.224  1.00  0.00     0.208 HD
BRANCH  23  25
HETATM   25  N9  UNL     1      13.211  19.993   9.654  1.00  0.00    -0.252 N 
HETATM   26  C6  UNL     1      14.406  20.243  10.375  1.00  0.00     0.284 C 
HETATM   27  O2  UNL     1      14.743  19.422  11.262  1.00  0.00    -0.267 OA
ATOM     28  H9  UNL     1      12.924  20.651   8.929  1.00  0.00     0.191 HD
BRANCH  26  29
HETATM   29  C7  UNL     1      15.250  21.409  10.123  1.00  0.00     0.216 C 
HETATM   30  C8  UNL     1      16.703  21.159  10.553  1.00  0.00     0.165 C 
HETATM   31  C9  UNL     1      17.543  22.122   9.806  1.00  0.00     0.231 C 
HETATM   32  O4  UNL     1      18.433  22.881  10.330  1.00  0.00    -0.273 OA
HETATM   33  N10 UNL     1      17.251  22.117   8.416  1.00  0.00    -0.298 N 
HETATM   34  S2  UNL     1      15.536  21.666   8.324  1.00  0.00    -0.003 SA
ATOM     35  H10 UNL     1      17.885  22.325   7.645  1.00  0.00     0.177 HD
BRANCH  29  36
HETATM   36  O3  UNL     1      14.742  22.540  10.711  1.00  0.00    -0.369 OA
ATOM     37  H3  UNL     1      13.793  22.539  10.716  1.00  0.00     0.212 HD
ENDBRANCH  29  36
ENDBRANCH  26  29
ENDBRANCH  23  25
ENDBRANCH  21  23
ENDBRANCH   1  21
BRANCH   2  38
HETATM   38  N12 UNL     1      13.231  17.362  12.391  1.00  0.00    -0.227 N 
HETATM   39  N13 UNL     1      14.383  17.017  12.803  1.00  0.00    -0.235 N 
ATOM     40  H13 UNL     1      14.739  16.090  12.572  1.00  0.00     0.209 HD
ATOM     41  H12 UNL     1      12.855  18.285  12.611  1.00  0.00     0.210 HD
BRANCH  39  42
HETATM   42  N14 UNL     1      15.182  17.895  13.576  1.00  0.00    -0.330 N 
ATOM     43 2H14 UNL     1      14.721  18.657  14.074  1.00  0.00     0.178 HD
ATOM     44 1H14 UNL     1      16.193  17.776  13.638  1.00  0.00     0.178 HD
ENDBRANCH  39  42
ENDBRANCH   2  38
TORSDOF 10
ENDMDL
MODEL 5
REMARK VINA RESULT: -7.043033290      4.913      7.855
REMARK  10 active torsions:
REMARK  status: ('A' for Active; 'I' for Inactive)
REMARK    1  A    between atoms: N1_1  and  C1_4 
REMARK    2  A    between atoms: C2_10  and  N4_11 
REMARK    3  A    between atoms: C4_17  and  C5_18 
REMARK    4  A    between atoms: C5_18  and  N7_19 
REMARK    5  A    between atoms: N7_19  and  N8_21 
REMARK    6  A    between atoms: N8_21  and  N9_23 
REMARK       I    between atoms: N9_23  and  C6_25 
REMARK    7  A    between atoms: C6_25  and  C7_27 
REMARK    8  A    between atoms: C7_27  and  O3_28 
REMARK    9  A    between atoms: N11_36  and  N12_38 
REMARK   10  A    between atoms: N13_40  and  N14_42 
ROOT
HETATM    1  C5  UNL     1      12.278  15.587   9.329  1.00  0.00     0.169 C 
HETATM    2  N11 UNL     1      11.946  16.435   8.401  1.00  0.00    -0.267 N 
ATOM      3  H11 UNL     1      11.072  16.949   8.509  1.00  0.00     0.190 HD
ENDROOT
BRANCH   1   4
HETATM    4  C4  UNL     1      11.453  15.355  10.493  1.00  0.00     0.138 A 
HETATM    5  N4  UNL     1      11.682  15.892  11.714  1.00  0.00    -0.212 N 
HETATM    6  N5  UNL     1      10.712  15.436  12.487  1.00  0.00    -0.012 NA
HETATM    7  N6  UNL     1       9.893  14.648  11.812  1.00  0.00    -0.275 N 
HETATM    8  C3  UNL     1      10.324  14.564  10.529  1.00  0.00     0.126 A 
ATOM      9  H6  UNL     1       9.072  14.179  12.194  1.00  0.00     0.185 HD
HETATM   10  S1  UNL     1       9.582  13.626   9.192  1.00  0.00    -0.029 SA
BRANCH   5  11
HETATM   11  C2  UNL     1      12.753  16.761  12.065  1.00  0.00     0.194 A 
HETATM   12  C1  UNL     1      14.018  16.363  12.491  1.00  0.00     0.169 A 
HETATM   13  N2  UNL     1      14.755  17.468  12.727  1.00  0.00    -0.222 N 
HETATM   14  O1  UNL     1      14.004  18.496  12.468  1.00  0.00    -0.153 OA
ATOM     15  H2  UNL     1      15.723  17.491  13.050  1.00  0.00     0.198 HD
HETATM   16  N3  UNL     1      12.815  18.106  12.073  1.00  0.00    -0.221 N 
ATOM     17  H3  UNL     1      12.051  18.728  11.811  1.00  0.00     0.198 HD
BRANCH  12  18
HETATM   18  N1  UNL     1      14.389  15.146  12.626  1.00  0.00    -0.381 N 
ATOM     19  H12 UNL     1      15.288  14.854  13.008  1.00  0.00     0.157 HD
ATOM     20  H11 UNL     1      13.857  14.311  12.379  1.00  0.00     0.157 HD
ENDBRANCH  12  18
ENDBRANCH   5  11
ENDBRANCH   1   4
BRANCH   1  21
HETATM   21  N7  UNL     1      13.504  14.890   9.141  1.00  0.00    -0.268 N 
ATOM     22  H7  UNL     1      14.389  15.335   9.382  1.00  0.00     0.190 HD
BRANCH  21  23
HETATM   23  N8  UNL     1      13.490  13.695   8.668  1.00  0.00    -0.238 N 
ATOM     24  H8  UNL     1      12.951  12.961   9.127  1.00  0.00     0.208 HD
BRANCH  23  25
HETATM   25  N9  UNL     1      14.227  13.421   7.513  1.00  0.00    -0.252 N 
HETATM   26  C6  UNL     1      13.670  13.558   6.216  1.00  0.00     0.284 C 
HETATM   27  O2  UNL     1      12.479  13.940   6.122  1.00  0.00    -0.267 OA
ATOM     28  H9  UNL     1      15.195  13.112   7.606  1.00  0.00     0.191 HD
BRANCH  26  29
HETATM   29  C7  UNL     1      14.428  13.274   4.999  1.00  0.00     0.216 C 
HETATM   30  C8  UNL     1      15.713  12.488   5.304  1.00  0.00     0.165 C 
HETATM   31  C9  UNL     1      16.109  11.812   4.049  1.00  0.00     0.231 C 
HETATM   32  O4  UNL     1      17.284  11.841   3.538  1.00  0.00    -0.273 OA
HETATM   33  N10 UNL     1      15.026  11.110   3.457  1.00  0.00    -0.298 N 
HETATM   34  S2  UNL     1      13.584  12.023   3.947  1.00  0.00    -0.003 SA
ATOM     35  H10 UNL     1      15.067  10.270   2.879  1.00  0.00     0.177 HD
BRANCH  29  36
HETATM   36  O3  UNL     1      14.700  14.418   4.290  1.00  0.00    -0.369 OA
ATOM     37  H3  UNL     1      14.465  15.198   4.778  1.00  0.00     0.212 HD
ENDBRANCH  29  36
ENDBRANCH  26  29
ENDBRANCH  23  25
ENDBRANCH  21  23
ENDBRANCH   1  21
BRANCH   2  38
HETATM   38  N12 UNL     1      12.709  16.678   7.281  1.00  0.00    -0.227 N 
HETATM   39  N13 UNL     1      12.134  16.722   6.148  1.00  0.00    -0.235 N 
ATOM     40  H13 UNL     1      11.126  16.576   6.094  1.00  0.00     0.209 HD
ATOM     41  H12 UNL     1      13.716  16.820   7.359  1.00  0.00     0.210 HD
BRANCH  39  42
HETATM   42  N14 UNL     1      12.865  16.968   4.961  1.00  0.00    -0.330 N 
ATOM     43 2H14 UNL     1      13.885  16.966   5.010  1.00  0.00     0.178 HD
ATOM     44 1H14 UNL     1      12.393  17.143   4.074  1.00  0.00     0.178 HD
ENDBRANCH  39  42
ENDBRANCH   2  38
TORSDOF 10
ENDMDL
