MODEL 1
REMARK VINA RESULT: -8.414697225      0.000      0.000
REMARK  17 active torsions:
REMARK  status: ('A' for Active; 'I' for Inactive)
REMARK       I    between atoms: C1_2  and  N6_42 
REMARK    1  A    between atoms: N2_3  and  C2_5 
REMARK    2  A    between atoms: C2_5  and  C3_6 
REMARK    3  A    between atoms: C3_6  and  C4_7 
REMARK    4  A    between atoms: C4_7  and  C5_8 
REMARK       I    between atoms: C5_8  and  N3_10 
REMARK       I    between atoms: N3_10  and  C6_12 
REMARK    5  A    between atoms: C6_12  and  C7_14 
REMARK    6  A    between atoms: C10_17  and  C11_18 
REMARK    7  A    between atoms: C11_18  and  C12_19 
REMARK    8  A    between atoms: C12_19  and  C13_20 
REMARK    9  A    between atoms: C16_23  and  C17_24 
REMARK   10  A    between atoms: C17_24  and  N4_25 
REMARK   11  A    between atoms: N5_28  and  C20_29 
REMARK   12  A    between atoms: C20_29  and  C21_30 
REMARK   13  A    between atoms: C21_30  and  C22_31 
REMARK   14  A    between atoms: C22_31  and  O3_32 
REMARK   15  A    between atoms: N6_42  and  C31_44 
REMARK   16  A    between atoms: C31_44  and  C32_45 
REMARK   17  A    between atoms: C32_45  and  O4_46 
ROOT
HETATM    1  C7  UNL     1       3.462  -1.471  12.823  1.00  0.00     0.032 A 
HETATM    2  C8  UNL     1       2.406  -1.200  13.672  1.00  0.00     0.017 A 
HETATM    3  C9  UNL     1       1.336  -0.474  13.199  1.00  0.00     0.008 A 
HETATM    4  C10 UNL     1       1.332  -0.026  11.880  1.00  0.00    -0.058 A 
HETATM    5  C29 UNL     1       2.370  -0.294  11.045  1.00  0.00     0.008 A 
HETATM    6  C30 UNL     1       3.455  -1.031  11.527  1.00  0.00     0.017 A 
ENDROOT
BRANCH   4   7
HETATM    7  C11 UNL     1       0.179   0.754  11.395  1.00  0.00     0.043 C 
BRANCH   7   8
HETATM    8  C12 UNL     1       0.324   2.244  11.713  1.00  0.00     0.043 C 
BRANCH   8   9
HETATM    9  C13 UNL     1       1.025   2.876  10.556  1.00  0.00    -0.058 A 
HETATM   10  C14 UNL     1       2.247   3.487  10.751  1.00  0.00     0.007 A 
HETATM   11  C15 UNL     1       2.917   4.081   9.697  1.00  0.00     0.009 A 
HETATM   12  C16 UNL     1       2.408   4.093   8.417  1.00  0.00    -0.032 A 
HETATM   13  C27 UNL     1       1.188   3.481   8.232  1.00  0.00     0.009 A 
HETATM   14  C28 UNL     1       0.505   2.880   9.288  1.00  0.00     0.007 A 
BRANCH  12  15
HETATM   15  C17 UNL     1       3.179   4.743   7.347  1.00  0.00     0.276 C 
BRANCH  15  16
HETATM   16  N4  UNL     1       4.193   3.924   6.766  1.00  0.00    -0.058 N 
HETATM   17  C18 UNL     1       3.614   3.223   5.607  1.00  0.00     0.266 C 
HETATM   18  C19 UNL     1       4.533   2.144   5.122  1.00  0.00     0.265 C 
HETATM   19  N5  UNL     1       5.879   2.498   5.527  1.00  0.00    -0.062 N 
HETATM   20  C23 UNL     1       5.943   2.294   6.973  1.00  0.00     0.265 C 
HETATM   21  C25 UNL     1       6.148   3.904   5.301  1.00  0.00     0.265 C 
HETATM   22  C24 UNL     1       4.796   2.978   7.682  1.00  0.00     0.266 C 
HETATM   23  C26 UNL     1       5.275   4.733   6.234  1.00  0.00     0.266 C 
BRANCH  19  24
HETATM   24  C20 UNL     1       6.875   1.659   4.925  1.00  0.00     0.239 C 
BRANCH  24  25
HETATM   25  C21 UNL     1       6.939   0.283   5.547  1.00  0.00     0.054 C 
BRANCH  25  26
HETATM   26  C22 UNL     1       6.805  -0.731   4.432  1.00  0.00     0.165 C 
BRANCH  26  27
HETATM   27  O3  UNL     1       5.741  -1.612   4.731  1.00  0.00    -0.401 OA
ATOM     28  H3  UNL     1       6.095  -2.466   4.949  1.00  0.00     0.209 HD
ENDBRANCH  26  27
ENDBRANCH  25  26
ENDBRANCH  24  25
ENDBRANCH  19  24
ENDBRANCH  15  16
ENDBRANCH  12  15
ENDBRANCH   8   9
ENDBRANCH   7   8
ENDBRANCH   4   7
BRANCH   1  29
HETATM   29  C6  UNL     1       4.577  -2.245  13.333  1.00  0.00     0.258 C 
HETATM   30  N3  UNL     1       5.678  -1.607  13.925  1.00  0.00    -0.293 N 
HETATM   31  C5  UNL     1       6.818  -2.280  14.449  1.00  0.00     0.224 C 
ATOM     32  H3  UNL     1       5.660  -0.589  13.986  1.00  0.00     0.172 HD
HETATM   33  O1  UNL     1       7.713  -1.534  14.924  1.00  0.00    -0.273 OA
HETATM   34  O2  UNL     1       4.534  -3.484  13.233  1.00  0.00    -0.267 OA
BRANCH  31  35
HETATM   35  C4  UNL     1       6.967  -3.716  14.449  1.00  0.00     0.105 C 
BRANCH  35  36
HETATM   36  C3  UNL     1       7.376  -4.426  15.670  1.00  0.00     0.029 C 
BRANCH  36  37
HETATM   37  C2  UNL     1       6.365  -4.985  16.585  1.00  0.00     0.122 C 
BRANCH  37  38
HETATM   38  N2  UNL     1       5.597  -6.104  16.199  1.00  0.00    -0.365 N 
HETATM   39  C1  UNL     1       4.363  -6.052  15.844  1.00  0.00     0.184 C 
HETATM   40  N1  UNL     1       3.684  -7.231  15.479  1.00  0.00    -0.064 NA
HETATM   41  N6  UNL     1       3.717  -4.793  15.832  1.00  0.00    -0.363 N 
ATOM     42  H6  UNL     1       3.973  -4.123  15.108  1.00  0.00     0.162 HD
ATOM     43  H2  UNL     1       6.052  -7.016  16.203  1.00  0.00     0.162 HD
BRANCH  41  44
HETATM   44  C31 UNL     1       2.713  -4.414  16.800  1.00  0.00     0.148 C 
BRANCH  44  45
HETATM   45  C32 UNL     1       2.733  -2.896  16.981  1.00  0.00     0.183 C 
BRANCH  45  46
HETATM   46  O4  UNL     1       3.973  -2.374  16.649  1.00  0.00    -0.399 OA
ATOM     47  H4  UNL     1       4.449  -2.105  17.426  1.00  0.00     0.209 HD
ENDBRANCH  45  46
ENDBRANCH  44  45
ENDBRANCH  41  44
ENDBRANCH  37  38
ENDBRANCH  36  37
ENDBRANCH  35  36
ENDBRANCH  31  35
ENDBRANCH   1  29
TORSDOF 17
ENDMDL
MODEL 2
REMARK VINA RESULT: -8.317106209      2.986      4.151
REMARK  17 active torsions:
REMARK  status: ('A' for Active; 'I' for Inactive)
REMARK       I    between atoms: C1_2  and  N6_42 
REMARK    1  A    between atoms: N2_3  and  C2_5 
REMARK    2  A    between atoms: C2_5  and  C3_6 
REMARK    3  A    between atoms: C3_6  and  C4_7 
REMARK    4  A    between atoms: C4_7  and  C5_8 
REMARK       I    between atoms: C5_8  and  N3_10 
REMARK       I    between atoms: N3_10  and  C6_12 
REMARK    5  A    between atoms: C6_12  and  C7_14 
REMARK    6  A    between atoms: C10_17  and  C11_18 
REMARK    7  A    between atoms: C11_18  and  C12_19 
REMARK    8  A    between atoms: C12_19  and  C13_20 
REMARK    9  A    between atoms: C16_23  and  C17_24 
REMARK   10  A    between atoms: C17_24  and  N4_25 
REMARK   11  A    between atoms: N5_28  and  C20_29 
REMARK   12  A    between atoms: C20_29  and  C21_30 
REMARK   13  A    between atoms: C21_30  and  C22_31 
REMARK   14  A    between atoms: C22_31  and  O3_32 
REMARK   15  A    between atoms: N6_42  and  C31_44 
REMARK   16  A    between atoms: C31_44  and  C32_45 
REMARK   17  A    between atoms: C32_45  and  O4_46 
ROOT
HETATM    1  C7  UNL     1       2.207  -0.976  12.975  1.00  0.00     0.032 A 
HETATM    2  C8  UNL     1       1.084  -0.449  13.583  1.00  0.00     0.017 A 
HETATM    3  C9  UNL     1       0.136   0.180  12.807  1.00  0.00     0.008 A 
HETATM    4  C10 UNL     1       0.320   0.275  11.429  1.00  0.00    -0.058 A 
HETATM    5  C29 UNL     1       1.425  -0.244  10.832  1.00  0.00     0.008 A 
HETATM    6  C30 UNL     1       2.386  -0.883  11.622  1.00  0.00     0.017 A 
ENDROOT
BRANCH   4   7
HETATM    7  C11 UNL     1      -0.704   0.957  10.617  1.00  0.00     0.043 C 
BRANCH   7   8
HETATM    8  C12 UNL     1      -0.610   2.479  10.741  1.00  0.00     0.043 C 
BRANCH   8   9
HETATM    9  C13 UNL     1       0.762   2.873  10.302  1.00  0.00    -0.058 A 
HETATM   10  C14 UNL     1       1.727   3.148  11.249  1.00  0.00     0.007 A 
HETATM   11  C15 UNL     1       3.005   3.518  10.870  1.00  0.00     0.009 A 
HETATM   12  C16 UNL     1       3.376   3.627   9.548  1.00  0.00    -0.032 A 
HETATM   13  C27 UNL     1       2.406   3.350   8.610  1.00  0.00     0.009 A 
HETATM   14  C28 UNL     1       1.115   2.978   8.982  1.00  0.00     0.007 A 
BRANCH  12  15
HETATM   15  C17 UNL     1       4.754   4.022   9.221  1.00  0.00     0.276 C 
BRANCH  15  16
HETATM   16  N4  UNL     1       5.761   3.310   9.939  1.00  0.00    -0.058 N 
HETATM   17  C18 UNL     1       5.343   1.903  10.050  1.00  0.00     0.266 C 
HETATM   18  C19 UNL     1       6.208   1.164  11.023  1.00  0.00     0.265 C 
HETATM   19  N5  UNL     1       7.481   1.854  11.092  1.00  0.00    -0.062 N 
HETATM   20  C23 UNL     1       7.238   3.099  11.819  1.00  0.00     0.265 C 
HETATM   21  C25 UNL     1       7.949   2.236   9.775  1.00  0.00     0.265 C 
HETATM   22  C24 UNL     1       6.060   3.855  11.247  1.00  0.00     0.266 C 
HETATM   23  C26 UNL     1       7.011   3.291   9.201  1.00  0.00     0.266 C 
BRANCH  19  24
HETATM   24  C20 UNL     1       8.473   1.114  11.818  1.00  0.00     0.239 C 
BRANCH  24  25
HETATM   25  C21 UNL     1       7.892  -0.051  12.586  1.00  0.00     0.054 C 
BRANCH  25  26
HETATM   26  C22 UNL     1       7.893   0.321  14.053  1.00  0.00     0.165 C 
BRANCH  26  27
HETATM   27  O3  UNL     1       6.618   0.817  14.407  1.00  0.00    -0.401 OA
ATOM     28  H3  UNL     1       6.520   1.698  14.063  1.00  0.00     0.209 HD
ENDBRANCH  26  27
ENDBRANCH  25  26
ENDBRANCH  24  25
ENDBRANCH  19  24
ENDBRANCH  15  16
ENDBRANCH  12  15
ENDBRANCH   8   9
ENDBRANCH   7   8
ENDBRANCH   4   7
BRANCH   1  29
HETATM   29  C6  UNL     1       3.192  -1.643  13.804  1.00  0.00     0.258 C 
HETATM   30  N3  UNL     1       3.827  -0.958  14.851  1.00  0.00    -0.293 N 
HETATM   31  C5  UNL     1       4.808  -1.526  15.713  1.00  0.00     0.224 C 
ATOM     32  H3  UNL     1       3.569   0.016  15.005  1.00  0.00     0.172 HD
HETATM   33  O1  UNL     1       5.278  -0.746  16.582  1.00  0.00    -0.273 OA
HETATM   34  O2  UNL     1       3.458  -2.835  13.566  1.00  0.00    -0.267 OA
BRANCH  31  35
HETATM   35  C4  UNL     1       5.253  -2.896  15.621  1.00  0.00     0.105 C 
BRANCH  35  36
HETATM   36  C3  UNL     1       6.642  -3.209  15.251  1.00  0.00     0.029 C 
BRANCH  36  37
HETATM   37  C2  UNL     1       7.260  -4.479  15.668  1.00  0.00     0.122 C 
BRANCH  37  38
HETATM   38  N2  UNL     1       8.314  -4.484  16.606  1.00  0.00    -0.365 N 
HETATM   39  C1  UNL     1       8.644  -5.497  17.324  1.00  0.00     0.184 C 
HETATM   40  N1  UNL     1       9.714  -5.398  18.234  1.00  0.00    -0.064 NA
HETATM   41  N6  UNL     1       7.909  -6.697  17.174  1.00  0.00    -0.363 N 
ATOM     42  H6  UNL     1       8.034  -7.240  16.320  1.00  0.00     0.162 HD
ATOM     43  H2  UNL     1       8.851  -3.625  16.721  1.00  0.00     0.162 HD
BRANCH  41  44
HETATM   44  C31 UNL     1       6.992  -7.189  18.177  1.00  0.00     0.148 C 
BRANCH  44  45
HETATM   45  C32 UNL     1       5.932  -6.124  18.457  1.00  0.00     0.183 C 
BRANCH  45  46
HETATM   46  O4  UNL     1       5.989  -5.703  19.776  1.00  0.00    -0.399 OA
ATOM     47  H4  UNL     1       5.314  -5.059  19.958  1.00  0.00     0.209 HD
ENDBRANCH  45  46
ENDBRANCH  44  45
ENDBRANCH  41  44
ENDBRANCH  37  38
ENDBRANCH  36  37
ENDBRANCH  35  36
ENDBRANCH  31  35
ENDBRANCH   1  29
TORSDOF 17
ENDMDL
MODEL 3
REMARK VINA RESULT: -8.247287339      1.754      2.689
REMARK  17 active torsions:
REMARK  status: ('A' for Active; 'I' for Inactive)
REMARK       I    between atoms: C1_2  and  N6_42 
REMARK    1  A    between atoms: N2_3  and  C2_5 
REMARK    2  A    between atoms: C2_5  and  C3_6 
REMARK    3  A    between atoms: C3_6  and  C4_7 
REMARK    4  A    between atoms: C4_7  and  C5_8 
REMARK       I    between atoms: C5_8  and  N3_10 
REMARK       I    between atoms: N3_10  and  C6_12 
REMARK    5  A    between atoms: C6_12  and  C7_14 
REMARK    6  A    between atoms: C10_17  and  C11_18 
REMARK    7  A    between atoms: C11_18  and  C12_19 
REMARK    8  A    between atoms: C12_19  and  C13_20 
REMARK    9  A    between atoms: C16_23  and  C17_24 
REMARK   10  A    between atoms: C17_24  and  N4_25 
REMARK   11  A    between atoms: N5_28  and  C20_29 
REMARK   12  A    between atoms: C20_29  and  C21_30 
REMARK   13  A    between atoms: C21_30  and  C22_31 
REMARK   14  A    between atoms: C22_31  and  O3_32 
REMARK   15  A    between atoms: N6_42  and  C31_44 
REMARK   16  A    between atoms: C31_44  and  C32_45 
REMARK   17  A    between atoms: C32_45  and  O4_46 
ROOT
HETATM    1  C7  UNL     1       2.283  -0.970  13.097  1.00  0.00     0.032 A 
HETATM    2  C8  UNL     1       1.101  -0.417  13.551  1.00  0.00     0.017 A 
HETATM    3  C9  UNL     1       0.331   0.322  12.681  1.00  0.00     0.008 A 
HETATM    4  C10 UNL     1       0.750   0.501  11.365  1.00  0.00    -0.058 A 
HETATM    5  C29 UNL     1       1.912  -0.044  10.919  1.00  0.00     0.008 A 
HETATM    6  C30 UNL     1       2.693  -0.794  11.803  1.00  0.00     0.017 A 
ENDROOT
BRANCH   4   7
HETATM    7  C11 UNL     1      -0.088   1.299  10.451  1.00  0.00     0.043 C 
BRANCH   7   8
HETATM    8  C12 UNL     1       0.120   2.802  10.655  1.00  0.00     0.043 C 
BRANCH   8   9
HETATM    9  C13 UNL     1       1.129   3.248   9.649  1.00  0.00    -0.058 A 
HETATM   10  C14 UNL     1       2.372   3.673  10.075  1.00  0.00     0.007 A 
HETATM   11  C15 UNL     1       3.325   4.094   9.165  1.00  0.00     0.009 A 
HETATM   12  C16 UNL     1       3.088   4.109   7.808  1.00  0.00    -0.032 A 
HETATM   13  C27 UNL     1       1.845   3.684   7.393  1.00  0.00     0.009 A 
HETATM   14  C28 UNL     1       0.878   3.258   8.303  1.00  0.00     0.007 A 
BRANCH  12  15
HETATM   15  C17 UNL     1       4.151   4.567   6.901  1.00  0.00     0.276 C 
BRANCH  15  16
HETATM   16  N4  UNL     1       5.080   3.555   6.517  1.00  0.00    -0.058 N 
HETATM   17  C18 UNL     1       4.541   2.854   5.340  1.00  0.00     0.266 C 
HETATM   18  C19 UNL     1       5.323   1.609   5.056  1.00  0.00     0.265 C 
HETATM   19  N5  UNL     1       6.649   1.784   5.614  1.00  0.00    -0.062 N 
HETATM   20  C23 UNL     1       6.500   1.700   7.066  1.00  0.00     0.265 C 
HETATM   21  C25 UNL     1       7.170   3.107   5.334  1.00  0.00     0.265 C 
HETATM   22  C24 UNL     1       5.403   2.611   7.567  1.00  0.00     0.266 C 
HETATM   23  C26 UNL     1       6.337   4.139   6.084  1.00  0.00     0.266 C 
BRANCH  19  24
HETATM   24  C20 UNL     1       7.560   0.753   5.209  1.00  0.00     0.239 C 
BRANCH  24  25
HETATM   25  C21 UNL     1       7.132   0.056   3.939  1.00  0.00     0.054 C 
BRANCH  25  26
HETATM   26  C22 UNL     1       7.121  -1.432   4.214  1.00  0.00     0.165 C 
BRANCH  26  27
HETATM   27  O3  UNL     1       5.843  -1.807   4.687  1.00  0.00    -0.401 OA
ATOM     28  H3  UNL     1       5.711  -2.734   4.529  1.00  0.00     0.209 HD
ENDBRANCH  26  27
ENDBRANCH  25  26
ENDBRANCH  24  25
ENDBRANCH  19  24
ENDBRANCH  15  16
ENDBRANCH  12  15
ENDBRANCH   8   9
ENDBRANCH   7   8
ENDBRANCH   4   7
BRANCH   1  29
HETATM   29  C6  UNL     1       3.079  -1.753  14.022  1.00  0.00     0.258 C 
HETATM   30  N3  UNL     1       2.971  -3.152  14.051  1.00  0.00    -0.293 N 
HETATM   31  C5  UNL     1       3.706  -4.003  14.925  1.00  0.00     0.224 C 
ATOM     32  H3  UNL     1       2.321  -3.591  13.399  1.00  0.00     0.172 HD
HETATM   33  O1  UNL     1       3.458  -5.231  14.815  1.00  0.00    -0.273 OA
HETATM   34  O2  UNL     1       3.858  -1.156  14.787  1.00  0.00    -0.267 OA
BRANCH  31  35
HETATM   35  C4  UNL     1       4.673  -3.520  15.881  1.00  0.00     0.105 C 
BRANCH  35  36
HETATM   36  C3  UNL     1       6.114  -3.702  15.646  1.00  0.00     0.029 C 
BRANCH  36  37
HETATM   37  C2  UNL     1       6.827  -4.854  16.224  1.00  0.00     0.122 C 
BRANCH  37  38
HETATM   38  N2  UNL     1       6.127  -6.037  16.544  1.00  0.00    -0.365 N 
HETATM   39  C1  UNL     1       6.390  -6.788  17.552  1.00  0.00     0.184 C 
HETATM   40  N1  UNL     1       5.631  -7.952  17.783  1.00  0.00    -0.064 NA
HETATM   41  N6  UNL     1       7.451  -6.415  18.411  1.00  0.00    -0.363 N 
ATOM     42  H6  UNL     1       7.322  -5.609  19.022  1.00  0.00     0.162 HD
ATOM     43  H2  UNL     1       5.359  -6.314  15.932  1.00  0.00     0.162 HD
BRANCH  41  44
HETATM   44  C31 UNL     1       8.709  -7.125  18.462  1.00  0.00     0.148 C 
BRANCH  44  45
HETATM   45  C32 UNL     1       9.768  -6.331  17.697  1.00  0.00     0.183 C 
BRANCH  45  46
HETATM   46  O4  UNL     1      10.156  -5.207  18.409  1.00  0.00    -0.399 OA
ATOM     47  H4  UNL     1      10.274  -5.411  19.330  1.00  0.00     0.209 HD
ENDBRANCH  45  46
ENDBRANCH  44  45
ENDBRANCH  41  44
ENDBRANCH  37  38
ENDBRANCH  36  37
ENDBRANCH  35  36
ENDBRANCH  31  35
ENDBRANCH   1  29
TORSDOF 17
ENDMDL
MODEL 4
REMARK VINA RESULT: -8.215055806      0.797      1.119
REMARK  17 active torsions:
REMARK  status: ('A' for Active; 'I' for Inactive)
REMARK       I    between atoms: C1_2  and  N6_42 
REMARK    1  A    between atoms: N2_3  and  C2_5 
REMARK    2  A    between atoms: C2_5  and  C3_6 
REMARK    3  A    between atoms: C3_6  and  C4_7 
REMARK    4  A    between atoms: C4_7  and  C5_8 
REMARK       I    between atoms: C5_8  and  N3_10 
REMARK       I    between atoms: N3_10  and  C6_12 
REMARK    5  A    between atoms: C6_12  and  C7_14 
REMARK    6  A    between atoms: C10_17  and  C11_18 
REMARK    7  A    between atoms: C11_18  and  C12_19 
REMARK    8  A    between atoms: C12_19  and  C13_20 
REMARK    9  A    between atoms: C16_23  and  C17_24 
REMARK   10  A    between atoms: C17_24  and  N4_25 
REMARK   11  A    between atoms: N5_28  and  C20_29 
REMARK   12  A    between atoms: C20_29  and  C21_30 
REMARK   13  A    between atoms: C21_30  and  C22_31 
REMARK   14  A    between atoms: C22_31  and  O3_32 
REMARK   15  A    between atoms: N6_42  and  C31_44 
REMARK   16  A    between atoms: C31_44  and  C32_45 
REMARK   17  A    between atoms: C32_45  and  O4_46 
ROOT
HETATM    1  C7  UNL     1       3.359  -1.428  12.868  1.00  0.00     0.032 A 
HETATM    2  C8  UNL     1       3.376  -0.967  11.566  1.00  0.00     0.017 A 
HETATM    3  C9  UNL     1       2.310  -0.228  11.104  1.00  0.00     0.008 A 
HETATM    4  C10 UNL     1       1.236   0.044  11.951  1.00  0.00    -0.058 A 
HETATM    5  C29 UNL     1       1.222  -0.410  13.231  1.00  0.00     0.008 A 
HETATM    6  C30 UNL     1       2.305  -1.160  13.698  1.00  0.00     0.017 A 
ENDROOT
BRANCH   4   7
HETATM    7  C11 UNL     1       0.103   0.833  11.435  1.00  0.00     0.043 C 
BRANCH   7   8
HETATM    8  C12 UNL     1       0.306   2.333  11.656  1.00  0.00     0.043 C 
BRANCH   8   9
HETATM    9  C13 UNL     1       1.000   2.867  10.447  1.00  0.00    -0.058 A 
HETATM   10  C14 UNL     1       2.179   3.572  10.595  1.00  0.00     0.007 A 
HETATM   11  C15 UNL     1       2.842   4.079   9.492  1.00  0.00     0.009 A 
HETATM   12  C16 UNL     1       2.370   3.909   8.209  1.00  0.00    -0.032 A 
HETATM   13  C27 UNL     1       1.194   3.204   8.072  1.00  0.00     0.009 A 
HETATM   14  C28 UNL     1       0.518   2.690   9.177  1.00  0.00     0.007 A 
BRANCH  12  15
HETATM   15  C17 UNL     1       3.132   4.475   7.086  1.00  0.00     0.276 C 
BRANCH  15  16
HETATM   16  N4  UNL     1       4.344   3.786   6.784  1.00  0.00    -0.058 N 
HETATM   17  C18 UNL     1       4.083   2.852   5.676  1.00  0.00     0.266 C 
HETATM   18  C19 UNL     1       5.228   1.904   5.495  1.00  0.00     0.265 C 
HETATM   19  N5  UNL     1       6.416   2.543   6.026  1.00  0.00    -0.062 N 
HETATM   20  C23 UNL     1       6.272   2.537   7.481  1.00  0.00     0.265 C 
HETATM   21  C25 UNL     1       6.492   3.934   5.629  1.00  0.00     0.265 C 
HETATM   22  C24 UNL     1       4.930   3.087   7.909  1.00  0.00     0.266 C 
HETATM   23  C26 UNL     1       5.356   4.703   6.293  1.00  0.00     0.266 C 
BRANCH  19  24
HETATM   24  C20 UNL     1       7.617   1.828   5.706  1.00  0.00     0.239 C 
BRANCH  24  25
HETATM   25  C21 UNL     1       7.462   0.330   5.829  1.00  0.00     0.054 C 
BRANCH  25  26
HETATM   26  C22 UNL     1       8.832  -0.252   6.102  1.00  0.00     0.165 C 
BRANCH  26  27
HETATM   27  O3  UNL     1       8.875  -0.735   7.430  1.00  0.00    -0.401 OA
ATOM     28  H3  UNL     1       9.741  -1.080   7.608  1.00  0.00     0.209 HD
ENDBRANCH  26  27
ENDBRANCH  25  26
ENDBRANCH  24  25
ENDBRANCH  19  24
ENDBRANCH  15  16
ENDBRANCH  12  15
ENDBRANCH   8   9
ENDBRANCH   7   8
ENDBRANCH   4   7
BRANCH   1  29
HETATM   29  C6  UNL     1       4.493  -2.197  13.342  1.00  0.00     0.258 C 
HETATM   30  N3  UNL     1       5.632  -1.553  13.851  1.00  0.00    -0.293 N 
HETATM   31  C5  UNL     1       6.793  -2.222  14.334  1.00  0.00     0.224 C 
ATOM     32  H3  UNL     1       5.627  -0.534  13.878  1.00  0.00     0.172 HD
HETATM   33  O1  UNL     1       7.720  -1.470  14.733  1.00  0.00    -0.273 OA
HETATM   34  O2  UNL     1       4.432  -3.439  13.288  1.00  0.00    -0.267 OA
BRANCH  31  35
HETATM   35  C4  UNL     1       6.927  -3.658  14.375  1.00  0.00     0.105 C 
BRANCH  35  36
HETATM   36  C3  UNL     1       7.356  -4.335  15.608  1.00  0.00     0.029 C 
BRANCH  36  37
HETATM   37  C2  UNL     1       6.362  -4.914  16.529  1.00  0.00     0.122 C 
BRANCH  37  38
HETATM   38  N2  UNL     1       5.607  -6.042  16.143  1.00  0.00    -0.365 N 
HETATM   39  C1  UNL     1       4.366  -6.008  15.810  1.00  0.00     0.184 C 
HETATM   40  N1  UNL     1       3.702  -7.194  15.442  1.00  0.00    -0.064 NA
HETATM   41  N6  UNL     1       3.699  -4.760  15.823  1.00  0.00    -0.363 N 
ATOM     42  H6  UNL     1       3.931  -4.077  15.102  1.00  0.00     0.162 HD
ATOM     43  H2  UNL     1       6.078  -6.946  16.129  1.00  0.00     0.162 HD
BRANCH  41  44
HETATM   44  C31 UNL     1       2.705  -4.409  16.812  1.00  0.00     0.148 C 
BRANCH  44  45
HETATM   45  C32 UNL     1       2.764  -2.905  17.076  1.00  0.00     0.183 C 
BRANCH  45  46
HETATM   46  O4  UNL     1       3.952  -2.366  16.610  1.00  0.00    -0.399 OA
ATOM     47  H4  UNL     1       4.217  -2.778  15.795  1.00  0.00     0.209 HD
ENDBRANCH  45  46
ENDBRANCH  44  45
ENDBRANCH  41  44
ENDBRANCH  37  38
ENDBRANCH  36  37
ENDBRANCH  35  36
ENDBRANCH  31  35
ENDBRANCH   1  29
TORSDOF 17
ENDMDL
MODEL 5
REMARK VINA RESULT: -8.201068684      0.961      1.720
REMARK  17 active torsions:
REMARK  status: ('A' for Active; 'I' for Inactive)
REMARK       I    between atoms: C1_2  and  N6_42 
REMARK    1  A    between atoms: N2_3  and  C2_5 
REMARK    2  A    between atoms: C2_5  and  C3_6 
REMARK    3  A    between atoms: C3_6  and  C4_7 
REMARK    4  A    between atoms: C4_7  and  C5_8 
REMARK       I    between atoms: C5_8  and  N3_10 
REMARK       I    between atoms: N3_10  and  C6_12 
REMARK    5  A    between atoms: C6_12  and  C7_14 
REMARK    6  A    between atoms: C10_17  and  C11_18 
REMARK    7  A    between atoms: C11_18  and  C12_19 
REMARK    8  A    between atoms: C12_19  and  C13_20 
REMARK    9  A    between atoms: C16_23  and  C17_24 
REMARK   10  A    between atoms: C17_24  and  N4_25 
REMARK   11  A    between atoms: N5_28  and  C20_29 
REMARK   12  A    between atoms: C20_29  and  C21_30 
REMARK   13  A    between atoms: C21_30  and  C22_31 
REMARK   14  A    between atoms: C22_31  and  O3_32 
REMARK   15  A    between atoms: N6_42  and  C31_44 
REMARK   16  A    between atoms: C31_44  and  C32_45 
REMARK   17  A    between atoms: C32_45  and  O4_46 
ROOT
HETATM    1  C7  UNL     1       3.311  -0.941  13.441  1.00  0.00     0.032 A 
HETATM    2  C8  UNL     1       3.521  -0.788  12.084  1.00  0.00     0.017 A 
HETATM    3  C9  UNL     1       2.490  -0.328  11.296  1.00  0.00     0.008 A 
HETATM    4  C10 UNL     1       1.259  -0.023  11.873  1.00  0.00    -0.058 A 
HETATM    5  C29 UNL     1       1.055  -0.174  13.209  1.00  0.00     0.008 A 
HETATM    6  C30 UNL     1       2.102  -0.641  14.007  1.00  0.00     0.017 A 
ENDROOT
BRANCH   4   7
HETATM    7  C11 UNL     1       0.167   0.465  11.011  1.00  0.00     0.043 C 
BRANCH   7   8
HETATM    8  C12 UNL     1      -0.056   1.970  11.170  1.00  0.00     0.043 C 
BRANCH   8   9
HETATM    9  C13 UNL     1       0.830   2.654  10.181  1.00  0.00    -0.058 A 
HETATM   10  C14 UNL     1       2.000   3.246  10.612  1.00  0.00     0.007 A 
HETATM   11  C15 UNL     1       2.838   3.888   9.718  1.00  0.00     0.009 A 
HETATM   12  C16 UNL     1       2.554   3.967   8.372  1.00  0.00    -0.032 A 
HETATM   13  C27 UNL     1       1.385   3.372   7.952  1.00  0.00     0.009 A 
HETATM   14  C28 UNL     1       0.533   2.724   8.846  1.00  0.00     0.007 A 
BRANCH  12  15
HETATM   15  C17 UNL     1       3.494   4.663   7.482  1.00  0.00     0.276 C 
BRANCH  15  16
HETATM   16  N4  UNL     1       4.357   3.802   6.740  1.00  0.00    -0.058 N 
HETATM   17  C18 UNL     1       5.482   4.603   6.228  1.00  0.00     0.266 C 
HETATM   18  C19 UNL     1       6.271   3.831   5.217  1.00  0.00     0.265 C 
HETATM   19  N5  UNL     1       6.067   2.421   5.482  1.00  0.00    -0.062 N 
HETATM   20  C23 UNL     1       4.699   2.116   5.067  1.00  0.00     0.265 C 
HETATM   21  C25 UNL     1       6.135   2.134   6.901  1.00  0.00     0.265 C 
HETATM   22  C24 UNL     1       3.707   3.092   5.659  1.00  0.00     0.266 C 
HETATM   23  C26 UNL     1       4.953   2.795   7.599  1.00  0.00     0.266 C 
BRANCH  19  24
HETATM   24  C20 UNL     1       6.949   1.582   4.724  1.00  0.00     0.239 C 
BRANCH  24  25
HETATM   25  C21 UNL     1       7.200   0.246   5.382  1.00  0.00     0.054 C 
BRANCH  25  26
HETATM   26  C22 UNL     1       6.909  -0.832   4.359  1.00  0.00     0.165 C 
BRANCH  26  27
HETATM   27  O3  UNL     1       5.765  -1.558   4.764  1.00  0.00    -0.401 OA
ATOM     28  H3  UNL     1       5.921  -2.485   4.628  1.00  0.00     0.209 HD
ENDBRANCH  26  27
ENDBRANCH  25  26
ENDBRANCH  24  25
ENDBRANCH  19  24
ENDBRANCH  15  16
ENDBRANCH  12  15
ENDBRANCH   8   9
ENDBRANCH   7   8
ENDBRANCH   4   7
BRANCH   1  29
HETATM   29  C6  UNL     1       4.409  -1.419  14.259  1.00  0.00     0.258 C 
HETATM   30  N3  UNL     1       5.739  -1.223  13.856  1.00  0.00    -0.293 N 
HETATM   31  C5  UNL     1       6.880  -1.660  14.588  1.00  0.00     0.224 C 
ATOM     32  H3  UNL     1       5.900  -0.733  12.976  1.00  0.00     0.172 HD
HETATM   33  O1  UNL     1       7.991  -1.409  14.054  1.00  0.00    -0.273 OA
HETATM   34  O2  UNL     1       4.144  -2.004  15.325  1.00  0.00    -0.267 OA
BRANCH  31  35
HETATM   35  C4  UNL     1       6.800  -2.345  15.856  1.00  0.00     0.105 C 
BRANCH  35  36
HETATM   36  C3  UNL     1       7.459  -3.646  16.046  1.00  0.00     0.029 C 
BRANCH  36  37
HETATM   37  C2  UNL     1       6.663  -4.882  16.140  1.00  0.00     0.122 C 
BRANCH  37  38
HETATM   38  N2  UNL     1       5.924  -5.166  17.308  1.00  0.00    -0.365 N 
HETATM   39  C1  UNL     1       5.052  -6.105  17.407  1.00  0.00     0.184 C 
HETATM   40  N1  UNL     1       4.367  -6.305  18.621  1.00  0.00    -0.064 NA
HETATM   41  N6  UNL     1       4.807  -6.919  16.276  1.00  0.00    -0.363 N 
ATOM     42  H6  UNL     1       5.522  -7.588  15.994  1.00  0.00     0.162 HD
ATOM     43  H2  UNL     1       6.094  -4.587  18.130  1.00  0.00     0.162 HD
BRANCH  41  44
HETATM   44  C31 UNL     1       3.588  -6.844  15.503  1.00  0.00     0.148 C 
BRANCH  44  45
HETATM   45  C32 UNL     1       3.032  -5.423  15.573  1.00  0.00     0.183 C 
BRANCH  45  46
HETATM   46  O4  UNL     1       3.322  -4.718  14.415  1.00  0.00    -0.399 OA
ATOM     47  H4  UNL     1       4.253  -4.742  14.227  1.00  0.00     0.209 HD
ENDBRANCH  45  46
ENDBRANCH  44  45
ENDBRANCH  41  44
ENDBRANCH  37  38
ENDBRANCH  36  37
ENDBRANCH  35  36
ENDBRANCH  31  35
ENDBRANCH   1  29
TORSDOF 17
ENDMDL
