MODEL 1
REMARK VINA RESULT: -11.489269896      0.000      0.000
REMARK  15 active torsions:
REMARK  status: ('A' for Active; 'I' for Inactive)
REMARK    1  A    between atoms: N1_1  and  C1_4 
REMARK    2  A    between atoms: C2_7  and  C3_8 
REMARK    3  A    between atoms: C3_8  and  C4_10 
REMARK    4  A    between atoms: N3_11  and  C5_13 
REMARK    5  A    between atoms: C10_25  and  N5_26 
REMARK    6  A    between atoms: N5_26  and  C11_28 
REMARK    7  A    between atoms: C11_28  and  C12_29 
REMARK    8  A    between atoms: C12_29  and  O7_31 
REMARK    9  A    between atoms: O7_31  and  C13_32 
REMARK   10  A    between atoms: C13_32  and  C14_33 
REMARK   11  A    between atoms: C14_33  and  N6_34 
REMARK   12  A    between atoms: C14_33  and  O8_38 
REMARK   13  A    between atoms: N8_44  and  N9_45 
REMARK   14  A    between atoms: N9_45  and  S2_47 
REMARK   15  A    between atoms: S2_47  and  C17_50 
ROOT
HETATM    1  C5  UNL     1      -1.762  28.003  26.009  1.00  0.00     0.217 C 
HETATM    2  C6  UNL     1      -0.381  28.226  26.507  1.00  0.00     0.239 C 
HETATM    3  O2  UNL     1       0.622  28.195  25.569  1.00  0.00    -0.255 OA
HETATM    4  S1  UNL     1       1.652  26.908  25.703  1.00  0.00     0.364 S 
HETATM    5  O3  UNL     1       1.935  26.679  27.172  1.00  0.00    -0.175 OA
HETATM    6  O4  UNL     1       2.942  27.180  25.029  1.00  0.00    -0.175 OA
HETATM    7  N4  UNL     1       0.907  25.481  25.018  1.00  0.00    -0.226 N 
ATOM      8  H4  UNL     1       1.554  24.900  24.484  1.00  0.00     0.184 HD
HETATM    9  C7  UNL     1      -0.422  24.966  25.056  1.00  0.00     0.283 C 
HETATM   10  O5  UNL     1      -0.614  23.904  24.410  1.00  0.00    -0.265 OA
HETATM   11  C8  UNL     1      -1.678  25.386  25.694  1.00  0.00     0.110 A 
HETATM   12  C9  UNL     1      -2.394  24.199  25.900  1.00  0.00     0.065 A 
HETATM   13  C10 UNL     1      -3.635  24.220  26.488  1.00  0.00     0.036 A 
HETATM   14  C15 UNL     1      -4.134  25.452  26.859  1.00  0.00     0.104 A 
HETATM   15  C16 UNL     1      -3.394  26.585  26.633  1.00  0.00     0.252 A 
HETATM   16  O9  UNL     1      -3.850  27.709  26.972  1.00  0.00    -0.268 OA
HETATM   17  N7  UNL     1      -2.160  26.577  26.051  1.00  0.00    -0.285 N 
ENDROOT
BRANCH   1  18
HETATM   18  N3  UNL     1      -2.139  28.643  24.856  1.00  0.00    -0.372 N 
HETATM   19  C4  UNL     1      -2.462  29.943  24.619  1.00  0.00     0.144 C 
ATOM     20  H3  UNL     1      -2.184  28.040  24.035  1.00  0.00     0.161 HD
BRANCH  19  21
HETATM   21  C3  UNL     1      -1.587  31.089  24.653  1.00  0.00     0.234 C 
HETATM   22  O1  UNL     1      -1.442  31.814  25.644  1.00  0.00    -0.283 OA
BRANCH  21  23
HETATM   23  C2  UNL     1      -0.794  31.458  23.455  1.00  0.00     0.213 A 
HETATM   24  N2  UNL     1       0.502  31.148  23.309  1.00  0.00    -0.168 N 
HETATM   25  C1  UNL     1       0.969  31.605  22.148  1.00  0.00     0.694 A 
ATOM     26  H2  UNL     1       1.056  30.633  23.993  1.00  0.00     0.186 HD
HETATM   27  N10 UNL     1      -0.096  32.224  21.558  1.00  0.00    -0.109 N 
HETATM   28  N8  UNL     1      -1.149  32.125  22.362  1.00  0.00    -0.151 N 
ATOM     29  H10 UNL     1      -0.085  32.687  20.650  1.00  0.00     0.208 HD
BRANCH  25  30
HETATM   30  N1  UNL     1       2.165  31.479  21.701  1.00  0.00    -0.233 N 
ATOM     31  H12 UNL     1       3.005  31.976  21.994  1.00  0.00     0.174 HD
ATOM     32  H11 UNL     1       2.475  30.847  20.963  1.00  0.00     0.174 HD
ENDBRANCH  25  30
BRANCH  28  33
HETATM   33  N9  UNL     1      -2.419  32.645  22.064  1.00  0.00    -0.199 N 
ATOM     34  H9  UNL     1      -2.565  33.653  22.110  1.00  0.00     0.202 HD
BRANCH  33  35
HETATM   35  S2  UNL     1      -3.755  31.617  21.618  1.00  0.00     0.277 S 
HETATM   36  O10 UNL     1      -3.298  30.156  21.660  1.00  0.00    -0.199 OA
HETATM   37  O11 UNL     1      -4.875  31.688  22.610  1.00  0.00    -0.199 OA
BRANCH  35  38
HETATM   38  C17 UNL     1      -4.271  31.913  19.981  1.00  0.00     0.081 A 
HETATM   39  C18 UNL     1      -5.541  32.353  19.695  1.00  0.00     0.025 A 
HETATM   40  C19 UNL     1      -5.922  32.583  18.390  1.00  0.00     0.002 A 
HETATM   41  C20 UNL     1      -5.033  32.372  17.363  1.00  0.00     0.000 A 
HETATM   42  C21 UNL     1      -3.754  31.927  17.656  1.00  0.00     0.002 A 
HETATM   43  C22 UNL     1      -3.365  31.696  18.955  1.00  0.00     0.025 A 
ENDBRANCH  35  38
ENDBRANCH  33  35
ENDBRANCH  28  33
ENDBRANCH  21  23
ENDBRANCH  19  21
ENDBRANCH   1  18
BRANCH  13  44
HETATM   44  N5  UNL     1      -4.408  23.025  26.715  1.00  0.00    -0.380 N 
ATOM     45  H5  UNL     1      -5.270  22.862  26.195  1.00  0.00     0.160 HD
BRANCH  44  46
HETATM   46  C11 UNL     1      -3.948  22.061  27.685  1.00  0.00     0.231 C 
BRANCH  46  47
HETATM   47  C12 UNL     1      -4.931  20.969  27.790  1.00  0.00     0.276 C 
HETATM   48  O6  UNL     1      -4.572  19.836  28.155  1.00  0.00    -0.263 OA
BRANCH  47  49
HETATM   49  O7  UNL     1      -6.247  21.209  27.481  1.00  0.00    -0.316 OA
BRANCH  49  50
HETATM   50  C13 UNL     1      -7.339  20.731  28.204  1.00  0.00     0.239 C 
BRANCH  50  51
HETATM   51  C14 UNL     1      -8.371  20.012  27.357  1.00  0.00     0.340 C 
BRANCH  51  52
HETATM   52  N6  UNL     1      -9.651  20.700  27.409  1.00  0.00    -0.051 N 
ATOM     53  H63 UNL     1      -9.563  21.632  27.814  1.00  0.00     0.277 HD
ATOM     54  H62 UNL     1      -9.975  20.967  26.480  1.00  0.00     0.277 HD
ATOM     55  H61 UNL     1     -10.344  20.137  27.903  1.00  0.00     0.277 HD
ENDBRANCH  51  52
BRANCH  51  56
HETATM   56  O8  UNL     1      -7.902  20.036  26.033  1.00  0.00    -0.368 OA
ATOM     57  H8  UNL     1      -8.650  19.869  25.472  1.00  0.00     0.212 HD
ENDBRANCH  51  56
ENDBRANCH  50  51
ENDBRANCH  49  50
ENDBRANCH  47  49
ENDBRANCH  46  47
ENDBRANCH  44  46
ENDBRANCH  13  44
TORSDOF 15
ENDMDL
MODEL 2
REMARK VINA RESULT: -11.274065485      0.787      1.140
REMARK  15 active torsions:
REMARK  status: ('A' for Active; 'I' for Inactive)
REMARK    1  A    between atoms: N1_1  and  C1_4 
REMARK    2  A    between atoms: C2_7  and  C3_8 
REMARK    3  A    between atoms: C3_8  and  C4_10 
REMARK    4  A    between atoms: N3_11  and  C5_13 
REMARK    5  A    between atoms: C10_25  and  N5_26 
REMARK    6  A    between atoms: N5_26  and  C11_28 
REMARK    7  A    between atoms: C11_28  and  C12_29 
REMARK    8  A    between atoms: C12_29  and  O7_31 
REMARK    9  A    between atoms: O7_31  and  C13_32 
REMARK   10  A    between atoms: C13_32  and  C14_33 
REMARK   11  A    between atoms: C14_33  and  N6_34 
REMARK   12  A    between atoms: C14_33  and  O8_38 
REMARK   13  A    between atoms: N8_44  and  N9_45 
REMARK   14  A    between atoms: N9_45  and  S2_47 
REMARK   15  A    between atoms: S2_47  and  C17_50 
ROOT
HETATM    1  C5  UNL     1      -1.782  27.824  26.206  1.00  0.00     0.217 C 
HETATM    2  C6  UNL     1      -0.497  28.082  26.904  1.00  0.00     0.239 C 
HETATM    3  O2  UNL     1       0.642  27.996  26.143  1.00  0.00    -0.255 OA
HETATM    4  S1  UNL     1       1.629  26.723  26.518  1.00  0.00     0.364 S 
HETATM    5  O3  UNL     1       1.672  26.585  28.025  1.00  0.00    -0.175 OA
HETATM    6  O4  UNL     1       3.012  26.956  26.044  1.00  0.00    -0.175 OA
HETATM    7  N4  UNL     1       0.994  25.254  25.811  1.00  0.00    -0.226 N 
ATOM      8  H4  UNL     1       1.713  24.643  25.424  1.00  0.00     0.184 HD
HETATM    9  C7  UNL     1      -0.328  24.739  25.667  1.00  0.00     0.283 C 
HETATM   10  O5  UNL     1      -0.421  23.638  25.064  1.00  0.00    -0.265 OA
HETATM   11  C8  UNL     1      -1.667  25.193  26.068  1.00  0.00     0.110 A 
HETATM   12  C9  UNL     1      -2.414  24.019  26.230  1.00  0.00     0.065 A 
HETATM   13  C10 UNL     1      -3.734  24.072  26.608  1.00  0.00     0.036 A 
HETATM   14  C15 UNL     1      -4.277  25.323  26.819  1.00  0.00     0.104 A 
HETATM   15  C16 UNL     1      -3.503  26.442  26.646  1.00  0.00     0.252 A 
HETATM   16  O9  UNL     1      -3.999  27.584  26.838  1.00  0.00    -0.268 OA
HETATM   17  N7  UNL     1      -2.191  26.402  26.270  1.00  0.00    -0.285 N 
ENDROOT
BRANCH   1  18
HETATM   18  N3  UNL     1      -1.965  28.391  24.971  1.00  0.00    -0.372 N 
HETATM   19  C4  UNL     1      -2.258  29.669  24.607  1.00  0.00     0.144 C 
ATOM     20  H3  UNL     1      -1.864  27.742  24.190  1.00  0.00     0.161 HD
BRANCH  19  21
HETATM   21  C3  UNL     1      -1.415  30.833  24.722  1.00  0.00     0.234 C 
HETATM   22  O1  UNL     1      -1.246  31.458  25.775  1.00  0.00    -0.283 OA
BRANCH  21  23
HETATM   23  C2  UNL     1      -0.688  31.347  23.536  1.00  0.00     0.213 A 
HETATM   24  N2  UNL     1       0.612  31.110  23.312  1.00  0.00    -0.168 N 
HETATM   25  C1  UNL     1       1.011  31.694  22.184  1.00  0.00     0.694 A 
ATOM     26  H2  UNL     1       1.214  30.557  23.922  1.00  0.00     0.186 HD
HETATM   27  N10 UNL     1      -0.101  32.319  21.697  1.00  0.00    -0.109 N 
HETATM   28  N8  UNL     1      -1.115  32.098  22.526  1.00  0.00    -0.151 N 
ATOM     29  H10 UNL     1      -0.146  32.866  20.837  1.00  0.00     0.208 HD
BRANCH  25  30
HETATM   30  N1  UNL     1       2.191  31.663  21.682  1.00  0.00    -0.233 N 
ATOM     31  H12 UNL     1       2.961  32.314  21.834  1.00  0.00     0.174 HD
ATOM     32  H11 UNL     1       2.559  30.966  21.034  1.00  0.00     0.174 HD
ENDBRANCH  25  30
BRANCH  28  33
HETATM   33  N9  UNL     1      -2.416  32.588  22.327  1.00  0.00    -0.199 N 
ATOM     34  H9  UNL     1      -2.606  33.574  22.503  1.00  0.00     0.202 HD
BRANCH  33  35
HETATM   35  S2  UNL     1      -3.716  31.559  21.789  1.00  0.00     0.277 S 
HETATM   36  O10 UNL     1      -3.263  30.098  21.865  1.00  0.00    -0.199 OA
HETATM   37  O11 UNL     1      -4.904  31.631  22.699  1.00  0.00    -0.199 OA
BRANCH  35  38
HETATM   38  C17 UNL     1      -4.115  31.852  20.119  1.00  0.00     0.081 A 
HETATM   39  C18 UNL     1      -3.198  31.655  19.114  1.00  0.00     0.025 A 
HETATM   40  C19 UNL     1      -3.541  31.892  17.801  1.00  0.00     0.002 A 
HETATM   41  C20 UNL     1      -4.806  32.328  17.484  1.00  0.00     0.000 A 
HETATM   42  C21 UNL     1      -5.727  32.526  18.500  1.00  0.00     0.002 A 
HETATM   43  C22 UNL     1      -5.393  32.292  19.813  1.00  0.00     0.025 A 
ENDBRANCH  35  38
ENDBRANCH  33  35
ENDBRANCH  28  33
ENDBRANCH  21  23
ENDBRANCH  19  21
ENDBRANCH   1  18
BRANCH  13  44
HETATM   44  N5  UNL     1      -4.541  22.890  26.781  1.00  0.00    -0.380 N 
ATOM     45  H5  UNL     1      -5.391  22.762  26.232  1.00  0.00     0.160 HD
BRANCH  44  46
HETATM   46  C11 UNL     1      -4.133  21.891  27.738  1.00  0.00     0.231 C 
BRANCH  46  47
HETATM   47  C12 UNL     1      -5.180  20.859  27.841  1.00  0.00     0.276 C 
HETATM   48  O6  UNL     1      -4.902  19.726  28.270  1.00  0.00    -0.263 OA
BRANCH  47  49
HETATM   49  O7  UNL     1      -6.465  21.156  27.459  1.00  0.00    -0.316 OA
BRANCH  49  50
HETATM   50  C13 UNL     1      -7.561  20.310  27.611  1.00  0.00     0.239 C 
BRANCH  50  51
HETATM   51  C14 UNL     1      -8.287  20.475  28.933  1.00  0.00     0.340 C 
BRANCH  51  52
HETATM   52  N6  UNL     1      -7.686  19.637  29.959  1.00  0.00    -0.051 N 
ATOM     53  H63 UNL     1      -8.322  19.483  30.741  1.00  0.00     0.277 HD
ATOM     54  H62 UNL     1      -7.588  18.671  29.648  1.00  0.00     0.277 HD
ATOM     55  H61 UNL     1      -6.796  20.027  30.268  1.00  0.00     0.277 HD
ENDBRANCH  51  52
BRANCH  51  56
HETATM   56  O8  UNL     1      -8.146  21.820  29.311  1.00  0.00    -0.368 OA
ATOM     57  H8  UNL     1      -8.756  21.973  30.022  1.00  0.00     0.212 HD
ENDBRANCH  51  56
ENDBRANCH  50  51
ENDBRANCH  49  50
ENDBRANCH  47  49
ENDBRANCH  46  47
ENDBRANCH  44  46
ENDBRANCH  13  44
TORSDOF 15
ENDMDL
MODEL 3
REMARK VINA RESULT: -11.173902509      1.619      2.622
REMARK  15 active torsions:
REMARK  status: ('A' for Active; 'I' for Inactive)
REMARK    1  A    between atoms: N1_1  and  C1_4 
REMARK    2  A    between atoms: C2_7  and  C3_8 
REMARK    3  A    between atoms: C3_8  and  C4_10 
REMARK    4  A    between atoms: N3_11  and  C5_13 
REMARK    5  A    between atoms: C10_25  and  N5_26 
REMARK    6  A    between atoms: N5_26  and  C11_28 
REMARK    7  A    between atoms: C11_28  and  C12_29 
REMARK    8  A    between atoms: C12_29  and  O7_31 
REMARK    9  A    between atoms: O7_31  and  C13_32 
REMARK   10  A    between atoms: C13_32  and  C14_33 
REMARK   11  A    between atoms: C14_33  and  N6_34 
REMARK   12  A    between atoms: C14_33  and  O8_38 
REMARK   13  A    between atoms: N8_44  and  N9_45 
REMARK   14  A    between atoms: N9_45  and  S2_47 
REMARK   15  A    between atoms: S2_47  and  C17_50 
ROOT
HETATM    1  C5  UNL     1      -1.523  28.058  26.101  1.00  0.00     0.217 C 
HETATM    2  C6  UNL     1      -0.116  28.227  26.547  1.00  0.00     0.239 C 
HETATM    3  O2  UNL     1       0.832  28.329  25.560  1.00  0.00    -0.255 OA
HETATM    4  S1  UNL     1       1.871  27.046  25.464  1.00  0.00     0.364 S 
HETATM    5  O3  UNL     1       2.236  26.627  26.872  1.00  0.00    -0.175 OA
HETATM    6  O4  UNL     1       3.121  27.417  24.762  1.00  0.00    -0.175 OA
HETATM    7  N4  UNL     1       1.092  25.715  24.638  1.00  0.00    -0.226 N 
ATOM      8  H4  UNL     1       1.709  25.216  23.997  1.00  0.00     0.184 HD
HETATM    9  C7  UNL     1      -0.232  25.187  24.681  1.00  0.00     0.283 C 
HETATM   10  O5  UNL     1      -0.457  24.218  23.910  1.00  0.00    -0.265 OA
HETATM   11  C8  UNL     1      -1.451  25.507  25.436  1.00  0.00     0.110 A 
HETATM   12  C9  UNL     1      -2.151  24.296  25.523  1.00  0.00     0.065 A 
HETATM   13  C10 UNL     1      -3.358  24.228  26.176  1.00  0.00     0.036 A 
HETATM   14  C15 UNL     1      -3.838  25.394  26.734  1.00  0.00     0.104 A 
HETATM   15  C16 UNL     1      -3.114  26.554  26.620  1.00  0.00     0.252 A 
HETATM   16  O9  UNL     1      -3.553  27.619  27.130  1.00  0.00    -0.268 OA
HETATM   17  N7  UNL     1      -1.914  26.636  25.975  1.00  0.00    -0.285 N 
ENDROOT
BRANCH   1  18
HETATM   18  N3  UNL     1      -1.965  28.841  25.066  1.00  0.00    -0.372 N 
HETATM   19  C4  UNL     1      -2.039  30.194  24.935  1.00  0.00     0.144 C 
ATOM     20  H3  UNL     1      -2.294  28.320  24.253  1.00  0.00     0.161 HD
BRANCH  19  21
HETATM   21  C3  UNL     1      -0.947  31.129  24.826  1.00  0.00     0.234 C 
HETATM   22  O1  UNL     1      -0.513  31.794  25.774  1.00  0.00    -0.283 OA
BRANCH  21  23
HETATM   23  C2  UNL     1      -0.274  31.341  23.521  1.00  0.00     0.213 A 
HETATM   24  N2  UNL     1       0.964  30.900  23.254  1.00  0.00    -0.168 N 
HETATM   25  C1  UNL     1       1.326  31.232  22.016  1.00  0.00     0.694 A 
ATOM     26  H2  UNL     1       1.548  30.380  23.908  1.00  0.00     0.186 HD
HETATM   27  N10 UNL     1       0.257  31.910  21.505  1.00  0.00    -0.109 N 
HETATM   28  N8  UNL     1      -0.697  31.965  22.427  1.00  0.00    -0.151 N 
ATOM     29  H10 UNL     1       0.200  32.309  20.568  1.00  0.00     0.208 HD
BRANCH  25  30
HETATM   30  N1  UNL     1       2.444  30.963  21.448  1.00  0.00    -0.233 N 
ATOM     31  H12 UNL     1       2.964  30.086  21.457  1.00  0.00     0.174 HD
ATOM     32  H11 UNL     1       3.008  31.598  20.883  1.00  0.00     0.174 HD
ENDBRANCH  25  30
BRANCH  28  33
HETATM   33  N9  UNL     1      -1.944  32.584  22.235  1.00  0.00    -0.199 N 
ATOM     34  H9  UNL     1      -2.004  33.600  22.278  1.00  0.00     0.202 HD
BRANCH  33  35
HETATM   35  S2  UNL     1      -3.392  31.663  21.927  1.00  0.00     0.277 S 
HETATM   36  O10 UNL     1      -3.075  30.171  22.059  1.00  0.00    -0.199 OA
HETATM   37  O11 UNL     1      -4.449  31.915  22.959  1.00  0.00    -0.199 OA
BRANCH  35  38
HETATM   38  C17 UNL     1      -3.960  31.891  20.297  1.00  0.00     0.081 A 
HETATM   39  C18 UNL     1      -5.251  32.280  20.031  1.00  0.00     0.025 A 
HETATM   40  C19 UNL     1      -5.673  32.456  18.731  1.00  0.00     0.002 A 
HETATM   41  C20 UNL     1      -4.804  32.243  17.687  1.00  0.00     0.000 A 
HETATM   42  C21 UNL     1      -3.504  31.851  17.959  1.00  0.00     0.002 A 
HETATM   43  C22 UNL     1      -3.074  31.672  19.253  1.00  0.00     0.025 A 
ENDBRANCH  35  38
ENDBRANCH  33  35
ENDBRANCH  28  33
ENDBRANCH  21  23
ENDBRANCH  19  21
ENDBRANCH   1  18
BRANCH  13  44
HETATM   44  N5  UNL     1      -4.114  23.005  26.284  1.00  0.00    -0.380 N 
ATOM     45  H5  UNL     1      -4.346  22.467  25.449  1.00  0.00     0.160 HD
BRANCH  44  46
HETATM   46  C11 UNL     1      -4.540  22.551  27.586  1.00  0.00     0.231 C 
BRANCH  46  47
HETATM   47  C12 UNL     1      -3.440  21.810  28.226  1.00  0.00     0.276 C 
HETATM   48  O6  UNL     1      -3.355  20.577  28.094  1.00  0.00    -0.263 OA
BRANCH  47  49
HETATM   49  O7  UNL     1      -2.508  22.490  28.972  1.00  0.00    -0.316 OA
BRANCH  49  50
HETATM   50  C13 UNL     1      -1.137  22.243  28.956  1.00  0.00     0.239 C 
BRANCH  50  51
HETATM   51  C14 UNL     1      -0.589  21.732  30.276  1.00  0.00     0.340 C 
BRANCH  51  52
HETATM   52  N6  UNL     1      -0.670  22.761  31.301  1.00  0.00    -0.051 N 
ATOM     53  H63 UNL     1      -0.775  23.691  30.895  1.00  0.00     0.277 HD
ATOM     54  H62 UNL     1      -1.551  22.716  31.812  1.00  0.00     0.277 HD
ATOM     55  H61 UNL     1       0.133  22.710  31.927  1.00  0.00     0.277 HD
ENDBRANCH  51  52
BRANCH  51  56
HETATM   56  O8  UNL     1      -1.396  20.649  30.662  1.00  0.00    -0.368 OA
ATOM     57  H8  UNL     1      -1.540  20.731  31.597  1.00  0.00     0.212 HD
ENDBRANCH  51  56
ENDBRANCH  50  51
ENDBRANCH  49  50
ENDBRANCH  47  49
ENDBRANCH  46  47
ENDBRANCH  44  46
ENDBRANCH  13  44
TORSDOF 15
ENDMDL
MODEL 4
REMARK VINA RESULT: -11.058383403      1.117      1.314
REMARK  15 active torsions:
REMARK  status: ('A' for Active; 'I' for Inactive)
REMARK    1  A    between atoms: N1_1  and  C1_4 
REMARK    2  A    between atoms: C2_7  and  C3_8 
REMARK    3  A    between atoms: C3_8  and  C4_10 
REMARK    4  A    between atoms: N3_11  and  C5_13 
REMARK    5  A    between atoms: C10_25  and  N5_26 
REMARK    6  A    between atoms: N5_26  and  C11_28 
REMARK    7  A    between atoms: C11_28  and  C12_29 
REMARK    8  A    between atoms: C12_29  and  O7_31 
REMARK    9  A    between atoms: O7_31  and  C13_32 
REMARK   10  A    between atoms: C13_32  and  C14_33 
REMARK   11  A    between atoms: C14_33  and  N6_34 
REMARK   12  A    between atoms: C14_33  and  O8_38 
REMARK   13  A    between atoms: N8_44  and  N9_45 
REMARK   14  A    between atoms: N9_45  and  S2_47 
REMARK   15  A    between atoms: S2_47  and  C17_50 
ROOT
HETATM    1  C5  UNL     1      -1.830  27.896  26.204  1.00  0.00     0.217 C 
HETATM    2  C6  UNL     1      -0.545  28.147  26.904  1.00  0.00     0.239 C 
HETATM    3  O2  UNL     1       0.593  28.083  26.139  1.00  0.00    -0.255 OA
HETATM    4  S1  UNL     1       1.588  26.808  26.486  1.00  0.00     0.364 S 
HETATM    5  O3  UNL     1       1.635  26.639  27.989  1.00  0.00    -0.175 OA
HETATM    6  O4  UNL     1       2.969  27.059  26.013  1.00  0.00    -0.175 OA
HETATM    7  N4  UNL     1       0.959  25.350  25.750  1.00  0.00    -0.226 N 
ATOM      8  H4  UNL     1       1.682  24.752  25.349  1.00  0.00     0.184 HD
HETATM    9  C7  UNL     1      -0.360  24.831  25.599  1.00  0.00     0.283 C 
HETATM   10  O5  UNL     1      -0.448  23.742  24.973  1.00  0.00    -0.265 OA
HETATM   11  C8  UNL     1      -1.700  25.269  26.012  1.00  0.00     0.110 A 
HETATM   12  C9  UNL     1      -2.440  24.088  26.151  1.00  0.00     0.065 A 
HETATM   13  C10 UNL     1      -3.759  24.126  26.534  1.00  0.00     0.036 A 
HETATM   14  C15 UNL     1      -4.309  25.368  26.771  1.00  0.00     0.104 A 
HETATM   15  C16 UNL     1      -3.542  26.495  26.620  1.00  0.00     0.252 A 
HETATM   16  O9  UNL     1      -4.044  27.630  26.837  1.00  0.00    -0.268 OA
HETATM   17  N7  UNL     1      -2.231  26.471  26.240  1.00  0.00    -0.285 N 
ENDROOT
BRANCH   1  18
HETATM   18  N3  UNL     1      -2.019  28.487  24.982  1.00  0.00    -0.372 N 
HETATM   19  C4  UNL     1      -2.256  29.783  24.641  1.00  0.00     0.144 C 
ATOM     20  H3  UNL     1      -1.974  27.844  24.191  1.00  0.00     0.161 HD
BRANCH  19  21
HETATM   21  C3  UNL     1      -1.352  30.901  24.743  1.00  0.00     0.234 C 
HETATM   22  O1  UNL     1      -1.127  31.510  25.796  1.00  0.00    -0.283 OA
BRANCH  21  23
HETATM   23  C2  UNL     1      -0.624  31.384  23.545  1.00  0.00     0.213 A 
HETATM   24  N2  UNL     1       0.673  31.128  23.321  1.00  0.00    -0.168 N 
HETATM   25  C1  UNL     1       1.074  31.685  22.180  1.00  0.00     0.694 A 
ATOM     26  H2  UNL     1       1.272  30.581  23.940  1.00  0.00     0.186 HD
HETATM   27  N10 UNL     1      -0.033  32.312  21.685  1.00  0.00    -0.109 N 
HETATM   28  N8  UNL     1      -1.046  32.119  22.521  1.00  0.00    -0.151 N 
ATOM     29  H10 UNL     1      -0.076  32.842  20.814  1.00  0.00     0.208 HD
BRANCH  25  30
HETATM   30  N1  UNL     1       2.252  31.632  21.675  1.00  0.00    -0.233 N 
ATOM     31  H12 UNL     1       3.148  31.594  22.160  1.00  0.00     0.174 HD
ATOM     32  H11 UNL     1       2.489  31.619  20.683  1.00  0.00     0.174 HD
ENDBRANCH  25  30
BRANCH  28  33
HETATM   33  N9  UNL     1      -2.343  32.619  22.318  1.00  0.00    -0.199 N 
ATOM     34  H9  UNL     1      -2.518  33.613  22.461  1.00  0.00     0.202 HD
BRANCH  33  35
HETATM   35  S2  UNL     1      -3.661  31.589  21.828  1.00  0.00     0.277 S 
HETATM   36  O10 UNL     1      -3.210  30.127  21.904  1.00  0.00    -0.199 OA
HETATM   37  O11 UNL     1      -4.822  31.673  22.772  1.00  0.00    -0.199 OA
BRANCH  35  38
HETATM   38  C17 UNL     1      -4.108  31.868  20.168  1.00  0.00     0.081 A 
HETATM   39  C18 UNL     1      -5.373  32.281  19.822  1.00  0.00     0.025 A 
HETATM   40  C19 UNL     1      -5.698  32.497  18.500  1.00  0.00     0.002 A 
HETATM   41  C20 UNL     1      -4.759  32.301  17.516  1.00  0.00     0.000 A 
HETATM   42  C21 UNL     1      -3.486  31.885  17.869  1.00  0.00     0.002 A 
HETATM   43  C22 UNL     1      -3.152  31.666  19.185  1.00  0.00     0.025 A 
ENDBRANCH  35  38
ENDBRANCH  33  35
ENDBRANCH  28  33
ENDBRANCH  21  23
ENDBRANCH  19  21
ENDBRANCH   1  18
BRANCH  13  44
HETATM   44  N5  UNL     1      -4.559  22.936  26.684  1.00  0.00    -0.380 N 
ATOM     45  H5  UNL     1      -5.420  22.823  26.149  1.00  0.00     0.160 HD
BRANCH  44  46
HETATM   46  C11 UNL     1      -4.129  21.906  27.598  1.00  0.00     0.231 C 
BRANCH  46  47
HETATM   47  C12 UNL     1      -5.276  21.050  27.942  1.00  0.00     0.276 C 
HETATM   48  O6  UNL     1      -6.306  21.074  27.247  1.00  0.00    -0.263 OA
BRANCH  47  49
HETATM   49  O7  UNL     1      -5.202  20.223  29.036  1.00  0.00    -0.316 OA
BRANCH  49  50
HETATM   50  C13 UNL     1      -5.520  18.866  29.037  1.00  0.00     0.239 C 
BRANCH  50  51
HETATM   51  C14 UNL     1      -6.963  18.573  29.405  1.00  0.00     0.340 C 
BRANCH  51  52
HETATM   52  N6  UNL     1      -7.243  17.150  29.297  1.00  0.00    -0.051 N 
ATOM     53  H63 UNL     1      -6.807  16.620  30.052  1.00  0.00     0.277 HD
ATOM     54  H62 UNL     1      -8.219  16.940  29.507  1.00  0.00     0.277 HD
ATOM     55  H61 UNL     1      -6.969  16.796  28.381  1.00  0.00     0.277 HD
ENDBRANCH  51  52
BRANCH  51  56
HETATM   56  O8  UNL     1      -7.131  18.964  30.743  1.00  0.00    -0.368 OA
ATOM     57  H8  UNL     1      -7.006  18.188  31.275  1.00  0.00     0.212 HD
ENDBRANCH  51  56
ENDBRANCH  50  51
ENDBRANCH  49  50
ENDBRANCH  47  49
ENDBRANCH  46  47
ENDBRANCH  44  46
ENDBRANCH  13  44
TORSDOF 15
ENDMDL
MODEL 5
REMARK VINA RESULT: -10.794969099      3.038      4.468
REMARK  15 active torsions:
REMARK  status: ('A' for Active; 'I' for Inactive)
REMARK    1  A    between atoms: N1_1  and  C1_4 
REMARK    2  A    between atoms: C2_7  and  C3_8 
REMARK    3  A    between atoms: C3_8  and  C4_10 
REMARK    4  A    between atoms: N3_11  and  C5_13 
REMARK    5  A    between atoms: C10_25  and  N5_26 
REMARK    6  A    between atoms: N5_26  and  C11_28 
REMARK    7  A    between atoms: C11_28  and  C12_29 
REMARK    8  A    between atoms: C12_29  and  O7_31 
REMARK    9  A    between atoms: O7_31  and  C13_32 
REMARK   10  A    between atoms: C13_32  and  C14_33 
REMARK   11  A    between atoms: C14_33  and  N6_34 
REMARK   12  A    between atoms: C14_33  and  O8_38 
REMARK   13  A    between atoms: N8_44  and  N9_45 
REMARK   14  A    between atoms: N9_45  and  S2_47 
REMARK   15  A    between atoms: S2_47  and  C17_50 
ROOT
HETATM    1  C5  UNL     1       1.610  23.345  26.879  1.00  0.00     0.217 C 
HETATM    2  C6  UNL     1       2.073  23.066  25.495  1.00  0.00     0.239 C 
HETATM    3  O2  UNL     1       2.201  24.149  24.661  1.00  0.00    -0.255 OA
HETATM    4  S1  UNL     1       1.111  24.196  23.418  1.00  0.00     0.364 S 
HETATM    5  O3  UNL     1       0.953  22.792  22.874  1.00  0.00    -0.175 OA
HETATM    6  O4  UNL     1       1.591  25.060  22.315  1.00  0.00    -0.175 OA
HETATM    7  N4  UNL     1      -0.432  24.776  24.005  1.00  0.00    -0.226 N 
ATOM      8  H4  UNL     1      -0.901  25.412  23.360  1.00  0.00     0.184 HD
HETATM    9  C7  UNL     1      -1.165  24.537  25.204  1.00  0.00     0.283 C 
HETATM   10  O5  UNL     1      -2.254  25.161  25.310  1.00  0.00    -0.265 OA
HETATM   11  C8  UNL     1      -0.958  23.706  26.398  1.00  0.00     0.110 A 
HETATM   12  C9  UNL     1      -2.247  23.406  26.859  1.00  0.00     0.065 A 
HETATM   13  C10 UNL     1      -2.431  22.631  27.978  1.00  0.00     0.036 A 
HETATM   14  C15 UNL     1      -1.298  22.170  28.616  1.00  0.00     0.104 A 
HETATM   15  C16 UNL     1      -0.058  22.493  28.125  1.00  0.00     0.252 A 
HETATM   16  O9  UNL     1       0.976  22.071  28.708  1.00  0.00    -0.268 OA
HETATM   17  N7  UNL     1       0.138  23.261  27.014  1.00  0.00    -0.285 N 
ENDROOT
BRANCH   1  18
HETATM   18  N3  UNL     1       2.160  24.416  27.535  1.00  0.00    -0.372 N 
HETATM   19  C4  UNL     1       2.449  25.675  27.107  1.00  0.00     0.144 C 
ATOM     20  H3  UNL     1       2.392  24.238  28.512  1.00  0.00     0.161 HD
BRANCH  19  21
HETATM   21  C3  UNL     1       1.521  26.716  26.741  1.00  0.00     0.234 C 
HETATM   22  O1  UNL     1       0.476  26.954  27.358  1.00  0.00    -0.283 OA
BRANCH  21  23
HETATM   23  C2  UNL     1       1.792  27.577  25.564  1.00  0.00     0.213 A 
HETATM   24  N2  UNL     1       2.646  27.238  24.588  1.00  0.00    -0.168 N 
HETATM   25  C1  UNL     1       2.706  28.192  23.661  1.00  0.00     0.694 A 
ATOM     26  H2  UNL     1       3.177  26.368  24.559  1.00  0.00     0.186 HD
HETATM   27  N10 UNL     1       1.846  29.161  24.095  1.00  0.00    -0.109 N 
HETATM   28  N8  UNL     1       1.305  28.771  25.243  1.00  0.00    -0.151 N 
ATOM     29  H10 UNL     1       1.651  30.039  23.615  1.00  0.00     0.208 HD
BRANCH  25  30
HETATM   30  N1  UNL     1       3.424  28.182  22.598  1.00  0.00    -0.233 N 
ATOM     31  H12 UNL     1       4.046  28.911  22.248  1.00  0.00     0.174 HD
ATOM     32  H11 UNL     1       3.491  27.427  21.916  1.00  0.00     0.174 HD
ENDBRANCH  25  30
BRANCH  28  33
HETATM   33  N9  UNL     1       0.366  29.524  25.967  1.00  0.00    -0.199 N 
ATOM     34  H9  UNL     1       0.675  30.043  26.788  1.00  0.00     0.202 HD
BRANCH  33  35
HETATM   35  S2  UNL     1      -1.313  29.595  25.503  1.00  0.00     0.277 S 
HETATM   36  O10 UNL     1      -1.678  28.316  24.745  1.00  0.00    -0.199 OA
HETATM   37  O11 UNL     1      -2.225  29.599  26.691  1.00  0.00    -0.199 OA
BRANCH  35  38
HETATM   38  C17 UNL     1      -1.618  30.909  24.403  1.00  0.00     0.081 A 
HETATM   39  C18 UNL     1      -0.891  32.076  24.455  1.00  0.00     0.025 A 
HETATM   40  C19 UNL     1      -1.151  33.099  23.569  1.00  0.00     0.002 A 
HETATM   41  C20 UNL     1      -2.141  32.961  22.625  1.00  0.00     0.000 A 
HETATM   42  C21 UNL     1      -2.870  31.785  22.576  1.00  0.00     0.002 A 
HETATM   43  C22 UNL     1      -2.618  30.759  23.455  1.00  0.00     0.025 A 
ENDBRANCH  35  38
ENDBRANCH  33  35
ENDBRANCH  28  33
ENDBRANCH  21  23
ENDBRANCH  19  21
ENDBRANCH   1  18
BRANCH  13  44
HETATM   44  N5  UNL     1      -3.739  22.303  28.490  1.00  0.00    -0.380 N 
ATOM     45  H5  UNL     1      -4.332  23.028  28.892  1.00  0.00     0.160 HD
BRANCH  44  46
HETATM   46  C11 UNL     1      -4.199  20.937  28.426  1.00  0.00     0.231 C 
BRANCH  46  47
HETATM   47  C12 UNL     1      -5.498  20.893  27.735  1.00  0.00     0.276 C 
HETATM   48  O6  UNL     1      -5.889  21.870  27.072  1.00  0.00    -0.263 OA
BRANCH  47  49
HETATM   49  O7  UNL     1      -6.278  19.766  27.826  1.00  0.00    -0.316 OA
BRANCH  49  50
HETATM   50  C13 UNL     1      -7.554  19.719  28.384  1.00  0.00     0.239 C 
BRANCH  50  51
HETATM   51  C14 UNL     1      -8.673  19.711  27.359  1.00  0.00     0.340 C 
BRANCH  51  52
HETATM   52  N6  UNL     1      -9.650  20.747  27.655  1.00  0.00    -0.051 N 
ATOM     53  H63 UNL     1     -10.387  20.407  28.272  1.00  0.00     0.277 HD
ATOM     54  H62 UNL     1      -9.262  21.469  28.263  1.00  0.00     0.277 HD
ATOM     55  H61 UNL     1     -10.029  21.142  26.795  1.00  0.00     0.277 HD
ENDBRANCH  51  52
BRANCH  51  56
HETATM   56  O8  UNL     1      -8.088  19.986  26.112  1.00  0.00    -0.368 OA
ATOM     57  H8  UNL     1      -8.144  20.925  25.983  1.00  0.00     0.212 HD
ENDBRANCH  51  56
ENDBRANCH  50  51
ENDBRANCH  49  50
ENDBRANCH  47  49
ENDBRANCH  46  47
ENDBRANCH  44  46
ENDBRANCH  13  44
TORSDOF 15
ENDMDL
