MODEL 1
REMARK VINA RESULT: -9.763590722      0.000      0.000
REMARK  15 active torsions:
REMARK  status: ('A' for Active; 'I' for Inactive)
REMARK    1  A    between atoms: O1_2  and  C2_3 
REMARK    2  A    between atoms: C2_3  and  C3_5 
REMARK    3  A    between atoms: C4_7  and  N1_8 
REMARK    4  A    between atoms: C5_13  and  C6_14 
REMARK    5  A    between atoms: C6_14  and  O3_15 
REMARK    6  A    between atoms: C6_14  and  N3_17 
REMARK    7  A    between atoms: N3_17  and  C7_20 
REMARK    8  A    between atoms: C9_22  and  N4_23 
REMARK    9  A    between atoms: N5_28  and  C11_29 
REMARK   10  A    between atoms: N7_35  and  C13_36 
REMARK   11  A    between atoms: C13_36  and  C14_37 
REMARK       I    between atoms: C14_37  and  N8_39 
REMARK   12  A    between atoms: N8_39  and  C15_41 
REMARK   13  A    between atoms: C17_43  and  C18_44 
REMARK   14  A    between atoms: C18_44  and  O7_45 
REMARK   15  A    between atoms: O7_45  and  S2_46 
ROOT
HETATM    1  C7  UNL     1       2.184  24.916  26.580  1.00  0.00     0.210 C 
HETATM    2  C8  UNL     1       3.606  25.200  26.899  1.00  0.00     0.069 C 
HETATM    3  C9  UNL     1       3.901  26.473  27.606  1.00  0.00     0.204 C 
HETATM    4  C10 UNL     1       3.081  27.661  27.219  1.00  0.00     0.174 C 
HETATM    5  N5  UNL     1       2.213  27.297  26.134  1.00  0.00    -0.212 N 
HETATM    6  C21 UNL     1       1.350  26.153  26.298  1.00  0.00     0.174 C 
ENDROOT
BRANCH   5   7
HETATM    7  C11 UNL     1       2.227  28.024  24.929  1.00  0.00     0.707 A 
HETATM    8  N6  UNL     1       2.865  27.703  23.780  1.00  0.00    -0.086 N 
HETATM    9  O4  UNL     1       2.681  28.604  22.892  1.00  0.00    -0.165 OA
ATOM     10  H6  UNL     1       3.418  26.857  23.640  1.00  0.00     0.214 HD
HETATM   11  C12 UNL     1       1.929  29.532  23.414  1.00  0.00     0.404 A 
HETATM   12  O5  UNL     1       1.549  30.574  22.812  1.00  0.00    -0.235 OA
HETATM   13  N7  UNL     1       1.620  29.217  24.679  1.00  0.00    -0.114 N 
BRANCH  13  14
HETATM   14  C13 UNL     1       0.810  29.960  25.627  1.00  0.00     0.256 C 
BRANCH  14  15
HETATM   15  C14 UNL     1      -0.560  30.065  25.076  1.00  0.00     0.237 C 
HETATM   16  O6  UNL     1      -1.281  29.036  25.076  1.00  0.00    -0.272 OA
HETATM   17  N8  UNL     1      -1.077  31.278  24.555  1.00  0.00    -0.348 N 
ATOM     18  H8  UNL     1      -0.477  32.103  24.561  1.00  0.00     0.163 HD
BRANCH  17  19
HETATM   19  C15 UNL     1      -2.398  31.403  24.021  1.00  0.00     0.167 C 
HETATM   20  C16 UNL     1      -2.456  30.827  22.624  1.00  0.00     0.068 C 
HETATM   21  C17 UNL     1      -1.789  31.701  21.606  1.00  0.00     0.160 C 
HETATM   22  O11 UNL     1      -1.337  32.943  22.112  1.00  0.00    -0.307 OA
HETATM   23  C19 UNL     1      -2.181  33.643  22.957  1.00  0.00     0.332 C 
HETATM   24  O12 UNL     1      -2.390  34.895  22.854  1.00  0.00    -0.256 OA
HETATM   25  C20 UNL     1      -2.830  32.848  23.994  1.00  0.00     0.246 C 
HETATM   26  O13 UNL     1      -3.653  33.338  24.767  1.00  0.00    -0.284 OA
BRANCH  21  27
HETATM   27  C18 UNL     1      -2.681  31.933  20.403  1.00  0.00     0.225 C 
BRANCH  27  28
HETATM   28  O7  UNL     1      -3.735  31.009  20.374  1.00  0.00    -0.254 OA
BRANCH  28  29
HETATM   29  S2  UNL     1      -5.216  31.762  20.458  1.00  0.00     0.251 S 
HETATM   30  O8  UNL     1      -5.125  33.253  20.479  1.00  0.00    -0.572 OA
HETATM   31  O9  UNL     1      -6.077  31.375  19.285  1.00  0.00    -0.572 OA
HETATM   32  O10 UNL     1      -6.029  31.267  21.856  1.00  0.00    -0.572 OA
ENDBRANCH  28  29
ENDBRANCH  27  28
ENDBRANCH  21  27
ENDBRANCH  17  19
ENDBRANCH  14  15
ENDBRANCH  13  14
ENDBRANCH   5   7
BRANCH   3  33
HETATM   33  N4  UNL     1       3.912  26.302  29.068  1.00  0.00    -0.073 N 
ATOM     34  H43 UNL     1       3.732  27.185  29.546  1.00  0.00     0.274 HD
ATOM     35  H42 UNL     1       3.097  25.778  29.386  1.00  0.00     0.274 HD
ATOM     36  H41 UNL     1       4.778  25.873  29.396  1.00  0.00     0.274 HD
ENDBRANCH   3  33
BRANCH   1  37
HETATM   37  N3  UNL     1       1.528  24.002  27.492  1.00  0.00    -0.037 N 
ATOM     38  H32 UNL     1       0.827  23.438  27.011  1.00  0.00     0.281 HD
ATOM     39  H31 UNL     1       0.918  24.500  28.140  1.00  0.00     0.281 HD
BRANCH  37  40
HETATM   40  C6  UNL     1       2.464  23.176  28.194  1.00  0.00     0.371 C 
BRANCH  40  41
HETATM   41  C5  UNL     1       2.225  23.175  29.699  1.00  0.00     0.091 A 
HETATM   42  C3  UNL     1       3.270  23.084  30.566  1.00  0.00     0.110 A 
HETATM   43  S1  UNL     1       2.449  23.075  32.098  1.00  0.00    -0.046 SA
HETATM   44  C4  UNL     1       0.852  23.191  31.520  1.00  0.00     0.143 A 
HETATM   45  N2  UNL     1       1.012  23.229  30.205  1.00  0.00    -0.335 N 
ATOM     46  H2  UNL     1       0.201  23.300  29.590  1.00  0.00     0.168 HD
BRANCH  42  47
HETATM   47  C2  UNL     1       4.733  23.026  30.373  1.00  0.00     0.302 C 
HETATM   48  O2  UNL     1       5.466  23.904  29.948  1.00  0.00    -0.259 OA
BRANCH  47  49
HETATM   49  O1  UNL     1       5.364  21.811  30.718  1.00  0.00    -0.322 OA
HETATM   50  C1  UNL     1       4.899  20.563  30.286  1.00  0.00     0.213 C 
ENDBRANCH  47  49
ENDBRANCH  42  47
BRANCH  44  51
HETATM   51  N1  UNL     1      -0.275  23.232  32.205  1.00  0.00    -0.380 N 
ATOM     52  H12 UNL     1      -0.539  23.885  32.942  1.00  0.00     0.158 HD
ATOM     53  H11 UNL     1      -1.092  22.626  32.130  1.00  0.00     0.158 HD
ENDBRANCH  44  51
ENDBRANCH  40  41
BRANCH  40  54
HETATM   54  O3  UNL     1       2.517  21.883  27.713  1.00  0.00    -0.365 OA
ATOM     55  H3  UNL     1       2.462  21.879  26.765  1.00  0.00     0.212 HD
ENDBRANCH  40  54
ENDBRANCH  37  40
ENDBRANCH   1  37
TORSDOF 15
ENDMDL
MODEL 2
REMARK VINA RESULT: -9.742179616      2.304      3.373
REMARK  15 active torsions:
REMARK  status: ('A' for Active; 'I' for Inactive)
REMARK    1  A    between atoms: O1_2  and  C2_3 
REMARK    2  A    between atoms: C2_3  and  C3_5 
REMARK    3  A    between atoms: C4_7  and  N1_8 
REMARK    4  A    between atoms: C5_13  and  C6_14 
REMARK    5  A    between atoms: C6_14  and  O3_15 
REMARK    6  A    between atoms: C6_14  and  N3_17 
REMARK    7  A    between atoms: N3_17  and  C7_20 
REMARK    8  A    between atoms: C9_22  and  N4_23 
REMARK    9  A    between atoms: N5_28  and  C11_29 
REMARK   10  A    between atoms: N7_35  and  C13_36 
REMARK   11  A    between atoms: C13_36  and  C14_37 
REMARK       I    between atoms: C14_37  and  N8_39 
REMARK   12  A    between atoms: N8_39  and  C15_41 
REMARK   13  A    between atoms: C17_43  and  C18_44 
REMARK   14  A    between atoms: C18_44  and  O7_45 
REMARK   15  A    between atoms: O7_45  and  S2_46 
ROOT
HETATM    1  C7  UNL     1       2.479  24.892  25.792  1.00  0.00     0.210 C 
HETATM    2  C8  UNL     1       3.813  25.317  26.287  1.00  0.00     0.069 C 
HETATM    3  C9  UNL     1       3.858  26.504  27.179  1.00  0.00     0.204 C 
HETATM    4  C10 UNL     1       2.906  27.613  26.869  1.00  0.00     0.174 C 
HETATM    5  N5  UNL     1       2.192  27.294  25.664  1.00  0.00    -0.212 N 
HETATM    6  C21 UNL     1       1.497  26.033  25.590  1.00  0.00     0.174 C 
ENDROOT
BRANCH   5   7
HETATM    7  C11 UNL     1       2.196  28.181  24.571  1.00  0.00     0.707 A 
HETATM    8  N6  UNL     1       2.842  28.031  23.391  1.00  0.00    -0.086 N 
HETATM    9  O4  UNL     1       2.644  29.044  22.636  1.00  0.00    -0.165 OA
ATOM     10  H6  UNL     1       3.408  27.222  23.137  1.00  0.00     0.214 HD
HETATM   11  C12 UNL     1       1.878  29.880  23.279  1.00  0.00     0.404 A 
HETATM   12  O5  UNL     1       1.483  30.988  22.824  1.00  0.00    -0.235 OA
HETATM   13  N7  UNL     1       1.572  29.388  24.486  1.00  0.00    -0.114 N 
BRANCH  13  14
HETATM   14  C13 UNL     1       0.749  29.980  25.525  1.00  0.00     0.256 C 
BRANCH  14  15
HETATM   15  C14 UNL     1      -0.630  30.106  25.001  1.00  0.00     0.237 C 
HETATM   16  O6  UNL     1      -1.350  29.077  24.971  1.00  0.00    -0.272 OA
HETATM   17  N8  UNL     1      -1.156  31.339  24.539  1.00  0.00    -0.348 N 
ATOM     18  H8  UNL     1      -0.557  32.163  24.569  1.00  0.00     0.163 HD
BRANCH  17  19
HETATM   19  C15 UNL     1      -2.486  31.484  24.032  1.00  0.00     0.167 C 
HETATM   20  C16 UNL     1      -2.580  30.914  22.635  1.00  0.00     0.068 C 
HETATM   21  C17 UNL     1      -1.922  31.781  21.606  1.00  0.00     0.160 C 
HETATM   22  O11 UNL     1      -1.442  33.015  22.106  1.00  0.00    -0.307 OA
HETATM   23  C19 UNL     1      -2.260  33.724  22.971  1.00  0.00     0.332 C 
HETATM   24  O12 UNL     1      -2.453  34.979  22.875  1.00  0.00    -0.256 OA
HETATM   25  C20 UNL     1      -2.898  32.935  24.019  1.00  0.00     0.246 C 
HETATM   26  O13 UNL     1      -3.699  33.434  24.810  1.00  0.00    -0.284 OA
BRANCH  21  27
HETATM   27  C18 UNL     1      -2.835  32.029  20.422  1.00  0.00     0.225 C 
BRANCH  27  28
HETATM   28  O7  UNL     1      -3.878  31.093  20.388  1.00  0.00    -0.254 OA
BRANCH  28  29
HETATM   29  S2  UNL     1      -5.368  31.830  20.414  1.00  0.00     0.251 S 
HETATM   30  O8  UNL     1      -5.294  33.323  20.440  1.00  0.00    -0.572 OA
HETATM   31  O9  UNL     1      -6.179  31.437  19.208  1.00  0.00    -0.572 OA
HETATM   32  O10 UNL     1      -6.231  31.326  21.779  1.00  0.00    -0.572 OA
ENDBRANCH  28  29
ENDBRANCH  27  28
ENDBRANCH  21  27
ENDBRANCH  17  19
ENDBRANCH  14  15
ENDBRANCH  13  14
ENDBRANCH   5   7
BRANCH   3  33
HETATM   33  N4  UNL     1       3.775  26.129  28.600  1.00  0.00    -0.073 N 
ATOM     34  H43 UNL     1       2.878  26.397  29.003  1.00  0.00     0.274 HD
ATOM     35  H42 UNL     1       3.705  25.117  28.713  1.00  0.00     0.274 HD
ATOM     36  H41 UNL     1       4.553  26.509  29.142  1.00  0.00     0.274 HD
ENDBRANCH   3  33
BRANCH   1  37
HETATM   37  N3  UNL     1       1.893  23.777  26.507  1.00  0.00    -0.037 N 
ATOM     38  H32 UNL     1       2.601  23.261  27.030  1.00  0.00     0.281 HD
ATOM     39  H31 UNL     1       1.599  23.040  25.865  1.00  0.00     0.281 HD
BRANCH  37  40
HETATM   40  C6  UNL     1       0.816  24.185  27.357  1.00  0.00     0.371 C 
BRANCH  40  41
HETATM   41  C5  UNL     1      -0.179  23.061  27.616  1.00  0.00     0.091 A 
HETATM   42  C3  UNL     1      -1.397  23.060  27.008  1.00  0.00     0.110 A 
HETATM   43  S1  UNL     1      -2.118  21.628  27.680  1.00  0.00    -0.046 SA
HETATM   44  C4  UNL     1      -0.822  21.144  28.672  1.00  0.00     0.143 A 
HETATM   45  N2  UNL     1       0.089  22.081  28.452  1.00  0.00    -0.335 N 
ATOM     46  H2  UNL     1       0.992  22.043  28.927  1.00  0.00     0.168 HD
BRANCH  42  47
HETATM   47  C2  UNL     1      -2.027  23.960  26.021  1.00  0.00     0.302 C 
HETATM   48  O2  UNL     1      -1.478  24.767  25.290  1.00  0.00    -0.259 OA
BRANCH  47  49
HETATM   49  O1  UNL     1      -3.432  23.880  25.906  1.00  0.00    -0.322 OA
HETATM   50  C1  UNL     1      -4.304  24.661  26.672  1.00  0.00     0.213 C 
ENDBRANCH  47  49
ENDBRANCH  42  47
BRANCH  44  51
HETATM   51  N1  UNL     1      -0.736  20.096  29.468  1.00  0.00    -0.380 N 
ATOM     52  H12 UNL     1      -0.678  20.082  30.486  1.00  0.00     0.158 HD
ATOM     53  H11 UNL     1      -0.710  19.106  29.222  1.00  0.00     0.158 HD
ENDBRANCH  44  51
ENDBRANCH  40  41
BRANCH  40  54
HETATM   54  O3  UNL     1       1.241  24.738  28.548  1.00  0.00    -0.365 OA
ATOM     55  H3  UNL     1       1.854  25.445  28.386  1.00  0.00     0.212 HD
ENDBRANCH  40  54
ENDBRANCH  37  40
ENDBRANCH   1  37
TORSDOF 15
ENDMDL
MODEL 3
REMARK VINA RESULT: -9.648793276      1.982      2.596
REMARK  15 active torsions:
REMARK  status: ('A' for Active; 'I' for Inactive)
REMARK    1  A    between atoms: O1_2  and  C2_3 
REMARK    2  A    between atoms: C2_3  and  C3_5 
REMARK    3  A    between atoms: C4_7  and  N1_8 
REMARK    4  A    between atoms: C5_13  and  C6_14 
REMARK    5  A    between atoms: C6_14  and  O3_15 
REMARK    6  A    between atoms: C6_14  and  N3_17 
REMARK    7  A    between atoms: N3_17  and  C7_20 
REMARK    8  A    between atoms: C9_22  and  N4_23 
REMARK    9  A    between atoms: N5_28  and  C11_29 
REMARK   10  A    between atoms: N7_35  and  C13_36 
REMARK   11  A    between atoms: C13_36  and  C14_37 
REMARK       I    between atoms: C14_37  and  N8_39 
REMARK   12  A    between atoms: N8_39  and  C15_41 
REMARK   13  A    between atoms: C17_43  and  C18_44 
REMARK   14  A    between atoms: C18_44  and  O7_45 
REMARK   15  A    between atoms: O7_45  and  S2_46 
ROOT
HETATM    1  C7  UNL     1       3.059  25.620  27.143  1.00  0.00     0.210 C 
HETATM    2  C8  UNL     1       3.745  26.679  26.359  1.00  0.00     0.069 C 
HETATM    3  C9  UNL     1       3.495  28.088  26.759  1.00  0.00     0.204 C 
HETATM    4  C10 UNL     1       2.111  28.421  27.214  1.00  0.00     0.174 C 
HETATM    5  N5  UNL     1       1.278  27.260  27.066  1.00  0.00    -0.212 N 
HETATM    6  C21 UNL     1       1.700  26.027  27.684  1.00  0.00     0.174 C 
ENDROOT
BRANCH   5   7
HETATM    7  C11 UNL     1       0.092  27.319  26.311  1.00  0.00     0.707 A 
HETATM    8  N6  UNL     1      -0.288  26.496  25.306  1.00  0.00    -0.086 N 
HETATM    9  O4  UNL     1      -1.416  26.857  24.826  1.00  0.00    -0.165 OA
ATOM     10  H6  UNL     1       0.253  25.696  24.976  1.00  0.00     0.214 HD
HETATM   11  C12 UNL     1      -1.812  27.910  25.485  1.00  0.00     0.404 A 
HETATM   12  O5  UNL     1      -2.891  28.528  25.271  1.00  0.00    -0.235 OA
HETATM   13  N7  UNL     1      -0.909  28.236  26.418  1.00  0.00    -0.114 N 
BRANCH  13  14
HETATM   14  C13 UNL     1      -0.945  29.329  27.372  1.00  0.00     0.256 C 
BRANCH  14  15
HETATM   15  C14 UNL     1      -0.676  30.587  26.639  1.00  0.00     0.237 C 
HETATM   16  O6  UNL     1       0.327  31.266  26.973  1.00  0.00    -0.272 OA
HETATM   17  N8  UNL     1      -1.506  31.042  25.583  1.00  0.00    -0.348 N 
ATOM     18  H8  UNL     1      -2.316  30.479  25.327  1.00  0.00     0.163 HD
BRANCH  17  19
HETATM   19  C15 UNL     1      -1.262  32.252  24.861  1.00  0.00     0.167 C 
HETATM   20  C16 UNL     1      -2.549  32.777  24.266  1.00  0.00     0.068 C 
HETATM   21  C17 UNL     1      -3.015  31.977  23.087  1.00  0.00     0.160 C 
HETATM   22  O11 UNL     1      -2.115  30.964  22.680  1.00  0.00    -0.307 OA
HETATM   23  C19 UNL     1      -0.767  31.279  22.623  1.00  0.00     0.332 C 
HETATM   24  O12 UNL     1      -0.015  30.949  21.651  1.00  0.00    -0.256 OA
HETATM   25  C20 UNL     1      -0.250  32.026  23.765  1.00  0.00     0.246 C 
HETATM   26  O13 UNL     1       0.914  32.424  23.805  1.00  0.00    -0.284 OA
BRANCH  21  27
HETATM   27  C18 UNL     1      -3.349  32.868  21.908  1.00  0.00     0.225 C 
BRANCH  27  28
HETATM   28  O7  UNL     1      -3.628  32.105  20.765  1.00  0.00    -0.254 OA
BRANCH  28  29
HETATM   29  S2  UNL     1      -5.258  32.061  20.438  1.00  0.00     0.251 S 
HETATM   30  O8  UNL     1      -5.858  33.412  20.218  1.00  0.00    -0.572 OA
HETATM   31  O9  UNL     1      -5.532  31.237  19.207  1.00  0.00    -0.572 OA
HETATM   32  O10 UNL     1      -6.079  31.326  21.720  1.00  0.00    -0.572 OA
ENDBRANCH  28  29
ENDBRANCH  27  28
ENDBRANCH  21  27
ENDBRANCH  17  19
ENDBRANCH  14  15
ENDBRANCH  13  14
ENDBRANCH   5   7
BRANCH   3  33
HETATM   33  N4  UNL     1       4.492  28.570  27.729  1.00  0.00    -0.073 N 
ATOM     34  H43 UNL     1       4.303  29.533  28.007  1.00  0.00     0.274 HD
ATOM     35  H42 UNL     1       4.377  28.116  28.636  1.00  0.00     0.274 HD
ATOM     36  H41 UNL     1       5.446  28.466  27.382  1.00  0.00     0.274 HD
ENDBRANCH   3  33
BRANCH   1  37
HETATM   37  N3  UNL     1       3.885  24.976  28.144  1.00  0.00    -0.037 N 
ATOM     38  H32 UNL     1       4.877  25.108  27.946  1.00  0.00     0.281 HD
ATOM     39  H31 UNL     1       3.838  23.960  28.064  1.00  0.00     0.281 HD
BRANCH  37  40
HETATM   40  C6  UNL     1       3.560  25.407  29.470  1.00  0.00     0.371 C 
BRANCH  40  41
HETATM   41  C5  UNL     1       3.325  24.239  30.421  1.00  0.00     0.091 A 
HETATM   42  C3  UNL     1       4.260  23.259  30.558  1.00  0.00     0.110 A 
HETATM   43  S1  UNL     1       3.478  22.191  31.685  1.00  0.00    -0.046 SA
HETATM   44  C4  UNL     1       2.034  23.070  31.894  1.00  0.00     0.143 A 
HETATM   45  N2  UNL     1       2.208  24.122  31.107  1.00  0.00    -0.335 N 
ATOM     46  H2  UNL     1       1.483  24.835  31.034  1.00  0.00     0.168 HD
BRANCH  42  47
HETATM   47  C2  UNL     1       5.605  23.066  29.980  1.00  0.00     0.302 C 
HETATM   48  O2  UNL     1       6.528  23.863  29.954  1.00  0.00    -0.259 OA
BRANCH  47  49
HETATM   49  O1  UNL     1       5.858  21.812  29.384  1.00  0.00    -0.322 OA
HETATM   50  C1  UNL     1       5.248  21.398  28.194  1.00  0.00     0.213 C 
ENDBRANCH  47  49
ENDBRANCH  42  47
BRANCH  44  51
HETATM   51  N1  UNL     1       0.993  22.782  32.650  1.00  0.00    -0.380 N 
ATOM     52  H12 UNL     1       0.013  22.724  32.376  1.00  0.00     0.158 HD
ATOM     53  H11 UNL     1       0.966  22.565  33.647  1.00  0.00     0.158 HD
ENDBRANCH  44  51
ENDBRANCH  40  41
BRANCH  40  54
HETATM   54  O3  UNL     1       4.486  26.282  30.001  1.00  0.00    -0.365 OA
ATOM     55  H3  UNL     1       4.761  26.912  29.346  1.00  0.00     0.212 HD
ENDBRANCH  40  54
ENDBRANCH  37  40
ENDBRANCH   1  37
TORSDOF 15
ENDMDL
MODEL 4
REMARK VINA RESULT: -9.571287278      1.685      2.650
REMARK  15 active torsions:
REMARK  status: ('A' for Active; 'I' for Inactive)
REMARK    1  A    between atoms: O1_2  and  C2_3 
REMARK    2  A    between atoms: C2_3  and  C3_5 
REMARK    3  A    between atoms: C4_7  and  N1_8 
REMARK    4  A    between atoms: C5_13  and  C6_14 
REMARK    5  A    between atoms: C6_14  and  O3_15 
REMARK    6  A    between atoms: C6_14  and  N3_17 
REMARK    7  A    between atoms: N3_17  and  C7_20 
REMARK    8  A    between atoms: C9_22  and  N4_23 
REMARK    9  A    between atoms: N5_28  and  C11_29 
REMARK   10  A    between atoms: N7_35  and  C13_36 
REMARK   11  A    between atoms: C13_36  and  C14_37 
REMARK       I    between atoms: C14_37  and  N8_39 
REMARK   12  A    between atoms: N8_39  and  C15_41 
REMARK   13  A    between atoms: C17_43  and  C18_44 
REMARK   14  A    between atoms: C18_44  and  O7_45 
REMARK   15  A    between atoms: O7_45  and  S2_46 
ROOT
HETATM    1  C7  UNL     1       3.525  26.926  26.934  1.00  0.00     0.210 C 
HETATM    2  C8  UNL     1       2.122  27.013  27.413  1.00  0.00     0.069 C 
HETATM    3  C9  UNL     1       1.078  26.369  26.575  1.00  0.00     0.204 C 
HETATM    4  C10 UNL     1       1.257  26.459  25.094  1.00  0.00     0.174 C 
HETATM    5  N5  UNL     1       2.410  27.266  24.811  1.00  0.00    -0.212 N 
HETATM    6  C21 UNL     1       3.667  26.910  25.422  1.00  0.00     0.174 C 
ENDROOT
BRANCH   5   7
HETATM    7  C11 UNL     1       2.309  28.396  23.976  1.00  0.00     0.707 A 
HETATM    8  N6  UNL     1       2.934  28.605  22.794  1.00  0.00    -0.086 N 
HETATM    9  O4  UNL     1       2.630  29.753  22.320  1.00  0.00    -0.165 OA
ATOM     10  H6  UNL     1       3.561  27.940  22.343  1.00  0.00     0.214 HD
HETATM   11  C12 UNL     1       1.812  30.328  23.155  1.00  0.00     0.404 A 
HETATM   12  O5  UNL     1       1.311  31.475  22.996  1.00  0.00    -0.235 OA
HETATM   13  N7  UNL     1       1.581  29.524  24.201  1.00  0.00    -0.114 N 
BRANCH  13  14
HETATM   14  C13 UNL     1       0.737  29.760  25.358  1.00  0.00     0.256 C 
BRANCH  14  15
HETATM   15  C14 UNL     1      -0.650  29.959  24.881  1.00  0.00     0.237 C 
HETATM   16  O6  UNL     1      -1.407  28.958  24.822  1.00  0.00    -0.272 OA
HETATM   17  N8  UNL     1      -1.144  31.231  24.494  1.00  0.00    -0.348 N 
ATOM     18  H8  UNL     1      -0.515  32.031  24.547  1.00  0.00     0.163 HD
BRANCH  17  19
HETATM   19  C15 UNL     1      -2.481  31.446  24.034  1.00  0.00     0.167 C 
HETATM   20  C16 UNL     1      -2.647  30.906  22.631  1.00  0.00     0.068 C 
HETATM   21  C17 UNL     1      -1.982  31.760  21.596  1.00  0.00     0.160 C 
HETATM   22  O11 UNL     1      -1.429  32.961  22.101  1.00  0.00    -0.307 OA
HETATM   23  C19 UNL     1      -2.184  33.692  23.003  1.00  0.00     0.332 C 
HETATM   24  O12 UNL     1      -2.322  34.956  22.934  1.00  0.00    -0.256 OA
HETATM   25  C20 UNL     1      -2.825  32.915  24.058  1.00  0.00     0.246 C 
HETATM   26  O13 UNL     1      -3.576  33.436  24.883  1.00  0.00    -0.284 OA
BRANCH  21  27
HETATM   27  C18 UNL     1      -2.919  32.072  20.447  1.00  0.00     0.225 C 
BRANCH  27  28
HETATM   28  O7  UNL     1      -3.946  31.120  20.364  1.00  0.00    -0.254 OA
BRANCH  28  29
HETATM   29  S2  UNL     1      -5.449  31.827  20.438  1.00  0.00     0.251 S 
HETATM   30  O8  UNL     1      -5.406  33.321  20.424  1.00  0.00    -0.572 OA
HETATM   31  O9  UNL     1      -6.303  31.386  19.279  1.00  0.00    -0.572 OA
HETATM   32  O10 UNL     1      -6.241  31.340  21.851  1.00  0.00    -0.572 OA
ENDBRANCH  28  29
ENDBRANCH  27  28
ENDBRANCH  21  27
ENDBRANCH  17  19
ENDBRANCH  14  15
ENDBRANCH  13  14
ENDBRANCH   5   7
BRANCH   3  33
HETATM   33  N4  UNL     1       0.822  24.979  26.985  1.00  0.00    -0.073 N 
ATOM     34  H43 UNL     1       1.693  24.462  27.107  1.00  0.00     0.274 HD
ATOM     35  H42 UNL     1       0.473  24.933  27.943  1.00  0.00     0.274 HD
ATOM     36  H41 UNL     1       0.194  24.499  26.339  1.00  0.00     0.274 HD
ENDBRANCH   3  33
BRANCH   1  37
HETATM   37  N3  UNL     1       4.323  25.902  27.577  1.00  0.00    -0.037 N 
ATOM     38  H32 UNL     1       5.295  26.197  27.672  1.00  0.00     0.281 HD
ATOM     39  H31 UNL     1       4.457  25.098  26.963  1.00  0.00     0.281 HD
BRANCH  37  40
HETATM   40  C6  UNL     1       3.776  25.505  28.840  1.00  0.00     0.371 C 
BRANCH  40  41
HETATM   41  C5  UNL     1       4.028  24.033  29.145  1.00  0.00     0.091 A 
HETATM   42  C3  UNL     1       3.092  23.292  29.800  1.00  0.00     0.110 A 
HETATM   43  S1  UNL     1       3.893  21.755  29.925  1.00  0.00    -0.046 SA
HETATM   44  C4  UNL     1       5.345  22.171  29.137  1.00  0.00     0.143 A 
HETATM   45  N2  UNL     1       5.158  23.444  28.819  1.00  0.00    -0.335 N 
ATOM     46  H2  UNL     1       5.885  23.963  28.326  1.00  0.00     0.168 HD
BRANCH  42  47
HETATM   47  C2  UNL     1       1.734  23.598  30.293  1.00  0.00     0.302 C 
HETATM   48  O2  UNL     1       1.417  24.038  31.386  1.00  0.00    -0.259 OA
BRANCH  47  49
HETATM   49  O1  UNL     1       0.671  23.354  29.396  1.00  0.00    -0.322 OA
HETATM   50  C1  UNL     1      -0.185  22.253  29.512  1.00  0.00     0.213 C 
ENDBRANCH  47  49
ENDBRANCH  42  47
BRANCH  44  51
HETATM   51  N1  UNL     1       6.401  21.419  28.897  1.00  0.00    -0.380 N 
ATOM     52  H12 UNL     1       6.653  20.531  29.330  1.00  0.00     0.158 HD
ATOM     53  H11 UNL     1       7.164  21.578  28.238  1.00  0.00     0.158 HD
ENDBRANCH  44  51
ENDBRANCH  40  41
BRANCH  40  54
HETATM   54  O3  UNL     1       4.199  26.295  29.889  1.00  0.00    -0.365 OA
ATOM     55  H3  UNL     1       4.822  26.944  29.586  1.00  0.00     0.212 HD
ENDBRANCH  40  54
ENDBRANCH  37  40
ENDBRANCH   1  37
TORSDOF 15
ENDMDL
MODEL 5
REMARK VINA RESULT: -9.550794017      2.204      2.694
REMARK  15 active torsions:
REMARK  status: ('A' for Active; 'I' for Inactive)
REMARK    1  A    between atoms: O1_2  and  C2_3 
REMARK    2  A    between atoms: C2_3  and  C3_5 
REMARK    3  A    between atoms: C4_7  and  N1_8 
REMARK    4  A    between atoms: C5_13  and  C6_14 
REMARK    5  A    between atoms: C6_14  and  O3_15 
REMARK    6  A    between atoms: C6_14  and  N3_17 
REMARK    7  A    between atoms: N3_17  and  C7_20 
REMARK    8  A    between atoms: C9_22  and  N4_23 
REMARK    9  A    between atoms: N5_28  and  C11_29 
REMARK   10  A    between atoms: N7_35  and  C13_36 
REMARK   11  A    between atoms: C13_36  and  C14_37 
REMARK       I    between atoms: C14_37  and  N8_39 
REMARK   12  A    between atoms: N8_39  and  C15_41 
REMARK   13  A    between atoms: C17_43  and  C18_44 
REMARK   14  A    between atoms: C18_44  and  O7_45 
REMARK   15  A    between atoms: O7_45  and  S2_46 
ROOT
HETATM    1  C7  UNL     1       1.575  25.061  26.706  1.00  0.00     0.210 C 
HETATM    2  C8  UNL     1       3.054  25.065  26.837  1.00  0.00     0.069 C 
HETATM    3  C9  UNL     1       3.670  26.222  27.535  1.00  0.00     0.204 C 
HETATM    4  C10 UNL     1       3.044  27.559  27.300  1.00  0.00     0.174 C 
HETATM    5  N5  UNL     1       1.992  27.418  26.333  1.00  0.00    -0.212 N 
HETATM    6  C21 UNL     1       0.958  26.443  26.577  1.00  0.00     0.174 C 
ENDROOT
BRANCH   5   7
HETATM    7  C11 UNL     1       1.986  28.196  25.159  1.00  0.00     0.707 A 
HETATM    8  N6  UNL     1       2.612  27.928  23.989  1.00  0.00    -0.086 N 
HETATM    9  O4  UNL     1       2.412  28.865  23.144  1.00  0.00    -0.165 OA
ATOM     10  H6  UNL     1       3.167  27.092  23.807  1.00  0.00     0.214 HD
HETATM   11  C12 UNL     1       1.663  29.766  23.714  1.00  0.00     0.404 A 
HETATM   12  O5  UNL     1       1.270  30.830  23.162  1.00  0.00    -0.235 OA
HETATM   13  N7  UNL     1       1.371  29.396  24.968  1.00  0.00    -0.114 N 
BRANCH  13  14
HETATM   14  C13 UNL     1       0.569  30.093  25.957  1.00  0.00     0.256 C 
BRANCH  14  15
HETATM   15  C14 UNL     1      -0.801  30.239  25.416  1.00  0.00     0.237 C 
HETATM   16  O6  UNL     1      -1.642  29.344  25.680  1.00  0.00    -0.272 OA
HETATM   17  N8  UNL     1      -1.188  31.346  24.619  1.00  0.00    -0.348 N 
ATOM     18  H8  UNL     1      -0.491  32.062  24.413  1.00  0.00     0.163 HD
BRANCH  17  19
HETATM   19  C15 UNL     1      -2.506  31.509  24.089  1.00  0.00     0.167 C 
HETATM   20  C16 UNL     1      -2.592  30.913  22.702  1.00  0.00     0.068 C 
HETATM   21  C17 UNL     1      -1.900  31.745  21.666  1.00  0.00     0.160 C 
HETATM   22  O11 UNL     1      -1.402  32.979  22.150  1.00  0.00    -0.307 OA
HETATM   23  C19 UNL     1      -2.217  33.722  22.988  1.00  0.00     0.332 C 
HETATM   24  O12 UNL     1      -2.381  34.979  22.864  1.00  0.00    -0.256 OA
HETATM   25  C20 UNL     1      -2.887  32.968  24.041  1.00  0.00     0.246 C 
HETATM   26  O13 UNL     1      -3.689  33.499  24.809  1.00  0.00    -0.284 OA
BRANCH  21  27
HETATM   27  C18 UNL     1      -2.790  31.989  20.464  1.00  0.00     0.225 C 
BRANCH  27  28
HETATM   28  O7  UNL     1      -3.824  31.044  20.405  1.00  0.00    -0.254 OA
BRANCH  28  29
HETATM   29  S2  UNL     1      -5.321  31.762  20.501  1.00  0.00     0.251 S 
HETATM   30  O8  UNL     1      -6.102  31.349  21.705  1.00  0.00    -0.572 OA
HETATM   31  O9  UNL     1      -5.191  33.262  20.536  1.00  0.00    -0.572 OA
HETATM   32  O10 UNL     1      -6.230  31.374  19.129  1.00  0.00    -0.572 OA
ENDBRANCH  28  29
ENDBRANCH  27  28
ENDBRANCH  21  27
ENDBRANCH  17  19
ENDBRANCH  14  15
ENDBRANCH  13  14
ENDBRANCH   5   7
BRANCH   3  33
HETATM   33  N4  UNL     1       3.836  25.972  28.977  1.00  0.00    -0.073 N 
ATOM     34  H43 UNL     1       3.770  26.837  29.513  1.00  0.00     0.274 HD
ATOM     35  H42 UNL     1       3.029  25.482  29.363  1.00  0.00     0.274 HD
ATOM     36  H41 UNL     1       4.703  25.475  29.181  1.00  0.00     0.274 HD
ENDBRANCH   3  33
BRANCH   1  37
HETATM   37  N3  UNL     1       0.882  24.232  27.670  1.00  0.00    -0.037 N 
ATOM     38  H32 UNL     1       0.215  24.779  28.216  1.00  0.00     0.281 HD
ATOM     39  H31 UNL     1       1.507  23.941  28.423  1.00  0.00     0.281 HD
BRANCH  37  40
HETATM   40  C6  UNL     1       0.249  23.104  27.057  1.00  0.00     0.371 C 
BRANCH  40  41
HETATM   41  C5  UNL     1      -1.087  22.764  27.705  1.00  0.00     0.091 A 
HETATM   42  C3  UNL     1      -1.132  22.175  28.933  1.00  0.00     0.110 A 
HETATM   43  S1  UNL     1      -2.844  21.971  29.156  1.00  0.00    -0.046 SA
HETATM   44  C4  UNL     1      -3.365  22.647  27.682  1.00  0.00     0.143 A 
HETATM   45  N2  UNL     1      -2.229  22.993  27.094  1.00  0.00    -0.335 N 
ATOM     46  H2  UNL     1      -2.240  23.434  26.174  1.00  0.00     0.168 HD
BRANCH  42  47
HETATM   47  C2  UNL     1      -0.085  21.794  29.901  1.00  0.00     0.302 C 
HETATM   48  O2  UNL     1       0.806  22.493  30.352  1.00  0.00    -0.259 OA
BRANCH  47  49
HETATM   49  O1  UNL     1      -0.115  20.461  30.365  1.00  0.00    -0.322 OA
HETATM   50  C1  UNL     1       0.184  20.107  31.685  1.00  0.00     0.213 C 
ENDBRANCH  47  49
ENDBRANCH  42  47
BRANCH  44  51
HETATM   51  N1  UNL     1      -4.595  22.795  27.229  1.00  0.00    -0.380 N 
ATOM     52  H12 UNL     1      -5.471  22.672  27.736  1.00  0.00     0.158 HD
ATOM     53  H11 UNL     1      -4.905  23.060  26.294  1.00  0.00     0.158 HD
ENDBRANCH  44  51
ENDBRANCH  40  41
BRANCH  40  54
HETATM   54  O3  UNL     1       0.103  23.237  25.691  1.00  0.00    -0.365 OA
ATOM     55  H3  UNL     1       0.458  24.068  25.399  1.00  0.00     0.212 HD
ENDBRANCH  40  54
ENDBRANCH  37  40
ENDBRANCH   1  37
TORSDOF 15
ENDMDL
