MODEL 1
REMARK VINA RESULT: -6.635067095      0.000      0.000
REMARK  18 active torsions:
REMARK  status: ('A' for Active; 'I' for Inactive)
REMARK    1  A    between atoms: C2_2  and  O1_3 
REMARK    2  A    between atoms: C2_2  and  C4_6 
REMARK    3  A    between atoms: C4_6  and  O2_7 
REMARK    4  A    between atoms: C4_6  and  C27_50 
REMARK    5  A    between atoms: O2_7  and  N2_8 
REMARK    6  A    between atoms: C5_9  and  C6_10 
REMARK    7  A    between atoms: C6_10  and  C8_12 
REMARK    8  A    between atoms: C8_12  and  O3_13 
REMARK    9  A    between atoms: C9_15  and  O4_16 
REMARK   10  A    between atoms: O4_16  and  C10_17 
REMARK   11  A    between atoms: C15_24  and  O7_25 
REMARK   12  A    between atoms: C16_27  and  O8_28 
REMARK   13  A    between atoms: C17_30  and  O9_31 
REMARK   14  A    between atoms: O9_31  and  C18_32 
REMARK   15  A    between atoms: C20_35  and  O11_36 
REMARK   16  A    between atoms: C23_40  and  N3_41 
REMARK       I    between atoms: N3_41  and  C24_43 
REMARK   17  A    between atoms: C25_46  and  O14_47 
REMARK   18  A    between atoms: C27_50  and  O16_52 
ROOT
HETATM    1  O1  UNL     1      -0.159  26.499  25.167  1.00  0.00    -0.242 OA
HETATM    2  C3  UNL     1       0.267  27.282  26.188  1.00  0.00     0.234 C 
HETATM    3  N1  UNL     1       0.650  27.950  27.071  1.00  0.00    -0.164 NA
ENDROOT
BRANCH   1   4
HETATM    4  C2  UNL     1      -0.319  25.142  25.226  1.00  0.00     0.098 C 
HETATM    5  C1  UNL     1      -1.507  24.651  25.432  1.00  0.00     0.051 C 
BRANCH   4   6
HETATM    6  C4  UNL     1       0.902  24.238  25.046  1.00  0.00     0.308 C 
BRANCH   6   7
HETATM    7  O2  UNL     1       1.682  24.220  26.051  1.00  0.00    -0.253 OA
BRANCH   7   8
HETATM    8  N2  UNL     1       1.991  23.683  27.138  1.00  0.00    -0.224 N 
HETATM    9  C5  UNL     1       1.972  22.372  27.526  1.00  0.00     0.061 C 
HETATM   10  C9  UNL     1       3.241  21.569  27.883  1.00  0.00     0.157 C 
HETATM   11  C12 UNL     1       3.578  20.523  26.860  1.00  0.00     0.120 C 
HETATM   12  C20 UNL     1       4.484  22.309  28.076  1.00  0.00     0.129 C 
HETATM   13  C13 UNL     1       2.543  19.652  26.357  1.00  0.00     0.011 C 
HETATM   14  C15 UNL     1       4.282  20.904  25.631  1.00  0.00     0.205 C 
HETATM   15  C14 UNL     1       3.100  19.062  25.275  1.00  0.00     0.135 C 
HETATM   16  O6  UNL     1       4.400  19.538  25.114  1.00  0.00    -0.323 OA
HETATM   17  C16 UNL     1       5.605  21.476  25.944  1.00  0.00     0.214 C 
HETATM   18  C17 UNL     1       5.721  21.753  27.400  1.00  0.00     0.204 C 
HETATM   19  C21 UNL     1       4.584  23.774  28.014  1.00  0.00     0.033 C 
HETATM   20  C22 UNL     1       4.522  24.543  26.782  1.00  0.00     0.038 C 
HETATM   21  C26 UNL     1       3.554  24.302  28.986  1.00  0.00     0.073 C 
HETATM   22  C23 UNL     1       3.415  25.538  27.065  1.00  0.00     0.145 C 
HETATM   23  C25 UNL     1       2.531  24.701  28.000  1.00  0.00     0.178 C 
BRANCH   9  24
HETATM   24  C6  UNL     1       0.719  21.770  28.117  1.00  0.00     0.056 C 
HETATM   25  C7  UNL     1      -0.386  21.458  27.089  1.00  0.00     0.018 C 
BRANCH  24  26
HETATM   26  C8  UNL     1      -0.053  22.601  29.106  1.00  0.00     0.174 C 
BRANCH  26  27
HETATM   27  O3  UNL     1       0.526  23.090  30.202  1.00  0.00    -0.400 OA
ATOM     28  H3  UNL     1       0.158  22.940  31.065  1.00  0.00     0.209 HD
ENDBRANCH  26  27
ENDBRANCH  24  26
ENDBRANCH   9  24
BRANCH  10  29
HETATM   29  O4  UNL     1       2.809  21.002  29.078  1.00  0.00    -0.300 OA
BRANCH  29  30
HETATM   30  C10 UNL     1       2.950  19.848  29.707  1.00  0.00     0.256 C 
HETATM   31  C11 UNL     1       1.885  18.793  29.895  1.00  0.00     0.126 C 
HETATM   32  O5  UNL     1       4.047  19.615  30.182  1.00  0.00    -0.266 OA
ENDBRANCH  29  30
ENDBRANCH  10  29
BRANCH  14  33
HETATM   33  O7  UNL     1       3.668  21.538  24.631  1.00  0.00    -0.362 OA
ATOM     34  H7  UNL     1       3.586  21.155  23.766  1.00  0.00     0.213 HD
ENDBRANCH  14  33
BRANCH  17  35
HETATM   35  O8  UNL     1       6.571  20.479  25.624  1.00  0.00    -0.387 OA
ATOM     36  H8  UNL     1       7.196  20.462  26.339  1.00  0.00     0.210 HD
ENDBRANCH  17  35
BRANCH  18  37
HETATM   37  O9  UNL     1       6.764  22.738  27.527  1.00  0.00    -0.310 OA
BRANCH  37  38
HETATM   38  C18 UNL     1       8.082  22.408  27.787  1.00  0.00     0.255 C 
HETATM   39  C19 UNL     1       9.160  23.439  27.852  1.00  0.00     0.126 C 
HETATM   40  O10 UNL     1       8.337  21.177  27.970  1.00  0.00    -0.266 OA
ENDBRANCH  37  38
ENDBRANCH  18  37
BRANCH  12  41
HETATM   41  O11 UNL     1       4.889  22.151  29.454  1.00  0.00    -0.383 OA
ATOM     42  H11 UNL     1       5.741  21.730  29.464  1.00  0.00     0.210 HD
ENDBRANCH  12  41
BRANCH  22  43
HETATM   43  N3  UNL     1       3.863  26.718  27.724  1.00  0.00    -0.326 N 
HETATM   44  C24 UNL     1       4.273  27.897  27.074  1.00  0.00     0.283 C 
HETATM   45  O12 UNL     1       4.255  27.941  25.823  1.00  0.00    -0.630 OA
HETATM   46  O13 UNL     1       4.689  28.987  27.801  1.00  0.00    -0.630 OA
ATOM     47  H3  UNL     1       3.888  26.709  28.744  1.00  0.00     0.166 HD
ENDBRANCH  22  43
BRANCH  23  48
HETATM   48  O14 UNL     1       1.653  25.565  28.577  1.00  0.00    -0.367 OA
ATOM     49  H14 UNL     1       1.993  26.400  28.878  1.00  0.00     0.212 HD
ENDBRANCH  23  48
ENDBRANCH   7   8
ENDBRANCH   6   7
BRANCH   6  50
HETATM   50  C27 UNL     1       1.510  24.687  23.773  1.00  0.00     0.296 C 
HETATM   51  O15 UNL     1       2.246  25.673  23.722  1.00  0.00    -0.262 OA
BRANCH  50  52
HETATM   52  O16 UNL     1       1.290  24.025  22.563  1.00  0.00    -0.324 OA
HETATM   53  C28 UNL     1       1.556  22.642  22.409  1.00  0.00     0.213 C 
ENDBRANCH  50  52
ENDBRANCH   6  50
ENDBRANCH   4   6
ENDBRANCH   1   4
TORSDOF 18
ENDMDL
MODEL 2
REMARK VINA RESULT: -6.435514547      2.296      6.442
REMARK  18 active torsions:
REMARK  status: ('A' for Active; 'I' for Inactive)
REMARK    1  A    between atoms: C2_2  and  O1_3 
REMARK    2  A    between atoms: C2_2  and  C4_6 
REMARK    3  A    between atoms: C4_6  and  O2_7 
REMARK    4  A    between atoms: C4_6  and  C27_50 
REMARK    5  A    between atoms: O2_7  and  N2_8 
REMARK    6  A    between atoms: C5_9  and  C6_10 
REMARK    7  A    between atoms: C6_10  and  C8_12 
REMARK    8  A    between atoms: C8_12  and  O3_13 
REMARK    9  A    between atoms: C9_15  and  O4_16 
REMARK   10  A    between atoms: O4_16  and  C10_17 
REMARK   11  A    between atoms: C15_24  and  O7_25 
REMARK   12  A    between atoms: C16_27  and  O8_28 
REMARK   13  A    between atoms: C17_30  and  O9_31 
REMARK   14  A    between atoms: O9_31  and  C18_32 
REMARK   15  A    between atoms: C20_35  and  O11_36 
REMARK   16  A    between atoms: C23_40  and  N3_41 
REMARK       I    between atoms: N3_41  and  C24_43 
REMARK   17  A    between atoms: C25_46  and  O14_47 
REMARK   18  A    between atoms: C27_50  and  O16_52 
ROOT
HETATM    1  O1  UNL     1       5.647  24.794  25.874  1.00  0.00    -0.242 OA
HETATM    2  C3  UNL     1       6.402  23.712  26.185  1.00  0.00     0.234 C 
HETATM    3  N1  UNL     1       7.041  22.767  26.452  1.00  0.00    -0.164 NA
ENDROOT
BRANCH   1   4
HETATM    4  C2  UNL     1       4.551  25.219  26.573  1.00  0.00     0.098 C 
HETATM    5  C1  UNL     1       4.074  26.409  26.345  1.00  0.00     0.051 C 
BRANCH   4   6
HETATM    6  C4  UNL     1       3.913  24.283  27.602  1.00  0.00     0.308 C 
BRANCH   6   7
HETATM    7  O2  UNL     1       3.000  23.538  27.122  1.00  0.00    -0.253 OA
BRANCH   7   8
HETATM    8  N2  UNL     1       2.560  22.378  26.961  1.00  0.00    -0.224 N 
HETATM    9  C5  UNL     1       2.449  21.333  27.836  1.00  0.00     0.061 C 
HETATM   10  C9  UNL     1       1.098  20.739  28.287  1.00  0.00     0.157 C 
HETATM   11  C12 UNL     1       0.771  21.047  29.720  1.00  0.00     0.120 C 
HETATM   12  C20 UNL     1      -0.099  21.125  27.546  1.00  0.00     0.129 C 
HETATM   13  C13 UNL     1       1.777  20.868  30.739  1.00  0.00     0.011 C 
HETATM   14  C15 UNL     1       0.204  22.353  30.074  1.00  0.00     0.205 C 
HETATM   15  C14 UNL     1       1.272  21.501  31.821  1.00  0.00     0.135 C 
HETATM   16  O6  UNL     1       0.029  22.043  31.495  1.00  0.00    -0.323 OA
HETATM   17  C16 UNL     1      -1.094  22.557  29.405  1.00  0.00     0.214 C 
HETATM   18  C17 UNL     1      -1.312  21.517  28.365  1.00  0.00     0.204 C 
HETATM   19  C21 UNL     1      -0.083  21.994  26.360  1.00  0.00     0.033 C 
HETATM   20  C22 UNL     1       0.141  23.429  26.405  1.00  0.00     0.038 C 
HETATM   21  C26 UNL     1       0.897  21.364  25.397  1.00  0.00     0.073 C 
HETATM   22  C23 UNL     1       1.290  23.619  25.437  1.00  0.00     0.145 C 
HETATM   23  C25 UNL     1       2.027  22.285  25.628  1.00  0.00     0.178 C 
BRANCH   9  24
HETATM   24  C6  UNL     1       3.598  20.373  28.028  1.00  0.00     0.056 C 
HETATM   25  C7  UNL     1       4.826  20.979  28.734  1.00  0.00     0.018 C 
BRANCH  24  26
HETATM   26  C8  UNL     1       4.244  19.805  26.793  1.00  0.00     0.174 C 
BRANCH  26  27
HETATM   27  O3  UNL     1       5.115  20.514  26.076  1.00  0.00    -0.400 OA
ATOM     28  H3  UNL     1       5.909  20.859  26.466  1.00  0.00     0.209 HD
ENDBRANCH  26  27
ENDBRANCH  24  26
ENDBRANCH   9  24
BRANCH  10  29
HETATM   29  O4  UNL     1       1.383  19.389  28.102  1.00  0.00    -0.300 OA
BRANCH  29  30
HETATM   30  C10 UNL     1       1.112  18.251  28.716  1.00  0.00     0.256 C 
HETATM   31  C11 UNL     1       2.088  17.389  29.481  1.00  0.00     0.126 C 
HETATM   32  O5  UNL     1      -0.040  17.859  28.657  1.00  0.00    -0.266 OA
ENDBRANCH  29  30
ENDBRANCH  10  29
BRANCH  14  33
HETATM   33  O7  UNL     1       0.947  23.460  30.111  1.00  0.00    -0.362 OA
ATOM     34  H7  UNL     1       1.470  23.691  30.869  1.00  0.00     0.213 HD
ENDBRANCH  14  33
BRANCH  17  35
HETATM   35  O8  UNL     1      -2.101  22.381  30.397  1.00  0.00    -0.387 OA
ATOM     36  H8  UNL     1      -1.812  21.672  30.960  1.00  0.00     0.210 HD
ENDBRANCH  17  35
BRANCH  18  37
HETATM   37  O9  UNL     1      -2.285  22.071  27.459  1.00  0.00    -0.310 OA
BRANCH  37  38
HETATM   38  C18 UNL     1      -3.648  21.998  27.684  1.00  0.00     0.255 C 
HETATM   39  C19 UNL     1      -4.615  22.908  27.002  1.00  0.00     0.126 C 
HETATM   40  O10 UNL     1      -4.045  21.113  28.505  1.00  0.00    -0.266 OA
ENDBRANCH  37  38
ENDBRANCH  18  37
BRANCH  12  41
HETATM   41  O11 UNL     1      -0.630  19.943  26.907  1.00  0.00    -0.383 OA
ATOM     42  H11 UNL     1      -0.072  19.733  26.167  1.00  0.00     0.210 HD
ENDBRANCH  12  41
BRANCH  22  43
HETATM   43  N3  UNL     1       0.877  23.772  24.083  1.00  0.00    -0.326 N 
HETATM   44  C24 UNL     1       1.282  24.817  23.232  1.00  0.00     0.283 C 
HETATM   45  O12 UNL     1       2.062  25.693  23.671  1.00  0.00    -0.630 OA
HETATM   46  O13 UNL     1       0.828  24.878  21.935  1.00  0.00    -0.630 OA
ATOM     47  H3  UNL     1       0.241  23.072  23.701  1.00  0.00     0.166 HD
ENDBRANCH  22  43
BRANCH  23  48
HETATM   48  O14 UNL     1       2.914  22.185  24.602  1.00  0.00    -0.367 OA
ATOM     49  H14 UNL     1       2.836  22.810  23.891  1.00  0.00     0.212 HD
ENDBRANCH  23  48
ENDBRANCH   7   8
ENDBRANCH   6   7
BRANCH   6  50
HETATM   50  C27 UNL     1       3.494  25.177  28.705  1.00  0.00     0.296 C 
HETATM   51  O15 UNL     1       2.345  25.609  28.784  1.00  0.00    -0.262 OA
BRANCH  50  52
HETATM   52  O16 UNL     1       4.370  25.579  29.716  1.00  0.00    -0.324 OA
HETATM   53  C28 UNL     1       4.172  25.208  31.069  1.00  0.00     0.213 C 
ENDBRANCH  50  52
ENDBRANCH   6  50
ENDBRANCH   4   6
ENDBRANCH   1   4
TORSDOF 18
ENDMDL
MODEL 3
REMARK VINA RESULT: -6.343204253      1.526      2.050
REMARK  18 active torsions:
REMARK  status: ('A' for Active; 'I' for Inactive)
REMARK    1  A    between atoms: C2_2  and  O1_3 
REMARK    2  A    between atoms: C2_2  and  C4_6 
REMARK    3  A    between atoms: C4_6  and  O2_7 
REMARK    4  A    between atoms: C4_6  and  C27_50 
REMARK    5  A    between atoms: O2_7  and  N2_8 
REMARK    6  A    between atoms: C5_9  and  C6_10 
REMARK    7  A    between atoms: C6_10  and  C8_12 
REMARK    8  A    between atoms: C8_12  and  O3_13 
REMARK    9  A    between atoms: C9_15  and  O4_16 
REMARK   10  A    between atoms: O4_16  and  C10_17 
REMARK   11  A    between atoms: C15_24  and  O7_25 
REMARK   12  A    between atoms: C16_27  and  O8_28 
REMARK   13  A    between atoms: C17_30  and  O9_31 
REMARK   14  A    between atoms: O9_31  and  C18_32 
REMARK   15  A    between atoms: C20_35  and  O11_36 
REMARK   16  A    between atoms: C23_40  and  N3_41 
REMARK       I    between atoms: N3_41  and  C24_43 
REMARK   17  A    between atoms: C25_46  and  O14_47 
REMARK   18  A    between atoms: C27_50  and  O16_52 
ROOT
HETATM    1  O1  UNL     1       0.411  27.429  27.425  1.00  0.00    -0.242 OA
HETATM    2  C3  UNL     1       0.442  28.776  27.580  1.00  0.00     0.234 C 
HETATM    3  N1  UNL     1       0.452  29.939  27.718  1.00  0.00    -0.164 NA
ENDROOT
BRANCH   1   4
HETATM    4  C2  UNL     1      -0.428  26.750  26.586  1.00  0.00     0.098 C 
HETATM    5  C1  UNL     1      -1.277  27.418  25.857  1.00  0.00     0.051 C 
BRANCH   4   6
HETATM    6  C4  UNL     1      -0.346  25.223  26.523  1.00  0.00     0.308 C 
BRANCH   6   7
HETATM    7  O2  UNL     1       0.787  24.756  26.868  1.00  0.00    -0.253 OA
BRANCH   7   8
HETATM    8  N2  UNL     1       1.426  23.980  27.613  1.00  0.00    -0.224 N 
HETATM    9  C5  UNL     1       1.339  22.626  27.781  1.00  0.00     0.061 C 
HETATM   10  C9  UNL     1       2.472  21.645  27.414  1.00  0.00     0.157 C 
HETATM   11  C12 UNL     1       2.151  20.802  26.214  1.00  0.00     0.120 C 
HETATM   12  C20 UNL     1       3.791  22.203  27.128  1.00  0.00     0.129 C 
HETATM   13  C13 UNL     1       0.863  20.158  26.115  1.00  0.00     0.011 C 
HETATM   14  C15 UNL     1       2.323  21.354  24.867  1.00  0.00     0.205 C 
HETATM   15  C14 UNL     1       0.792  19.750  24.829  1.00  0.00     0.135 C 
HETATM   16  O6  UNL     1       1.963  20.117  24.167  1.00  0.00    -0.323 OA
HETATM   17  C16 UNL     1       3.732  21.716  24.627  1.00  0.00     0.214 C 
HETATM   18  C17 UNL     1       4.502  21.677  25.898  1.00  0.00     0.204 C 
HETATM   19  C21 UNL     1       4.116  23.633  27.232  1.00  0.00     0.033 C 
HETATM   20  C22 UNL     1       3.675  24.640  26.279  1.00  0.00     0.038 C 
HETATM   21  C26 UNL     1       3.709  24.051  28.626  1.00  0.00     0.073 C 
HETATM   22  C23 UNL     1       2.991  25.661  27.165  1.00  0.00     0.145 C 
HETATM   23  C25 UNL     1       2.453  24.742  28.272  1.00  0.00     0.178 C 
BRANCH   9  24
HETATM   24  C6  UNL     1       0.370  22.043  28.783  1.00  0.00     0.056 C 
HETATM   25  C7  UNL     1      -1.113  22.163  28.381  1.00  0.00     0.018 C 
BRANCH  24  26
HETATM   26  C8  UNL     1       0.333  22.659  30.156  1.00  0.00     0.174 C 
BRANCH  26  27
HETATM   27  O3  UNL     1       1.437  22.778  30.892  1.00  0.00    -0.400 OA
ATOM     28  H3  UNL     1       2.150  22.154  30.820  1.00  0.00     0.209 HD
ENDBRANCH  26  27
ENDBRANCH  24  26
ENDBRANCH   9  24
BRANCH  10  29
HETATM   29  O4  UNL     1       2.495  20.892  28.583  1.00  0.00    -0.300 OA
BRANCH  29  30
HETATM   30  C10 UNL     1       2.655  19.622  28.913  1.00  0.00     0.256 C 
HETATM   31  C11 UNL     1       1.587  18.687  29.429  1.00  0.00     0.126 C 
HETATM   32  O5  UNL     1       3.776  19.162  28.788  1.00  0.00    -0.266 OA
ENDBRANCH  29  30
ENDBRANCH  10  29
BRANCH  14  33
HETATM   33  O7  UNL     1       1.466  22.236  24.349  1.00  0.00    -0.362 OA
ATOM     34  H7  UNL     1       0.626  21.973  23.991  1.00  0.00     0.213 HD
ENDBRANCH  14  33
BRANCH  17  35
HETATM   35  O8  UNL     1       4.275  20.714  23.772  1.00  0.00    -0.387 OA
ATOM     36  H8  UNL     1       4.877  21.153  23.182  1.00  0.00     0.210 HD
ENDBRANCH  17  35
BRANCH  18  37
HETATM   37  O9  UNL     1       5.658  22.508  25.677  1.00  0.00    -0.310 OA
BRANCH  37  38
HETATM   38  C18 UNL     1       6.920  21.992  25.444  1.00  0.00     0.255 C 
HETATM   39  C19 UNL     1       7.887  21.728  26.551  1.00  0.00     0.126 C 
HETATM   40  O10 UNL     1       7.224  21.749  24.234  1.00  0.00    -0.266 OA
ENDBRANCH  37  38
ENDBRANCH  18  37
BRANCH  12  41
HETATM   41  O11 UNL     1       4.707  21.728  28.139  1.00  0.00    -0.383 OA
ATOM     42  H11 UNL     1       5.586  21.766  27.781  1.00  0.00     0.210 HD
ENDBRANCH  12  41
BRANCH  22  43
HETATM   43  N3  UNL     1       3.880  26.631  27.710  1.00  0.00    -0.326 N 
HETATM   44  C24 UNL     1       4.139  27.893  27.143  1.00  0.00     0.283 C 
HETATM   45  O12 UNL     1       3.559  28.214  26.081  1.00  0.00    -0.630 OA
HETATM   46  O13 UNL     1       5.015  28.764  27.747  1.00  0.00    -0.630 OA
ATOM     47  H3  UNL     1       4.366  26.394  28.575  1.00  0.00     0.166 HD
ENDBRANCH  22  43
BRANCH  23  48
HETATM   48  O14 UNL     1       2.074  25.553  29.296  1.00  0.00    -0.367 OA
ATOM     49  H14 UNL     1       2.222  26.486  29.195  1.00  0.00     0.212 HD
ENDBRANCH  23  48
ENDBRANCH   7   8
ENDBRANCH   6   7
BRANCH   6  50
HETATM   50  C27 UNL     1      -0.787  24.885  25.151  1.00  0.00     0.296 C 
HETATM   51  O15 UNL     1      -0.019  24.953  24.192  1.00  0.00    -0.262 OA
BRANCH  50  52
HETATM   52  O16 UNL     1      -2.089  24.469  24.865  1.00  0.00    -0.324 OA
HETATM   53  C28 UNL     1      -2.990  24.077  25.885  1.00  0.00     0.213 C 
ENDBRANCH  50  52
ENDBRANCH   6  50
ENDBRANCH   4   6
ENDBRANCH   1   4
TORSDOF 18
ENDMDL
MODEL 4
REMARK VINA RESULT: -6.218571210      2.159      5.739
REMARK  18 active torsions:
REMARK  status: ('A' for Active; 'I' for Inactive)
REMARK    1  A    between atoms: C2_2  and  O1_3 
REMARK    2  A    between atoms: C2_2  and  C4_6 
REMARK    3  A    between atoms: C4_6  and  O2_7 
REMARK    4  A    between atoms: C4_6  and  C27_50 
REMARK    5  A    between atoms: O2_7  and  N2_8 
REMARK    6  A    between atoms: C5_9  and  C6_10 
REMARK    7  A    between atoms: C6_10  and  C8_12 
REMARK    8  A    between atoms: C8_12  and  O3_13 
REMARK    9  A    between atoms: C9_15  and  O4_16 
REMARK   10  A    between atoms: O4_16  and  C10_17 
REMARK   11  A    between atoms: C15_24  and  O7_25 
REMARK   12  A    between atoms: C16_27  and  O8_28 
REMARK   13  A    between atoms: C17_30  and  O9_31 
REMARK   14  A    between atoms: O9_31  and  C18_32 
REMARK   15  A    between atoms: C20_35  and  O11_36 
REMARK   16  A    between atoms: C23_40  and  N3_41 
REMARK       I    between atoms: N3_41  and  C24_43 
REMARK   17  A    between atoms: C25_46  and  O14_47 
REMARK   18  A    between atoms: C27_50  and  O16_52 
ROOT
HETATM    1  O1  UNL     1       3.237  25.942  25.201  1.00  0.00    -0.242 OA
HETATM    2  C3  UNL     1       3.078  26.848  24.204  1.00  0.00     0.234 C 
HETATM    3  N1  UNL     1       2.952  27.640  23.351  1.00  0.00    -0.164 NA
ENDROOT
BRANCH   1   4
HETATM    4  C2  UNL     1       3.066  26.196  26.533  1.00  0.00     0.098 C 
HETATM    5  C1  UNL     1       3.870  27.028  27.131  1.00  0.00     0.051 C 
BRANCH   4   6
HETATM    6  C4  UNL     1       1.930  25.499  27.286  1.00  0.00     0.308 C 
BRANCH   6   7
HETATM    7  O2  UNL     1       1.975  24.229  27.221  1.00  0.00    -0.253 OA
BRANCH   7   8
HETATM    8  N2  UNL     1       2.621  23.182  27.453  1.00  0.00    -0.224 N 
HETATM    9  C5  UNL     1       3.212  22.730  28.599  1.00  0.00     0.061 C 
HETATM   10  C9  UNL     1       2.759  21.459  29.349  1.00  0.00     0.157 C 
HETATM   11  C12 UNL     1       2.087  21.758  30.657  1.00  0.00     0.120 C 
HETATM   12  C20 UNL     1       1.843  20.553  28.663  1.00  0.00     0.129 C 
HETATM   13  C13 UNL     1       2.682  22.707  31.568  1.00  0.00     0.011 C 
HETATM   14  C15 UNL     1       0.675  22.155  30.678  1.00  0.00     0.205 C 
HETATM   15  C14 UNL     1       1.706  22.961  32.469  1.00  0.00     0.135 C 
HETATM   16  O6  UNL     1       0.574  22.217  32.139  1.00  0.00    -0.323 OA
HETATM   17  C16 UNL     1      -0.176  21.086  30.125  1.00  0.00     0.214 C 
HETATM   18  C17 UNL     1       0.658  20.049  29.461  1.00  0.00     0.204 C 
HETATM   19  C21 UNL     1       1.378  20.748  27.282  1.00  0.00     0.033 C 
HETATM   20  C22 UNL     1       0.405  21.754  26.885  1.00  0.00     0.038 C 
HETATM   21  C26 UNL     1       2.625  20.898  26.441  1.00  0.00     0.073 C 
HETATM   22  C23 UNL     1       1.129  22.501  25.783  1.00  0.00     0.145 C 
HETATM   23  C25 UNL     1       2.579  22.363  26.271  1.00  0.00     0.178 C 
BRANCH   9  24
HETATM   24  C6  UNL     1       4.630  23.127  28.934  1.00  0.00     0.056 C 
HETATM   25  C7  UNL     1       4.762  24.484  29.652  1.00  0.00     0.018 C 
BRANCH  24  26
HETATM   26  C8  UNL     1       5.585  23.328  27.788  1.00  0.00     0.174 C 
BRANCH  26  27
HETATM   27  O3  UNL     1       5.935  22.319  26.991  1.00  0.00    -0.400 OA
ATOM     28  H3  UNL     1       5.340  21.602  26.812  1.00  0.00     0.209 HD
ENDBRANCH  26  27
ENDBRANCH  24  26
ENDBRANCH   9  24
BRANCH  10  29
HETATM   29  O4  UNL     1       4.003  20.862  29.532  1.00  0.00    -0.300 OA
BRANCH  29  30
HETATM   30  C10 UNL     1       4.624  20.196  30.490  1.00  0.00     0.256 C 
HETATM   31  C11 UNL     1       5.776  20.696  31.329  1.00  0.00     0.126 C 
HETATM   32  O5  UNL     1       4.227  19.067  30.717  1.00  0.00    -0.266 OA
ENDBRANCH  29  30
ENDBRANCH  10  29
BRANCH  14  33
HETATM   33  O7  UNL     1       0.278  23.375  30.311  1.00  0.00    -0.362 OA
ATOM     34  H7  UNL     1       0.232  23.637  29.399  1.00  0.00     0.213 HD
ENDBRANCH  14  33
BRANCH  17  35
HETATM   35  O8  UNL     1      -0.825  20.464  31.230  1.00  0.00    -0.387 OA
ATOM     36  H8  UNL     1      -1.050  19.582  30.956  1.00  0.00     0.210 HD
ENDBRANCH  17  35
BRANCH  18  37
HETATM   37  O9  UNL     1      -0.223  19.369  28.546  1.00  0.00    -0.310 OA
BRANCH  37  38
HETATM   38  C18 UNL     1      -0.620  18.056  28.721  1.00  0.00     0.255 C 
HETATM   39  C19 UNL     1      -2.058  17.662  28.776  1.00  0.00     0.126 C 
HETATM   40  O10 UNL     1       0.304  17.190  28.832  1.00  0.00    -0.266 OA
ENDBRANCH  37  38
ENDBRANCH  18  37
BRANCH  12  41
HETATM   41  O11 UNL     1       2.526  19.297  28.456  1.00  0.00    -0.383 OA
ATOM     42  H11 UNL     1       1.941  18.719  27.981  1.00  0.00     0.210 HD
ENDBRANCH  12  41
BRANCH  22  43
HETATM   43  N3  UNL     1       0.976  21.910  24.496  1.00  0.00    -0.326 N 
HETATM   44  C24 UNL     1       1.165  22.583  23.275  1.00  0.00     0.283 C 
HETATM   45  O12 UNL     1       1.492  23.792  23.289  1.00  0.00    -0.630 OA
HETATM   46  O13 UNL     1       0.994  21.923  22.081  1.00  0.00    -0.630 OA
ATOM     47  H3  UNL     1       0.710  20.926  24.457  1.00  0.00     0.166 HD
ENDBRANCH  22  43
BRANCH  23  48
HETATM   48  O14 UNL     1       3.372  22.726  25.227  1.00  0.00    -0.367 OA
ATOM     49  H14 UNL     1       3.087  22.483  24.354  1.00  0.00     0.212 HD
ENDBRANCH  23  48
ENDBRANCH   7   8
ENDBRANCH   6   7
BRANCH   6  50
HETATM   50  C27 UNL     1       0.697  26.123  26.755  1.00  0.00     0.296 C 
HETATM   51  O15 UNL     1       0.193  27.111  27.288  1.00  0.00    -0.262 OA
BRANCH  50  52
HETATM   52  O16 UNL     1       0.038  25.634  25.624  1.00  0.00    -0.324 OA
HETATM   53  C28 UNL     1      -1.338  25.301  25.646  1.00  0.00     0.213 C 
ENDBRANCH  50  52
ENDBRANCH   6  50
ENDBRANCH   4   6
ENDBRANCH   1   4
TORSDOF 18
ENDMDL
MODEL 5
REMARK VINA RESULT: -6.170460605      2.147      5.803
REMARK  18 active torsions:
REMARK  status: ('A' for Active; 'I' for Inactive)
REMARK    1  A    between atoms: C2_2  and  O1_3 
REMARK    2  A    between atoms: C2_2  and  C4_6 
REMARK    3  A    between atoms: C4_6  and  O2_7 
REMARK    4  A    between atoms: C4_6  and  C27_50 
REMARK    5  A    between atoms: O2_7  and  N2_8 
REMARK    6  A    between atoms: C5_9  and  C6_10 
REMARK    7  A    between atoms: C6_10  and  C8_12 
REMARK    8  A    between atoms: C8_12  and  O3_13 
REMARK    9  A    between atoms: C9_15  and  O4_16 
REMARK   10  A    between atoms: O4_16  and  C10_17 
REMARK   11  A    between atoms: C15_24  and  O7_25 
REMARK   12  A    between atoms: C16_27  and  O8_28 
REMARK   13  A    between atoms: C17_30  and  O9_31 
REMARK   14  A    between atoms: O9_31  and  C18_32 
REMARK   15  A    between atoms: C20_35  and  O11_36 
REMARK   16  A    between atoms: C23_40  and  N3_41 
REMARK       I    between atoms: N3_41  and  C24_43 
REMARK   17  A    between atoms: C25_46  and  O14_47 
REMARK   18  A    between atoms: C27_50  and  O16_52 
ROOT
HETATM    1  O1  UNL     1       3.383  26.149  26.144  1.00  0.00    -0.242 OA
HETATM    2  C3  UNL     1       3.998  27.282  26.564  1.00  0.00     0.234 C 
HETATM    3  N1  UNL     1       4.530  28.255  26.942  1.00  0.00    -0.164 NA
ENDROOT
BRANCH   1   4
HETATM    4  C2  UNL     1       2.176  25.692  26.596  1.00  0.00     0.098 C 
HETATM    5  C1  UNL     1       1.620  26.271  27.622  1.00  0.00     0.051 C 
BRANCH   4   6
HETATM    6  C4  UNL     1       1.508  24.515  25.881  1.00  0.00     0.308 C 
BRANCH   6   7
HETATM    7  O2  UNL     1       2.271  23.507  25.729  1.00  0.00    -0.253 OA
BRANCH   7   8
HETATM    8  N2  UNL     1       2.838  22.523  26.255  1.00  0.00    -0.224 N 
HETATM    9  C5  UNL     1       3.237  22.304  27.544  1.00  0.00     0.061 C 
HETATM   10  C9  UNL     1       2.635  21.208  28.448  1.00  0.00     0.157 C 
HETATM   11  C12 UNL     1       1.789  21.763  29.557  1.00  0.00     0.120 C 
HETATM   12  C20 UNL     1       1.799  20.189  27.821  1.00  0.00     0.129 C 
HETATM   13  C13 UNL     1       2.275  22.870  30.345  1.00  0.00     0.011 C 
HETATM   14  C15 UNL     1       0.404  22.164  29.286  1.00  0.00     0.205 C 
HETATM   15  C14 UNL     1       1.187  23.301  31.021  1.00  0.00     0.135 C 
HETATM   16  O6  UNL     1       0.090  22.513  30.674  1.00  0.00    -0.323 OA
HETATM   17  C16 UNL     1      -0.394  21.011  28.829  1.00  0.00     0.214 C 
HETATM   18  C17 UNL     1       0.492  19.859  28.513  1.00  0.00     0.204 C 
HETATM   19  C21 UNL     1       1.549  20.110  26.374  1.00  0.00     0.033 C 
HETATM   20  C22 UNL     1       0.682  21.023  25.647  1.00  0.00     0.038 C 
HETATM   21  C26 UNL     1       2.911  20.084  25.719  1.00  0.00     0.073 C 
HETATM   22  C23 UNL     1       1.586  21.534  24.543  1.00  0.00     0.145 C 
HETATM   23  C25 UNL     1       2.942  21.488  25.262  1.00  0.00     0.178 C 
BRANCH   9  24
HETATM   24  C6  UNL     1       4.604  22.751  28.005  1.00  0.00     0.056 C 
HETATM   25  C7  UNL     1       4.613  24.086  28.776  1.00  0.00     0.018 C 
BRANCH  24  26
HETATM   26  C8  UNL     1       5.637  23.037  26.949  1.00  0.00     0.174 C 
BRANCH  26  27
HETATM   27  O3  UNL     1       5.413  23.926  25.982  1.00  0.00    -0.400 OA
ATOM     28  H3  UNL     1       4.534  24.223  25.777  1.00  0.00     0.209 HD
ENDBRANCH  26  27
ENDBRANCH  24  26
ENDBRANCH   9  24
BRANCH  10  29
HETATM   29  O4  UNL     1       3.817  20.652  28.930  1.00  0.00    -0.300 OA
BRANCH  29  30
HETATM   30  C10 UNL     1       4.279  20.220  30.091  1.00  0.00     0.256 C 
HETATM   31  C11 UNL     1       5.336  20.886  30.940  1.00  0.00     0.126 C 
HETATM   32  O5  UNL     1       3.805  19.182  30.516  1.00  0.00    -0.266 OA
ENDBRANCH  29  30
ENDBRANCH  10  29
BRANCH  14  33
HETATM   33  O7  UNL     1       0.108  23.289  28.633  1.00  0.00    -0.362 OA
ATOM     34  H7  UNL     1      -0.463  23.952  29.004  1.00  0.00     0.213 HD
ENDBRANCH  14  33
BRANCH  17  35
HETATM   35  O8  UNL     1      -1.220  20.622  29.922  1.00  0.00    -0.387 OA
ATOM     36  H8  UNL     1      -1.703  21.395  30.190  1.00  0.00     0.210 HD
ENDBRANCH  17  35
BRANCH  18  37
HETATM   37  O9  UNL     1      -0.268  19.017  27.625  1.00  0.00    -0.310 OA
BRANCH  37  38
HETATM   38  C18 UNL     1      -1.261  18.162  28.067  1.00  0.00     0.255 C 
HETATM   39  C19 UNL     1      -2.509  17.923  27.283  1.00  0.00     0.126 C 
HETATM   40  O10 UNL     1      -1.063  17.583  29.181  1.00  0.00    -0.266 OA
ENDBRANCH  37  38
ENDBRANCH  18  37
BRANCH  12  41
HETATM   41  O11 UNL     1       2.461  18.914  27.968  1.00  0.00    -0.383 OA
ATOM     42  H11 UNL     1       2.198  18.539  28.800  1.00  0.00     0.210 HD
ENDBRANCH  12  41
BRANCH  22  43
HETATM   43  N3  UNL     1       1.604  20.702  23.388  1.00  0.00    -0.326 N 
HETATM   44  C24 UNL     1       1.792  21.159  22.070  1.00  0.00     0.283 C 
HETATM   45  O12 UNL     1       1.958  22.383  21.868  1.00  0.00    -0.630 OA
HETATM   46  O13 UNL     1       1.795  20.274  21.018  1.00  0.00    -0.630 OA
ATOM     47  H3  UNL     1       1.470  19.700  23.526  1.00  0.00     0.166 HD
ENDBRANCH  22  43
BRANCH  23  48
HETATM   48  O14 UNL     1       3.893  21.633  24.300  1.00  0.00    -0.367 OA
ATOM     49  H14 UNL     1       4.023  22.502  23.938  1.00  0.00     0.212 HD
ENDBRANCH  23  48
ENDBRANCH   7   8
ENDBRANCH   6   7
BRANCH   6  50
HETATM   50  C27 UNL     1       0.965  25.100  24.635  1.00  0.00     0.296 C 
HETATM   51  O15 UNL     1       1.657  25.221  23.624  1.00  0.00    -0.262 OA
BRANCH  50  52
HETATM   52  O16 UNL     1      -0.356  25.541  24.529  1.00  0.00    -0.324 OA
HETATM   53  C28 UNL     1      -1.377  25.057  25.384  1.00  0.00     0.213 C 
ENDBRANCH  50  52
ENDBRANCH   6  50
ENDBRANCH   4   6
ENDBRANCH   1   4
TORSDOF 18
ENDMDL
