MODEL 1
REMARK VINA RESULT: -7.805666242      0.000      0.000
REMARK  14 active torsions:
REMARK  status: ('A' for Active; 'I' for Inactive)
REMARK    1  A    between atoms: C2_2  and  O1_5 
REMARK    2  A    between atoms: O1_5  and  C5_6 
REMARK       I    between atoms: C5_6  and  N1_8 
REMARK       I    between atoms: N2_11  and  C8_12 
REMARK    3  A    between atoms: C8_12  and  C9_14 
REMARK    4  A    between atoms: C9_14  and  C10_15 
REMARK    5  A    between atoms: C10_15  and  C11_16 
REMARK    6  A    between atoms: C11_16  and  C12_17 
REMARK    7  A    between atoms: C12_17  and  C13_18 
REMARK    8  A    between atoms: C13_18  and  C14_19 
REMARK    9  A    between atoms: C15_20  and  S1_21 
REMARK   10  A    between atoms: C18_25  and  C19_26 
REMARK   11  A    between atoms: C19_26  and  C20_27 
REMARK   12  A    between atoms: C20_27  and  C21_28 
REMARK   13  A    between atoms: C21_28  and  C22_29 
REMARK   14  A    between atoms: C22_29  and  O4_30 
ROOT
HETATM    1  S1  UNL     1       9.163  15.276   5.318  1.00  0.00    -0.010 SA
HETATM    2  C16 UNL     1       9.326  16.173   3.822  1.00  0.00     0.139 C 
HETATM    3  N3  UNL     1       9.450  16.754   2.830  1.00  0.00    -0.184 NA
ENDROOT
BRANCH   1   4
HETATM    4  C15 UNL     1       8.858  16.440   6.658  1.00  0.00     0.029 A 
HETATM    5  C14 UNL     1       9.919  17.025   7.292  1.00  0.00     0.028 A 
HETATM    6  C23 UNL     1       9.650  17.913   8.320  1.00  0.00     0.253 A 
HETATM    7  N4  UNL     1       8.366  18.185   8.678  1.00  0.00    -0.327 N 
HETATM    8  O5  UNL     1      10.627  18.459   8.913  1.00  0.00    -0.268 OA
HETATM    9  C18 UNL     1       7.326  17.633   8.078  1.00  0.00     0.013 A 
ATOM     10  H4  UNL     1       8.199  18.842   9.441  1.00  0.00     0.169 HD
HETATM   11  C17 UNL     1       7.569  16.737   7.041  1.00  0.00     0.045 A 
BRANCH   5  12
HETATM   12  C13 UNL     1      11.300  16.719   6.890  1.00  0.00     0.046 C 
BRANCH  12  13
HETATM   13  C12 UNL     1      12.066  15.978   7.973  1.00  0.00     0.005 C 
BRANCH  13  14
HETATM   14  C11 UNL     1      11.752  14.485   7.861  1.00  0.00     0.001 C 
BRANCH  14  15
HETATM   15  C10 UNL     1      10.715  14.082   8.874  1.00  0.00     0.009 C 
BRANCH  15  16
HETATM   16  C9  UNL     1      10.762  14.840  10.155  1.00  0.00     0.103 C 
BRANCH  16  17
HETATM   17  C8  UNL     1       9.427  15.268  10.619  1.00  0.00     0.219 C 
HETATM   18  N2  UNL     1       9.242  16.142  11.725  1.00  0.00    -0.349 N 
HETATM   19  C7  UNL     1       7.910  16.539  12.136  1.00  0.00     0.145 C 
HETATM   20  C24 UNL     1      10.366  16.657  12.472  1.00  0.00     0.145 C 
HETATM   21  C6  UNL     1       7.979  17.670  13.156  1.00  0.00     0.148 C 
HETATM   22  N1  UNL     1       8.844  17.257  14.269  1.00  0.00    -0.325 N 
HETATM   23  C5  UNL     1       8.472  17.594  15.596  1.00  0.00     0.363 C 
HETATM   24  C25 UNL     1      10.050  16.517  13.961  1.00  0.00     0.148 C 
HETATM   25  O2  UNL     1       9.142  17.282  16.603  1.00  0.00    -0.238 OA
HETATM   26  O3  UNL     1       8.382  14.857  10.027  1.00  0.00    -0.273 OA
BRANCH  23  27
HETATM   27  O1  UNL     1       7.301  18.317  15.837  1.00  0.00    -0.294 OA
BRANCH  27  28
HETATM   28  C2  UNL     1       6.083  17.701  16.195  1.00  0.00     0.061 C 
HETATM   29  C1  UNL     1       6.151  16.201  16.207  1.00  0.00     0.046 C 
HETATM   30  C3  UNL     1       5.608  18.145  17.561  1.00  0.00     0.046 C 
HETATM   31  C4  UNL     1       5.047  18.113  15.173  1.00  0.00     0.046 C 
ENDBRANCH  27  28
ENDBRANCH  23  27
ENDBRANCH  16  17
ENDBRANCH  15  16
ENDBRANCH  14  15
ENDBRANCH  13  14
ENDBRANCH  12  13
ENDBRANCH   5  12
BRANCH   9  32
HETATM   32  C19 UNL     1       5.934  17.859   8.436  1.00  0.00     0.057 C 
BRANCH  32  33
HETATM   33  C20 UNL     1       5.474  17.373   9.757  1.00  0.00     0.008 C 
BRANCH  33  34
HETATM   34  C21 UNL     1       4.797  18.424  10.585  1.00  0.00     0.026 C 
BRANCH  34  35
HETATM   35  C22 UNL     1       5.536  19.748  10.533  1.00  0.00     0.164 C 
BRANCH  35  36
HETATM   36  O4  UNL     1       5.703  20.284  11.792  1.00  0.00    -0.401 OA
ATOM     37  H4  UNL     1       5.976  21.193  11.751  1.00  0.00     0.209 HD
ENDBRANCH  35  36
ENDBRANCH  34  35
ENDBRANCH  33  34
ENDBRANCH  32  33
ENDBRANCH   9  32
ENDBRANCH   1   4
TORSDOF 14
ENDMDL
MODEL 2
REMARK VINA RESULT: -7.674257909      2.587      8.366
REMARK  14 active torsions:
REMARK  status: ('A' for Active; 'I' for Inactive)
REMARK    1  A    between atoms: C2_2  and  O1_5 
REMARK    2  A    between atoms: O1_5  and  C5_6 
REMARK       I    between atoms: C5_6  and  N1_8 
REMARK       I    between atoms: N2_11  and  C8_12 
REMARK    3  A    between atoms: C8_12  and  C9_14 
REMARK    4  A    between atoms: C9_14  and  C10_15 
REMARK    5  A    between atoms: C10_15  and  C11_16 
REMARK    6  A    between atoms: C11_16  and  C12_17 
REMARK    7  A    between atoms: C12_17  and  C13_18 
REMARK    8  A    between atoms: C13_18  and  C14_19 
REMARK    9  A    between atoms: C15_20  and  S1_21 
REMARK   10  A    between atoms: C18_25  and  C19_26 
REMARK   11  A    between atoms: C19_26  and  C20_27 
REMARK   12  A    between atoms: C20_27  and  C21_28 
REMARK   13  A    between atoms: C21_28  and  C22_29 
REMARK   14  A    between atoms: C22_29  and  O4_30 
ROOT
HETATM    1  S1  UNL     1       8.090  17.815  11.279  1.00  0.00    -0.010 SA
HETATM    2  C16 UNL     1       9.179  16.457  11.489  1.00  0.00     0.139 C 
HETATM    3  N3  UNL     1       9.893  15.556  11.609  1.00  0.00    -0.184 NA
ENDROOT
BRANCH   1   4
HETATM    4  C15 UNL     1       7.042  17.944  12.738  1.00  0.00     0.029 A 
HETATM    5  C14 UNL     1       5.710  18.211  12.586  1.00  0.00     0.028 A 
HETATM    6  C23 UNL     1       4.933  18.307  13.729  1.00  0.00     0.253 A 
HETATM    7  N4  UNL     1       5.492  18.140  14.958  1.00  0.00    -0.327 N 
HETATM    8  O5  UNL     1       3.699  18.556  13.597  1.00  0.00    -0.268 OA
HETATM    9  C18 UNL     1       6.776  17.879  15.128  1.00  0.00     0.013 A 
ATOM     10  H4  UNL     1       4.896  18.219  15.782  1.00  0.00     0.169 HD
HETATM   11  C17 UNL     1       7.579  17.777  13.996  1.00  0.00     0.045 A 
BRANCH   5  12
HETATM   12  C13 UNL     1       5.125  18.388  11.249  1.00  0.00     0.046 C 
BRANCH  12  13
HETATM   13  C12 UNL     1       5.034  19.850  10.846  1.00  0.00     0.005 C 
BRANCH  13  14
HETATM   14  C11 UNL     1       5.747  20.035   9.506  1.00  0.00     0.001 C 
BRANCH  14  15
HETATM   15  C10 UNL     1       5.390  18.924   8.556  1.00  0.00     0.009 C 
BRANCH  15  16
HETATM   16  C9  UNL     1       6.520  18.420   7.727  1.00  0.00     0.103 C 
BRANCH  16  17
HETATM   17  C8  UNL     1       6.881  17.022   8.036  1.00  0.00     0.219 C 
HETATM   18  N2  UNL     1       8.164  16.478   7.751  1.00  0.00    -0.349 N 
HETATM   19  C7  UNL     1       8.471  15.102   8.082  1.00  0.00     0.145 C 
HETATM   20  C24 UNL     1       9.193  17.273   7.124  1.00  0.00     0.145 C 
HETATM   21  C6  UNL     1       9.964  14.834   7.928  1.00  0.00     0.148 C 
HETATM   22  N1  UNL     1      10.383  15.225   6.576  1.00  0.00    -0.325 N 
HETATM   23  C5  UNL     1      11.309  14.412   5.875  1.00  0.00     0.363 C 
HETATM   24  C25 UNL     1       9.826  16.437   6.011  1.00  0.00     0.148 C 
HETATM   25  O2  UNL     1      11.717  14.663   4.721  1.00  0.00    -0.238 OA
HETATM   26  O3  UNL     1       6.035  16.248   8.581  1.00  0.00    -0.273 OA
BRANCH  23  27
HETATM   27  O1  UNL     1      11.821  13.256   6.470  1.00  0.00    -0.294 OA
BRANCH  27  28
HETATM   28  C2  UNL     1      13.131  13.178   6.988  1.00  0.00     0.061 C 
HETATM   29  C1  UNL     1      14.028  12.258   6.211  1.00  0.00     0.046 C 
HETATM   30  C3  UNL     1      13.800  14.535   7.030  1.00  0.00     0.046 C 
HETATM   31  C4  UNL     1      13.032  12.651   8.401  1.00  0.00     0.046 C 
ENDBRANCH  27  28
ENDBRANCH  23  27
ENDBRANCH  16  17
ENDBRANCH  15  16
ENDBRANCH  14  15
ENDBRANCH  13  14
ENDBRANCH  12  13
ENDBRANCH   5  12
BRANCH   9  32
HETATM   32  C19 UNL     1       7.437  17.722  16.415  1.00  0.00     0.057 C 
BRANCH  32  33
HETATM   33  C20 UNL     1       7.991  16.390  16.747  1.00  0.00     0.008 C 
BRANCH  33  34
HETATM   34  C21 UNL     1       9.488  16.363  16.839  1.00  0.00     0.026 C 
BRANCH  34  35
HETATM   35  C22 UNL     1      10.132  16.110  15.488  1.00  0.00     0.164 C 
BRANCH  35  36
HETATM   36  O4  UNL     1       9.433  15.170  14.762  1.00  0.00    -0.401 OA
ATOM     37  H4  UNL     1       8.503  15.364  14.746  1.00  0.00     0.209 HD
ENDBRANCH  35  36
ENDBRANCH  34  35
ENDBRANCH  33  34
ENDBRANCH  32  33
ENDBRANCH   9  32
ENDBRANCH   1   4
TORSDOF 14
ENDMDL
MODEL 3
REMARK VINA RESULT: -7.536524255      2.418      4.499
REMARK  14 active torsions:
REMARK  status: ('A' for Active; 'I' for Inactive)
REMARK    1  A    between atoms: C2_2  and  O1_5 
REMARK    2  A    between atoms: O1_5  and  C5_6 
REMARK       I    between atoms: C5_6  and  N1_8 
REMARK       I    between atoms: N2_11  and  C8_12 
REMARK    3  A    between atoms: C8_12  and  C9_14 
REMARK    4  A    between atoms: C9_14  and  C10_15 
REMARK    5  A    between atoms: C10_15  and  C11_16 
REMARK    6  A    between atoms: C11_16  and  C12_17 
REMARK    7  A    between atoms: C12_17  and  C13_18 
REMARK    8  A    between atoms: C13_18  and  C14_19 
REMARK    9  A    between atoms: C15_20  and  S1_21 
REMARK   10  A    between atoms: C18_25  and  C19_26 
REMARK   11  A    between atoms: C19_26  and  C20_27 
REMARK   12  A    between atoms: C20_27  and  C21_28 
REMARK   13  A    between atoms: C21_28  and  C22_29 
REMARK   14  A    between atoms: C22_29  and  O4_30 
ROOT
HETATM    1  S1  UNL     1      11.044  14.191   8.208  1.00  0.00    -0.010 SA
HETATM    2  C16 UNL     1      12.574  13.465   8.661  1.00  0.00     0.139 C 
HETATM    3  N3  UNL     1      13.575  12.968   8.957  1.00  0.00    -0.184 NA
ENDROOT
BRANCH   1   4
HETATM    4  C15 UNL     1      10.643  15.479   9.401  1.00  0.00     0.029 A 
HETATM    5  C14 UNL     1      10.602  16.783   8.991  1.00  0.00     0.028 A 
HETATM    6  C23 UNL     1      10.294  17.750   9.934  1.00  0.00     0.253 A 
HETATM    7  N4  UNL     1      10.044  17.398  11.225  1.00  0.00    -0.327 N 
HETATM    8  O5  UNL     1      10.255  18.959   9.564  1.00  0.00    -0.268 OA
HETATM    9  C18 UNL     1      10.076  16.145  11.642  1.00  0.00     0.013 A 
ATOM     10  H4  UNL     1       9.822  18.132  11.898  1.00  0.00     0.169 HD
HETATM   11  C17 UNL     1      10.383  15.154  10.714  1.00  0.00     0.045 A 
BRANCH   5  12
HETATM   12  C13 UNL     1      10.875  17.142   7.592  1.00  0.00     0.046 C 
BRANCH  12  13
HETATM   13  C12 UNL     1       9.667  17.758   6.906  1.00  0.00     0.005 C 
BRANCH  13  14
HETATM   14  C11 UNL     1       8.627  16.662   6.669  1.00  0.00     0.001 C 
BRANCH  14  15
HETATM   15  C10 UNL     1       7.311  17.031   7.300  1.00  0.00     0.009 C 
BRANCH  15  16
HETATM   16  C9  UNL     1       7.183  16.669   8.739  1.00  0.00     0.103 C 
BRANCH  16  17
HETATM   17  C8  UNL     1       5.842  16.955   9.286  1.00  0.00     0.219 C 
HETATM   18  N2  UNL     1       5.643  17.567  10.553  1.00  0.00    -0.349 N 
HETATM   19  C7  UNL     1       4.305  17.835  11.042  1.00  0.00     0.145 C 
HETATM   20  C24 UNL     1       6.759  17.938  11.391  1.00  0.00     0.145 C 
HETATM   21  C6  UNL     1       4.354  18.722  12.280  1.00  0.00     0.148 C 
HETATM   22  N1  UNL     1       5.235  18.102  13.278  1.00  0.00    -0.325 N 
HETATM   23  C5  UNL     1       4.865  18.138  14.646  1.00  0.00     0.363 C 
HETATM   24  C25 UNL     1       6.456  17.475  12.817  1.00  0.00     0.148 C 
HETATM   25  O2  UNL     1       5.549  17.633  15.562  1.00  0.00    -0.238 OA
HETATM   26  O3  UNL     1       4.803  16.655   8.621  1.00  0.00    -0.273 OA
BRANCH  23  27
HETATM   27  O1  UNL     1       3.678  18.763  15.038  1.00  0.00    -0.294 OA
BRANCH  27  28
HETATM   28  C2  UNL     1       2.538  18.046  15.457  1.00  0.00     0.061 C 
HETATM   29  C1  UNL     1       2.405  16.699  14.805  1.00  0.00     0.046 C 
HETATM   30  C3  UNL     1       2.529  17.827  16.954  1.00  0.00     0.046 C 
HETATM   31  C4  UNL     1       1.323  18.866  15.088  1.00  0.00     0.046 C 
ENDBRANCH  27  28
ENDBRANCH  23  27
ENDBRANCH  16  17
ENDBRANCH  15  16
ENDBRANCH  14  15
ENDBRANCH  13  14
ENDBRANCH  12  13
ENDBRANCH   5  12
BRANCH   9  32
HETATM   32  C19 UNL     1       9.849  15.711  13.012  1.00  0.00     0.057 C 
BRANCH  32  33
HETATM   33  C20 UNL     1       9.854  16.745  14.072  1.00  0.00     0.008 C 
BRANCH  33  34
HETATM   34  C21 UNL     1       9.873  16.185  15.463  1.00  0.00     0.026 C 
BRANCH  34  35
HETATM   35  C22 UNL     1       8.851  16.863  16.359  1.00  0.00     0.164 C 
BRANCH  35  36
HETATM   36  O4  UNL     1       8.649  18.176  15.992  1.00  0.00    -0.401 OA
ATOM     37  H4  UNL     1       7.780  18.307  15.630  1.00  0.00     0.209 HD
ENDBRANCH  35  36
ENDBRANCH  34  35
ENDBRANCH  33  34
ENDBRANCH  32  33
ENDBRANCH   9  32
ENDBRANCH   1   4
TORSDOF 14
ENDMDL
MODEL 4
REMARK VINA RESULT: -7.492618102      3.823      9.990
REMARK  14 active torsions:
REMARK  status: ('A' for Active; 'I' for Inactive)
REMARK    1  A    between atoms: C2_2  and  O1_5 
REMARK    2  A    between atoms: O1_5  and  C5_6 
REMARK       I    between atoms: C5_6  and  N1_8 
REMARK       I    between atoms: N2_11  and  C8_12 
REMARK    3  A    between atoms: C8_12  and  C9_14 
REMARK    4  A    between atoms: C9_14  and  C10_15 
REMARK    5  A    between atoms: C10_15  and  C11_16 
REMARK    6  A    between atoms: C11_16  and  C12_17 
REMARK    7  A    between atoms: C12_17  and  C13_18 
REMARK    8  A    between atoms: C13_18  and  C14_19 
REMARK    9  A    between atoms: C15_20  and  S1_21 
REMARK   10  A    between atoms: C18_25  and  C19_26 
REMARK   11  A    between atoms: C19_26  and  C20_27 
REMARK   12  A    between atoms: C20_27  and  C21_28 
REMARK   13  A    between atoms: C21_28  and  C22_29 
REMARK   14  A    between atoms: C22_29  and  O4_30 
ROOT
HETATM    1  S1  UNL     1       9.530  15.334  11.276  1.00  0.00    -0.010 SA
HETATM    2  C16 UNL     1      10.197  15.974  12.765  1.00  0.00     0.139 C 
HETATM    3  N3  UNL     1      10.618  16.404  13.753  1.00  0.00    -0.184 NA
ENDROOT
BRANCH   1   4
HETATM    4  C15 UNL     1      10.629  15.772   9.918  1.00  0.00     0.029 A 
HETATM    5  C14 UNL     1      10.564  17.028   9.381  1.00  0.00     0.028 A 
HETATM    6  C23 UNL     1      11.421  17.331   8.336  1.00  0.00     0.253 A 
HETATM    7  N4  UNL     1      12.294  16.398   7.868  1.00  0.00    -0.327 N 
HETATM    8  O5  UNL     1      11.366  18.491   7.832  1.00  0.00    -0.268 OA
HETATM    9  C18 UNL     1      12.375  15.180   8.373  1.00  0.00     0.013 A 
ATOM     10  H4  UNL     1      12.911  16.650   7.095  1.00  0.00     0.169 HD
HETATM   11  C17 UNL     1      11.525  14.850   9.424  1.00  0.00     0.045 A 
BRANCH   5  12
HETATM   12  C13 UNL     1       9.614  18.021   9.902  1.00  0.00     0.046 C 
BRANCH  12  13
HETATM   13  C12 UNL     1       8.440  18.245   8.964  1.00  0.00     0.005 C 
BRANCH  13  14
HETATM   14  C11 UNL     1       7.309  17.295   9.359  1.00  0.00     0.001 C 
BRANCH  14  15
HETATM   15  C10 UNL     1       7.187  16.170   8.367  1.00  0.00     0.009 C 
BRANCH  15  16
HETATM   16  C9  UNL     1       7.755  16.458   7.020  1.00  0.00     0.103 C 
BRANCH  16  17
HETATM   17  C8  UNL     1       8.775  15.476   6.605  1.00  0.00     0.219 C 
HETATM   18  N2  UNL     1       9.687  15.717   5.541  1.00  0.00    -0.349 N 
HETATM   19  C7  UNL     1      10.676  14.723   5.177  1.00  0.00     0.145 C 
HETATM   20  C24 UNL     1       9.655  16.951   4.791  1.00  0.00     0.145 C 
HETATM   21  C6  UNL     1      11.693  15.309   4.204  1.00  0.00     0.148 C 
HETATM   22  N1  UNL     1      10.979  15.881   3.055  1.00  0.00    -0.325 N 
HETATM   23  C5  UNL     1      11.512  15.708   1.753  1.00  0.00     0.363 C 
HETATM   24  C25 UNL     1       9.750  16.605   3.304  1.00  0.00     0.148 C 
HETATM   25  O2  UNL     1      10.972  16.155   0.718  1.00  0.00    -0.238 OA
HETATM   26  O3  UNL     1       8.870  14.360   7.203  1.00  0.00    -0.273 OA
BRANCH  23  27
HETATM   27  O1  UNL     1      12.707  15.007   1.568  1.00  0.00    -0.294 OA
BRANCH  27  28
HETATM   28  C2  UNL     1      12.751  13.692   1.058  1.00  0.00     0.061 C 
HETATM   29  C1  UNL     1      13.690  12.791   1.808  1.00  0.00     0.046 C 
HETATM   30  C3  UNL     1      11.387  13.038   1.071  1.00  0.00     0.046 C 
HETATM   31  C4  UNL     1      13.227  13.775  -0.374  1.00  0.00     0.046 C 
ENDBRANCH  27  28
ENDBRANCH  23  27
ENDBRANCH  16  17
ENDBRANCH  15  16
ENDBRANCH  14  15
ENDBRANCH  13  14
ENDBRANCH  12  13
ENDBRANCH   5  12
BRANCH   9  32
HETATM   32  C19 UNL     1      13.264  14.131   7.895  1.00  0.00     0.057 C 
BRANCH  32  33
HETATM   33  C20 UNL     1      12.925  12.731   8.236  1.00  0.00     0.008 C 
BRANCH  33  34
HETATM   34  C21 UNL     1      12.654  11.866   7.043  1.00  0.00     0.026 C 
BRANCH  34  35
HETATM   35  C22 UNL     1      13.592  12.180   5.891  1.00  0.00     0.164 C 
BRANCH  35  36
HETATM   36  O4  UNL     1      13.434  11.288   4.853  1.00  0.00    -0.401 OA
ATOM     37  H4  UNL     1      14.251  10.849   4.644  1.00  0.00     0.209 HD
ENDBRANCH  35  36
ENDBRANCH  34  35
ENDBRANCH  33  34
ENDBRANCH  32  33
ENDBRANCH   9  32
ENDBRANCH   1   4
TORSDOF 14
ENDMDL
MODEL 5
REMARK VINA RESULT: -7.367287277      3.389      6.392
REMARK  14 active torsions:
REMARK  status: ('A' for Active; 'I' for Inactive)
REMARK    1  A    between atoms: C2_2  and  O1_5 
REMARK    2  A    between atoms: O1_5  and  C5_6 
REMARK       I    between atoms: C5_6  and  N1_8 
REMARK       I    between atoms: N2_11  and  C8_12 
REMARK    3  A    between atoms: C8_12  and  C9_14 
REMARK    4  A    between atoms: C9_14  and  C10_15 
REMARK    5  A    between atoms: C10_15  and  C11_16 
REMARK    6  A    between atoms: C11_16  and  C12_17 
REMARK    7  A    between atoms: C12_17  and  C13_18 
REMARK    8  A    between atoms: C13_18  and  C14_19 
REMARK    9  A    between atoms: C15_20  and  S1_21 
REMARK   10  A    between atoms: C18_25  and  C19_26 
REMARK   11  A    between atoms: C19_26  and  C20_27 
REMARK   12  A    between atoms: C20_27  and  C21_28 
REMARK   13  A    between atoms: C21_28  and  C22_29 
REMARK   14  A    between atoms: C22_29  and  O4_30 
ROOT
HETATM    1  S1  UNL     1      10.997  15.027   8.638  1.00  0.00    -0.010 SA
HETATM    2  C16 UNL     1       9.340  14.459   8.703  1.00  0.00     0.139 C 
HETATM    3  N3  UNL     1       8.250  14.078   8.765  1.00  0.00    -0.184 NA
ENDROOT
BRANCH   1   4
HETATM    4  C15 UNL     1      11.749  14.435   7.112  1.00  0.00     0.029 A 
HETATM    5  C14 UNL     1      11.644  15.188   5.976  1.00  0.00     0.028 A 
HETATM    6  C23 UNL     1      12.231  14.702   4.820  1.00  0.00     0.253 A 
HETATM    7  N4  UNL     1      12.886  13.510   4.828  1.00  0.00    -0.327 N 
HETATM    8  O5  UNL     1      12.137  15.393   3.763  1.00  0.00    -0.268 OA
HETATM    9  C18 UNL     1      13.001  12.767   5.914  1.00  0.00     0.013 A 
ATOM     10  H4  UNL     1      13.306  13.176   3.960  1.00  0.00     0.169 HD
HETATM   11  C17 UNL     1      12.421  13.233   7.090  1.00  0.00     0.045 A 
BRANCH   5  12
HETATM   12  C13 UNL     1      10.932  16.474   5.988  1.00  0.00     0.046 C 
BRANCH  12  13
HETATM   13  C12 UNL     1       9.649  16.432   5.175  1.00  0.00     0.005 C 
BRANCH  13  14
HETATM   14  C11 UNL     1       8.460  16.547   6.129  1.00  0.00     0.001 C 
BRANCH  14  15
HETATM   15  C10 UNL     1       8.708  17.611   7.164  1.00  0.00     0.009 C 
BRANCH  15  16
HETATM   16  C9  UNL     1       7.480  18.180   7.785  1.00  0.00     0.103 C 
BRANCH  16  17
HETATM   17  C8  UNL     1       6.926  17.323   8.852  1.00  0.00     0.219 C 
HETATM   18  N2  UNL     1       7.459  17.293  10.170  1.00  0.00    -0.349 N 
HETATM   19  C7  UNL     1       6.872  16.441  11.183  1.00  0.00     0.145 C 
HETATM   20  C24 UNL     1       8.596  18.104  10.537  1.00  0.00     0.145 C 
HETATM   21  C6  UNL     1       7.437  16.776  12.559  1.00  0.00     0.148 C 
HETATM   22  N1  UNL     1       8.903  16.707  12.503  1.00  0.00    -0.325 N 
HETATM   23  C5  UNL     1       9.612  16.140  13.592  1.00  0.00     0.363 C 
HETATM   24  C25 UNL     1       9.569  17.227  11.326  1.00  0.00     0.148 C 
HETATM   25  O2  UNL     1      10.856  16.035  13.630  1.00  0.00    -0.238 OA
HETATM   26  O3  UNL     1       5.931  16.571   8.616  1.00  0.00    -0.273 OA
BRANCH  23  27
HETATM   27  O1  UNL     1       8.921  15.659  14.708  1.00  0.00    -0.294 OA
BRANCH  27  28
HETATM   28  C2  UNL     1       8.760  16.412  15.890  1.00  0.00     0.061 C 
HETATM   29  C1  UNL     1       9.031  17.878  15.708  1.00  0.00     0.046 C 
HETATM   30  C3  UNL     1       7.365  16.276  16.459  1.00  0.00     0.046 C 
HETATM   31  C4  UNL     1       9.744  15.878  16.907  1.00  0.00     0.046 C 
ENDBRANCH  27  28
ENDBRANCH  23  27
ENDBRANCH  16  17
ENDBRANCH  15  16
ENDBRANCH  14  15
ENDBRANCH  13  14
ENDBRANCH  12  13
ENDBRANCH   5  12
BRANCH   9  32
HETATM   32  C19 UNL     1      13.661  11.471   5.978  1.00  0.00     0.057 C 
BRANCH  32  33
HETATM   33  C20 UNL     1      14.480  11.057   4.816  1.00  0.00     0.008 C 
BRANCH  33  34
HETATM   34  C21 UNL     1      13.841   9.996   3.972  1.00  0.00     0.026 C 
BRANCH  34  35
HETATM   35  C22 UNL     1      13.652  10.453   2.537  1.00  0.00     0.164 C 
BRANCH  35  36
HETATM   36  O4  UNL     1      12.914  11.615   2.469  1.00  0.00    -0.401 OA
ATOM     37  H4  UNL     1      12.465  11.694   1.635  1.00  0.00     0.209 HD
ENDBRANCH  35  36
ENDBRANCH  34  35
ENDBRANCH  33  34
ENDBRANCH  32  33
ENDBRANCH   9  32
ENDBRANCH   1   4
TORSDOF 14
ENDMDL
