MODEL 1
REMARK VINA RESULT: -8.644939715      0.000      0.000
REMARK  8 active torsions:
REMARK  status: ('A' for Active; 'I' for Inactive)
REMARK    1  A    between atoms: C2_2  and  N1_3 
REMARK    2  A    between atoms: N1_3  and  S1_5 
REMARK    3  A    between atoms: S1_5  and  N2_8 
REMARK    4  A    between atoms: N2_8  and  C3_9 
REMARK    5  A    between atoms: N2_8  and  C12_21 
REMARK    6  A    between atoms: C3_9  and  C4_10 
REMARK       I    between atoms: C4_10  and  N3_12 
REMARK    7  A    between atoms: N3_12  and  C5_14 
REMARK    8  A    between atoms: C5_14  and  C6_15 
ROOT
HETATM    1  N2  UNL     1      -7.651  17.527  25.867  1.00  0.00    -0.249 N 
ENDROOT
BRANCH   1   2
HETATM    2  S1  UNL     1      -6.137  17.052  26.535  1.00  0.00     0.322 S 
HETATM    3  O1  UNL     1      -5.542  18.173  27.359  1.00  0.00    -0.182 OA
HETATM    4  O2  UNL     1      -6.425  15.932  27.530  1.00  0.00    -0.182 OA
BRANCH   2   5
HETATM    5  N1  UNL     1      -5.010  16.431  25.428  1.00  0.00    -0.303 N 
ATOM      6  H1  UNL     1      -5.183  15.603  24.858  1.00  0.00     0.173 HD
BRANCH   5   7
HETATM    7  C2  UNL     1      -3.781  17.193  25.372  1.00  0.00     0.129 C 
HETATM    8  C1  UNL     1      -2.716  16.526  24.565  1.00  0.00     0.027 C 
ENDBRANCH   5   7
ENDBRANCH   2   5
ENDBRANCH   1   2
BRANCH   1   9
HETATM    9  C3  UNL     1      -8.374  18.564  26.545  1.00  0.00     0.246 C 
BRANCH   9  10
HETATM   10  C4  UNL     1      -9.111  18.209  27.747  1.00  0.00     0.236 C 
HETATM   11  O3  UNL     1      -8.565  17.922  28.820  1.00  0.00    -0.272 OA
HETATM   12  N3  UNL     1     -10.531  18.187  27.709  1.00  0.00    -0.359 N 
ATOM     13  H3  UNL     1     -11.006  18.421  26.837  1.00  0.00     0.162 HD
BRANCH  12  14
HETATM   14  C5  UNL     1     -11.328  17.841  28.876  1.00  0.00     0.127 C 
BRANCH  14  15
HETATM   15  C6  UNL     1     -11.398  16.339  28.947  1.00  0.00     0.003 C 
HETATM   16  C7  UNL     1     -12.728  15.876  28.396  1.00  0.00     0.006 C 
HETATM   17  C8  UNL     1     -13.011  14.477  28.870  1.00  0.00     0.000 C 
HETATM   18  C9  UNL     1     -11.697  13.739  29.097  1.00  0.00     0.000 C 
HETATM   19  C10 UNL     1     -10.998  14.343  30.288  1.00  0.00     0.000 C 
HETATM   20  C11 UNL     1     -11.296  15.827  30.362  1.00  0.00     0.006 C 
ENDBRANCH  14  15
ENDBRANCH  12  14
ENDBRANCH   9  10
ENDBRANCH   1   9
BRANCH   1  21
HETATM   21  C12 UNL     1      -8.150  16.989  24.631  1.00  0.00     0.059 A 
HETATM   22  C13 UNL     1      -9.041  15.976  24.552  1.00  0.00    -0.033 A 
HETATM   23  C14 UNL     1      -9.645  15.285  25.711  1.00  0.00     0.050 C 
HETATM   24  C15 UNL     1      -9.485  15.527  23.303  1.00  0.00     0.016 A 
HETATM   25  C16 UNL     1      -9.052  16.073  22.115  1.00  0.00    -0.055 A 
HETATM   26  C17 UNL     1      -9.537  15.578  20.813  1.00  0.00     0.049 C 
HETATM   27  C18 UNL     1      -8.144  17.105  22.215  1.00  0.00    -0.048 A 
HETATM   28  C19 UNL     1      -7.661  17.714  20.941  1.00  0.00     0.049 C 
HETATM   29  C20 UNL     1      -7.688  17.570  23.427  1.00  0.00    -0.027 A 
HETATM   30  C21 UNL     1      -6.719  18.673  23.498  1.00  0.00     0.051 C 
ENDBRANCH   1  21
TORSDOF 8
ENDMDL
MODEL 2
REMARK VINA RESULT: -8.578217719      1.945      3.768
REMARK  8 active torsions:
REMARK  status: ('A' for Active; 'I' for Inactive)
REMARK    1  A    between atoms: C2_2  and  N1_3 
REMARK    2  A    between atoms: N1_3  and  S1_5 
REMARK    3  A    between atoms: S1_5  and  N2_8 
REMARK    4  A    between atoms: N2_8  and  C3_9 
REMARK    5  A    between atoms: N2_8  and  C12_21 
REMARK    6  A    between atoms: C3_9  and  C4_10 
REMARK       I    between atoms: C4_10  and  N3_12 
REMARK    7  A    between atoms: N3_12  and  C5_14 
REMARK    8  A    between atoms: C5_14  and  C6_15 
ROOT
HETATM    1  N2  UNL     1      -8.809  16.997  27.239  1.00  0.00    -0.249 N 
ENDROOT
BRANCH   1   2
HETATM    2  S1  UNL     1      -8.224  15.748  28.270  1.00  0.00     0.322 S 
HETATM    3  O1  UNL     1      -8.717  14.396  27.804  1.00  0.00    -0.182 OA
HETATM    4  O2  UNL     1      -6.709  15.705  28.096  1.00  0.00    -0.182 OA
BRANCH   2   5
HETATM    5  N1  UNL     1      -8.510  15.973  29.928  1.00  0.00    -0.303 N 
ATOM      6  H1  UNL     1      -8.212  16.803  30.441  1.00  0.00     0.173 HD
BRANCH   5   7
HETATM    7  C2  UNL     1      -9.219  14.872  30.543  1.00  0.00     0.129 C 
HETATM    8  C1  UNL     1     -10.034  15.287  31.724  1.00  0.00     0.027 C 
ENDBRANCH   5   7
ENDBRANCH   2   5
ENDBRANCH   1   2
BRANCH   1   9
HETATM    9  C3  UNL     1      -9.690  17.970  27.816  1.00  0.00     0.246 C 
BRANCH   9  10
HETATM   10  C4  UNL     1     -10.892  17.494  28.481  1.00  0.00     0.236 C 
HETATM   11  O3  UNL     1     -11.222  17.843  29.622  1.00  0.00    -0.272 OA
HETATM   12  N3  UNL     1     -11.745  16.582  27.803  1.00  0.00    -0.359 N 
ATOM     13  H3  UNL     1     -11.496  16.279  26.862  1.00  0.00     0.162 HD
BRANCH  12  14
HETATM   14  C5  UNL     1     -12.962  16.068  28.412  1.00  0.00     0.127 C 
BRANCH  14  15
HETATM   15  C6  UNL     1     -12.613  14.774  29.098  1.00  0.00     0.003 C 
HETATM   16  C7  UNL     1     -12.218  13.749  28.058  1.00  0.00     0.006 C 
HETATM   17  C8  UNL     1     -12.318  12.369  28.647  1.00  0.00     0.000 C 
HETATM   18  C9  UNL     1     -12.069  12.435  30.149  1.00  0.00     0.000 C 
HETATM   19  C10 UNL     1     -13.226  13.145  30.804  1.00  0.00     0.000 C 
HETATM   20  C11 UNL     1     -13.777  14.204  29.870  1.00  0.00     0.006 C 
ENDBRANCH  14  15
ENDBRANCH  12  14
ENDBRANCH   9  10
ENDBRANCH   1   9
BRANCH   1  21
HETATM   21  C12 UNL     1      -8.372  17.136  25.876  1.00  0.00     0.059 A 
HETATM   22  C13 UNL     1      -7.354  17.935  25.487  1.00  0.00    -0.033 A 
HETATM   23  C14 UNL     1      -6.533  18.766  26.393  1.00  0.00     0.050 C 
HETATM   24  C15 UNL     1      -6.986  17.996  24.138  1.00  0.00     0.016 A 
HETATM   25  C16 UNL     1      -7.621  17.268  23.155  1.00  0.00    -0.055 A 
HETATM   26  C17 UNL     1      -7.212  17.353  21.741  1.00  0.00     0.049 C 
HETATM   27  C18 UNL     1      -8.657  16.458  23.572  1.00  0.00    -0.048 A 
HETATM   28  C19 UNL     1      -9.359  15.659  22.526  1.00  0.00     0.049 C 
HETATM   29  C20 UNL     1      -9.043  16.376  24.890  1.00  0.00    -0.027 A 
HETATM   30  C21 UNL     1     -10.151  15.502  25.300  1.00  0.00     0.051 C 
ENDBRANCH   1  21
TORSDOF 8
ENDMDL
MODEL 3
REMARK VINA RESULT: -8.547206883      2.049      3.706
REMARK  8 active torsions:
REMARK  status: ('A' for Active; 'I' for Inactive)
REMARK    1  A    between atoms: C2_2  and  N1_3 
REMARK    2  A    between atoms: N1_3  and  S1_5 
REMARK    3  A    between atoms: S1_5  and  N2_8 
REMARK    4  A    between atoms: N2_8  and  C3_9 
REMARK    5  A    between atoms: N2_8  and  C12_21 
REMARK    6  A    between atoms: C3_9  and  C4_10 
REMARK       I    between atoms: C4_10  and  N3_12 
REMARK    7  A    between atoms: N3_12  and  C5_14 
REMARK    8  A    between atoms: C5_14  and  C6_15 
ROOT
HETATM    1  N2  UNL     1      -8.745  17.044  27.370  1.00  0.00    -0.249 N 
ENDROOT
BRANCH   1   2
HETATM    2  S1  UNL     1      -8.234  15.740  28.372  1.00  0.00     0.322 S 
HETATM    3  O1  UNL     1      -8.805  14.430  27.876  1.00  0.00    -0.182 OA
HETATM    4  O2  UNL     1      -6.724  15.612  28.192  1.00  0.00    -0.182 OA
BRANCH   2   5
HETATM    5  N1  UNL     1      -8.504  15.944  30.035  1.00  0.00    -0.303 N 
ATOM      6  H1  UNL     1      -8.170  16.751  30.562  1.00  0.00     0.173 HD
BRANCH   5   7
HETATM    7  C2  UNL     1      -9.254  14.860  30.631  1.00  0.00     0.129 C 
HETATM    8  C1  UNL     1     -10.027  15.279  31.839  1.00  0.00     0.027 C 
ENDBRANCH   5   7
ENDBRANCH   2   5
ENDBRANCH   1   2
BRANCH   1   9
HETATM    9  C3  UNL     1      -9.657  17.994  27.939  1.00  0.00     0.246 C 
BRANCH   9  10
HETATM   10  C4  UNL     1     -10.881  17.490  28.542  1.00  0.00     0.236 C 
HETATM   11  O3  UNL     1     -11.254  17.796  29.682  1.00  0.00    -0.272 OA
HETATM   12  N3  UNL     1     -11.704  16.602  27.800  1.00  0.00    -0.359 N 
ATOM     13  H3  UNL     1     -11.420  16.334  26.858  1.00  0.00     0.162 HD
BRANCH  12  14
HETATM   14  C5  UNL     1     -12.941  16.062  28.344  1.00  0.00     0.127 C 
BRANCH  14  15
HETATM   15  C6  UNL     1     -12.600  14.777  29.051  1.00  0.00     0.003 C 
HETATM   16  C7  UNL     1     -12.236  13.725  28.027  1.00  0.00     0.006 C 
HETATM   17  C8  UNL     1     -12.348  12.359  28.645  1.00  0.00     0.000 C 
HETATM   18  C9  UNL     1     -12.075  12.452  30.143  1.00  0.00     0.000 C 
HETATM   19  C10 UNL     1     -13.212  13.192  30.799  1.00  0.00     0.000 C 
HETATM   20  C11 UNL     1     -13.761  14.240  29.852  1.00  0.00     0.006 C 
ENDBRANCH  14  15
ENDBRANCH  12  14
ENDBRANCH   9  10
ENDBRANCH   1   9
BRANCH   1  21
HETATM   21  C12 UNL     1      -8.223  17.249  26.047  1.00  0.00     0.059 A 
HETATM   22  C13 UNL     1      -8.710  16.645  24.940  1.00  0.00    -0.033 A 
HETATM   23  C14 UNL     1      -9.852  15.706  24.919  1.00  0.00     0.050 C 
HETATM   24  C15 UNL     1      -8.149  16.917  23.687  1.00  0.00     0.016 A 
HETATM   25  C16 UNL     1      -7.098  17.789  23.511  1.00  0.00    -0.055 A 
HETATM   26  C17 UNL     1      -6.526  18.056  22.178  1.00  0.00     0.049 C 
HETATM   27  C18 UNL     1      -6.614  18.396  24.652  1.00  0.00    -0.048 A 
HETATM   28  C19 UNL     1      -5.475  19.346  24.487  1.00  0.00     0.049 C 
HETATM   29  C20 UNL     1      -7.143  18.150  25.898  1.00  0.00    -0.027 A 
HETATM   30  C21 UNL     1      -6.604  18.814  27.093  1.00  0.00     0.051 C 
ENDBRANCH   1  21
TORSDOF 8
ENDMDL
MODEL 4
REMARK VINA RESULT: -8.507727491      2.306      7.169
REMARK  8 active torsions:
REMARK  status: ('A' for Active; 'I' for Inactive)
REMARK    1  A    between atoms: C2_2  and  N1_3 
REMARK    2  A    between atoms: N1_3  and  S1_5 
REMARK    3  A    between atoms: S1_5  and  N2_8 
REMARK    4  A    between atoms: N2_8  and  C3_9 
REMARK    5  A    between atoms: N2_8  and  C12_21 
REMARK    6  A    between atoms: C3_9  and  C4_10 
REMARK       I    between atoms: C4_10  and  N3_12 
REMARK    7  A    between atoms: N3_12  and  C5_14 
REMARK    8  A    between atoms: C5_14  and  C6_15 
ROOT
HETATM    1  N2  UNL     1     -10.240  16.287  28.666  1.00  0.00    -0.249 N 
ENDROOT
BRANCH   1   2
HETATM    2  S1  UNL     1      -9.393  15.220  27.612  1.00  0.00     0.322 S 
HETATM    3  O1  UNL     1      -7.906  15.269  27.884  1.00  0.00    -0.182 OA
HETATM    4  O2  UNL     1      -9.822  13.803  27.981  1.00  0.00    -0.182 OA
BRANCH   2   5
HETATM    5  N1  UNL     1      -9.727  15.407  25.958  1.00  0.00    -0.303 N 
ATOM      6  H1  UNL     1     -10.654  15.630  25.595  1.00  0.00     0.173 HD
BRANCH   5   7
HETATM    7  C2  UNL     1      -8.567  15.218  25.114  1.00  0.00     0.129 C 
HETATM    8  C1  UNL     1      -8.428  16.273  24.066  1.00  0.00     0.027 C 
ENDBRANCH   5   7
ENDBRANCH   2   5
ENDBRANCH   1   2
BRANCH   1   9
HETATM    9  C3  UNL     1     -10.597  17.576  28.150  1.00  0.00     0.246 C 
BRANCH   9  10
HETATM   10  C4  UNL     1      -9.593  18.316  27.404  1.00  0.00     0.236 C 
HETATM   11  O3  UNL     1      -9.751  18.686  26.233  1.00  0.00    -0.272 OA
HETATM   12  N3  UNL     1      -8.361  18.641  28.032  1.00  0.00    -0.359 N 
ATOM     13  H3  UNL     1      -8.206  18.349  28.997  1.00  0.00     0.162 HD
BRANCH  12  14
HETATM   14  C5  UNL     1      -7.315  19.379  27.342  1.00  0.00     0.127 C 
BRANCH  14  15
HETATM   15  C6  UNL     1      -6.430  18.373  26.655  1.00  0.00     0.003 C 
HETATM   16  C7  UNL     1      -5.692  17.565  27.699  1.00  0.00     0.006 C 
HETATM   17  C8  UNL     1      -4.496  16.903  27.073  1.00  0.00     0.000 C 
HETATM   18  C9  UNL     1      -4.772  16.640  25.597  1.00  0.00     0.000 C 
HETATM   19  C10 UNL     1      -4.825  17.958  24.869  1.00  0.00     0.000 C 
HETATM   20  C11 UNL     1      -5.390  19.029  25.780  1.00  0.00     0.006 C 
ENDBRANCH  14  15
ENDBRANCH  12  14
ENDBRANCH   9  10
ENDBRANCH   1   9
BRANCH   1  21
HETATM   21  C12 UNL     1     -10.666  15.891  29.981  1.00  0.00     0.059 A 
HETATM   22  C13 UNL     1     -11.870  15.341  30.252  1.00  0.00    -0.033 A 
HETATM   23  C14 UNL     1     -12.915  15.050  29.247  1.00  0.00     0.050 C 
HETATM   24  C15 UNL     1     -12.194  14.970  31.561  1.00  0.00     0.016 A 
HETATM   25  C16 UNL     1     -11.332  15.140  32.622  1.00  0.00    -0.055 A 
HETATM   26  C17 UNL     1     -11.701  14.740  33.993  1.00  0.00     0.049 C 
HETATM   27  C18 UNL     1     -10.107  15.702  32.327  1.00  0.00    -0.048 A 
HETATM   28  C19 UNL     1      -9.155  15.895  33.459  1.00  0.00     0.049 C 
HETATM   29  C20 UNL     1      -9.758  16.077  31.050  1.00  0.00    -0.027 A 
HETATM   30  C21 UNL     1      -8.445  16.674  30.769  1.00  0.00     0.051 C 
ENDBRANCH   1  21
TORSDOF 8
ENDMDL
MODEL 5
REMARK VINA RESULT: -8.476372888      2.410      7.699
REMARK  8 active torsions:
REMARK  status: ('A' for Active; 'I' for Inactive)
REMARK    1  A    between atoms: C2_2  and  N1_3 
REMARK    2  A    between atoms: N1_3  and  S1_5 
REMARK    3  A    between atoms: S1_5  and  N2_8 
REMARK    4  A    between atoms: N2_8  and  C3_9 
REMARK    5  A    between atoms: N2_8  and  C12_21 
REMARK    6  A    between atoms: C3_9  and  C4_10 
REMARK       I    between atoms: C4_10  and  N3_12 
REMARK    7  A    between atoms: N3_12  and  C5_14 
REMARK    8  A    between atoms: C5_14  and  C6_15 
ROOT
HETATM    1  N2  UNL     1     -10.070  15.710  29.558  1.00  0.00    -0.249 N 
ENDROOT
BRANCH   1   2
HETATM    2  S1  UNL     1     -10.220  17.228  28.760  1.00  0.00     0.322 S 
HETATM    3  O1  UNL     1     -10.879  17.058  27.409  1.00  0.00    -0.182 OA
HETATM    4  O2  UNL     1     -11.198  18.063  29.582  1.00  0.00    -0.182 OA
BRANCH   2   5
HETATM    5  N1  UNL     1      -8.793  18.139  28.643  1.00  0.00    -0.303 N 
ATOM      6  H1  UNL     1      -8.169  18.306  29.432  1.00  0.00     0.173 HD
BRANCH   5   7
HETATM    7  C2  UNL     1      -8.549  18.655  27.313  1.00  0.00     0.129 C 
HETATM    8  C1  UNL     1      -7.096  18.755  26.982  1.00  0.00     0.027 C 
ENDBRANCH   5   7
ENDBRANCH   2   5
ENDBRANCH   1   2
BRANCH   1   9
HETATM    9  C3  UNL     1      -9.405  14.656  28.849  1.00  0.00     0.246 C 
BRANCH   9  10
HETATM   10  C4  UNL     1      -8.373  15.020  27.892  1.00  0.00     0.236 C 
HETATM   11  O3  UNL     1      -7.211  15.296  28.218  1.00  0.00    -0.272 OA
HETATM   12  N3  UNL     1      -8.694  15.066  26.509  1.00  0.00    -0.359 N 
ATOM     13  H3  UNL     1      -9.643  14.842  26.214  1.00  0.00     0.162 HD
BRANCH  12  14
HETATM   14  C5  UNL     1      -7.707  15.423  25.501  1.00  0.00     0.127 C 
BRANCH  14  15
HETATM   15  C6  UNL     1      -8.420  15.495  24.177  1.00  0.00     0.003 C 
HETATM   16  C7  UNL     1      -7.689  16.459  23.269  1.00  0.00     0.006 C 
HETATM   17  C8  UNL     1      -8.602  16.896  22.157  1.00  0.00     0.000 C 
HETATM   18  C9  UNL     1      -9.610  15.792  21.860  1.00  0.00     0.000 C 
HETATM   19  C10 UNL     1     -10.560  15.673  23.024  1.00  0.00     0.000 C 
HETATM   20  C11 UNL     1      -9.836  15.997  24.316  1.00  0.00     0.006 C 
ENDBRANCH  14  15
ENDBRANCH  12  14
ENDBRANCH   9  10
ENDBRANCH   1   9
BRANCH   1  21
HETATM   21  C12 UNL     1     -10.499  15.508  30.915  1.00  0.00     0.059 A 
HETATM   22  C13 UNL     1      -9.734  15.771  31.997  1.00  0.00    -0.033 A 
HETATM   23  C14 UNL     1      -8.360  16.316  31.953  1.00  0.00     0.050 C 
HETATM   24  C15 UNL     1     -10.241  15.561  33.285  1.00  0.00     0.016 A 
HETATM   25  C16 UNL     1     -11.512  15.085  33.519  1.00  0.00    -0.055 A 
HETATM   26  C17 UNL     1     -12.020  14.871  34.887  1.00  0.00     0.049 C 
HETATM   27  C18 UNL     1     -12.279  14.822  32.403  1.00  0.00    -0.048 A 
HETATM   28  C19 UNL     1     -13.660  14.307  32.631  1.00  0.00     0.049 C 
HETATM   29  C20 UNL     1     -11.810  15.019  31.124  1.00  0.00    -0.027 A 
HETATM   30  C21 UNL     1     -12.653  14.729  29.956  1.00  0.00     0.051 C 
ENDBRANCH   1  21
TORSDOF 8
ENDMDL
