MODEL 1
REMARK VINA RESULT: -6.639127700      0.000      0.000
REMARK  14 active torsions:
REMARK  status: ('A' for Active; 'I' for Inactive)
REMARK    1  A    between atoms: C2_2  and  C3_3 
REMARK    2  A    between atoms: C3_3  and  C4_4 
REMARK    3  A    between atoms: C6_9  and  C7_10 
REMARK    4  A    between atoms: C7_10  and  C8_11 
REMARK    5  A    between atoms: C12_18  and  C13_19 
REMARK    6  A    between atoms: C19_28  and  O4_29 
REMARK    7  A    between atoms: C20_33  and  C21_34 
REMARK    8  A    between atoms: C21_34  and  C22_35 
REMARK    9  A    between atoms: C22_35  and  C23_36 
REMARK   10  A    between atoms: C23_36  and  C24_37 
REMARK   11  A    between atoms: C24_37  and  N5_38 
REMARK   12  A    between atoms: C31_46  and  C32_47 
REMARK   13  A    between atoms: C32_47  and  C33_48 
REMARK   14  A    between atoms: C36_53  and  O6_54 
ROOT
HETATM    1  C4  UNL     1      17.682  -4.971   4.292  1.00  0.00     0.159 C 
HETATM    2  N1  UNL     1      18.938  -4.666   4.911  1.00  0.00    -0.344 N 
ATOM      3  H1  UNL     1      19.669  -5.375   4.856  1.00  0.00     0.163 HD
HETATM    4  C5  UNL     1      19.252  -3.467   5.593  1.00  0.00     0.264 C 
HETATM    5  O1  UNL     1      20.187  -3.586   6.467  1.00  0.00    -0.266 OA
HETATM    6  C6  UNL     1      18.642  -2.149   5.419  1.00  0.00     0.080 C 
HETATM    7  N2  UNL     1      17.486  -1.861   6.224  1.00  0.00    -0.324 N 
ATOM      8  H2  UNL     1      16.655  -2.351   5.893  1.00  0.00     0.169 HD
HETATM    9  C11 UNL     1      17.224  -1.085   7.333  1.00  0.00     0.245 C 
HETATM   10  O2  UNL     1      16.461  -0.057   7.154  1.00  0.00    -0.271 OA
HETATM   11  C12 UNL     1      17.666  -1.208   8.757  1.00  0.00     0.180 C 
HETATM   12  N3  UNL     1      18.128  -2.513   9.090  1.00  0.00    -0.347 N 
ATOM     13  H3  UNL     1      17.909  -3.175   8.345  1.00  0.00     0.163 HD
HETATM   14  C16 UNL     1      18.780  -3.139  10.119  1.00  0.00     0.218 C 
HETATM   15  O3  UNL     1      20.047  -3.382   9.955  1.00  0.00    -0.274 OA
HETATM   16  C17 UNL     1      18.332  -3.635  11.455  1.00  0.00     0.111 C 
HETATM   17  C18 UNL     1      18.746  -5.093  11.642  1.00  0.00     0.093 C 
HETATM   18  C19 UNL     1      17.687  -6.089  11.582  1.00  0.00     0.116 C 
HETATM   19  N4  UNL     1      16.956  -6.710  10.575  1.00  0.00    -0.341 N 
ATOM     20  H4  UNL     1      16.506  -7.566  10.899  1.00  0.00     0.167 HD
HETATM   21  C20 UNL     1      16.680  -6.445   9.203  1.00  0.00     0.059 C 
HETATM   22  C30 UNL     1      17.771  -6.574   8.239  1.00  0.00     0.194 C 
HETATM   23  O5  UNL     1      18.894  -6.233   8.508  1.00  0.00    -0.289 OA
HETATM   24  C31 UNL     1      17.646  -7.130   6.838  1.00  0.00     0.160 C 
HETATM   25  N6  UNL     1      16.602  -6.546   6.065  1.00  0.00    -0.361 N 
ATOM     26  H6  UNL     1      15.679  -6.946   6.230  1.00  0.00     0.162 HD
HETATM   27  C36 UNL     1      16.629  -5.519   5.119  1.00  0.00     0.135 C 
ENDROOT
BRANCH  21  28
HETATM   28  C21 UNL     1      15.635  -5.393   8.898  1.00  0.00     0.061 C 
BRANCH  28  29
HETATM   29  C22 UNL     1      14.228  -5.889   8.851  1.00  0.00     0.008 C 
BRANCH  29  30
HETATM   30  C23 UNL     1      13.624  -6.212   7.555  1.00  0.00     0.021 C 
BRANCH  30  31
HETATM   31  C24 UNL     1      12.717  -7.451   7.618  1.00  0.00     0.128 C 
BRANCH  31  32
HETATM   32  N5  UNL     1      12.702  -8.204   6.396  1.00  0.00    -0.366 N 
HETATM   33  C25 UNL     1      13.224  -7.642   5.264  1.00  0.00     0.090 A 
HETATM   34  C26 UNL     1      13.222  -8.289   4.050  1.00  0.00     0.017 A 
HETATM   35  C27 UNL     1      12.684  -9.552   3.925  1.00  0.00     0.003 A 
HETATM   36  C28 UNL     1      12.153 -10.131   5.067  1.00  0.00     0.017 A 
HETATM   37  C29 UNL     1      12.189  -9.422   6.253  1.00  0.00     0.090 A 
ENDBRANCH  31  32
ENDBRANCH  30  31
ENDBRANCH  29  30
ENDBRANCH  28  29
ENDBRANCH  21  28
BRANCH  18  38
HETATM   38  O4  UNL     1      17.348  -6.494  12.795  1.00  0.00    -0.349 OA
ATOM     39  H4  UNL     1      17.651  -7.380  12.956  1.00  0.00     0.219 HD
ENDBRANCH  18  38
BRANCH  24  40
HETATM   40  C32 UNL     1      17.515  -8.607   7.015  1.00  0.00     0.037 C 
BRANCH  40  41
HETATM   41  C33 UNL     1      16.217  -9.238   6.672  1.00  0.00    -0.020 C 
HETATM   42  C34 UNL     1      15.528  -9.957   7.788  1.00  0.00     0.009 C 
HETATM   43  C35 UNL     1      16.237 -10.065   5.408  1.00  0.00     0.009 C 
ENDBRANCH  40  41
ENDBRANCH  24  40
BRANCH  27  44
HETATM   44  O6  UNL     1      15.460  -4.959   4.969  1.00  0.00    -0.348 OA
ATOM     45  H6  UNL     1      15.069  -4.623   5.766  1.00  0.00     0.219 HD
ENDBRANCH  27  44
BRANCH   1  46
HETATM   46  C3  UNL     1      17.904  -5.785   3.014  1.00  0.00     0.033 C 
BRANCH  46  47
HETATM   47  C2  UNL     1      17.883  -4.883   1.794  1.00  0.00    -0.002 C 
HETATM   48  C1  UNL     1      16.444  -4.484   1.556  1.00  0.00     0.005 C 
ENDBRANCH  46  47
ENDBRANCH   1  46
BRANCH  11  49
HETATM   49  C13 UNL     1      18.534  -0.047   9.064  1.00  0.00     0.009 C 
HETATM   50  C14 UNL     1      20.012  -0.335   8.899  1.00  0.00     0.012 C 
HETATM   51  C15 UNL     1      18.343   0.459  10.461  1.00  0.00     0.012 C 
ENDBRANCH  11  49
BRANCH   6  52
HETATM   52  C7  UNL     1      19.666  -1.065   5.339  1.00  0.00     0.067 C 
BRANCH  52  53
HETATM   53  C8  UNL     1      19.275   0.200   4.683  1.00  0.00    -0.017 C 
HETATM   54  C9  UNL     1      19.156   1.367   5.642  1.00  0.00     0.010 C 
HETATM   55  C10 UNL     1      18.121   0.205   3.761  1.00  0.00     0.010 C 
ENDBRANCH  52  53
ENDBRANCH   6  52
TORSDOF 14
ENDMDL
MODEL 2
REMARK VINA RESULT: -6.590913211      1.266      1.858
REMARK  14 active torsions:
REMARK  status: ('A' for Active; 'I' for Inactive)
REMARK    1  A    between atoms: C2_2  and  C3_3 
REMARK    2  A    between atoms: C3_3  and  C4_4 
REMARK    3  A    between atoms: C6_9  and  C7_10 
REMARK    4  A    between atoms: C7_10  and  C8_11 
REMARK    5  A    between atoms: C12_18  and  C13_19 
REMARK    6  A    between atoms: C19_28  and  O4_29 
REMARK    7  A    between atoms: C20_33  and  C21_34 
REMARK    8  A    between atoms: C21_34  and  C22_35 
REMARK    9  A    between atoms: C22_35  and  C23_36 
REMARK   10  A    between atoms: C23_36  and  C24_37 
REMARK   11  A    between atoms: C24_37  and  N5_38 
REMARK   12  A    between atoms: C31_46  and  C32_47 
REMARK   13  A    between atoms: C32_47  and  C33_48 
REMARK   14  A    between atoms: C36_53  and  O6_54 
ROOT
HETATM    1  C4  UNL     1      17.683  -4.958   4.329  1.00  0.00     0.159 C 
HETATM    2  N1  UNL     1      18.943  -4.647   4.935  1.00  0.00    -0.344 N 
ATOM      3  H1  UNL     1      19.675  -5.354   4.875  1.00  0.00     0.163 HD
HETATM    4  C5  UNL     1      19.260  -3.444   5.608  1.00  0.00     0.264 C 
HETATM    5  O1  UNL     1      20.204  -3.556   6.474  1.00  0.00    -0.266 OA
HETATM    6  C6  UNL     1      18.645  -2.128   5.434  1.00  0.00     0.080 C 
HETATM    7  N2  UNL     1      17.496  -1.840   6.249  1.00  0.00    -0.324 N 
ATOM      8  H2  UNL     1      16.663  -2.334   5.928  1.00  0.00     0.169 HD
HETATM    9  C11 UNL     1      17.243  -1.060   7.357  1.00  0.00     0.245 C 
HETATM   10  O2  UNL     1      16.475  -0.035   7.181  1.00  0.00    -0.271 OA
HETATM   11  C12 UNL     1      17.699  -1.176   8.778  1.00  0.00     0.180 C 
HETATM   12  N3  UNL     1      18.167  -2.478   9.112  1.00  0.00    -0.347 N 
ATOM     13  H3  UNL     1      17.943  -3.144   8.372  1.00  0.00     0.163 HD
HETATM   14  C16 UNL     1      18.831  -3.098  10.136  1.00  0.00     0.218 C 
HETATM   15  O3  UNL     1      20.096  -3.339   9.962  1.00  0.00    -0.274 OA
HETATM   16  C17 UNL     1      18.397  -3.590  11.479  1.00  0.00     0.111 C 
HETATM   17  C18 UNL     1      18.817  -5.046  11.668  1.00  0.00     0.093 C 
HETATM   18  C19 UNL     1      17.760  -6.045  11.623  1.00  0.00     0.116 C 
HETATM   19  N4  UNL     1      17.021  -6.672  10.625  1.00  0.00    -0.341 N 
ATOM     20  H4  UNL     1      16.576  -7.528  10.958  1.00  0.00     0.167 HD
HETATM   21  C20 UNL     1      16.732  -6.414   9.255  1.00  0.00     0.059 C 
HETATM   22  C30 UNL     1      17.814  -6.544   8.281  1.00  0.00     0.194 C 
HETATM   23  O5  UNL     1      18.938  -6.199   8.538  1.00  0.00    -0.289 OA
HETATM   24  C31 UNL     1      17.676  -7.106   6.884  1.00  0.00     0.160 C 
HETATM   25  N6  UNL     1      16.624  -6.528   6.118  1.00  0.00    -0.361 N 
ATOM     26  H6  UNL     1      15.703  -6.930   6.293  1.00  0.00     0.162 HD
HETATM   27  C36 UNL     1      16.639  -5.505   5.168  1.00  0.00     0.135 C 
ENDROOT
BRANCH  21  28
HETATM   28  C21 UNL     1      15.681  -5.366   8.955  1.00  0.00     0.061 C 
BRANCH  28  29
HETATM   29  C22 UNL     1      14.269  -5.851   8.996  1.00  0.00     0.008 C 
BRANCH  29  30
HETATM   30  C23 UNL     1      13.583  -6.168   7.740  1.00  0.00     0.021 C 
BRANCH  30  31
HETATM   31  C24 UNL     1      12.054  -6.099   7.868  1.00  0.00     0.128 C 
BRANCH  31  32
HETATM   32  N5  UNL     1      11.514  -7.092   8.754  1.00  0.00    -0.366 N 
HETATM   33  C25 UNL     1      11.723  -8.413   8.475  1.00  0.00     0.090 A 
HETATM   34  C26 UNL     1      11.216  -9.423   9.259  1.00  0.00     0.017 A 
HETATM   35  C27 UNL     1      10.462  -9.136  10.377  1.00  0.00     0.003 A 
HETATM   36  C28 UNL     1      10.244  -7.798  10.668  1.00  0.00     0.017 A 
HETATM   37  C29 UNL     1      10.785  -6.838   9.835  1.00  0.00     0.090 A 
ENDBRANCH  31  32
ENDBRANCH  30  31
ENDBRANCH  29  30
ENDBRANCH  28  29
ENDBRANCH  21  28
BRANCH  18  38
HETATM   38  O4  UNL     1      17.434  -6.446  12.840  1.00  0.00    -0.349 OA
ATOM     39  H4  UNL     1      17.453  -7.393  12.904  1.00  0.00     0.219 HD
ENDBRANCH  18  38
BRANCH  24  40
HETATM   40  C32 UNL     1      17.551  -8.582   7.068  1.00  0.00     0.037 C 
BRANCH  40  41
HETATM   41  C33 UNL     1      16.329  -9.248   6.554  1.00  0.00    -0.020 C 
HETATM   42  C34 UNL     1      15.254  -9.502   7.561  1.00  0.00     0.009 C 
HETATM   43  C35 UNL     1      16.592 -10.470   5.703  1.00  0.00     0.009 C 
ENDBRANCH  40  41
ENDBRANCH  24  40
BRANCH  27  44
HETATM   44  O6  UNL     1      15.467  -4.949   5.026  1.00  0.00    -0.348 OA
ATOM     45  H6  UNL     1      14.727  -5.525   5.177  1.00  0.00     0.219 HD
ENDBRANCH  27  44
BRANCH   1  46
HETATM   46  C3  UNL     1      17.895  -5.777   3.052  1.00  0.00     0.033 C 
BRANCH  46  47
HETATM   47  C2  UNL     1      17.890  -4.876   1.831  1.00  0.00    -0.002 C 
HETATM   48  C1  UNL     1      16.455  -4.466   1.581  1.00  0.00     0.005 C 
ENDBRANCH  46  47
ENDBRANCH   1  46
BRANCH  11  49
HETATM   49  C13 UNL     1      18.566  -0.012   9.072  1.00  0.00     0.009 C 
HETATM   50  C14 UNL     1      20.044  -0.300   8.908  1.00  0.00     0.012 C 
HETATM   51  C15 UNL     1      18.376   0.509  10.463  1.00  0.00     0.012 C 
ENDBRANCH  11  49
BRANCH   6  52
HETATM   52  C7  UNL     1      19.666  -1.042   5.340  1.00  0.00     0.067 C 
BRANCH  52  53
HETATM   53  C8  UNL     1      19.262   0.221   4.688  1.00  0.00    -0.017 C 
HETATM   54  C9  UNL     1      19.152   1.388   5.648  1.00  0.00     0.010 C 
HETATM   55  C10 UNL     1      18.097   0.223   3.781  1.00  0.00     0.010 C 
ENDBRANCH  52  53
ENDBRANCH   6  52
TORSDOF 14
ENDMDL
MODEL 3
REMARK VINA RESULT: -6.517973904      2.665      7.163
REMARK  14 active torsions:
REMARK  status: ('A' for Active; 'I' for Inactive)
REMARK    1  A    between atoms: C2_2  and  C3_3 
REMARK    2  A    between atoms: C3_3  and  C4_4 
REMARK    3  A    between atoms: C6_9  and  C7_10 
REMARK    4  A    between atoms: C7_10  and  C8_11 
REMARK    5  A    between atoms: C12_18  and  C13_19 
REMARK    6  A    between atoms: C19_28  and  O4_29 
REMARK    7  A    between atoms: C20_33  and  C21_34 
REMARK    8  A    between atoms: C21_34  and  C22_35 
REMARK    9  A    between atoms: C22_35  and  C23_36 
REMARK   10  A    between atoms: C23_36  and  C24_37 
REMARK   11  A    between atoms: C24_37  and  N5_38 
REMARK   12  A    between atoms: C31_46  and  C32_47 
REMARK   13  A    between atoms: C32_47  and  C33_48 
REMARK   14  A    between atoms: C36_53  and  O6_54 
ROOT
HETATM    1  C4  UNL     1      18.173  -3.524   4.908  1.00  0.00     0.159 C 
HETATM    2  N1  UNL     1      18.840  -4.736   5.281  1.00  0.00    -0.344 N 
ATOM      3  H1  UNL     1      19.768  -4.896   4.890  1.00  0.00     0.163 HD
HETATM    4  C5  UNL     1      18.324  -5.730   6.144  1.00  0.00     0.264 C 
HETATM    5  O1  UNL     1      18.818  -6.902   5.956  1.00  0.00    -0.266 OA
HETATM    6  C6  UNL     1      17.316  -5.573   7.193  1.00  0.00     0.080 C 
HETATM    7  N2  UNL     1      15.943  -5.737   6.799  1.00  0.00    -0.324 N 
ATOM      8  H2  UNL     1      15.597  -4.937   6.269  1.00  0.00     0.169 HD
HETATM    9  C11 UNL     1      14.979  -6.708   6.960  1.00  0.00     0.245 C 
HETATM   10  O2  UNL     1      13.973  -6.407   7.714  1.00  0.00    -0.271 OA
HETATM   11  C12 UNL     1      14.866  -8.095   6.410  1.00  0.00     0.180 C 
HETATM   12  N3  UNL     1      15.687  -8.315   5.268  1.00  0.00    -0.347 N 
ATOM     13  H3  UNL     1      16.072  -7.434   4.926  1.00  0.00     0.163 HD
HETATM   14  C16 UNL     1      16.111  -9.362   4.496  1.00  0.00     0.218 C 
HETATM   15  O3  UNL     1      17.317  -9.801   4.704  1.00  0.00    -0.274 OA
HETATM   16  C17 UNL     1      15.462 -10.149   3.403  1.00  0.00     0.111 C 
HETATM   17  C18 UNL     1      16.365 -10.188   2.173  1.00  0.00     0.093 C 
HETATM   18  C19 UNL     1      15.951  -9.390   1.029  1.00  0.00     0.116 C 
HETATM   19  N4  UNL     1      15.995  -8.043   0.683  1.00  0.00    -0.341 N 
ATOM     20  H4  UNL     1      15.877  -7.901  -0.320  1.00  0.00     0.167 HD
HETATM   21  C20 UNL     1      16.165  -6.814   1.383  1.00  0.00     0.059 C 
HETATM   22  C30 UNL     1      17.474  -6.521   1.962  1.00  0.00     0.194 C 
HETATM   23  O5  UNL     1      18.147  -7.381   2.468  1.00  0.00    -0.289 OA
HETATM   24  C31 UNL     1      18.134  -5.160   1.999  1.00  0.00     0.160 C 
HETATM   25  N6  UNL     1      17.312  -4.122   2.523  1.00  0.00    -0.361 N 
ATOM     26  H6  UNL     1      16.666  -3.712   1.849  1.00  0.00     0.162 HD
HETATM   27  C36 UNL     1      17.239  -3.571   3.804  1.00  0.00     0.135 C 
ENDROOT
BRANCH  21  28
HETATM   28  C21 UNL     1      14.964  -6.272   2.129  1.00  0.00     0.061 C 
BRANCH  28  29
HETATM   29  C22 UNL     1      13.841  -5.798   1.268  1.00  0.00     0.008 C 
BRANCH  29  30
HETATM   30  C23 UNL     1      12.515  -6.405   1.419  1.00  0.00     0.021 C 
BRANCH  30  31
HETATM   31  C24 UNL     1      12.482  -7.875   0.972  1.00  0.00     0.128 C 
BRANCH  31  32
HETATM   32  N5  UNL     1      12.277  -8.793   2.057  1.00  0.00    -0.366 N 
HETATM   33  C25 UNL     1      12.099 -10.119   1.778  1.00  0.00     0.090 A 
HETATM   34  C26 UNL     1      11.870 -11.055   2.760  1.00  0.00     0.017 A 
HETATM   35  C27 UNL     1      11.811 -10.685   4.086  1.00  0.00     0.003 A 
HETATM   36  C28 UNL     1      11.990  -9.343   4.379  1.00  0.00     0.017 A 
HETATM   37  C29 UNL     1      12.216  -8.459   3.341  1.00  0.00     0.090 A 
ENDBRANCH  31  32
ENDBRANCH  30  31
ENDBRANCH  29  30
ENDBRANCH  28  29
ENDBRANCH  21  28
BRANCH  18  38
HETATM   38  O4  UNL     1      15.397 -10.147   0.097  1.00  0.00    -0.349 OA
ATOM     39  H4  UNL     1      15.572  -9.803  -0.770  1.00  0.00     0.219 HD
ENDBRANCH  18  38
BRANCH  24  40
HETATM   40  C32 UNL     1      18.601  -4.915   0.603  1.00  0.00     0.037 C 
BRANCH  40  41
HETATM   41  C33 UNL     1      19.450  -5.949  -0.040  1.00  0.00    -0.020 C 
HETATM   42  C34 UNL     1      20.902  -5.615  -0.162  1.00  0.00     0.009 C 
HETATM   43  C35 UNL     1      18.896  -6.499  -1.334  1.00  0.00     0.009 C 
ENDBRANCH  40  41
ENDBRANCH  24  40
BRANCH  27  44
HETATM   44  O6  UNL     1      16.094  -2.988   4.024  1.00  0.00    -0.348 OA
ATOM     45  H6  UNL     1      15.359  -3.577   4.150  1.00  0.00     0.219 HD
ENDBRANCH  27  44
BRANCH   1  46
HETATM   46  C3  UNL     1      19.184  -2.382   4.770  1.00  0.00     0.033 C 
BRANCH  46  47
HETATM   47  C2  UNL     1      18.720  -1.158   5.537  1.00  0.00    -0.002 C 
HETATM   48  C1  UNL     1      19.148   0.057   4.745  1.00  0.00     0.005 C 
ENDBRANCH  46  47
ENDBRANCH   1  46
BRANCH  11  49
HETATM   49  C13 UNL     1      14.959  -9.043   7.545  1.00  0.00     0.009 C 
HETATM   50  C14 UNL     1      16.375  -9.488   7.847  1.00  0.00     0.012 C 
HETATM   51  C15 UNL     1      14.151 -10.284   7.325  1.00  0.00     0.012 C 
ENDBRANCH  11  49
BRANCH   6  52
HETATM   52  C7  UNL     1      17.716  -6.257   8.459  1.00  0.00     0.067 C 
BRANCH  52  53
HETATM   53  C8  UNL     1      17.889  -5.420   9.664  1.00  0.00    -0.017 C 
HETATM   54  C9  UNL     1      19.326  -5.011   9.915  1.00  0.00     0.010 C 
HETATM   55  C10 UNL     1      17.275  -5.853  10.936  1.00  0.00     0.010 C 
ENDBRANCH  52  53
ENDBRANCH   6  52
TORSDOF 14
ENDMDL
MODEL 4
REMARK VINA RESULT: -6.460701947      3.354      7.623
REMARK  14 active torsions:
REMARK  status: ('A' for Active; 'I' for Inactive)
REMARK    1  A    between atoms: C2_2  and  C3_3 
REMARK    2  A    between atoms: C3_3  and  C4_4 
REMARK    3  A    between atoms: C6_9  and  C7_10 
REMARK    4  A    between atoms: C7_10  and  C8_11 
REMARK    5  A    between atoms: C12_18  and  C13_19 
REMARK    6  A    between atoms: C19_28  and  O4_29 
REMARK    7  A    between atoms: C20_33  and  C21_34 
REMARK    8  A    between atoms: C21_34  and  C22_35 
REMARK    9  A    between atoms: C22_35  and  C23_36 
REMARK   10  A    between atoms: C23_36  and  C24_37 
REMARK   11  A    between atoms: C24_37  and  N5_38 
REMARK   12  A    between atoms: C31_46  and  C32_47 
REMARK   13  A    between atoms: C32_47  and  C33_48 
REMARK   14  A    between atoms: C36_53  and  O6_54 
ROOT
HETATM    1  C4  UNL     1      18.125  -3.554   4.915  1.00  0.00     0.159 C 
HETATM    2  N1  UNL     1      18.735  -4.808   5.243  1.00  0.00    -0.344 N 
ATOM      3  H1  UNL     1      19.635  -5.015   4.810  1.00  0.00     0.163 HD
HETATM    4  C5  UNL     1      18.199  -5.784   6.114  1.00  0.00     0.264 C 
HETATM    5  O1  UNL     1      18.615  -6.980   5.889  1.00  0.00    -0.266 OA
HETATM    6  C6  UNL     1      17.247  -5.586   7.208  1.00  0.00     0.080 C 
HETATM    7  N2  UNL     1      15.851  -5.664   6.870  1.00  0.00    -0.324 N 
ATOM      8  H2  UNL     1      15.531  -4.837   6.366  1.00  0.00     0.169 HD
HETATM    9  C11 UNL     1      14.840  -6.581   7.060  1.00  0.00     0.245 C 
HETATM   10  O2  UNL     1      13.886  -6.235   7.860  1.00  0.00    -0.271 OA
HETATM   11  C12 UNL     1      14.622  -7.950   6.496  1.00  0.00     0.180 C 
HETATM   12  N3  UNL     1      15.381  -8.199   5.318  1.00  0.00    -0.347 N 
ATOM     13  H3  UNL     1      15.802  -7.337   4.971  1.00  0.00     0.163 HD
HETATM   14  C16 UNL     1      15.710  -9.257   4.514  1.00  0.00     0.218 C 
HETATM   15  O3  UNL     1      16.896  -9.768   4.665  1.00  0.00    -0.274 OA
HETATM   16  C17 UNL     1      14.972  -9.988   3.440  1.00  0.00     0.111 C 
HETATM   17  C18 UNL     1      15.818 -10.059   2.171  1.00  0.00     0.093 C 
HETATM   18  C19 UNL     1      15.403  -9.220   1.058  1.00  0.00     0.116 C 
HETATM   19  N4  UNL     1      15.512  -7.874   0.728  1.00  0.00    -0.341 N 
ATOM     20  H4  UNL     1      15.360  -7.709  -0.268  1.00  0.00     0.167 HD
HETATM   21  C20 UNL     1      15.782  -6.668   1.436  1.00  0.00     0.059 C 
HETATM   22  C30 UNL     1      17.129  -6.459   1.962  1.00  0.00     0.194 C 
HETATM   23  O5  UNL     1      17.772  -7.365   2.428  1.00  0.00    -0.289 OA
HETATM   24  C31 UNL     1      17.868  -5.140   1.989  1.00  0.00     0.160 C 
HETATM   25  N6  UNL     1      17.131  -4.065   2.562  1.00  0.00    -0.361 N 
ATOM     26  H6  UNL     1      16.482  -3.607   1.921  1.00  0.00     0.162 HD
HETATM   27  C36 UNL     1      17.144  -3.530   3.852  1.00  0.00     0.135 C 
ENDROOT
BRANCH  21  28
HETATM   28  C21 UNL     1      14.647  -6.069   2.240  1.00  0.00     0.061 C 
BRANCH  28  29
HETATM   29  C22 UNL     1      13.440  -6.936   2.380  1.00  0.00     0.008 C 
BRANCH  29  30
HETATM   30  C23 UNL     1      12.212  -6.576   1.666  1.00  0.00     0.021 C 
BRANCH  30  31
HETATM   31  C24 UNL     1      12.119  -7.232   0.279  1.00  0.00     0.128 C 
BRANCH  31  32
HETATM   32  N5  UNL     1      12.028  -6.281  -0.792  1.00  0.00    -0.366 N 
HETATM   33  C25 UNL     1      10.798  -5.806  -1.154  1.00  0.00     0.090 A 
HETATM   34  C26 UNL     1      10.626  -4.915  -2.188  1.00  0.00     0.017 A 
HETATM   35  C27 UNL     1      11.706  -4.458  -2.912  1.00  0.00     0.003 A 
HETATM   36  C28 UNL     1      12.957  -4.934  -2.553  1.00  0.00     0.017 A 
HETATM   37  C29 UNL     1      13.055  -5.828  -1.504  1.00  0.00     0.090 A 
ENDBRANCH  31  32
ENDBRANCH  30  31
ENDBRANCH  29  30
ENDBRANCH  28  29
ENDBRANCH  21  28
BRANCH  18  38
HETATM   38  O4  UNL     1      14.768  -9.930   0.140  1.00  0.00    -0.349 OA
ATOM     39  H4  UNL     1      15.381 -10.400  -0.413  1.00  0.00     0.219 HD
ENDBRANCH  18  38
BRANCH  24  40
HETATM   40  C32 UNL     1      18.290  -4.900   0.577  1.00  0.00     0.037 C 
BRANCH  40  41
HETATM   41  C33 UNL     1      19.218  -5.875  -0.048  1.00  0.00    -0.020 C 
HETATM   42  C34 UNL     1      20.669  -5.517   0.005  1.00  0.00     0.009 C 
HETATM   43  C35 UNL     1      18.809  -6.332  -1.429  1.00  0.00     0.009 C 
ENDBRANCH  40  41
ENDBRANCH  24  40
BRANCH  27  44
HETATM   44  O6  UNL     1      16.045  -2.885   4.128  1.00  0.00    -0.348 OA
ATOM     45  H6  UNL     1      15.272  -3.190   3.668  1.00  0.00     0.219 HD
ENDBRANCH  27  44
BRANCH   1  46
HETATM   46  C3  UNL     1      19.194  -2.471   4.749  1.00  0.00     0.033 C 
BRANCH  46  47
HETATM   47  C2  UNL     1      18.840  -1.239   5.561  1.00  0.00    -0.002 C 
HETATM   48  C1  UNL     1      18.931  -0.048   4.633  1.00  0.00     0.005 C 
ENDBRANCH  46  47
ENDBRANCH   1  46
BRANCH  11  49
HETATM   49  C13 UNL     1      14.708  -8.919   7.614  1.00  0.00     0.009 C 
HETATM   50  C14 UNL     1      16.113  -9.423   7.873  1.00  0.00     0.012 C 
HETATM   51  C15 UNL     1      13.848 -10.126   7.396  1.00  0.00     0.012 C 
ENDBRANCH  11  49
BRANCH   6  52
HETATM   52  C7  UNL     1      17.659  -6.312   8.446  1.00  0.00     0.067 C 
BRANCH  52  53
HETATM   53  C8  UNL     1      17.956  -5.503   9.646  1.00  0.00    -0.017 C 
HETATM   54  C9  UNL     1      19.425  -5.160   9.794  1.00  0.00     0.010 C 
HETATM   55  C10 UNL     1      17.420  -5.932  10.954  1.00  0.00     0.010 C 
ENDBRANCH  52  53
ENDBRANCH   6  52
TORSDOF 14
ENDMDL
MODEL 5
REMARK VINA RESULT: -6.392774743      3.159      7.357
REMARK  14 active torsions:
REMARK  status: ('A' for Active; 'I' for Inactive)
REMARK    1  A    between atoms: C2_2  and  C3_3 
REMARK    2  A    between atoms: C3_3  and  C4_4 
REMARK    3  A    between atoms: C6_9  and  C7_10 
REMARK    4  A    between atoms: C7_10  and  C8_11 
REMARK    5  A    between atoms: C12_18  and  C13_19 
REMARK    6  A    between atoms: C19_28  and  O4_29 
REMARK    7  A    between atoms: C20_33  and  C21_34 
REMARK    8  A    between atoms: C21_34  and  C22_35 
REMARK    9  A    between atoms: C22_35  and  C23_36 
REMARK   10  A    between atoms: C23_36  and  C24_37 
REMARK   11  A    between atoms: C24_37  and  N5_38 
REMARK   12  A    between atoms: C31_46  and  C32_47 
REMARK   13  A    between atoms: C32_47  and  C33_48 
REMARK   14  A    between atoms: C36_53  and  O6_54 
ROOT
HETATM    1  C4  UNL     1      18.123  -3.538   4.848  1.00  0.00     0.159 C 
HETATM    2  N1  UNL     1      18.799  -4.737   5.243  1.00  0.00    -0.344 N 
ATOM      3  H1  UNL     1      19.731  -4.895   4.859  1.00  0.00     0.163 HD
HETATM    4  C5  UNL     1      18.288  -5.723   6.119  1.00  0.00     0.264 C 
HETATM    5  O1  UNL     1      18.793  -6.893   5.952  1.00  0.00    -0.266 OA
HETATM    6  C6  UNL     1      17.273  -5.559   7.160  1.00  0.00     0.080 C 
HETATM    7  N2  UNL     1      15.903  -5.742   6.761  1.00  0.00    -0.324 N 
ATOM      8  H2  UNL     1      15.553  -4.954   6.217  1.00  0.00     0.169 HD
HETATM    9  C11 UNL     1      14.948  -6.720   6.933  1.00  0.00     0.245 C 
HETATM   10  O2  UNL     1      13.935  -6.417   7.677  1.00  0.00    -0.271 OA
HETATM   11  C12 UNL     1      14.850  -8.117   6.404  1.00  0.00     0.180 C 
HETATM   12  N3  UNL     1      15.680  -8.346   5.270  1.00  0.00    -0.347 N 
ATOM     13  H3  UNL     1      16.058  -7.467   4.916  1.00  0.00     0.163 HD
HETATM   14  C16 UNL     1      16.118  -9.401   4.516  1.00  0.00     0.218 C 
HETATM   15  O3  UNL     1      17.326  -9.826   4.738  1.00  0.00    -0.274 OA
HETATM   16  C17 UNL     1      15.482 -10.212   3.433  1.00  0.00     0.111 C 
HETATM   17  C18 UNL     1      16.392 -10.261   2.208  1.00  0.00     0.093 C 
HETATM   18  C19 UNL     1      15.976  -9.485   1.050  1.00  0.00     0.116 C 
HETATM   19  N4  UNL     1      16.010  -8.143   0.683  1.00  0.00    -0.341 N 
ATOM     20  H4  UNL     1      15.895  -8.018  -0.323  1.00  0.00     0.167 HD
HETATM   21  C20 UNL     1      16.164  -6.902   1.365  1.00  0.00     0.059 C 
HETATM   22  C30 UNL     1      17.467  -6.587   1.945  1.00  0.00     0.194 C 
HETATM   23  O5  UNL     1      18.146  -7.433   2.468  1.00  0.00    -0.289 OA
HETATM   24  C31 UNL     1      18.114  -5.220   1.964  1.00  0.00     0.160 C 
HETATM   25  N6  UNL     1      17.279  -4.182   2.468  1.00  0.00    -0.361 N 
ATOM     26  H6  UNL     1      16.633  -3.788   1.784  1.00  0.00     0.162 HD
HETATM   27  C36 UNL     1      17.195  -3.611   3.740  1.00  0.00     0.135 C 
ENDROOT
BRANCH  21  28
HETATM   28  C21 UNL     1      14.954  -6.360   2.096  1.00  0.00     0.061 C 
BRANCH  28  29
HETATM   29  C22 UNL     1      14.077  -5.457   1.293  1.00  0.00     0.008 C 
BRANCH  29  30
HETATM   30  C23 UNL     1      13.102  -6.041   0.367  1.00  0.00     0.021 C 
BRANCH  30  31
HETATM   31  C24 UNL     1      12.454  -7.320   0.920  1.00  0.00     0.128 C 
BRANCH  31  32
HETATM   32  N5  UNL     1      11.024  -7.236   1.010  1.00  0.00    -0.366 N 
HETATM   33  C25 UNL     1      10.391  -6.131   0.512  1.00  0.00     0.090 A 
HETATM   34  C26 UNL     1       9.028  -5.965   0.586  1.00  0.00     0.017 A 
HETATM   35  C27 UNL     1       8.232  -6.923   1.175  1.00  0.00     0.003 A 
HETATM   36  C28 UNL     1       8.863  -8.048   1.683  1.00  0.00     0.017 A 
HETATM   37  C29 UNL     1      10.237  -8.147   1.573  1.00  0.00     0.090 A 
ENDBRANCH  31  32
ENDBRANCH  30  31
ENDBRANCH  29  30
ENDBRANCH  28  29
ENDBRANCH  21  28
BRANCH  18  38
HETATM   38  O4  UNL     1      15.435 -10.262   0.127  1.00  0.00    -0.349 OA
ATOM     39  H4  UNL     1      14.905  -9.756  -0.477  1.00  0.00     0.219 HD
ENDBRANCH  18  38
BRANCH  24  40
HETATM   40  C32 UNL     1      18.586  -4.992   0.567  1.00  0.00     0.037 C 
BRANCH  40  41
HETATM   41  C33 UNL     1      19.449  -6.028  -0.054  1.00  0.00    -0.020 C 
HETATM   42  C34 UNL     1      20.911  -5.718  -0.093  1.00  0.00     0.009 C 
HETATM   43  C35 UNL     1      18.954  -6.537  -1.389  1.00  0.00     0.009 C 
ENDBRANCH  40  41
ENDBRANCH  24  40
BRANCH  27  44
HETATM   44  O6  UNL     1      16.043  -3.036   3.945  1.00  0.00    -0.348 OA
ATOM     45  H6  UNL     1      15.424  -3.106   3.227  1.00  0.00     0.219 HD
ENDBRANCH  27  44
BRANCH   1  46
HETATM   46  C3  UNL     1      19.123  -2.389   4.697  1.00  0.00     0.033 C 
BRANCH  46  47
HETATM   47  C2  UNL     1      18.703  -1.198   5.537  1.00  0.00    -0.002 C 
HETATM   48  C1  UNL     1      19.123   0.049   4.790  1.00  0.00     0.005 C 
ENDBRANCH  46  47
ENDBRANCH   1  46
BRANCH  11  49
HETATM   49  C13 UNL     1      14.947  -9.046   7.554  1.00  0.00     0.009 C 
HETATM   50  C14 UNL     1      16.366  -9.466   7.876  1.00  0.00     0.012 C 
HETATM   51  C15 UNL     1      14.158 -10.301   7.346  1.00  0.00     0.012 C 
ENDBRANCH  11  49
BRANCH   6  52
HETATM   52  C7  UNL     1      17.672  -6.220   8.439  1.00  0.00     0.067 C 
BRANCH  52  53
HETATM   53  C8  UNL     1      17.946  -5.350   9.602  1.00  0.00    -0.017 C 
HETATM   54  C9  UNL     1      19.417  -5.035   9.787  1.00  0.00     0.010 C 
HETATM   55  C10 UNL     1      17.350  -5.689  10.910  1.00  0.00     0.010 C 
ENDBRANCH  52  53
ENDBRANCH   6  52
TORSDOF 14
ENDMDL
