MODEL 1
REMARK VINA RESULT: -5.905625387      0.000      0.000
REMARK  5 active torsions:
REMARK  status: ('A' for Active; 'I' for Inactive)
REMARK    1  A    between atoms: N1_1  and  C1_5 
REMARK    2  A    between atoms: C1_5  and  C2_6 
REMARK    3  A    between atoms: C2_6  and  C3_7 
REMARK    4  A    between atoms: C4_10  and  C5_11 
REMARK    5  A    between atoms: C5_11  and  C6_12 
ROOT
HETATM    1  C3  UNL     1      44.705  39.673  57.796  1.00  0.00     0.077 A 
HETATM    2  N2  UNL     1      43.991  40.642  58.184  1.00  0.00    -0.358 N 
ATOM      3  H2  UNL     1      43.057  40.959  57.924  1.00  0.00     0.162 HD
HETATM    4  C4  UNL     1      44.948  41.132  59.108  1.00  0.00     0.190 A 
HETATM    5  N6  UNL     1      45.738  40.058  58.676  1.00  0.00    -0.358 N 
ATOM      6  H6  UNL     1      46.667  39.704  58.903  1.00  0.00     0.162 HD
ENDROOT
BRANCH   4   7
HETATM    7  C5  UNL     1      45.391  42.524  58.687  1.00  0.00     0.124 C 
BRANCH   7   8
HETATM    8  C6  UNL     1      46.156  43.094  59.828  1.00  0.00     0.100 A 
HETATM    9  N3  UNL     1      47.210  42.519  60.430  1.00  0.00    -0.340 N 
HETATM   10  C7  UNL     1      47.670  43.298  61.430  1.00  0.00     0.198 A 
ATOM     11  H3  UNL     1      47.607  41.617  60.166  1.00  0.00     0.168 HD
HETATM   12  N4  UNL     1      46.876  44.383  61.443  1.00  0.00    -0.295 N 
HETATM   13  N5  UNL     1      45.973  44.256  60.485  1.00  0.00    -0.288 N 
ATOM     14  H4  UNL     1      46.957  45.172  62.085  1.00  0.00     0.187 HD
ATOM     15  H5  UNL     1      45.245  44.938  60.273  1.00  0.00     0.188 HD
ENDBRANCH   7   8
ENDBRANCH   4   7
BRANCH   1  16
HETATM   16  C2  UNL     1      44.474  38.588  56.792  1.00  0.00     0.103 C 
BRANCH  16  17
HETATM   17  C1  UNL     1      45.050  37.276  57.260  1.00  0.00     0.237 C 
BRANCH  17  18
HETATM   18  N1  UNL     1      44.262  36.844  58.400  1.00  0.00    -0.079 N 
ATOM     19  H13 UNL     1      43.600  36.103  58.171  1.00  0.00     0.274 HD
ATOM     20  H12 UNL     1      44.807  36.324  59.088  1.00  0.00     0.274 HD
ATOM     21  H11 UNL     1      43.815  37.673  58.790  1.00  0.00     0.274 HD
ENDBRANCH  17  18
ENDBRANCH  16  17
ENDBRANCH   1  16
TORSDOF 5
ENDMDL
MODEL 2
REMARK VINA RESULT: -5.765530429      0.727      1.140
REMARK  5 active torsions:
REMARK  status: ('A' for Active; 'I' for Inactive)
REMARK    1  A    between atoms: N1_1  and  C1_5 
REMARK    2  A    between atoms: C1_5  and  C2_6 
REMARK    3  A    between atoms: C2_6  and  C3_7 
REMARK    4  A    between atoms: C4_10  and  C5_11 
REMARK    5  A    between atoms: C5_11  and  C6_12 
ROOT
HETATM    1  C3  UNL     1      44.795  40.003  58.030  1.00  0.00     0.077 A 
HETATM    2  N2  UNL     1      44.167  40.953  58.582  1.00  0.00    -0.358 N 
ATOM      3  H2  UNL     1      43.221  41.315  58.465  1.00  0.00     0.162 HD
HETATM    4  C4  UNL     1      45.244  41.334  59.422  1.00  0.00     0.190 A 
HETATM    5  N6  UNL     1      45.938  40.282  58.808  1.00  0.00    -0.358 N 
ATOM      6  H6  UNL     1      46.874  39.886  58.889  1.00  0.00     0.162 HD
ENDROOT
BRANCH   4   7
HETATM    7  C5  UNL     1      45.684  42.746  59.070  1.00  0.00     0.124 C 
BRANCH   7   8
HETATM    8  C6  UNL     1      46.735  43.125  60.052  1.00  0.00     0.100 A 
HETATM    9  N3  UNL     1      46.612  44.063  61.007  1.00  0.00    -0.340 N 
HETATM   10  C7  UNL     1      47.749  44.159  61.726  1.00  0.00     0.198 A 
ATOM     11  H3  UNL     1      45.775  44.623  61.165  1.00  0.00     0.168 HD
HETATM   12  N4  UNL     1      48.593  43.255  61.199  1.00  0.00    -0.295 N 
HETATM   13  N5  UNL     1      47.983  42.641  60.199  1.00  0.00    -0.288 N 
ATOM     14  H4  UNL     1      49.546  43.074  61.517  1.00  0.00     0.187 HD
ATOM     15  H5  UNL     1      48.396  41.908  59.623  1.00  0.00     0.188 HD
ENDBRANCH   7   8
ENDBRANCH   4   7
BRANCH   1  16
HETATM   16  C2  UNL     1      44.407  39.018  56.973  1.00  0.00     0.103 C 
BRANCH  16  17
HETATM   17  C1  UNL     1      45.087  37.689  57.186  1.00  0.00     0.237 C 
BRANCH  17  18
HETATM   18  N1  UNL     1      44.475  37.077  58.352  1.00  0.00    -0.079 N 
ATOM     19  H13 UNL     1      44.648  37.595  59.213  1.00  0.00     0.274 HD
ATOM     20  H12 UNL     1      43.458  37.153  58.355  1.00  0.00     0.274 HD
ATOM     21  H11 UNL     1      44.803  36.112  58.394  1.00  0.00     0.274 HD
ENDBRANCH  17  18
ENDBRANCH  16  17
ENDBRANCH   1  16
TORSDOF 5
ENDMDL
MODEL 3
REMARK VINA RESULT: -5.737693403      1.109      1.202
REMARK  5 active torsions:
REMARK  status: ('A' for Active; 'I' for Inactive)
REMARK    1  A    between atoms: N1_1  and  C1_5 
REMARK    2  A    between atoms: C1_5  and  C2_6 
REMARK    3  A    between atoms: C2_6  and  C3_7 
REMARK    4  A    between atoms: C4_10  and  C5_11 
REMARK    5  A    between atoms: C5_11  and  C6_12 
ROOT
HETATM    1  C3  UNL     1      45.126  39.475  57.679  1.00  0.00     0.077 A 
HETATM    2  N2  UNL     1      45.834  40.486  57.404  1.00  0.00    -0.358 N 
ATOM      3  H2  UNL     1      46.325  40.776  56.559  1.00  0.00     0.162 HD
HETATM    4  C4  UNL     1      45.704  41.073  58.688  1.00  0.00     0.190 A 
HETATM    5  N6  UNL     1      44.920  39.952  58.990  1.00  0.00    -0.358 N 
ATOM      6  H6  UNL     1      44.414  39.621  59.811  1.00  0.00     0.162 HD
ENDROOT
BRANCH   4   7
HETATM    7  C5  UNL     1      47.072  41.155  59.348  1.00  0.00     0.124 C 
BRANCH   7   8
HETATM    8  C6  UNL     1      47.076  42.391  60.174  1.00  0.00     0.100 A 
HETATM    9  N3  UNL     1      47.979  42.697  61.121  1.00  0.00    -0.340 N 
HETATM   10  C7  UNL     1      47.694  43.890  61.682  1.00  0.00     0.198 A 
ATOM     11  H3  UNL     1      48.770  42.108  61.380  1.00  0.00     0.168 HD
HETATM   12  N4  UNL     1      46.585  44.330  61.062  1.00  0.00    -0.295 N 
HETATM   13  N5  UNL     1      46.220  43.431  60.162  1.00  0.00    -0.288 N 
ATOM     14  H4  UNL     1      46.105  45.210  61.253  1.00  0.00     0.187 HD
ATOM     15  H5  UNL     1      45.409  43.512  59.549  1.00  0.00     0.188 HD
ENDBRANCH   7   8
ENDBRANCH   4   7
BRANCH   1  16
HETATM   16  C2  UNL     1      44.715  38.283  56.874  1.00  0.00     0.103 C 
BRANCH  16  17
HETATM   17  C1  UNL     1      44.476  37.083  57.753  1.00  0.00     0.237 C 
BRANCH  17  18
HETATM   18  N1  UNL     1      44.004  36.009  56.896  1.00  0.00    -0.079 N 
ATOM     19  H13 UNL     1      43.038  35.741  57.086  1.00  0.00     0.274 HD
ATOM     20  H12 UNL     1      43.872  36.301  55.928  1.00  0.00     0.274 HD
ATOM     21  H11 UNL     1      44.660  35.234  56.994  1.00  0.00     0.274 HD
ENDBRANCH  17  18
ENDBRANCH  16  17
ENDBRANCH   1  16
TORSDOF 5
ENDMDL
MODEL 4
REMARK VINA RESULT: -5.735232920      1.236      1.574
REMARK  5 active torsions:
REMARK  status: ('A' for Active; 'I' for Inactive)
REMARK    1  A    between atoms: N1_1  and  C1_5 
REMARK    2  A    between atoms: C1_5  and  C2_6 
REMARK    3  A    between atoms: C2_6  and  C3_7 
REMARK    4  A    between atoms: C4_10  and  C5_11 
REMARK    5  A    between atoms: C5_11  and  C6_12 
ROOT
HETATM    1  C3  UNL     1      45.108  39.867  57.872  1.00  0.00     0.077 A 
HETATM    2  N2  UNL     1      45.962  40.744  57.556  1.00  0.00    -0.358 N 
ATOM      3  H2  UNL     1      46.432  40.966  56.679  1.00  0.00     0.162 HD
HETATM    4  C4  UNL     1      46.034  41.311  58.854  1.00  0.00     0.190 A 
HETATM    5  N6  UNL     1      45.089  40.337  59.201  1.00  0.00    -0.358 N 
ATOM      6  H6  UNL     1      44.595  40.078  60.055  1.00  0.00     0.162 HD
ENDROOT
BRANCH   4   7
HETATM    7  C5  UNL     1      47.440  41.132  59.405  1.00  0.00     0.124 C 
BRANCH   7   8
HETATM    8  C6  UNL     1      47.681  42.265  60.339  1.00  0.00     0.100 A 
HETATM    9  N3  UNL     1      46.737  43.069  60.854  1.00  0.00    -0.340 N 
HETATM   10  C7  UNL     1      47.291  43.995  61.663  1.00  0.00     0.198 A 
ATOM     11  H3  UNL     1      45.739  42.990  60.660  1.00  0.00     0.168 HD
HETATM   12  N4  UNL     1      48.614  43.753  61.645  1.00  0.00    -0.295 N 
HETATM   13  N5  UNL     1      48.841  42.718  60.852  1.00  0.00    -0.288 N 
ATOM     14  H4  UNL     1      49.323  44.278  62.156  1.00  0.00     0.187 HD
ATOM     15  H5  UNL     1      49.761  42.322  60.657  1.00  0.00     0.188 HD
ENDBRANCH   7   8
ENDBRANCH   4   7
BRANCH   1  16
HETATM   16  C2  UNL     1      44.433  38.787  57.086  1.00  0.00     0.103 C 
BRANCH  16  17
HETATM   17  C1  UNL     1      45.074  37.446  57.333  1.00  0.00     0.237 C 
BRANCH  17  18
HETATM   18  N1  UNL     1      44.321  36.800  58.394  1.00  0.00    -0.079 N 
ATOM     19  H13 UNL     1      43.616  37.407  58.811  1.00  0.00     0.274 HD
ATOM     20  H12 UNL     1      43.688  36.078  58.051  1.00  0.00     0.274 HD
ATOM     21  H11 UNL     1      44.997  36.448  59.072  1.00  0.00     0.274 HD
ENDBRANCH  17  18
ENDBRANCH  16  17
ENDBRANCH   1  16
TORSDOF 5
ENDMDL
MODEL 5
REMARK VINA RESULT: -5.523704534      1.466      5.858
REMARK  5 active torsions:
REMARK  status: ('A' for Active; 'I' for Inactive)
REMARK    1  A    between atoms: N1_1  and  C1_5 
REMARK    2  A    between atoms: C1_5  and  C2_6 
REMARK    3  A    between atoms: C2_6  and  C3_7 
REMARK    4  A    between atoms: C4_10  and  C5_11 
REMARK    5  A    between atoms: C5_11  and  C6_12 
ROOT
HETATM    1  C3  UNL     1      46.169  42.812  59.782  1.00  0.00     0.077 A 
HETATM    2  N2  UNL     1      45.187  42.666  58.998  1.00  0.00    -0.358 N 
ATOM      3  H2  UNL     1      44.396  43.266  58.764  1.00  0.00     0.162 HD
HETATM    4  C4  UNL     1      45.574  41.374  58.562  1.00  0.00     0.190 A 
HETATM    5  N6  UNL     1      46.661  41.537  59.431  1.00  0.00    -0.358 N 
ATOM      6  H6  UNL     1      47.468  40.973  59.698  1.00  0.00     0.162 HD
ENDROOT
BRANCH   4   7
HETATM    7  C5  UNL     1      44.513  40.364  58.970  1.00  0.00     0.124 C 
BRANCH   7   8
HETATM    8  C6  UNL     1      44.635  39.213  58.036  1.00  0.00     0.100 A 
HETATM    9  N3  UNL     1      44.663  37.917  58.389  1.00  0.00    -0.340 N 
HETATM   10  C7  UNL     1      44.783  37.131  57.300  1.00  0.00     0.198 A 
ATOM     11  H3  UNL     1      44.603  37.576  59.348  1.00  0.00     0.168 HD
HETATM   12  N4  UNL     1      44.828  37.967  56.247  1.00  0.00    -0.295 N 
HETATM   13  N5  UNL     1      44.740  39.210  56.693  1.00  0.00    -0.288 N 
ATOM     14  H4  UNL     1      44.916  37.690  55.270  1.00  0.00     0.187 HD
ATOM     15  H5  UNL     1      44.750  40.044  56.106  1.00  0.00     0.188 HD
ENDBRANCH   7   8
ENDBRANCH   4   7
BRANCH   1  16
HETATM   16  C2  UNL     1      46.578  43.928  60.690  1.00  0.00     0.103 C 
BRANCH  16  17
HETATM   17  C1  UNL     1      47.457  43.431  61.809  1.00  0.00     0.237 C 
BRANCH  17  18
HETATM   18  N1  UNL     1      48.817  43.397  61.303  1.00  0.00    -0.079 N 
ATOM     19  H13 UNL     1      49.008  42.580  60.723  1.00  0.00     0.274 HD
ATOM     20  H12 UNL     1      48.998  44.107  60.594  1.00  0.00     0.274 HD
ATOM     21  H11 UNL     1      49.441  43.469  62.108  1.00  0.00     0.274 HD
ENDBRANCH  17  18
ENDBRANCH  16  17
ENDBRANCH   1  16
TORSDOF 5
ENDMDL
