MODEL 1
REMARK VINA RESULT: -5.496754198      0.000      0.000
REMARK  5 active torsions:
REMARK  status: ('A' for Active; 'I' for Inactive)
REMARK    1  A    between atoms: C2_3  and  C3_4 
REMARK    2  A    between atoms: C2_3  and  N3_9 
REMARK    3  A    between atoms: C3_4  and  N2_5 
REMARK    4  A    between atoms: N3_9  and  C4_12 
REMARK    5  A    between atoms: C4_12  and  C5_13 
ROOT
HETATM    1  N1  UNL     1      44.763  39.049  56.077  1.00  0.00    -0.195 NA
HETATM    2  C1  UNL     1      44.700  39.520  57.135  1.00  0.00     0.094 C 
HETATM    3  C2  UNL     1      44.615  40.093  58.484  1.00  0.00     0.316 C 
ENDROOT
BRANCH   3   4
HETATM    4  C3  UNL     1      43.639  41.237  58.542  1.00  0.00     0.277 C 
BRANCH   4   5
HETATM    5  N2  UNL     1      42.703  41.231  57.437  1.00  0.00    -0.076 N 
ATOM      6  H23 UNL     1      42.078  42.036  57.482  1.00  0.00     0.274 HD
ATOM      7  H22 UNL     1      43.175  41.438  56.557  1.00  0.00     0.274 HD
ATOM      8  H21 UNL     1      42.175  40.361  57.373  1.00  0.00     0.274 HD
ENDBRANCH   4   5
ENDBRANCH   3   4
BRANCH   3   9
HETATM    9  N3  UNL     1      45.951  40.471  58.865  1.00  0.00    -0.057 N 
ATOM     10  H32 UNL     1      46.102  40.423  59.873  1.00  0.00     0.278 HD
ATOM     11  H31 UNL     1      46.650  39.782  58.588  1.00  0.00     0.278 HD
BRANCH   9  12
HETATM   12  C4  UNL     1      46.215  41.775  58.326  1.00  0.00     0.238 C 
BRANCH  12  13
HETATM   13  C5  UNL     1      47.095  42.621  59.203  1.00  0.00     0.014 C 
HETATM   14  C6  UNL     1      46.405  42.784  60.539  1.00  0.00     0.034 C 
HETATM   15  C7  UNL     1      47.153  43.847  61.306  1.00  0.00     0.232 C 
HETATM   16  N4  UNL     1      48.539  43.511  61.400  1.00  0.00    -0.075 N 
HETATM   17  C8  UNL     1      48.872  42.228  60.865  1.00  0.00     0.232 C 
ATOM     18  H42 UNL     1      49.111  44.237  60.967  1.00  0.00     0.277 HD
ATOM     19  H41 UNL     1      48.859  43.589  62.366  1.00  0.00     0.277 HD
HETATM   20  C9  UNL     1      48.453  42.054  59.428  1.00  0.00     0.034 C 
ENDBRANCH  12  13
ENDBRANCH   9  12
ENDBRANCH   3   9
TORSDOF 5
ENDMDL
MODEL 2
REMARK VINA RESULT: -5.427199082      1.741      2.804
REMARK  5 active torsions:
REMARK  status: ('A' for Active; 'I' for Inactive)
REMARK    1  A    between atoms: C2_3  and  C3_4 
REMARK    2  A    between atoms: C2_3  and  N3_9 
REMARK    3  A    between atoms: C3_4  and  N2_5 
REMARK    4  A    between atoms: N3_9  and  C4_12 
REMARK    5  A    between atoms: C4_12  and  C5_13 
ROOT
HETATM    1  N1  UNL     1      44.448  39.283  55.269  1.00  0.00    -0.195 NA
HETATM    2  C1  UNL     1      44.742  38.877  56.315  1.00  0.00     0.094 C 
HETATM    3  C2  UNL     1      45.138  38.363  57.633  1.00  0.00     0.316 C 
ENDROOT
BRANCH   3   4
HETATM    4  C3  UNL     1      44.398  37.101  57.983  1.00  0.00     0.277 C 
BRANCH   4   5
HETATM    5  N2  UNL     1      44.119  36.276  56.826  1.00  0.00    -0.076 N 
ATOM      6  H23 UNL     1      43.410  35.574  57.039  1.00  0.00     0.274 HD
ATOM      7  H22 UNL     1      43.618  36.805  56.112  1.00  0.00     0.274 HD
ATOM      8  H21 UNL     1      44.958  35.843  56.440  1.00  0.00     0.274 HD
ENDBRANCH   4   5
ENDBRANCH   3   4
BRANCH   3   9
HETATM    9  N3  UNL     1      44.922  39.425  58.580  1.00  0.00    -0.057 N 
ATOM     10  H32 UNL     1      43.950  39.732  58.614  1.00  0.00     0.278 HD
ATOM     11  H31 UNL     1      45.001  39.112  59.548  1.00  0.00     0.278 HD
BRANCH   9  12
HETATM   12  C4  UNL     1      45.830  40.492  58.267  1.00  0.00     0.238 C 
BRANCH  12  13
HETATM   13  C5  UNL     1      45.889  41.560  59.323  1.00  0.00     0.014 C 
HETATM   14  C6  UNL     1      47.079  42.444  59.027  1.00  0.00     0.034 C 
HETATM   15  C7  UNL     1      47.291  43.333  60.228  1.00  0.00     0.232 C 
HETATM   16  N4  UNL     1      46.092  44.048  60.536  1.00  0.00    -0.075 N 
HETATM   17  C8  UNL     1      45.033  43.855  59.596  1.00  0.00     0.232 C 
ATOM     18  H42 UNL     1      45.776  43.823  61.479  1.00  0.00     0.277 HD
ATOM     19  H41 UNL     1      46.290  45.042  60.651  1.00  0.00     0.277 HD
HETATM   20  C9  UNL     1      44.667  42.406  59.399  1.00  0.00     0.034 C 
ENDBRANCH  12  13
ENDBRANCH   9  12
ENDBRANCH   3   9
TORSDOF 5
ENDMDL
MODEL 3
REMARK VINA RESULT: -5.341742380      0.886      1.860
REMARK  5 active torsions:
REMARK  status: ('A' for Active; 'I' for Inactive)
REMARK    1  A    between atoms: C2_3  and  C3_4 
REMARK    2  A    between atoms: C2_3  and  N3_9 
REMARK    3  A    between atoms: C3_4  and  N2_5 
REMARK    4  A    between atoms: N3_9  and  C4_12 
REMARK    5  A    between atoms: C4_12  and  C5_13 
ROOT
HETATM    1  N1  UNL     1      42.166  41.532  57.623  1.00  0.00    -0.195 NA
HETATM    2  C1  UNL     1      43.242  41.163  57.851  1.00  0.00     0.094 C 
HETATM    3  C2  UNL     1      44.612  40.710  58.120  1.00  0.00     0.316 C 
ENDROOT
BRANCH   3   4
HETATM    4  C3  UNL     1      44.709  39.208  58.136  1.00  0.00     0.277 C 
BRANCH   4   5
HETATM    5  N2  UNL     1      44.778  38.638  56.807  1.00  0.00    -0.076 N 
ATOM      6  H23 UNL     1      45.740  38.403  56.559  1.00  0.00     0.274 HD
ATOM      7  H22 UNL     1      44.370  37.704  56.788  1.00  0.00     0.274 HD
ATOM      8  H21 UNL     1      44.355  39.237  56.099  1.00  0.00     0.274 HD
ENDBRANCH   4   5
ENDBRANCH   3   4
BRANCH   3   9
HETATM    9  N3  UNL     1      45.018  41.314  59.362  1.00  0.00    -0.057 N 
ATOM     10  H32 UNL     1      44.338  41.174  60.110  1.00  0.00     0.278 HD
ATOM     11  H31 UNL     1      45.803  40.831  59.799  1.00  0.00     0.278 HD
BRANCH   9  12
HETATM   12  C4  UNL     1      45.290  42.702  59.114  1.00  0.00     0.238 C 
BRANCH  12  13
HETATM   13  C5  UNL     1      46.619  43.158  59.646  1.00  0.00     0.014 C 
HETATM   14  C6  UNL     1      46.521  43.224  61.153  1.00  0.00     0.034 C 
HETATM   15  C7  UNL     1      47.753  43.938  61.655  1.00  0.00     0.232 C 
HETATM   16  N4  UNL     1      48.933  43.294  61.173  1.00  0.00    -0.075 N 
HETATM   17  C8  UNL     1      48.690  42.087  60.445  1.00  0.00     0.232 C 
ATOM     18  H42 UNL     1      49.489  43.940  60.614  1.00  0.00     0.277 HD
ATOM     19  H41 UNL     1      49.583  43.122  61.940  1.00  0.00     0.277 HD
HETATM   20  C9  UNL     1      47.758  42.274  59.276  1.00  0.00     0.034 C 
ENDBRANCH  12  13
ENDBRANCH   9  12
ENDBRANCH   3   9
TORSDOF 5
ENDMDL
MODEL 4
REMARK VINA RESULT: -5.170691499      1.065      2.359
REMARK  5 active torsions:
REMARK  status: ('A' for Active; 'I' for Inactive)
REMARK    1  A    between atoms: C2_3  and  C3_4 
REMARK    2  A    between atoms: C2_3  and  N3_9 
REMARK    3  A    between atoms: C3_4  and  N2_5 
REMARK    4  A    between atoms: N3_9  and  C4_12 
REMARK    5  A    between atoms: C4_12  and  C5_13 
ROOT
HETATM    1  N1  UNL     1      42.778  41.361  57.531  1.00  0.00    -0.195 NA
HETATM    2  C1  UNL     1      43.649  40.597  57.486  1.00  0.00     0.094 C 
HETATM    3  C2  UNL     1      44.761  39.641  57.410  1.00  0.00     0.316 C 
ENDROOT
BRANCH   3   4
HETATM    4  C3  UNL     1      44.271  38.225  57.273  1.00  0.00     0.277 C 
BRANCH   4   5
HETATM    5  N2  UNL     1      44.718  37.372  58.354  1.00  0.00    -0.076 N 
ATOM      6  H23 UNL     1      43.992  36.704  58.617  1.00  0.00     0.274 HD
ATOM      7  H22 UNL     1      45.433  36.720  58.033  1.00  0.00     0.274 HD
ATOM      8  H21 UNL     1      45.040  37.899  59.165  1.00  0.00     0.274 HD
ENDBRANCH   4   5
ENDBRANCH   3   4
BRANCH   3   9
HETATM    9  N3  UNL     1      45.572  39.846  58.582  1.00  0.00    -0.057 N 
ATOM     10  H32 UNL     1      45.036  39.781  59.448  1.00  0.00     0.278 HD
ATOM     11  H31 UNL     1      46.213  39.073  58.759  1.00  0.00     0.278 HD
BRANCH   9  12
HETATM   12  C4  UNL     1      46.247  41.105  58.441  1.00  0.00     0.238 C 
BRANCH  12  13
HETATM   13  C5  UNL     1      46.800  41.638  59.733  1.00  0.00     0.014 C 
HETATM   14  C6  UNL     1      48.233  42.053  59.492  1.00  0.00     0.034 C 
HETATM   15  C7  UNL     1      48.858  42.324  60.840  1.00  0.00     0.232 C 
HETATM   16  N4  UNL     1      48.084  43.283  61.563  1.00  0.00    -0.075 N 
HETATM   17  C8  UNL     1      46.995  43.840  60.824  1.00  0.00     0.232 C 
ATOM     18  H42 UNL     1      47.752  42.884  62.441  1.00  0.00     0.277 HD
ATOM     19  H41 UNL     1      48.685  44.024  61.925  1.00  0.00     0.277 HD
HETATM   20  C9  UNL     1      46.048  42.799  60.283  1.00  0.00     0.034 C 
ENDBRANCH  12  13
ENDBRANCH   9  12
ENDBRANCH   3   9
TORSDOF 5
ENDMDL
MODEL 5
REMARK VINA RESULT: -5.165383733      1.775      2.564
REMARK  5 active torsions:
REMARK  status: ('A' for Active; 'I' for Inactive)
REMARK    1  A    between atoms: C2_3  and  C3_4 
REMARK    2  A    between atoms: C2_3  and  N3_9 
REMARK    3  A    between atoms: C3_4  and  N2_5 
REMARK    4  A    between atoms: N3_9  and  C4_12 
REMARK    5  A    between atoms: C4_12  and  C5_13 
ROOT
HETATM    1  N1  UNL     1      44.410  39.288  55.213  1.00  0.00    -0.195 NA
HETATM    2  C1  UNL     1      44.719  38.883  56.255  1.00  0.00     0.094 C 
HETATM    3  C2  UNL     1      45.134  38.369  57.566  1.00  0.00     0.316 C 
ENDROOT
BRANCH   3   4
HETATM    4  C3  UNL     1      44.369  37.131  57.946  1.00  0.00     0.277 C 
BRANCH   4   5
HETATM    5  N2  UNL     1      44.101  36.269  56.814  1.00  0.00    -0.076 N 
ATOM      6  H23 UNL     1      43.177  35.842  56.888  1.00  0.00     0.274 HD
ATOM      7  H22 UNL     1      43.963  36.814  55.964  1.00  0.00     0.274 HD
ATOM      8  H21 UNL     1      44.821  35.559  56.680  1.00  0.00     0.274 HD
ENDBRANCH   4   5
ENDBRANCH   3   4
BRANCH   3   9
HETATM    9  N3  UNL     1      44.972  39.444  58.509  1.00  0.00    -0.057 N 
ATOM     10  H32 UNL     1      44.334  40.168  58.177  1.00  0.00     0.278 HD
ATOM     11  H31 UNL     1      44.444  39.167  59.337  1.00  0.00     0.278 HD
BRANCH   9  12
HETATM   12  C4  UNL     1      46.274  39.957  58.828  1.00  0.00     0.238 C 
BRANCH  12  13
HETATM   13  C5  UNL     1      46.314  41.453  58.965  1.00  0.00     0.014 C 
HETATM   14  C6  UNL     1      44.980  41.907  59.516  1.00  0.00     0.034 C 
HETATM   15  C7  UNL     1      44.929  43.410  59.392  1.00  0.00     0.232 C 
HETATM   16  N4  UNL     1      46.060  44.002  60.034  1.00  0.00    -0.075 N 
HETATM   17  C8  UNL     1      46.896  43.073  60.729  1.00  0.00     0.232 C 
ATOM     18  H42 UNL     1      46.607  44.542  59.365  1.00  0.00     0.277 HD
ATOM     19  H41 UNL     1      45.762  44.751  60.660  1.00  0.00     0.277 HD
HETATM   20  C9  UNL     1      47.397  41.954  59.855  1.00  0.00     0.034 C 
ENDBRANCH  12  13
ENDBRANCH   9  12
ENDBRANCH   3   9
TORSDOF 5
ENDMDL
