MODEL 1
REMARK VINA RESULT: -10.436174242      0.000      0.000
REMARK  16 active torsions:
REMARK  status: ('A' for Active; 'I' for Inactive)
REMARK    1  A    between atoms: O1_2  and  C2_3 
REMARK    2  A    between atoms: C4_5  and  C5_6 
REMARK    3  A    between atoms: N1_11  and  C8_12 
REMARK    4  A    between atoms: C8_12  and  C9_13 
REMARK       I    between atoms: C9_13  and  N2_15 
REMARK    5  A    between atoms: N2_15  and  N3_17 
REMARK       I    between atoms: N3_17  and  C10_19 
REMARK       I    between atoms: C10_19  and  N4_21 
REMARK    6  A    between atoms: N4_21  and  C11_23 
REMARK    7  A    between atoms: C13_25  and  O5_26 
REMARK    8  A    between atoms: C14_28  and  C15_29 
REMARK    9  A    between atoms: C15_29  and  O7_31 
REMARK   10  A    between atoms: O7_31  and  C16_32 
REMARK   11  A    between atoms: C16_32  and  C18_34 
REMARK   12  A    between atoms: C20_36  and  C21_37 
REMARK   13  A    between atoms: C21_37  and  C22_38 
REMARK   14  A    between atoms: C25_41  and  O8_42 
REMARK   15  A    between atoms: C30_48  and  O10_49 
REMARK   16  A    between atoms: C32_51  and  O11_52 
ROOT
HETATM    1  N3  UNL     1      12.981   1.883  -6.283  1.00  0.00    -0.249 N 
ATOM      2  H3  UNL     1      12.025   1.752  -5.950  1.00  0.00     0.192 HD
HETATM    3  C10 UNL     1      13.979   0.899  -5.956  1.00  0.00     0.339 C 
HETATM    4  O4  UNL     1      15.135   1.095  -6.375  1.00  0.00    -0.245 OA
HETATM    5  N4  UNL     1      13.572  -0.213  -5.185  1.00  0.00    -0.307 N 
ATOM      6  H4  UNL     1      12.590  -0.248  -4.909  1.00  0.00     0.170 HD
ENDROOT
BRANCH   1   7
HETATM    7  N2  UNL     1      13.286   2.999  -7.037  1.00  0.00    -0.265 N 
HETATM    8  C9  UNL     1      13.244   4.328  -6.545  1.00  0.00     0.254 C 
HETATM    9  O3  UNL     1      12.943   4.608  -5.369  1.00  0.00    -0.270 OA
ATOM     10  H2  UNL     1      13.558   2.859  -8.011  1.00  0.00     0.190 HD
BRANCH   8  11
HETATM   11  C8  UNL     1      13.568   5.445  -7.469  1.00  0.00     0.240 C 
BRANCH  11  12
HETATM   12  N1  UNL     1      12.477   5.636  -8.445  1.00  0.00    -0.265 N 
HETATM   13  C7  UNL     1      11.545   6.665  -8.266  1.00  0.00     0.294 A 
HETATM   14  S1  UNL     1      10.487   6.623  -9.700  1.00  0.00    -0.023 SA
HETATM   15  O2  UNL     1      11.414   7.487  -7.327  1.00  0.00    -0.259 OA
HETATM   16  C6  UNL     1      11.237   5.151 -10.459  1.00  0.00     0.079 A 
HETATM   17  C5  UNL     1      10.802   4.626 -11.578  1.00  0.00     0.036 C 
HETATM   18  C28 UNL     1      12.340   4.837  -9.572  1.00  0.00     0.268 A 
HETATM   19  O9  UNL     1      13.141   3.858  -9.847  1.00  0.00    -0.266 OA
BRANCH  17  20
HETATM   20  C4  UNL     1      11.303   3.470 -12.275  1.00  0.00    -0.029 A 
HETATM   21  C3  UNL     1      12.237   3.440 -13.267  1.00  0.00     0.051 A 
HETATM   22  C2  UNL     1      12.598   2.252 -13.913  1.00  0.00     0.104 A 
HETATM   23  C32 UNL     1      12.013   1.061 -13.560  1.00  0.00     0.133 A 
HETATM   24  C30 UNL     1      11.071   1.057 -12.561  1.00  0.00     0.104 A 
HETATM   25  C29 UNL     1      10.731   2.230 -11.943  1.00  0.00     0.051 A 
BRANCH  22  26
HETATM   26  O1  UNL     1      13.543   2.301 -14.904  1.00  0.00    -0.353 OA
HETATM   27  C1  UNL     1      14.824   2.823 -14.742  1.00  0.00     0.210 C 
ENDBRANCH  22  26
BRANCH  23  28
HETATM   28  O11 UNL     1      12.325  -0.147 -14.158  1.00  0.00    -0.356 OA
ATOM     29  H11 UNL     1      12.139  -0.990 -13.761  1.00  0.00     0.218 HD
ENDBRANCH  23  28
BRANCH  24  30
HETATM   30  O10 UNL     1      10.454  -0.135 -12.172  1.00  0.00    -0.353 OA
HETATM   31  C31 UNL     1       9.515  -0.120 -11.097  1.00  0.00     0.210 C 
ENDBRANCH  24  30
ENDBRANCH  17  20
ENDBRANCH  11  12
ENDBRANCH   8  11
ENDBRANCH   1   7
BRANCH   5  32
HETATM   32  C11 UNL     1      14.395  -1.282  -4.762  1.00  0.00     0.041 A 
HETATM   33  C12 UNL     1      15.035  -1.358  -3.557  1.00  0.00     0.067 A 
HETATM   34  C13 UNL     1      15.863  -2.468  -3.238  1.00  0.00     0.086 A 
HETATM   35  C14 UNL     1      16.056  -3.497  -4.111  1.00  0.00     0.105 A 
HETATM   36  C25 UNL     1      15.383  -3.394  -5.340  1.00  0.00     0.089 A 
HETATM   37  C27 UNL     1      14.599  -2.344  -5.646  1.00  0.00     0.067 A 
BRANCH  34  38
HETATM   38  O5  UNL     1      16.449  -2.423  -2.000  1.00  0.00    -0.359 OA
ATOM     39  H5  UNL     1      15.851  -2.497  -1.265  1.00  0.00     0.217 HD
ENDBRANCH  34  38
BRANCH  35  40
HETATM   40  C15 UNL     1      16.886  -4.655  -3.873  1.00  0.00     0.299 C 
HETATM   41  O6  UNL     1      17.848  -5.013  -4.576  1.00  0.00    -0.259 OA
BRANCH  40  42
HETATM   42  O7  UNL     1      16.613  -5.464  -2.774  1.00  0.00    -0.308 OA
BRANCH  42  43
HETATM   43  C16 UNL     1      15.689  -6.468  -2.662  1.00  0.00     0.156 C 
HETATM   44  C17 UNL     1      15.387  -7.117  -4.037  1.00  0.00     0.045 C 
BRANCH  43  45
HETATM   45  C18 UNL     1      16.024  -7.562  -1.710  1.00  0.00    -0.059 C 
HETATM   46  C19 UNL     1      17.495  -7.857  -1.579  1.00  0.00     0.046 C 
HETATM   47  C20 UNL     1      15.176  -8.253  -0.992  1.00  0.00    -0.021 C 
BRANCH  47  48
HETATM   48  C21 UNL     1      13.705  -8.103  -0.958  1.00  0.00     0.031 C 
BRANCH  48  49
HETATM   49  C22 UNL     1      13.130  -8.750   0.305  1.00  0.00    -0.019 C 
HETATM   50  C23 UNL     1      14.271  -9.108   1.214  1.00  0.00     0.010 C 
HETATM   51  C24 UNL     1      12.260  -9.938  -0.047  1.00  0.00     0.010 C 
ENDBRANCH  48  49
ENDBRANCH  47  48
ENDBRANCH  43  45
ENDBRANCH  42  43
ENDBRANCH  40  42
ENDBRANCH  35  40
BRANCH  36  52
HETATM   52  O8  UNL     1      15.552  -4.424  -6.252  1.00  0.00    -0.355 OA
HETATM   53  C26 UNL     1      15.567  -4.200  -7.624  1.00  0.00     0.210 C 
ENDBRANCH  36  52
ENDBRANCH   5  32
TORSDOF 16
ENDMDL
MODEL 2
REMARK VINA RESULT: -10.329937287      4.749     13.637
REMARK  16 active torsions:
REMARK  status: ('A' for Active; 'I' for Inactive)
REMARK    1  A    between atoms: O1_2  and  C2_3 
REMARK    2  A    between atoms: C4_5  and  C5_6 
REMARK    3  A    between atoms: N1_11  and  C8_12 
REMARK    4  A    between atoms: C8_12  and  C9_13 
REMARK       I    between atoms: C9_13  and  N2_15 
REMARK    5  A    between atoms: N2_15  and  N3_17 
REMARK       I    between atoms: N3_17  and  C10_19 
REMARK       I    between atoms: C10_19  and  N4_21 
REMARK    6  A    between atoms: N4_21  and  C11_23 
REMARK    7  A    between atoms: C13_25  and  O5_26 
REMARK    8  A    between atoms: C14_28  and  C15_29 
REMARK    9  A    between atoms: C15_29  and  O7_31 
REMARK   10  A    between atoms: O7_31  and  C16_32 
REMARK   11  A    between atoms: C16_32  and  C18_34 
REMARK   12  A    between atoms: C20_36  and  C21_37 
REMARK   13  A    between atoms: C21_37  and  C22_38 
REMARK   14  A    between atoms: C25_41  and  O8_42 
REMARK   15  A    between atoms: C30_48  and  O10_49 
REMARK   16  A    between atoms: C32_51  and  O11_52 
ROOT
HETATM    1  N3  UNL     1      12.752   5.112  -5.790  1.00  0.00    -0.249 N 
ATOM      2  H3  UNL     1      12.069   5.474  -5.124  1.00  0.00     0.192 HD
HETATM    3  C10 UNL     1      12.696   5.547  -7.160  1.00  0.00     0.339 C 
HETATM    4  O4  UNL     1      13.543   5.082  -7.945  1.00  0.00    -0.245 OA
HETATM    5  N4  UNL     1      11.685   6.470  -7.511  1.00  0.00    -0.307 N 
ATOM      6  H4  UNL     1      11.056   6.771  -6.766  1.00  0.00     0.170 HD
ENDROOT
BRANCH   1   7
HETATM    7  N2  UNL     1      13.711   4.218  -5.354  1.00  0.00    -0.265 N 
HETATM    8  C9  UNL     1      13.486   3.234  -4.358  1.00  0.00     0.254 C 
HETATM    9  O3  UNL     1      12.387   3.075  -3.795  1.00  0.00    -0.270 OA
ATOM     10  H2  UNL     1      14.639   4.268  -5.775  1.00  0.00     0.190 HD
BRANCH   8  11
HETATM   11  C8  UNL     1      14.611   2.350  -3.959  1.00  0.00     0.240 C 
BRANCH  11  12
HETATM   12  N1  UNL     1      14.438   1.003  -4.539  1.00  0.00    -0.265 N 
HETATM   13  C7  UNL     1      14.650  -0.134  -3.751  1.00  0.00     0.294 A 
HETATM   14  S1  UNL     1      14.230  -1.528  -4.780  1.00  0.00    -0.023 SA
HETATM   15  O2  UNL     1      15.049  -0.237  -2.566  1.00  0.00    -0.259 OA
HETATM   16  C6  UNL     1      13.889  -0.569  -6.286  1.00  0.00     0.079 A 
HETATM   17  C5  UNL     1      13.552  -1.125  -7.424  1.00  0.00     0.036 C 
HETATM   18  C28 UNL     1      14.043   0.807  -5.855  1.00  0.00     0.268 A 
HETATM   19  O9  UNL     1      13.814   1.779  -6.678  1.00  0.00    -0.266 OA
BRANCH  17  20
HETATM   20  C4  UNL     1      13.261  -0.482  -8.679  1.00  0.00    -0.029 A 
HETATM   21  C3  UNL     1      12.046  -0.068  -9.137  1.00  0.00     0.051 A 
HETATM   22  C2  UNL     1      11.882   0.491 -10.410  1.00  0.00     0.104 A 
HETATM   23  C32 UNL     1      12.959   0.643 -11.248  1.00  0.00     0.133 A 
HETATM   24  C30 UNL     1      14.198   0.240 -10.815  1.00  0.00     0.104 A 
HETATM   25  C29 UNL     1      14.336  -0.306  -9.568  1.00  0.00     0.051 A 
BRANCH  22  26
HETATM   26  O1  UNL     1      10.629   0.882 -10.802  1.00  0.00    -0.353 OA
HETATM   27  C1  UNL     1       9.691   0.040 -11.392  1.00  0.00     0.210 C 
ENDBRANCH  22  26
BRANCH  23  28
HETATM   28  O11 UNL     1      12.865   1.189 -12.517  1.00  0.00    -0.356 OA
ATOM     29  H11 UNL     1      13.601   1.249 -13.115  1.00  0.00     0.218 HD
ENDBRANCH  23  28
BRANCH  24  30
HETATM   30  O10 UNL     1      15.318   0.379 -11.638  1.00  0.00    -0.353 OA
HETATM   31  C31 UNL     1      16.280   1.393 -11.348  1.00  0.00     0.210 C 
ENDBRANCH  24  30
ENDBRANCH  17  20
ENDBRANCH  11  12
ENDBRANCH   8  11
ENDBRANCH   1   7
BRANCH   5  32
HETATM   32  C11 UNL     1      11.462   7.016  -8.796  1.00  0.00     0.041 A 
HETATM   33  C12 UNL     1      11.682   8.317  -9.152  1.00  0.00     0.067 A 
HETATM   34  C13 UNL     1      11.401   8.773 -10.468  1.00  0.00     0.086 A 
HETATM   35  C14 UNL     1      10.903   7.941 -11.427  1.00  0.00     0.105 A 
HETATM   36  C25 UNL     1      10.689   6.609 -11.034  1.00  0.00     0.089 A 
HETATM   37  C27 UNL     1      10.954   6.174  -9.789  1.00  0.00     0.067 A 
BRANCH  34  38
HETATM   38  O5  UNL     1      11.663  10.099 -10.696  1.00  0.00    -0.359 OA
ATOM     39  H5  UNL     1      12.105  10.290 -11.515  1.00  0.00     0.217 HD
ENDBRANCH  34  38
BRANCH  35  40
HETATM   40  C15 UNL     1      10.580   8.321 -12.782  1.00  0.00     0.299 C 
HETATM   41  O6  UNL     1      10.324   7.537 -13.713  1.00  0.00    -0.259 OA
BRANCH  40  42
HETATM   42  O7  UNL     1      10.544   9.673 -13.111  1.00  0.00    -0.308 OA
BRANCH  42  43
HETATM   43  C16 UNL     1       9.464  10.438 -13.460  1.00  0.00     0.156 C 
HETATM   44  C17 UNL     1       8.217   9.563 -13.742  1.00  0.00     0.045 C 
BRANCH  43  45
HETATM   45  C18 UNL     1       9.066  11.491 -12.485  1.00  0.00    -0.059 C 
HETATM   46  C19 UNL     1       8.676  10.976 -11.124  1.00  0.00     0.046 C 
HETATM   47  C20 UNL     1       9.044  12.781 -12.701  1.00  0.00    -0.021 C 
BRANCH  47  48
HETATM   48  C21 UNL     1       9.410  13.483 -13.951  1.00  0.00     0.031 C 
BRANCH  48  49
HETATM   49  C22 UNL     1      10.328  14.670 -13.648  1.00  0.00    -0.019 C 
HETATM   50  C23 UNL     1       9.472  15.848 -13.276  1.00  0.00     0.010 C 
HETATM   51  C24 UNL     1      11.245  14.953 -14.820  1.00  0.00     0.010 C 
ENDBRANCH  48  49
ENDBRANCH  47  48
ENDBRANCH  43  45
ENDBRANCH  42  43
ENDBRANCH  40  42
ENDBRANCH  35  40
BRANCH  36  52
HETATM   52  O8  UNL     1      10.187   5.733 -11.984  1.00  0.00    -0.355 OA
HETATM   53  C26 UNL     1      10.560   4.394 -12.024  1.00  0.00     0.210 C 
ENDBRANCH  36  52
ENDBRANCH   5  32
TORSDOF 16
ENDMDL
MODEL 3
REMARK VINA RESULT: -10.324354370      0.461      1.963
REMARK  16 active torsions:
REMARK  status: ('A' for Active; 'I' for Inactive)
REMARK    1  A    between atoms: O1_2  and  C2_3 
REMARK    2  A    between atoms: C4_5  and  C5_6 
REMARK    3  A    between atoms: N1_11  and  C8_12 
REMARK    4  A    between atoms: C8_12  and  C9_13 
REMARK       I    between atoms: C9_13  and  N2_15 
REMARK    5  A    between atoms: N2_15  and  N3_17 
REMARK       I    between atoms: N3_17  and  C10_19 
REMARK       I    between atoms: C10_19  and  N4_21 
REMARK    6  A    between atoms: N4_21  and  C11_23 
REMARK    7  A    between atoms: C13_25  and  O5_26 
REMARK    8  A    between atoms: C14_28  and  C15_29 
REMARK    9  A    between atoms: C15_29  and  O7_31 
REMARK   10  A    between atoms: O7_31  and  C16_32 
REMARK   11  A    between atoms: C16_32  and  C18_34 
REMARK   12  A    between atoms: C20_36  and  C21_37 
REMARK   13  A    between atoms: C21_37  and  C22_38 
REMARK   14  A    between atoms: C25_41  and  O8_42 
REMARK   15  A    between atoms: C30_48  and  O10_49 
REMARK   16  A    between atoms: C32_51  and  O11_52 
ROOT
HETATM    1  N3  UNL     1      12.904   1.834  -6.499  1.00  0.00    -0.249 N 
ATOM      2  H3  UNL     1      11.925   1.642  -6.285  1.00  0.00     0.192 HD
HETATM    3  C10 UNL     1      13.913   0.904  -6.068  1.00  0.00     0.339 C 
HETATM    4  O4  UNL     1      15.097   1.174  -6.343  1.00  0.00    -0.245 OA
HETATM    5  N4  UNL     1      13.484  -0.245  -5.366  1.00  0.00    -0.307 N 
ATOM      6  H4  UNL     1      12.481  -0.342  -5.210  1.00  0.00     0.170 HD
ENDROOT
BRANCH   1   7
HETATM    7  N2  UNL     1      13.229   2.982  -7.197  1.00  0.00    -0.265 N 
HETATM    8  C9  UNL     1      13.212   4.284  -6.639  1.00  0.00     0.254 C 
HETATM    9  O3  UNL     1      12.917   4.510  -5.450  1.00  0.00    -0.270 OA
ATOM     10  H2  UNL     1      13.498   2.885  -8.177  1.00  0.00     0.190 HD
BRANCH   8  11
HETATM   11  C8  UNL     1      13.556   5.440  -7.506  1.00  0.00     0.240 C 
BRANCH  11  12
HETATM   12  N1  UNL     1      12.454   5.722  -8.447  1.00  0.00    -0.265 N 
HETATM   13  C7  UNL     1      11.618   6.826  -8.241  1.00  0.00     0.294 A 
HETATM   14  S1  UNL     1      10.514   6.872  -9.640  1.00  0.00    -0.023 SA
HETATM   15  O2  UNL     1      11.587   7.655  -7.301  1.00  0.00    -0.259 OA
HETATM   16  C6  UNL     1      11.113   5.342 -10.418  1.00  0.00     0.079 A 
HETATM   17  C5  UNL     1      10.599   4.855 -11.520  1.00  0.00     0.036 C 
HETATM   18  C28 UNL     1      12.214   4.936  -9.567  1.00  0.00     0.268 A 
HETATM   19  O9  UNL     1      12.920   3.893  -9.864  1.00  0.00    -0.266 OA
BRANCH  17  20
HETATM   20  C4  UNL     1      10.978   3.660 -12.230  1.00  0.00    -0.029 A 
HETATM   21  C3  UNL     1      10.623   2.376 -11.941  1.00  0.00     0.051 A 
HETATM   22  C2  UNL     1      11.110   1.288 -12.674  1.00  0.00     0.104 A 
HETATM   23  C32 UNL     1      11.974   1.484 -13.723  1.00  0.00     0.133 A 
HETATM   24  C30 UNL     1      12.348   2.766 -14.042  1.00  0.00     0.104 A 
HETATM   25  C29 UNL     1      11.861   3.817 -13.312  1.00  0.00     0.051 A 
BRANCH  22  26
HETATM   26  O1  UNL     1      10.710   0.025 -12.323  1.00  0.00    -0.353 OA
HETATM   27  C1  UNL     1       9.753  -0.255 -11.352  1.00  0.00     0.210 C 
ENDBRANCH  22  26
BRANCH  23  28
HETATM   28  O11 UNL     1      12.490   0.453 -14.487  1.00  0.00    -0.356 OA
ATOM     29  H11 UNL     1      12.419   0.417 -15.434  1.00  0.00     0.218 HD
ENDBRANCH  23  28
BRANCH  24  30
HETATM   30  O10 UNL     1      13.223   3.008 -15.104  1.00  0.00    -0.353 OA
HETATM   31  C31 UNL     1      14.631   2.931 -14.884  1.00  0.00     0.210 C 
ENDBRANCH  24  30
ENDBRANCH  17  20
ENDBRANCH  11  12
ENDBRANCH   8  11
ENDBRANCH   1   7
BRANCH   5  32
HETATM   32  C11 UNL     1      14.314  -1.273  -4.861  1.00  0.00     0.041 A 
HETATM   33  C12 UNL     1      14.911  -1.277  -3.632  1.00  0.00     0.067 A 
HETATM   34  C13 UNL     1      15.750  -2.350  -3.229  1.00  0.00     0.086 A 
HETATM   35  C14 UNL     1      15.996  -3.416  -4.043  1.00  0.00     0.105 A 
HETATM   36  C25 UNL     1      15.368  -3.387  -5.300  1.00  0.00     0.089 A 
HETATM   37  C27 UNL     1      14.574  -2.372  -5.685  1.00  0.00     0.067 A 
BRANCH  34  38
HETATM   38  O5  UNL     1      16.288  -2.231  -1.974  1.00  0.00    -0.359 OA
ATOM     39  H5  UNL     1      17.235  -2.295  -1.931  1.00  0.00     0.217 HD
ENDBRANCH  34  38
BRANCH  35  40
HETATM   40  C15 UNL     1      16.841  -4.541  -3.719  1.00  0.00     0.299 C 
HETATM   41  O6  UNL     1      17.834  -4.912  -4.370  1.00  0.00    -0.259 OA
BRANCH  40  42
HETATM   42  O7  UNL     1      16.548  -5.299  -2.589  1.00  0.00    -0.308 OA
BRANCH  42  43
HETATM   43  C16 UNL     1      15.762  -6.416  -2.491  1.00  0.00     0.156 C 
HETATM   44  C17 UNL     1      15.534  -7.071  -3.876  1.00  0.00     0.045 C 
BRANCH  43  45
HETATM   45  C18 UNL     1      16.244  -7.475  -1.563  1.00  0.00    -0.059 C 
HETATM   46  C19 UNL     1      17.721  -7.764  -1.645  1.00  0.00     0.046 C 
HETATM   47  C20 UNL     1      15.519  -8.140  -0.701  1.00  0.00    -0.021 C 
BRANCH  47  48
HETATM   48  C21 UNL     1      14.069  -7.991  -0.450  1.00  0.00     0.031 C 
BRANCH  48  49
HETATM   49  C22 UNL     1      13.301  -9.184  -1.026  1.00  0.00    -0.019 C 
HETATM   50  C23 UNL     1      12.724  -8.780  -2.353  1.00  0.00     0.010 C 
HETATM   51  C24 UNL     1      12.251  -9.670  -0.049  1.00  0.00     0.010 C 
ENDBRANCH  48  49
ENDBRANCH  47  48
ENDBRANCH  43  45
ENDBRANCH  42  43
ENDBRANCH  40  42
ENDBRANCH  35  40
BRANCH  36  52
HETATM   52  O8  UNL     1      15.593  -4.456  -6.153  1.00  0.00    -0.355 OA
HETATM   53  C26 UNL     1      15.599  -4.308  -7.535  1.00  0.00     0.210 C 
ENDBRANCH  36  52
ENDBRANCH   5  32
TORSDOF 16
ENDMDL
MODEL 4
REMARK VINA RESULT: -10.306842092      4.868     13.560
REMARK  16 active torsions:
REMARK  status: ('A' for Active; 'I' for Inactive)
REMARK    1  A    between atoms: O1_2  and  C2_3 
REMARK    2  A    between atoms: C4_5  and  C5_6 
REMARK    3  A    between atoms: N1_11  and  C8_12 
REMARK    4  A    between atoms: C8_12  and  C9_13 
REMARK       I    between atoms: C9_13  and  N2_15 
REMARK    5  A    between atoms: N2_15  and  N3_17 
REMARK       I    between atoms: N3_17  and  C10_19 
REMARK       I    between atoms: C10_19  and  N4_21 
REMARK    6  A    between atoms: N4_21  and  C11_23 
REMARK    7  A    between atoms: C13_25  and  O5_26 
REMARK    8  A    between atoms: C14_28  and  C15_29 
REMARK    9  A    between atoms: C15_29  and  O7_31 
REMARK   10  A    between atoms: O7_31  and  C16_32 
REMARK   11  A    between atoms: C16_32  and  C18_34 
REMARK   12  A    between atoms: C20_36  and  C21_37 
REMARK   13  A    between atoms: C21_37  and  C22_38 
REMARK   14  A    between atoms: C25_41  and  O8_42 
REMARK   15  A    between atoms: C30_48  and  O10_49 
REMARK   16  A    between atoms: C32_51  and  O11_52 
ROOT
HETATM    1  N3  UNL     1      12.832   5.323  -5.786  1.00  0.00    -0.249 N 
ATOM      2  H3  UNL     1      12.202   5.752  -5.108  1.00  0.00     0.192 HD
HETATM    3  C10 UNL     1      12.735   5.700  -7.171  1.00  0.00     0.339 C 
HETATM    4  O4  UNL     1      13.517   5.152  -7.970  1.00  0.00    -0.245 OA
HETATM    5  N4  UNL     1      11.762   6.664  -7.519  1.00  0.00    -0.307 N 
ATOM      6  H4  UNL     1      11.187   7.033  -6.761  1.00  0.00     0.170 HD
ENDROOT
BRANCH   1   7
HETATM    7  N2  UNL     1      13.758   4.394  -5.353  1.00  0.00    -0.265 N 
HETATM    8  C9  UNL     1      13.522   3.462  -4.311  1.00  0.00     0.254 C 
HETATM    9  O3  UNL     1      12.440   3.386  -3.699  1.00  0.00    -0.270 OA
ATOM     10  H2  UNL     1      14.670   4.377  -5.811  1.00  0.00     0.190 HD
BRANCH   8  11
HETATM   11  C8  UNL     1      14.614   2.534  -3.920  1.00  0.00     0.240 C 
BRANCH  11  12
HETATM   12  N1  UNL     1      14.356   1.183  -4.457  1.00  0.00    -0.265 N 
HETATM   13  C7  UNL     1      14.383   0.071  -3.607  1.00  0.00     0.294 A 
HETATM   14  S1  UNL     1      13.915  -1.325  -4.612  1.00  0.00    -0.023 SA
HETATM   15  O2  UNL     1      14.664  -0.011  -2.387  1.00  0.00    -0.259 OA
HETATM   16  C6  UNL     1      13.806  -0.414  -6.181  1.00  0.00     0.079 A 
HETATM   17  C5  UNL     1      13.515  -0.991  -7.321  1.00  0.00     0.036 C 
HETATM   18  C28 UNL     1      14.060   0.960  -5.795  1.00  0.00     0.268 A 
HETATM   19  O9  UNL     1      14.004   1.907  -6.675  1.00  0.00    -0.266 OA
BRANCH  17  20
HETATM   20  C4  UNL     1      13.401  -0.387  -8.624  1.00  0.00    -0.029 A 
HETATM   21  C3  UNL     1      14.403  -0.147  -9.516  1.00  0.00     0.051 A 
HETATM   22  C2  UNL     1      14.174   0.508 -10.732  1.00  0.00     0.104 A 
HETATM   23  C32 UNL     1      12.912   0.933 -11.068  1.00  0.00     0.133 A 
HETATM   24  C30 UNL     1      11.881   0.702 -10.193  1.00  0.00     0.104 A 
HETATM   25  C29 UNL     1      12.126   0.062  -9.008  1.00  0.00     0.051 A 
BRANCH  22  26
HETATM   26  O1  UNL     1      15.232   0.716 -11.578  1.00  0.00    -0.353 OA
HETATM   27  C1  UNL     1      16.311   1.549 -11.297  1.00  0.00     0.210 C 
ENDBRANCH  22  26
BRANCH  23  28
HETATM   28  O11 UNL     1      12.619   1.584 -12.253  1.00  0.00    -0.356 OA
ATOM     29  H11 UNL     1      11.792   1.487 -12.712  1.00  0.00     0.218 HD
ENDBRANCH  23  28
BRANCH  24  30
HETATM   30  O10 UNL     1      10.583   1.117 -10.499  1.00  0.00    -0.353 OA
HETATM   31  C31 UNL     1       9.643   0.169 -11.006  1.00  0.00     0.210 C 
ENDBRANCH  24  30
ENDBRANCH  17  20
ENDBRANCH  11  12
ENDBRANCH   8  11
ENDBRANCH   1   7
BRANCH   5  32
HETATM   32  C11 UNL     1      11.510   7.165  -8.817  1.00  0.00     0.041 A 
HETATM   33  C12 UNL     1      11.727   8.451  -9.225  1.00  0.00     0.067 A 
HETATM   34  C13 UNL     1      11.415   8.861 -10.549  1.00  0.00     0.086 A 
HETATM   35  C14 UNL     1      10.889   7.999 -11.465  1.00  0.00     0.105 A 
HETATM   36  C25 UNL     1      10.679   6.683 -11.019  1.00  0.00     0.089 A 
HETATM   37  C27 UNL     1      10.972   6.291  -9.766  1.00  0.00     0.067 A 
BRANCH  34  38
HETATM   38  O5  UNL     1      11.679  10.176 -10.831  1.00  0.00    -0.359 OA
ATOM     39  H5  UNL     1      12.131  10.332 -11.652  1.00  0.00     0.217 HD
ENDBRANCH  34  38
BRANCH  35  40
HETATM   40  C15 UNL     1      10.534   8.332 -12.824  1.00  0.00     0.299 C 
HETATM   41  O6  UNL     1      10.255   7.516 -13.721  1.00  0.00    -0.259 OA
BRANCH  40  42
HETATM   42  O7  UNL     1      10.492   9.672 -13.199  1.00  0.00    -0.308 OA
BRANCH  42  43
HETATM   43  C16 UNL     1       9.399  10.437 -13.508  1.00  0.00     0.156 C 
HETATM   44  C17 UNL     1       8.141   9.562 -13.737  1.00  0.00     0.045 C 
BRANCH  43  45
HETATM   45  C18 UNL     1       9.042  11.495 -12.525  1.00  0.00    -0.059 C 
HETATM   46  C19 UNL     1       8.624  10.984 -11.170  1.00  0.00     0.046 C 
HETATM   47  C20 UNL     1       9.076  12.787 -12.728  1.00  0.00    -0.021 C 
BRANCH  47  48
HETATM   48  C21 UNL     1       9.477  13.486 -13.969  1.00  0.00     0.031 C 
BRANCH  48  49
HETATM   49  C22 UNL     1      10.370  14.686 -13.642  1.00  0.00    -0.019 C 
HETATM   50  C23 UNL     1       9.490  15.839 -13.252  1.00  0.00     0.010 C 
HETATM   51  C24 UNL     1      11.284  15.009 -14.806  1.00  0.00     0.010 C 
ENDBRANCH  48  49
ENDBRANCH  47  48
ENDBRANCH  43  45
ENDBRANCH  42  43
ENDBRANCH  40  42
ENDBRANCH  35  40
BRANCH  36  52
HETATM   52  O8  UNL     1      10.148   5.776 -11.924  1.00  0.00    -0.355 OA
HETATM   53  C26 UNL     1      10.372   4.409 -11.816  1.00  0.00     0.210 C 
ENDBRANCH  36  52
ENDBRANCH   5  32
TORSDOF 16
ENDMDL
MODEL 5
REMARK VINA RESULT: -10.217806902      4.133     12.614
REMARK  16 active torsions:
REMARK  status: ('A' for Active; 'I' for Inactive)
REMARK    1  A    between atoms: O1_2  and  C2_3 
REMARK    2  A    between atoms: C4_5  and  C5_6 
REMARK    3  A    between atoms: N1_11  and  C8_12 
REMARK    4  A    between atoms: C8_12  and  C9_13 
REMARK       I    between atoms: C9_13  and  N2_15 
REMARK    5  A    between atoms: N2_15  and  N3_17 
REMARK       I    between atoms: N3_17  and  C10_19 
REMARK       I    between atoms: C10_19  and  N4_21 
REMARK    6  A    between atoms: N4_21  and  C11_23 
REMARK    7  A    between atoms: C13_25  and  O5_26 
REMARK    8  A    between atoms: C14_28  and  C15_29 
REMARK    9  A    between atoms: C15_29  and  O7_31 
REMARK   10  A    between atoms: O7_31  and  C16_32 
REMARK   11  A    between atoms: C16_32  and  C18_34 
REMARK   12  A    between atoms: C20_36  and  C21_37 
REMARK   13  A    between atoms: C21_37  and  C22_38 
REMARK   14  A    between atoms: C25_41  and  O8_42 
REMARK   15  A    between atoms: C30_48  and  O10_49 
REMARK   16  A    between atoms: C32_51  and  O11_52 
ROOT
HETATM    1  N3  UNL     1      13.698  -2.933  -7.908  1.00  0.00    -0.249 N 
ATOM      2  H3  UNL     1      13.697  -3.339  -8.843  1.00  0.00     0.192 HD
HETATM    3  C10 UNL     1      13.281  -1.566  -7.734  1.00  0.00     0.339 C 
HETATM    4  O4  UNL     1      13.300  -1.104  -6.578  1.00  0.00    -0.245 OA
HETATM    5  N4  UNL     1      12.881  -0.855  -8.887  1.00  0.00    -0.307 N 
ATOM      6  H4  UNL     1      12.914  -1.358  -9.774  1.00  0.00     0.170 HD
ENDROOT
BRANCH   1   7
HETATM    7  N2  UNL     1      14.099  -3.708  -6.836  1.00  0.00    -0.265 N 
HETATM    8  C9  UNL     1      15.319  -4.429  -6.789  1.00  0.00     0.254 C 
HETATM    9  O3  UNL     1      16.155  -4.412  -7.712  1.00  0.00    -0.270 OA
ATOM     10  H2  UNL     1      13.478  -3.765  -6.029  1.00  0.00     0.190 HD
BRANCH   8  11
HETATM   11  C8  UNL     1      15.619  -5.249  -5.588  1.00  0.00     0.240 C 
BRANCH  11  12
HETATM   12  N1  UNL     1      16.232  -4.415  -4.535  1.00  0.00    -0.265 N 
HETATM   13  C7  UNL     1      17.247  -4.937  -3.726  1.00  0.00     0.294 A 
HETATM   14  S1  UNL     1      17.782  -3.594  -2.682  1.00  0.00    -0.023 SA
HETATM   15  O2  UNL     1      17.735  -6.092  -3.680  1.00  0.00    -0.259 OA
HETATM   16  C6  UNL     1      16.555  -2.386  -3.267  1.00  0.00     0.079 A 
HETATM   17  C5  UNL     1      16.466  -1.171  -2.785  1.00  0.00     0.036 C 
HETATM   18  C28 UNL     1      15.854  -3.096  -4.319  1.00  0.00     0.268 A 
HETATM   19  O9  UNL     1      14.931  -2.503  -5.005  1.00  0.00    -0.266 OA
BRANCH  17  20
HETATM   20  C4  UNL     1      15.544  -0.129  -3.158  1.00  0.00    -0.029 A 
HETATM   21  C3  UNL     1      14.204  -0.081  -2.912  1.00  0.00     0.051 A 
HETATM   22  C2  UNL     1      13.399   0.963  -3.383  1.00  0.00     0.104 A 
HETATM   23  C32 UNL     1      13.946   1.988  -4.117  1.00  0.00     0.133 A 
HETATM   24  C30 UNL     1      15.293   1.970  -4.378  1.00  0.00     0.104 A 
HETATM   25  C29 UNL     1      16.062   0.939  -3.909  1.00  0.00     0.051 A 
BRANCH  22  26
HETATM   26  O1  UNL     1      12.059   0.943  -3.099  1.00  0.00    -0.353 OA
HETATM   27  C1  UNL     1      11.221  -0.143  -3.338  1.00  0.00     0.210 C 
ENDBRANCH  22  26
BRANCH  23  28
HETATM   28  O11 UNL     1      13.206   3.048  -4.610  1.00  0.00    -0.356 OA
ATOM     29  H11 UNL     1      12.899   3.098  -5.508  1.00  0.00     0.218 HD
ENDBRANCH  23  28
BRANCH  24  30
HETATM   30  O10 UNL     1      15.886   2.995  -5.119  1.00  0.00    -0.353 OA
HETATM   31  C31 UNL     1      17.080   2.728  -5.855  1.00  0.00     0.210 C 
ENDBRANCH  24  30
ENDBRANCH  17  20
ENDBRANCH  11  12
ENDBRANCH   8  11
ENDBRANCH   1   7
BRANCH   5  32
HETATM   32  C11 UNL     1      12.440   0.488  -8.928  1.00  0.00     0.041 A 
HETATM   33  C12 UNL     1      11.319   0.934  -9.570  1.00  0.00     0.067 A 
HETATM   34  C13 UNL     1      10.977   2.313  -9.573  1.00  0.00     0.086 A 
HETATM   35  C14 UNL     1      11.745   3.246  -8.941  1.00  0.00     0.105 A 
HETATM   36  C25 UNL     1      12.890   2.760  -8.287  1.00  0.00     0.089 A 
HETATM   37  C27 UNL     1      13.217   1.455  -8.284  1.00  0.00     0.067 A 
BRANCH  34  38
HETATM   38  O5  UNL     1       9.830   2.629 -10.253  1.00  0.00    -0.359 OA
ATOM     39  H5  UNL     1       9.484   3.498 -10.083  1.00  0.00     0.217 HD
ENDBRANCH  34  38
BRANCH  35  40
HETATM   40  C15 UNL     1      11.478   4.665  -8.902  1.00  0.00     0.299 C 
HETATM   41  O6  UNL     1      10.808   5.252  -8.034  1.00  0.00    -0.259 OA
BRANCH  40  42
HETATM   42  O7  UNL     1      11.998   5.475  -9.907  1.00  0.00    -0.308 OA
BRANCH  42  43
HETATM   43  C16 UNL     1      11.324   6.248 -10.814  1.00  0.00     0.156 C 
HETATM   44  C17 UNL     1       9.848   5.797 -10.957  1.00  0.00     0.045 C 
BRANCH  43  45
HETATM   45  C18 UNL     1      11.326   7.713 -10.554  1.00  0.00    -0.059 C 
HETATM   46  C19 UNL     1      11.704   8.105  -9.150  1.00  0.00     0.046 C 
HETATM   47  C20 UNL     1      11.051   8.655 -11.419  1.00  0.00    -0.021 C 
BRANCH  47  48
HETATM   48  C21 UNL     1      10.684   8.483 -12.842  1.00  0.00     0.031 C 
BRANCH  48  49
HETATM   49  C22 UNL     1       9.829   9.659 -13.321  1.00  0.00    -0.019 C 
HETATM   50  C23 UNL     1       9.512  10.527 -12.136  1.00  0.00     0.010 C 
HETATM   51  C24 UNL     1       8.591   9.167 -14.041  1.00  0.00     0.010 C 
ENDBRANCH  48  49
ENDBRANCH  47  48
ENDBRANCH  43  45
ENDBRANCH  42  43
ENDBRANCH  40  42
ENDBRANCH  35  40
BRANCH  36  52
HETATM   52  O8  UNL     1      13.693   3.680  -7.631  1.00  0.00    -0.355 OA
HETATM   53  C26 UNL     1      14.816   4.238  -8.230  1.00  0.00     0.210 C 
ENDBRANCH  36  52
ENDBRANCH   5  32
TORSDOF 16
ENDMDL
