MODEL 1
REMARK VINA RESULT: -8.421512024      0.000      0.000
REMARK  4 active torsions:
REMARK  status: ('A' for Active; 'I' for Inactive)
REMARK    1  A    between atoms: C8_13  and  N4_14 
REMARK    2  A    between atoms: N4_14  and  C9_16 
REMARK    3  A    between atoms: C9_16  and  C10_17 
REMARK    4  A    between atoms: C10_17  and  N5_18 
ROOT
HETATM    1  C1  UNL     1      36.362   9.079  52.402  1.00  0.00     0.143 C 
HETATM    2  N1  UNL     1      36.560   7.676  52.414  1.00  0.00    -0.416 N 
HETATM    3  C2  UNL     1      35.934   6.957  51.347  1.00  0.00     0.116 C 
HETATM    4  C3  UNL     1      36.155   7.528  49.990  1.00  0.00     0.024 C 
HETATM    5  C4  UNL     1      36.791   6.489  49.090  1.00  0.00     0.046 C 
HETATM    6  C5  UNL     1      38.048   6.020  49.687  1.00  0.00     0.008 A 
HETATM    7  C6  UNL     1      38.901   6.416  50.710  1.00  0.00     0.021 A 
HETATM    8  N2  UNL     1      40.007   5.683  50.958  1.00  0.00    -0.355 N 
ATOM      9  H2  UNL     1      40.626   5.983  51.711  1.00  0.00     0.166 HD
HETATM   10  C7  UNL     1      40.336   4.578  50.265  1.00  0.00     0.182 A 
HETATM   11  N3  UNL     1      39.499   4.210  49.279  1.00  0.00    -0.338 N 
ATOM     12  H3  UNL     1      39.726   3.376  48.739  1.00  0.00     0.168 HD
HETATM   13  C8  UNL     1      38.379   4.882  48.968  1.00  0.00     0.110 A 
HETATM   14  C15 UNL     1      38.904   7.541  51.686  1.00  0.00     0.077 C 
HETATM   15  C16 UNL     1      37.879   7.239  52.739  1.00  0.00     0.122 C 
ENDROOT
BRANCH  13  16
HETATM   16  N4  UNL     1      37.579   4.531  48.025  1.00  0.00    -0.374 N 
ATOM     17  H4  UNL     1      36.571   4.641  48.129  1.00  0.00     0.161 HD
BRANCH  16  18
HETATM   18  C9  UNL     1      38.150   3.968  46.799  1.00  0.00     0.141 C 
BRANCH  18  19
HETATM   19  C10 UNL     1      38.396   5.118  45.825  1.00  0.00     0.145 C 
BRANCH  19  20
HETATM   20  N5  UNL     1      39.737   4.997  45.289  1.00  0.00    -0.351 N 
HETATM   21  C11 UNL     1      40.981   4.958  46.061  1.00  0.00     0.126 C 
HETATM   22  C12 UNL     1      42.031   4.583  45.039  1.00  0.00     0.029 C 
HETATM   23  C13 UNL     1      41.486   5.275  43.790  1.00  0.00     0.104 C 
HETATM   24  C14 UNL     1      40.034   4.896  43.898  1.00  0.00     0.219 C 
HETATM   25  O1  UNL     1      39.243   4.563  42.981  1.00  0.00    -0.273 OA
ENDBRANCH  19  20
ENDBRANCH  18  19
ENDBRANCH  16  18
ENDBRANCH  13  16
TORSDOF 4
ENDMDL
MODEL 2
REMARK VINA RESULT: -8.402262078      1.096      1.378
REMARK  4 active torsions:
REMARK  status: ('A' for Active; 'I' for Inactive)
REMARK    1  A    between atoms: C8_13  and  N4_14 
REMARK    2  A    between atoms: N4_14  and  C9_16 
REMARK    3  A    between atoms: C9_16  and  C10_17 
REMARK    4  A    between atoms: C10_17  and  N5_18 
ROOT
HETATM    1  C1  UNL     1      37.004   9.263  52.930  1.00  0.00     0.143 C 
HETATM    2  N1  UNL     1      37.000   7.849  52.839  1.00  0.00    -0.416 N 
HETATM    3  C2  UNL     1      36.236   7.304  51.758  1.00  0.00     0.116 C 
HETATM    4  C3  UNL     1      36.481   7.937  50.434  1.00  0.00     0.024 C 
HETATM    5  C4  UNL     1      36.925   6.889  49.435  1.00  0.00     0.046 C 
HETATM    6  C5  UNL     1      38.126   6.206  49.935  1.00  0.00     0.008 A 
HETATM    7  C6  UNL     1      39.067   6.404  50.938  1.00  0.00     0.021 A 
HETATM    8  N2  UNL     1      40.067   5.508  51.081  1.00  0.00    -0.355 N 
ATOM      9  H2  UNL     1      40.752   5.663  51.820  1.00  0.00     0.166 HD
HETATM   10  C7  UNL     1      40.207   4.421  50.300  1.00  0.00     0.182 A 
HETATM   11  N3  UNL     1      39.286   4.247  49.334  1.00  0.00    -0.338 N 
ATOM     12  H3  UNL     1      39.370   3.432  48.729  1.00  0.00     0.168 HD
HETATM   13  C8  UNL     1      38.262   5.089  49.126  1.00  0.00     0.110 A 
HETATM   14  C15 UNL     1      39.270   7.443  51.986  1.00  0.00     0.077 C 
HETATM   15  C16 UNL     1      38.256   7.210  53.067  1.00  0.00     0.122 C 
ENDROOT
BRANCH  13  16
HETATM   16  N4  UNL     1      37.383   4.923  48.203  1.00  0.00    -0.374 N 
ATOM     17  H4  UNL     1      36.394   5.089  48.389  1.00  0.00     0.161 HD
BRANCH  16  18
HETATM   18  C9  UNL     1      37.834   4.489  46.879  1.00  0.00     0.141 C 
BRANCH  18  19
HETATM   19  C10 UNL     1      38.418   5.702  46.160  1.00  0.00     0.145 C 
BRANCH  19  20
HETATM   20  N5  UNL     1      39.537   5.270  45.349  1.00  0.00    -0.351 N 
HETATM   21  C11 UNL     1      39.602   5.269  43.886  1.00  0.00     0.126 C 
HETATM   22  C12 UNL     1      41.052   4.959  43.586  1.00  0.00     0.029 C 
HETATM   23  C13 UNL     1      41.398   4.022  44.743  1.00  0.00     0.104 C 
HETATM   24  C14 UNL     1      40.764   4.774  45.882  1.00  0.00     0.219 C 
HETATM   25  O1  UNL     1      41.200   4.938  47.048  1.00  0.00    -0.273 OA
ENDBRANCH  19  20
ENDBRANCH  18  19
ENDBRANCH  16  18
ENDBRANCH  13  16
TORSDOF 4
ENDMDL
MODEL 3
REMARK VINA RESULT: -8.309711460      1.691      2.887
REMARK  4 active torsions:
REMARK  status: ('A' for Active; 'I' for Inactive)
REMARK    1  A    between atoms: C8_13  and  N4_14 
REMARK    2  A    between atoms: N4_14  and  C9_16 
REMARK    3  A    between atoms: C9_16  and  C10_17 
REMARK    4  A    between atoms: C10_17  and  N5_18 
ROOT
HETATM    1  C1  UNL     1      37.361   8.651  53.966  1.00  0.00     0.143 C 
HETATM    2  N1  UNL     1      37.348   8.899  52.571  1.00  0.00    -0.416 N 
HETATM    3  C2  UNL     1      38.558   8.579  51.877  1.00  0.00     0.116 C 
HETATM    4  C3  UNL     1      39.124   7.238  52.188  1.00  0.00     0.024 C 
HETATM    5  C4  UNL     1      39.263   6.429  50.915  1.00  0.00     0.046 C 
HETATM    6  C5  UNL     1      37.956   6.320  50.253  1.00  0.00     0.008 A 
HETATM    7  C6  UNL     1      36.627   6.560  50.577  1.00  0.00     0.021 A 
HETATM    8  N2  UNL     1      35.676   6.324  49.648  1.00  0.00    -0.355 N 
ATOM      9  H2  UNL     1      34.703   6.503  49.896  1.00  0.00     0.166 HD
HETATM   10  C7  UNL     1      35.944   5.866  48.411  1.00  0.00     0.182 A 
HETATM   11  N3  UNL     1      37.237   5.640  48.116  1.00  0.00    -0.338 N 
ATOM     12  H3  UNL     1      37.466   5.292  47.186  1.00  0.00     0.168 HD
HETATM   13  C8  UNL     1      38.242   5.849  48.981  1.00  0.00     0.110 A 
HETATM   14  C15 UNL     1      35.924   7.052  51.794  1.00  0.00     0.077 C 
HETATM   15  C16 UNL     1      36.150   8.532  51.888  1.00  0.00     0.122 C 
ENDROOT
BRANCH  13  16
HETATM   16  N4  UNL     1      39.477   5.633  48.699  1.00  0.00    -0.374 N 
ATOM     17  H4  UNL     1      40.117   5.270  49.404  1.00  0.00     0.161 HD
BRANCH  16  18
HETATM   18  C9  UNL     1      39.944   5.920  47.341  1.00  0.00     0.141 C 
BRANCH  18  19
HETATM   19  C10 UNL     1      41.004   4.883  46.978  1.00  0.00     0.145 C 
BRANCH  19  20
HETATM   20  N5  UNL     1      40.515   4.080  45.877  1.00  0.00    -0.351 N 
HETATM   21  C11 UNL     1      41.182   3.870  44.590  1.00  0.00     0.126 C 
HETATM   22  C12 UNL     1      40.367   2.779  43.932  1.00  0.00     0.029 C 
HETATM   23  C13 UNL     1      38.967   3.104  44.450  1.00  0.00     0.104 C 
HETATM   24  C14 UNL     1      39.281   3.365  45.898  1.00  0.00     0.219 C 
HETATM   25  O1  UNL     1      38.618   3.036  46.912  1.00  0.00    -0.273 OA
ENDBRANCH  19  20
ENDBRANCH  18  19
ENDBRANCH  16  18
ENDBRANCH  13  16
TORSDOF 4
ENDMDL
MODEL 4
REMARK VINA RESULT: -8.297802267      1.564      2.768
REMARK  4 active torsions:
REMARK  status: ('A' for Active; 'I' for Inactive)
REMARK    1  A    between atoms: C8_13  and  N4_14 
REMARK    2  A    between atoms: N4_14  and  C9_16 
REMARK    3  A    between atoms: C9_16  and  C10_17 
REMARK    4  A    between atoms: C10_17  and  N5_18 
ROOT
HETATM    1  C1  UNL     1      37.382   8.715  54.000  1.00  0.00     0.143 C 
HETATM    2  N1  UNL     1      37.410   8.954  52.604  1.00  0.00    -0.416 N 
HETATM    3  C2  UNL     1      38.627   8.594  51.943  1.00  0.00     0.116 C 
HETATM    4  C3  UNL     1      39.147   7.240  52.276  1.00  0.00     0.024 C 
HETATM    5  C4  UNL     1      39.294   6.419  51.012  1.00  0.00     0.046 C 
HETATM    6  C5  UNL     1      38.002   6.343  50.317  1.00  0.00     0.008 A 
HETATM    7  C6  UNL     1      36.672   6.622  50.606  1.00  0.00     0.021 A 
HETATM    8  N2  UNL     1      35.739   6.408  49.655  1.00  0.00    -0.355 N 
ATOM      9  H2  UNL     1      34.766   6.616  49.877  1.00  0.00     0.166 HD
HETATM   10  C7  UNL     1      36.024   5.934  48.428  1.00  0.00     0.182 A 
HETATM   11  N3  UNL     1      37.317   5.669  48.168  1.00  0.00    -0.338 N 
ATOM     12  H3  UNL     1      37.559   5.308  47.245  1.00  0.00     0.168 HD
HETATM   13  C8  UNL     1      38.305   5.854  49.056  1.00  0.00     0.110 A 
HETATM   14  C15 UNL     1      35.953   7.143  51.802  1.00  0.00     0.077 C 
HETATM   15  C16 UNL     1      36.220   8.617  51.893  1.00  0.00     0.122 C 
ENDROOT
BRANCH  13  16
HETATM   16  N4  UNL     1      39.541   5.601  48.807  1.00  0.00    -0.374 N 
ATOM     17  H4  UNL     1      40.281   6.186  49.192  1.00  0.00     0.161 HD
BRANCH  16  18
HETATM   18  C9  UNL     1      39.860   4.452  47.956  1.00  0.00     0.141 C 
BRANCH  18  19
HETATM   19  C10 UNL     1      40.565   4.974  46.706  1.00  0.00     0.145 C 
BRANCH  19  20
HETATM   20  N5  UNL     1      39.843   4.515  45.537  1.00  0.00    -0.351 N 
HETATM   21  C11 UNL     1      40.031   3.238  44.846  1.00  0.00     0.126 C 
HETATM   22  C12 UNL     1      38.877   3.179  43.870  1.00  0.00     0.029 C 
HETATM   23  C13 UNL     1      38.720   4.656  43.512  1.00  0.00     0.104 C 
HETATM   24  C14 UNL     1      38.823   5.267  44.883  1.00  0.00     0.219 C 
HETATM   25  O1  UNL     1      38.168   6.225  45.362  1.00  0.00    -0.273 OA
ENDBRANCH  19  20
ENDBRANCH  18  19
ENDBRANCH  16  18
ENDBRANCH  13  16
TORSDOF 4
ENDMDL
MODEL 5
REMARK VINA RESULT: -8.020533292      1.583      2.810
REMARK  4 active torsions:
REMARK  status: ('A' for Active; 'I' for Inactive)
REMARK    1  A    between atoms: C8_13  and  N4_14 
REMARK    2  A    between atoms: N4_14  and  C9_16 
REMARK    3  A    between atoms: C9_16  and  C10_17 
REMARK    4  A    between atoms: C10_17  and  N5_18 
ROOT
HETATM    1  C1  UNL     1      37.425   9.095  54.129  1.00  0.00     0.143 C 
HETATM    2  N1  UNL     1      37.461   9.257  52.722  1.00  0.00    -0.416 N 
HETATM    3  C2  UNL     1      38.659   8.808  52.081  1.00  0.00     0.116 C 
HETATM    4  C3  UNL     1      39.119   7.453  52.487  1.00  0.00     0.024 C 
HETATM    5  C4  UNL     1      39.227   6.558  51.270  1.00  0.00     0.046 C 
HETATM    6  C5  UNL     1      37.931   6.502  50.581  1.00  0.00     0.008 A 
HETATM    7  C6  UNL     1      36.616   6.855  50.854  1.00  0.00     0.021 A 
HETATM    8  N2  UNL     1      35.671   6.630  49.916  1.00  0.00    -0.355 N 
ATOM      9  H2  UNL     1      34.709   6.893  50.127  1.00  0.00     0.166 HD
HETATM   10  C7  UNL     1      35.932   6.078  48.717  1.00  0.00     0.182 A 
HETATM   11  N3  UNL     1      37.211   5.743  48.471  1.00  0.00    -0.338 N 
ATOM     12  H3  UNL     1      37.435   5.323  47.570  1.00  0.00     0.168 HD
HETATM   13  C8  UNL     1      38.209   5.933  49.348  1.00  0.00     0.110 A 
HETATM   14  C15 UNL     1      35.924   7.471  52.020  1.00  0.00     0.077 C 
HETATM   15  C16 UNL     1      36.255   8.935  52.031  1.00  0.00     0.122 C 
ENDROOT
BRANCH  13  16
HETATM   16  N4  UNL     1      39.431   5.612  49.112  1.00  0.00    -0.374 N 
ATOM     17  H4  UNL     1      40.198   6.121  49.551  1.00  0.00     0.161 HD
BRANCH  16  18
HETATM   18  C9  UNL     1      39.698   4.498  48.200  1.00  0.00     0.141 C 
BRANCH  18  19
HETATM   19  C10 UNL     1      40.761   4.951  47.202  1.00  0.00     0.145 C 
BRANCH  19  20
HETATM   20  N5  UNL     1      40.556   4.251  45.951  1.00  0.00    -0.351 N 
HETATM   21  C11 UNL     1      39.470   3.317  45.645  1.00  0.00     0.126 C 
HETATM   22  C12 UNL     1      39.601   3.082  44.156  1.00  0.00     0.029 C 
HETATM   23  C13 UNL     1      41.116   3.166  43.978  1.00  0.00     0.104 C 
HETATM   24  C14 UNL     1      41.408   4.381  44.815  1.00  0.00     0.219 C 
HETATM   25  O1  UNL     1      42.218   5.313  44.583  1.00  0.00    -0.273 OA
ENDBRANCH  19  20
ENDBRANCH  18  19
ENDBRANCH  16  18
ENDBRANCH  13  16
TORSDOF 4
ENDMDL
