MODEL 1
REMARK VINA RESULT: -9.495314962      0.000      0.000
REMARK  6 active torsions:
REMARK  status: ('A' for Active; 'I' for Inactive)
REMARK    1  A    between atoms: N3_8  and  C5_10 
REMARK    2  A    between atoms: N4_14  and  N5_15 
REMARK    3  A    between atoms: C9_18  and  N6_19 
REMARK    4  A    between atoms: N6_19  and  C10_21 
REMARK    5  A    between atoms: C13_24  and  S1_25 
REMARK    6  A    between atoms: S1_25  and  N7_26 
ROOT
HETATM    1  C5  UNL     1     -15.492  25.882  32.359  1.00  0.00     0.080 A 
HETATM    2  C6  UNL     1     -15.919  26.033  33.694  1.00  0.00     0.035 A 
HETATM    3  C7  UNL     1     -16.827  25.171  34.246  1.00  0.00     0.022 A 
HETATM    4  C8  UNL     1     -17.292  24.164  33.433  1.00  0.00     0.118 A 
HETATM    5  N4  UNL     1     -16.901  24.007  32.173  1.00  0.00    -0.256 N 
HETATM    6  C9  UNL     1     -15.978  24.878  31.601  1.00  0.00     0.153 A 
ENDROOT
BRANCH   1   7
HETATM    7  N3  UNL     1     -14.542  26.806  31.846  1.00  0.00    -0.339 N 
HETATM    8  C4  UNL     1     -14.938  28.004  31.594  1.00  0.00     0.114 C 
HETATM    9  N2  UNL     1     -16.261  28.426  31.810  1.00  0.00    -0.367 N 
HETATM   10  C20 UNL     1     -13.886  28.872  31.037  1.00  0.00     0.034 A 
HETATM   11  C3  UNL     1     -17.063  29.510  31.385  1.00  0.00     0.135 C 
ATOM     12  H2  UNL     1     -16.768  27.792  32.428  1.00  0.00     0.161 HD
HETATM   13  C2  UNL     1     -17.201  30.609  32.420  1.00  0.00     0.298 C 
HETATM   14  C26 UNL     1     -16.628  30.280  30.188  1.00  0.00     0.134 C 
HETATM   15  N1  UNL     1     -17.823  31.665  31.687  1.00  0.00     0.088 N 
HETATM   16  C1  UNL     1     -17.295  32.950  32.135  1.00  0.00     0.310 C 
HETATM   17  C27 UNL     1     -17.562  31.474  30.273  1.00  0.00     0.298 C 
HETATM   18  N8  UNL     1     -15.290  30.781  30.254  1.00  0.00    -0.381 N 
HETATM   19  C25 UNL     1     -14.034  30.127  30.440  1.00  0.00     0.042 A 
ATOM     20  H8  UNL     1     -15.220  31.793  30.148  1.00  0.00     0.160 HD
HETATM   21  C24 UNL     1     -12.953  30.812  29.974  1.00  0.00     0.030 A 
HETATM   22  C23 UNL     1     -11.703  30.230  30.105  1.00  0.00     0.002 A 
HETATM   23  C22 UNL     1     -11.558  28.981  30.698  1.00  0.00     0.001 A 
HETATM   24  C21 UNL     1     -12.651  28.290  31.170  1.00  0.00     0.017 A 
ATOM     25  H3  UNL     1     -13.574  26.529  31.683  1.00  0.00     0.167 HD
ENDBRANCH   1   7
BRANCH   6  26
HETATM   26  N6  UNL     1     -15.731  24.620  30.415  1.00  0.00    -0.338 N 
ATOM     27  H6  UNL     1     -16.576  24.694  29.849  1.00  0.00     0.167 HD
BRANCH  26  28
HETATM   28  C10 UNL     1     -14.667  24.267  29.639  1.00  0.00     0.045 A 
HETATM   29  C11 UNL     1     -14.056  23.003  29.657  1.00  0.00     0.032 A 
HETATM   30  C12 UNL     1     -13.006  22.690  28.838  1.00  0.00     0.028 A 
HETATM   31  C13 UNL     1     -12.482  23.597  27.940  1.00  0.00     0.090 A 
HETATM   32  C14 UNL     1     -13.055  24.849  27.892  1.00  0.00    -0.000 A 
HETATM   33  C15 UNL     1     -12.553  25.792  26.992  1.00  0.00     0.014 A 
HETATM   34  C19 UNL     1     -14.112  25.169  28.715  1.00  0.00     0.002 A 
HETATM   35  C16 UNL     1     -13.147  27.026  26.964  1.00  0.00     0.001 A 
HETATM   36  C17 UNL     1     -14.204  27.345  27.787  1.00  0.00     0.001 A 
HETATM   37  C18 UNL     1     -14.703  26.419  28.676  1.00  0.00     0.014 A 
BRANCH  31  38
HETATM   38  S1  UNL     1     -11.129  23.169  26.901  1.00  0.00     0.257 S 
HETATM   39  O1  UNL     1     -10.829  21.701  26.942  1.00  0.00    -0.201 OA
HETATM   40  O2  UNL     1     -11.408  23.606  25.507  1.00  0.00    -0.201 OA
BRANCH  38  41
HETATM   41  N7  UNL     1      -9.697  23.978  27.437  1.00  0.00    -0.324 N 
ATOM     42  H72 UNL     1      -9.519  24.974  27.311  1.00  0.00     0.169 HD
ATOM     43  H71 UNL     1      -9.071  23.311  27.889  1.00  0.00     0.169 HD
ENDBRANCH  38  41
ENDBRANCH  31  38
ENDBRANCH  26  28
ENDBRANCH   6  26
BRANCH   5  44
HETATM   44  N5  UNL     1     -17.395  22.975  31.380  1.00  0.00    -0.337 N 
ATOM     45  H52 UNL     1     -18.394  22.777  31.428  1.00  0.00     0.177 HD
ATOM     46  H51 UNL     1     -16.784  22.433  30.769  1.00  0.00     0.177 HD
ENDBRANCH   5  44
TORSDOF 6
ENDMDL
MODEL 2
REMARK VINA RESULT: -9.429878608      2.114      5.018
REMARK  6 active torsions:
REMARK  status: ('A' for Active; 'I' for Inactive)
REMARK    1  A    between atoms: N3_8  and  C5_10 
REMARK    2  A    between atoms: N4_14  and  N5_15 
REMARK    3  A    between atoms: C9_18  and  N6_19 
REMARK    4  A    between atoms: N6_19  and  C10_21 
REMARK    5  A    between atoms: C13_24  and  S1_25 
REMARK    6  A    between atoms: S1_25  and  N7_26 
ROOT
HETATM    1  C5  UNL     1     -12.395  27.998  30.725  1.00  0.00     0.080 A 
HETATM    2  C6  UNL     1     -12.760  28.694  31.895  1.00  0.00     0.035 A 
HETATM    3  C7  UNL     1     -12.248  29.932  32.169  1.00  0.00     0.022 A 
HETATM    4  C8  UNL     1     -11.368  30.451  31.248  1.00  0.00     0.118 A 
HETATM    5  N4  UNL     1     -11.011  29.809  30.141  1.00  0.00    -0.256 N 
HETATM    6  C9  UNL     1     -11.526  28.549  29.852  1.00  0.00     0.153 A 
ENDROOT
BRANCH   1   7
HETATM    7  N3  UNL     1     -12.966  26.718  30.495  1.00  0.00    -0.339 N 
HETATM    8  C4  UNL     1     -14.168  26.509  30.903  1.00  0.00     0.114 C 
HETATM    9  N2  UNL     1     -14.928  27.494  31.555  1.00  0.00    -0.367 N 
HETATM   10  C20 UNL     1     -14.654  25.143  30.644  1.00  0.00     0.034 A 
HETATM   11  C3  UNL     1     -16.094  27.513  32.357  1.00  0.00     0.135 C 
ATOM     12  H2  UNL     1     -14.544  28.429  31.415  1.00  0.00     0.161 HD
HETATM   13  C2  UNL     1     -17.343  27.929  31.606  1.00  0.00     0.298 C 
HETATM   14  C26 UNL     1     -16.535  26.237  32.986  1.00  0.00     0.134 C 
HETATM   15  N1  UNL     1     -18.389  27.634  32.533  1.00  0.00     0.088 N 
HETATM   16  C1  UNL     1     -19.561  27.147  31.812  1.00  0.00     0.310 C 
HETATM   17  C27 UNL     1     -17.918  26.633  33.471  1.00  0.00     0.298 C 
HETATM   18  N8  UNL     1     -16.698  25.147  32.076  1.00  0.00    -0.381 N 
HETATM   19  C25 UNL     1     -15.797  24.524  31.160  1.00  0.00     0.042 A 
ATOM     20  H8  UNL     1     -17.633  24.738  32.081  1.00  0.00     0.160 HD
HETATM   21  C24 UNL     1     -16.114  23.244  30.819  1.00  0.00     0.030 A 
HETATM   22  C23 UNL     1     -15.274  22.572  29.947  1.00  0.00     0.002 A 
HETATM   23  C22 UNL     1     -14.138  23.188  29.435  1.00  0.00     0.001 A 
HETATM   24  C21 UNL     1     -13.818  24.481  29.780  1.00  0.00     0.017 A 
ATOM     25  H3  UNL     1     -12.439  25.985  30.020  1.00  0.00     0.167 HD
ENDBRANCH   1   7
BRANCH   6  26
HETATM   26  N6  UNL     1     -11.083  28.068  28.800  1.00  0.00    -0.338 N 
ATOM     27  H6  UNL     1     -10.809  28.809  28.155  1.00  0.00     0.167 HD
BRANCH  26  28
HETATM   28  C10 UNL     1     -10.853  26.844  28.244  1.00  0.00     0.045 A 
HETATM   29  C11 UNL     1      -9.663  26.115  28.395  1.00  0.00     0.032 A 
HETATM   30  C12 UNL     1      -9.491  24.877  27.838  1.00  0.00     0.028 A 
HETATM   31  C13 UNL     1     -10.479  24.267  27.094  1.00  0.00     0.090 A 
HETATM   32  C14 UNL     1     -11.663  24.950  26.924  1.00  0.00    -0.000 A 
HETATM   33  C15 UNL     1     -12.686  24.360  26.180  1.00  0.00     0.014 A 
HETATM   34  C19 UNL     1     -11.839  26.196  27.482  1.00  0.00     0.002 A 
HETATM   35  C16 UNL     1     -13.853  25.062  26.032  1.00  0.00     0.001 A 
HETATM   36  C17 UNL     1     -14.031  26.308  26.590  1.00  0.00     0.001 A 
HETATM   37  C18 UNL     1     -13.024  26.894  27.325  1.00  0.00     0.014 A 
BRANCH  31  38
HETATM   38  S1  UNL     1     -10.230  22.676  26.387  1.00  0.00     0.257 S 
HETATM   39  O1  UNL     1     -10.974  21.606  27.128  1.00  0.00    -0.201 OA
HETATM   40  O2  UNL     1     -10.632  22.693  24.955  1.00  0.00    -0.201 OA
BRANCH  38  41
HETATM   41  N7  UNL     1      -8.555  22.252  26.466  1.00  0.00    -0.324 N 
ATOM     42  H72 UNL     1      -8.051  22.063  27.332  1.00  0.00     0.169 HD
ATOM     43  H71 UNL     1      -8.160  22.221  25.526  1.00  0.00     0.169 HD
ENDBRANCH  38  41
ENDBRANCH  31  38
ENDBRANCH  26  28
ENDBRANCH   6  26
BRANCH   5  44
HETATM   44  N5  UNL     1     -10.116  30.366  29.231  1.00  0.00    -0.337 N 
ATOM     45  H52 UNL     1     -10.481  31.044  28.563  1.00  0.00     0.177 HD
ATOM     46  H51 UNL     1      -9.129  30.110  29.228  1.00  0.00     0.177 HD
ENDBRANCH   5  44
TORSDOF 6
ENDMDL
MODEL 3
REMARK VINA RESULT: -9.428400669      2.295      5.017
REMARK  6 active torsions:
REMARK  status: ('A' for Active; 'I' for Inactive)
REMARK    1  A    between atoms: N3_8  and  C5_10 
REMARK    2  A    between atoms: N4_14  and  N5_15 
REMARK    3  A    between atoms: C9_18  and  N6_19 
REMARK    4  A    between atoms: N6_19  and  C10_21 
REMARK    5  A    between atoms: C13_24  and  S1_25 
REMARK    6  A    between atoms: S1_25  and  N7_26 
ROOT
HETATM    1  C5  UNL     1     -10.979  28.735  30.171  1.00  0.00     0.080 A 
HETATM    2  C6  UNL     1     -10.610  29.572  31.242  1.00  0.00     0.035 A 
HETATM    3  C7  UNL     1      -9.576  30.459  31.121  1.00  0.00     0.022 A 
HETATM    4  C8  UNL     1      -8.927  30.485  29.908  1.00  0.00     0.118 A 
HETATM    5  N4  UNL     1      -9.261  29.703  28.888  1.00  0.00    -0.256 N 
HETATM    6  C9  UNL     1     -10.311  28.796  29.000  1.00  0.00     0.153 A 
ENDROOT
BRANCH   1   7
HETATM    7  N3  UNL     1     -12.066  27.838  30.359  1.00  0.00    -0.339 N 
HETATM    8  C4  UNL     1     -13.236  28.337  30.553  1.00  0.00     0.114 C 
HETATM    9  N2  UNL     1     -13.474  29.721  30.579  1.00  0.00    -0.367 N 
HETATM   10  C20 UNL     1     -14.284  27.325  30.767  1.00  0.00     0.034 A 
HETATM   11  C3  UNL     1     -14.511  30.565  31.042  1.00  0.00     0.135 C 
ATOM     12  H2  UNL     1     -12.708  30.249  30.161  1.00  0.00     0.161 HD
HETATM   13  C2  UNL     1     -15.432  31.056  29.942  1.00  0.00     0.298 C 
HETATM   14  C26 UNL     1     -15.485  30.009  32.021  1.00  0.00     0.134 C 
HETATM   15  N1  UNL     1     -16.506  31.659  30.667  1.00  0.00     0.088 N 
HETATM   16  C1  UNL     1     -17.765  31.413  29.972  1.00  0.00     0.310 C 
HETATM   17  C27 UNL     1     -16.545  31.097  32.003  1.00  0.00     0.298 C 
HETATM   18  N8  UNL     1     -16.117  28.794  31.611  1.00  0.00    -0.381 N 
HETATM   19  C25 UNL     1     -15.587  27.522  31.234  1.00  0.00     0.042 A 
ATOM     20  H8  UNL     1     -17.135  28.844  31.584  1.00  0.00     0.160 HD
HETATM   21  C24 UNL     1     -16.446  26.474  31.376  1.00  0.00     0.030 A 
HETATM   22  C23 UNL     1     -15.993  25.208  31.045  1.00  0.00     0.002 A 
HETATM   23  C22 UNL     1     -14.698  25.013  30.581  1.00  0.00     0.001 A 
HETATM   24  C21 UNL     1     -13.831  26.073  30.438  1.00  0.00     0.017 A 
ATOM     25  H3  UNL     1     -11.923  26.828  30.340  1.00  0.00     0.167 HD
ENDBRANCH   1   7
BRANCH   6  26
HETATM   26  N6  UNL     1     -10.488  28.121  27.977  1.00  0.00    -0.338 N 
ATOM     27  H6  UNL     1     -10.776  28.716  27.201  1.00  0.00     0.167 HD
BRANCH  26  28
HETATM   28  C10 UNL     1     -10.413  26.819  27.577  1.00  0.00     0.045 A 
HETATM   29  C11 UNL     1      -9.235  26.056  27.576  1.00  0.00     0.032 A 
HETATM   30  C12 UNL     1      -9.217  24.744  27.189  1.00  0.00     0.028 A 
HETATM   31  C13 UNL     1     -10.358  24.088  26.776  1.00  0.00     0.090 A 
HETATM   32  C14 UNL     1     -11.535  24.803  26.763  1.00  0.00    -0.000 A 
HETATM   33  C15 UNL     1     -12.710  24.169  26.355  1.00  0.00     0.014 A 
HETATM   34  C19 UNL     1     -11.557  26.124  27.151  1.00  0.00     0.002 A 
HETATM   35  C16 UNL     1     -13.865  24.905  26.357  1.00  0.00     0.001 A 
HETATM   36  C17 UNL     1     -13.888  26.226  26.745  1.00  0.00     0.001 A 
HETATM   37  C18 UNL     1     -12.731  26.856  27.150  1.00  0.00     0.014 A 
BRANCH  31  38
HETATM   38  S1  UNL     1     -10.306  22.401  26.281  1.00  0.00     0.257 S 
HETATM   39  O1  UNL     1     -10.995  21.503  27.264  1.00  0.00    -0.201 OA
HETATM   40  O2  UNL     1     -10.910  22.255  24.929  1.00  0.00    -0.201 OA
BRANCH  38  41
HETATM   41  N7  UNL     1      -8.664  21.864  26.193  1.00  0.00    -0.324 N 
ATOM     42  H72 UNL     1      -8.161  21.695  25.321  1.00  0.00     0.169 HD
ATOM     43  H71 UNL     1      -8.287  21.744  27.133  1.00  0.00     0.169 HD
ENDBRANCH  38  41
ENDBRANCH  31  38
ENDBRANCH  26  28
ENDBRANCH   6  26
BRANCH   5  44
HETATM   44  N5  UNL     1      -8.581  29.756  27.674  1.00  0.00    -0.337 N 
ATOM     45  H52 UNL     1      -8.159  30.646  27.407  1.00  0.00     0.177 HD
ATOM     46  H51 UNL     1      -8.503  28.939  27.069  1.00  0.00     0.177 HD
ENDBRANCH   5  44
TORSDOF 6
ENDMDL
MODEL 4
REMARK VINA RESULT: -9.238179484      3.965      6.761
REMARK  6 active torsions:
REMARK  status: ('A' for Active; 'I' for Inactive)
REMARK    1  A    between atoms: N3_8  and  C5_10 
REMARK    2  A    between atoms: N4_14  and  N5_15 
REMARK    3  A    between atoms: C9_18  and  N6_19 
REMARK    4  A    between atoms: N6_19  and  C10_21 
REMARK    5  A    between atoms: C13_24  and  S1_25 
REMARK    6  A    between atoms: S1_25  and  N7_26 
ROOT
HETATM    1  C5  UNL     1     -11.226  25.075  27.981  1.00  0.00     0.080 A 
HETATM    2  C6  UNL     1     -10.019  24.413  27.677  1.00  0.00     0.035 A 
HETATM    3  C7  UNL     1     -10.013  23.259  26.943  1.00  0.00     0.022 A 
HETATM    4  C8  UNL     1     -11.236  22.790  26.524  1.00  0.00     0.118 A 
HETATM    5  N4  UNL     1     -12.383  23.400  26.801  1.00  0.00    -0.256 N 
HETATM    6  C9  UNL     1     -12.402  24.574  27.548  1.00  0.00     0.153 A 
ENDROOT
BRANCH   1   7
HETATM    7  N3  UNL     1     -11.165  26.273  28.743  1.00  0.00    -0.339 N 
HETATM    8  C4  UNL     1     -10.732  27.337  28.165  1.00  0.00     0.114 C 
HETATM    9  N2  UNL     1     -10.327  27.357  26.821  1.00  0.00    -0.367 N 
HETATM   10  C20 UNL     1     -10.680  28.513  29.050  1.00  0.00     0.034 A 
HETATM   11  C3  UNL     1      -9.561  28.221  26.003  1.00  0.00     0.135 C 
ATOM     12  H2  UNL     1     -10.671  26.547  26.305  1.00  0.00     0.161 HD
HETATM   13  C2  UNL     1     -10.398  29.122  25.118  1.00  0.00     0.298 C 
HETATM   14  C26 UNL     1      -8.663  29.205  26.668  1.00  0.00     0.134 C 
HETATM   15  N1  UNL     1      -9.437  30.043  24.596  1.00  0.00     0.088 N 
HETATM   16  C1  UNL     1     -10.040  31.366  24.478  1.00  0.00     0.310 C 
HETATM   17  C27 UNL     1      -8.293  30.084  25.486  1.00  0.00     0.298 C 
HETATM   18  N8  UNL     1      -9.305  30.041  27.635  1.00  0.00    -0.381 N 
HETATM   19  C25 UNL     1     -10.048  29.738  28.817  1.00  0.00     0.042 A 
ATOM     20  H8  UNL     1      -9.215  31.039  27.445  1.00  0.00     0.160 HD
HETATM   21  C24 UNL     1     -10.093  30.737  29.741  1.00  0.00     0.030 A 
HETATM   22  C23 UNL     1     -10.782  30.507  30.920  1.00  0.00     0.002 A 
HETATM   23  C22 UNL     1     -11.410  29.289  31.152  1.00  0.00     0.001 A 
HETATM   24  C21 UNL     1     -11.364  28.280  30.217  1.00  0.00     0.017 A 
ATOM     25  H3  UNL     1     -11.457  26.288  29.721  1.00  0.00     0.167 HD
ENDBRANCH   1   7
BRANCH   6  26
HETATM   26  N6  UNL     1     -13.544  25.012  27.745  1.00  0.00    -0.338 N 
ATOM     27  H6  UNL     1     -14.011  25.202  26.859  1.00  0.00     0.167 HD
BRANCH  26  28
HETATM   28  C10 UNL     1     -14.363  25.316  28.791  1.00  0.00     0.045 A 
HETATM   29  C11 UNL     1     -14.850  24.380  29.716  1.00  0.00     0.032 A 
HETATM   30  C12 UNL     1     -15.650  24.741  30.766  1.00  0.00     0.028 A 
HETATM   31  C13 UNL     1     -16.027  26.050  30.982  1.00  0.00     0.090 A 
HETATM   32  C14 UNL     1     -15.568  27.000  30.096  1.00  0.00    -0.000 A 
HETATM   33  C15 UNL     1     -15.926  28.336  30.287  1.00  0.00     0.014 A 
HETATM   34  C19 UNL     1     -14.764  26.640  29.038  1.00  0.00     0.002 A 
HETATM   35  C16 UNL     1     -15.451  29.257  29.392  1.00  0.00     0.001 A 
HETATM   36  C17 UNL     1     -14.646  28.898  28.333  1.00  0.00     0.001 A 
HETATM   37  C18 UNL     1     -14.290  27.582  28.141  1.00  0.00     0.014 A 
BRANCH  31  38
HETATM   38  S1  UNL     1     -17.058  26.486  32.338  1.00  0.00     0.257 S 
HETATM   39  O1  UNL     1     -16.393  27.461  33.263  1.00  0.00    -0.201 OA
HETATM   40  O2  UNL     1     -18.344  27.039  31.835  1.00  0.00    -0.201 OA
BRANCH  38  41
HETATM   41  N7  UNL     1     -17.414  25.081  33.283  1.00  0.00    -0.324 N 
ATOM     42  H72 UNL     1     -16.814  24.258  33.336  1.00  0.00     0.169 HD
ATOM     43  H71 UNL     1     -18.303  25.206  33.768  1.00  0.00     0.169 HD
ENDBRANCH  38  41
ENDBRANCH  31  38
ENDBRANCH  26  28
ENDBRANCH   6  26
BRANCH   5  44
HETATM   44  N5  UNL     1     -13.603  22.895  26.360  1.00  0.00    -0.337 N 
ATOM     45  H52 UNL     1     -13.621  21.936  26.013  1.00  0.00     0.177 HD
ATOM     46  H51 UNL     1     -14.453  23.458  26.380  1.00  0.00     0.177 HD
ENDBRANCH   5  44
TORSDOF 6
ENDMDL
MODEL 5
REMARK VINA RESULT: -9.226618723      3.946      6.969
REMARK  6 active torsions:
REMARK  status: ('A' for Active; 'I' for Inactive)
REMARK    1  A    between atoms: N3_8  and  C5_10 
REMARK    2  A    between atoms: N4_14  and  N5_15 
REMARK    3  A    between atoms: C9_18  and  N6_19 
REMARK    4  A    between atoms: N6_19  and  C10_21 
REMARK    5  A    between atoms: C13_24  and  S1_25 
REMARK    6  A    between atoms: S1_25  and  N7_26 
ROOT
HETATM    1  C5  UNL     1     -11.232  25.034  27.999  1.00  0.00     0.080 A 
HETATM    2  C6  UNL     1     -10.043  24.299  27.824  1.00  0.00     0.035 A 
HETATM    3  C7  UNL     1     -10.030  23.141  27.095  1.00  0.00     0.022 A 
HETATM    4  C8  UNL     1     -11.229  22.743  26.552  1.00  0.00     0.118 A 
HETATM    5  N4  UNL     1     -12.360  23.423  26.708  1.00  0.00    -0.256 N 
HETATM    6  C9  UNL     1     -12.385  24.601  27.448  1.00  0.00     0.153 A 
ENDROOT
BRANCH   1   7
HETATM    7  N3  UNL     1     -11.179  26.232  28.763  1.00  0.00    -0.339 N 
HETATM    8  C4  UNL     1     -10.738  27.296  28.189  1.00  0.00     0.114 C 
HETATM    9  N2  UNL     1     -10.317  27.315  26.849  1.00  0.00    -0.367 N 
HETATM   10  C20 UNL     1     -10.694  28.472  29.075  1.00  0.00     0.034 A 
HETATM   11  C3  UNL     1      -9.541  28.178  26.041  1.00  0.00     0.135 C 
ATOM     12  H2  UNL     1     -10.656  26.505  26.330  1.00  0.00     0.161 HD
HETATM   13  C2  UNL     1     -10.367  29.080  25.146  1.00  0.00     0.298 C 
HETATM   14  C26 UNL     1      -8.650  29.161  26.716  1.00  0.00     0.134 C 
HETATM   15  N1  UNL     1      -9.399  29.999  24.635  1.00  0.00     0.088 N 
HETATM   16  C1  UNL     1      -9.999  31.324  24.509  1.00  0.00     0.310 C 
HETATM   17  C27 UNL     1      -8.265  30.039  25.538  1.00  0.00     0.298 C 
HETATM   18  N8  UNL     1      -9.301  29.998  27.675  1.00  0.00    -0.381 N 
HETATM   19  C25 UNL     1     -10.057  29.696  28.848  1.00  0.00     0.042 A 
ATOM     20  H8  UNL     1      -9.208  30.996  27.486  1.00  0.00     0.160 HD
HETATM   21  C24 UNL     1     -10.112  30.695  29.772  1.00  0.00     0.030 A 
HETATM   22  C23 UNL     1     -10.815  30.466  30.943  1.00  0.00     0.002 A 
HETATM   23  C22 UNL     1     -11.447  29.248  31.168  1.00  0.00     0.001 A 
HETATM   24  C21 UNL     1     -11.391  28.239  30.233  1.00  0.00     0.017 A 
ATOM     25  H3  UNL     1     -11.482  26.248  29.736  1.00  0.00     0.167 HD
ENDBRANCH   1   7
BRANCH   6  26
HETATM   26  N6  UNL     1     -13.513  25.108  27.524  1.00  0.00    -0.338 N 
ATOM     27  H6  UNL     1     -14.161  24.634  26.897  1.00  0.00     0.167 HD
BRANCH  26  28
HETATM   28  C10 UNL     1     -14.147  26.110  28.197  1.00  0.00     0.045 A 
HETATM   29  C11 UNL     1     -14.229  27.438  27.749  1.00  0.00     0.032 A 
HETATM   30  C12 UNL     1     -14.901  28.403  28.449  1.00  0.00     0.028 A 
HETATM   31  C13 UNL     1     -15.542  28.130  29.640  1.00  0.00     0.090 A 
HETATM   32  C14 UNL     1     -15.485  26.837  30.112  1.00  0.00    -0.000 A 
HETATM   33  C15 UNL     1     -16.126  26.524  31.313  1.00  0.00     0.014 A 
HETATM   34  C19 UNL     1     -14.809  25.863  29.411  1.00  0.00     0.002 A 
HETATM   35  C16 UNL     1     -16.055  25.229  31.754  1.00  0.00     0.001 A 
HETATM   36  C17 UNL     1     -15.380  24.255  31.053  1.00  0.00     0.001 A 
HETATM   37  C18 UNL     1     -14.746  24.559  29.869  1.00  0.00     0.014 A 
BRANCH  31  38
HETATM   38  S1  UNL     1     -16.396  29.389  30.521  1.00  0.00     0.257 S 
HETATM   39  O1  UNL     1     -17.672  28.887  31.129  1.00  0.00    -0.201 OA
HETATM   40  O2  UNL     1     -15.509  29.961  31.569  1.00  0.00    -0.201 OA
BRANCH  38  41
HETATM   41  N7  UNL     1     -16.838  30.667  29.441  1.00  0.00    -0.324 N 
ATOM     42  H72 UNL     1     -17.793  31.001  29.307  1.00  0.00     0.169 HD
ATOM     43  H71 UNL     1     -16.008  31.025  28.970  1.00  0.00     0.169 HD
ENDBRANCH  38  41
ENDBRANCH  31  38
ENDBRANCH  26  28
ENDBRANCH   6  26
BRANCH   5  44
HETATM   44  N5  UNL     1     -13.556  22.988  26.144  1.00  0.00    -0.337 N 
ATOM     45  H52 UNL     1     -13.626  22.005  25.882  1.00  0.00     0.177 HD
ATOM     46  H51 UNL     1     -14.338  23.624  25.995  1.00  0.00     0.177 HD
ENDBRANCH   5  44
TORSDOF 6
ENDMDL
