MODEL 1
REMARK VINA RESULT: -6.435287944      0.000      0.000
REMARK  4 active torsions:
REMARK  status: ('A' for Active; 'I' for Inactive)
REMARK    1  A    between atoms: C1_2  and  N1_3 
REMARK    2  A    between atoms: N1_3  and  N2_5 
REMARK    3  A    between atoms: N2_5  and  C2_7 
REMARK    4  A    between atoms: C3_8  and  O2_9 
ROOT
HETATM    1  C2  UNL     1      47.638  15.495 -12.367  1.00  0.00     0.168 A 
HETATM    2  C3  UNL     1      47.040  14.729 -13.325  1.00  0.00     0.178 A 
HETATM    3  N3  UNL     1      46.686  15.294 -14.514  1.00  0.00    -0.287 N 
ATOM      4  H3  UNL     1      46.240  14.718 -15.228  1.00  0.00     0.172 HD
HETATM    5  C4  UNL     1      46.913  16.589 -14.762  1.00  0.00     0.329 A 
HETATM    6  O3  UNL     1      46.564  17.063 -15.887  1.00  0.00    -0.247 OA
HETATM    7  N4  UNL     1      47.495  17.343 -13.833  1.00  0.00    -0.273 N 
ATOM      8  H4  UNL     1      47.667  18.329 -14.026  1.00  0.00     0.173 HD
HETATM    9  C5  UNL     1      47.867  16.825 -12.632  1.00  0.00     0.281 A 
HETATM   10  O4  UNL     1      48.421  17.528 -11.738  1.00  0.00    -0.265 OA
ENDROOT
BRANCH   1  11
HETATM   11  N2  UNL     1      48.015  14.962 -11.118  1.00  0.00    -0.290 N 
ATOM     12  H2  UNL     1      48.958  15.128 -10.768  1.00  0.00     0.187 HD
BRANCH  11  13
HETATM   13  N1  UNL     1      47.113  14.201 -10.340  1.00  0.00    -0.277 N 
ATOM     14  H1  UNL     1      47.003  13.202 -10.516  1.00  0.00     0.189 HD
BRANCH  13  15
HETATM   15  C1  UNL     1      46.365  14.827  -9.322  1.00  0.00     0.368 C 
HETATM   16  O1  UNL     1      45.139  14.997  -9.462  1.00  0.00    -0.282 OA
ENDBRANCH  13  15
ENDBRANCH  11  13
ENDBRANCH   1  11
BRANCH   2  17
HETATM   17  O2  UNL     1      46.773  13.397 -13.151  1.00  0.00    -0.344 OA
ATOM     18  H2  UNL     1      46.201  12.907 -13.730  1.00  0.00     0.219 HD
ENDBRANCH   2  17
TORSDOF 4
ENDMDL
MODEL 2
REMARK VINA RESULT: -6.301494474      1.012      2.402
REMARK  4 active torsions:
REMARK  status: ('A' for Active; 'I' for Inactive)
REMARK    1  A    between atoms: C1_2  and  N1_3 
REMARK    2  A    between atoms: N1_3  and  N2_5 
REMARK    3  A    between atoms: N2_5  and  C2_7 
REMARK    4  A    between atoms: C3_8  and  O2_9 
ROOT
HETATM    1  C2  UNL     1      47.298  15.106 -12.193  1.00  0.00     0.168 A 
HETATM    2  C3  UNL     1      47.476  16.453 -12.058  1.00  0.00     0.178 A 
HETATM    3  N3  UNL     1      47.363  17.260 -13.151  1.00  0.00    -0.287 N 
ATOM      4  H3  UNL     1      47.496  18.265 -13.047  1.00  0.00     0.172 HD
HETATM    5  C4  UNL     1      47.079  16.756 -14.358  1.00  0.00     0.329 A 
HETATM    6  O3  UNL     1      46.983  17.554 -15.341  1.00  0.00    -0.247 OA
HETATM    7  N4  UNL     1      46.903  15.445 -14.497  1.00  0.00    -0.273 N 
ATOM      8  H4  UNL     1      46.687  15.066 -15.419  1.00  0.00     0.173 HD
HETATM    9  C5  UNL     1      47.007  14.600 -13.437  1.00  0.00     0.281 A 
HETATM   10  O4  UNL     1      46.843  13.351 -13.553  1.00  0.00    -0.265 OA
ENDROOT
BRANCH   1  11
HETATM   11  N2  UNL     1      47.414  14.229 -11.096  1.00  0.00    -0.290 N 
ATOM     12  H2  UNL     1      48.159  13.532 -11.090  1.00  0.00     0.187 HD
BRANCH  11  13
HETATM   13  N1  UNL     1      46.520  14.293 -10.004  1.00  0.00    -0.277 N 
ATOM     14  H1  UNL     1      45.516  14.193 -10.158  1.00  0.00     0.189 HD
BRANCH  13  15
HETATM   15  C1  UNL     1      47.019  14.497  -8.701  1.00  0.00     0.368 C 
HETATM   16  O1  UNL     1      47.468  15.611  -8.372  1.00  0.00    -0.282 OA
ENDBRANCH  13  15
ENDBRANCH  11  13
ENDBRANCH   1  11
BRANCH   2  17
HETATM   17  O2  UNL     1      47.769  17.047 -10.859  1.00  0.00    -0.344 OA
ATOM     18  H2  UNL     1      47.605  17.967 -10.686  1.00  0.00     0.219 HD
ENDBRANCH   2  17
TORSDOF 4
ENDMDL
MODEL 3
REMARK VINA RESULT: -6.245921864      1.501      1.538
REMARK  4 active torsions:
REMARK  status: ('A' for Active; 'I' for Inactive)
REMARK    1  A    between atoms: C1_2  and  N1_3 
REMARK    2  A    between atoms: N1_3  and  N2_5 
REMARK    3  A    between atoms: N2_5  and  C2_7 
REMARK    4  A    between atoms: C3_8  and  O2_9 
ROOT
HETATM    1  C2  UNL     1      47.249  15.044 -11.771  1.00  0.00     0.168 A 
HETATM    2  C3  UNL     1      47.090  14.635 -13.063  1.00  0.00     0.178 A 
HETATM    3  N3  UNL     1      47.131  15.552 -14.070  1.00  0.00    -0.287 N 
ATOM      4  H3  UNL     1      47.013  15.243 -15.034  1.00  0.00     0.172 HD
HETATM    5  C4  UNL     1      47.325  16.852 -13.817  1.00  0.00     0.329 A 
HETATM    6  O3  UNL     1      47.356  17.663 -14.793  1.00  0.00    -0.247 OA
HETATM    7  N4  UNL     1      47.481  17.259 -12.560  1.00  0.00    -0.273 N 
ATOM      8  H4  UNL     1      47.629  18.250 -12.371  1.00  0.00     0.173 HD
HETATM    9  C5  UNL     1      47.447  16.382 -11.522  1.00  0.00     0.281 A 
HETATM   10  O4  UNL     1      47.594  16.753 -10.321  1.00  0.00    -0.265 OA
ENDROOT
BRANCH   1  11
HETATM   11  N2  UNL     1      47.205  14.136 -10.694  1.00  0.00    -0.290 N 
ATOM     12  H2  UNL     1      46.416  13.495 -10.613  1.00  0.00     0.187 HD
BRANCH  11  13
HETATM   13  N1  UNL     1      48.231  14.096  -9.723  1.00  0.00    -0.277 N 
ATOM     14  H1  UNL     1      49.188  14.337  -9.980  1.00  0.00     0.189 HD
BRANCH  13  15
HETATM   15  C1  UNL     1      47.927  13.720  -8.398  1.00  0.00     0.368 C 
HETATM   16  O1  UNL     1      47.936  14.572  -7.490  1.00  0.00    -0.282 OA
ENDBRANCH  13  15
ENDBRANCH  11  13
ENDBRANCH   1  11
BRANCH   2  17
HETATM   17  O2  UNL     1      46.887  13.324 -13.408  1.00  0.00    -0.344 OA
ATOM     18  H2  UNL     1      46.767  12.635 -12.764  1.00  0.00     0.219 HD
ENDBRANCH   2  17
TORSDOF 4
ENDMDL
MODEL 4
REMARK VINA RESULT: -6.158467127      0.281      2.255
REMARK  4 active torsions:
REMARK  status: ('A' for Active; 'I' for Inactive)
REMARK    1  A    between atoms: C1_2  and  N1_3 
REMARK    2  A    between atoms: N1_3  and  N2_5 
REMARK    3  A    between atoms: N2_5  and  C2_7 
REMARK    4  A    between atoms: C3_8  and  O2_9 
ROOT
HETATM    1  C2  UNL     1      47.609  15.627 -12.522  1.00  0.00     0.168 A 
HETATM    2  C3  UNL     1      47.809  16.970 -12.666  1.00  0.00     0.178 A 
HETATM    3  N3  UNL     1      47.454  17.583 -13.830  1.00  0.00    -0.287 N 
ATOM      4  H3  UNL     1      47.603  18.586 -13.933  1.00  0.00     0.172 HD
HETATM    5  C4  UNL     1      46.912  16.892 -14.840  1.00  0.00     0.329 A 
HETATM    6  O3  UNL     1      46.599  17.513 -15.902  1.00  0.00    -0.247 OA
HETATM    7  N4  UNL     1      46.715  15.582 -14.708  1.00  0.00    -0.273 N 
ATOM      8  H4  UNL     1      46.301  15.060 -15.480  1.00  0.00     0.173 HD
HETATM    9  C5  UNL     1      47.052  14.927 -13.566  1.00  0.00     0.281 A 
HETATM   10  O4  UNL     1      46.872  13.683 -13.425  1.00  0.00    -0.265 OA
ENDROOT
BRANCH   1  11
HETATM   11  N2  UNL     1      47.968  14.945 -11.342  1.00  0.00    -0.290 N 
ATOM     12  H2  UNL     1      48.935  14.978 -11.020  1.00  0.00     0.187 HD
BRANCH  11  13
HETATM   13  N1  UNL     1      47.016  14.216 -10.595  1.00  0.00    -0.277 N 
ATOM     14  H1  UNL     1      46.772  13.264 -10.868  1.00  0.00     0.189 HD
BRANCH  13  15
HETATM   15  C1  UNL     1      46.403  14.809  -9.471  1.00  0.00     0.368 C 
HETATM   16  O1  UNL     1      45.173  15.001  -9.461  1.00  0.00    -0.282 OA
ENDBRANCH  13  15
ENDBRANCH  11  13
ENDBRANCH   1  11
BRANCH   2  17
HETATM   17  O2  UNL     1      48.357  17.749 -11.681  1.00  0.00    -0.344 OA
ATOM     18  H2  UNL     1      47.833  18.273 -11.087  1.00  0.00     0.219 HD
ENDBRANCH   2  17
TORSDOF 4
ENDMDL
MODEL 5
REMARK VINA RESULT: -6.055328116      1.235      4.492
REMARK  4 active torsions:
REMARK  status: ('A' for Active; 'I' for Inactive)
REMARK    1  A    between atoms: C1_2  and  N1_3 
REMARK    2  A    between atoms: N1_3  and  N2_5 
REMARK    3  A    between atoms: N2_5  and  C2_7 
REMARK    4  A    between atoms: C3_8  and  O2_9 
ROOT
HETATM    1  C2  UNL     1      47.537  16.044 -12.477  1.00  0.00     0.168 A 
HETATM    2  C3  UNL     1      47.304  14.701 -12.540  1.00  0.00     0.178 A 
HETATM    3  N3  UNL     1      47.111  13.996 -11.390  1.00  0.00    -0.287 N 
ATOM      4  H3  UNL     1      46.937  12.992 -11.441  1.00  0.00     0.172 HD
HETATM    5  C4  UNL     1      47.147  14.596 -10.195  1.00  0.00     0.329 A 
HETATM    6  O3  UNL     1      46.960  13.892  -9.155  1.00  0.00    -0.247 OA
HETATM    7  N4  UNL     1      47.374  15.906 -10.124  1.00  0.00    -0.273 N 
ATOM      8  H4  UNL     1      47.399  16.359  -9.212  1.00  0.00     0.173 HD
HETATM    9  C5  UNL     1      47.571  16.651 -11.244  1.00  0.00     0.281 A 
HETATM   10  O4  UNL     1      47.788  17.896 -11.194  1.00  0.00    -0.265 OA
ENDROOT
BRANCH   1  11
HETATM   11  N2  UNL     1      47.751  16.816 -13.637  1.00  0.00    -0.290 N 
ATOM     12  H2  UNL     1      48.507  17.500 -13.649  1.00  0.00     0.187 HD
BRANCH  11  13
HETATM   13  N1  UNL     1      46.941  16.661 -14.784  1.00  0.00    -0.277 N 
ATOM     14  H1  UNL     1      46.070  16.132 -14.728  1.00  0.00     0.189 HD
BRANCH  13  15
HETATM   15  C1  UNL     1      47.339  17.240 -16.007  1.00  0.00     0.368 C 
HETATM   16  O1  UNL     1      46.510  17.848 -16.709  1.00  0.00    -0.282 OA
ENDBRANCH  13  15
ENDBRANCH  11  13
ENDBRANCH   1  11
BRANCH   2  17
HETATM   17  O2  UNL     1      47.251  14.010 -13.723  1.00  0.00    -0.344 OA
ATOM     18  H2  UNL     1      47.841  13.294 -13.927  1.00  0.00     0.219 HD
ENDBRANCH   2  17
TORSDOF 4
ENDMDL
