MODEL 1
REMARK VINA RESULT: -5.285248124      0.000      0.000
REMARK  8 active torsions:
REMARK  status: ('A' for Active; 'I' for Inactive)
REMARK    1  A    between atoms: N1_1  and  C1_5 
REMARK    2  A    between atoms: C1_5  and  C2_6 
REMARK    3  A    between atoms: C2_6  and  C3_7 
REMARK    4  A    between atoms: C3_7  and  N2_8 
REMARK    5  A    between atoms: N2_8  and  C4_10 
REMARK    6  A    between atoms: C5_16  and  N5_17 
REMARK    7  A    between atoms: N5_17  and  N6_19 
REMARK    8  A    between atoms: N6_19  and  O2_21 
ROOT
HETATM    1  C4  UNL     1      47.437  15.057 -12.532  1.00  0.00     0.171 A 
HETATM    2  N3  UNL     1      46.936  13.894 -12.982  1.00  0.00    -0.222 N 
ATOM      3  H3  UNL     1      46.906  13.013 -12.470  1.00  0.00     0.198 HD
HETATM    4  O1  UNL     1      46.502  14.095 -14.175  1.00  0.00    -0.153 OA
HETATM    5  N4  UNL     1      46.669  15.312 -14.576  1.00  0.00    -0.221 N 
ATOM      6  H4  UNL     1      46.404  15.703 -15.480  1.00  0.00     0.198 HD
HETATM    7  C5  UNL     1      47.262  15.959 -13.559  1.00  0.00     0.189 A 
ENDROOT
BRANCH   1   8
HETATM    8  N2  UNL     1      47.974  15.315 -11.395  1.00  0.00    -0.372 N 
ATOM      9  H2  UNL     1      48.980  15.216 -11.260  1.00  0.00     0.161 HD
BRANCH   8  10
HETATM   10  C3  UNL     1      47.119  15.751 -10.308  1.00  0.00     0.123 C 
BRANCH  10  11
HETATM   11  C2  UNL     1      46.571  14.515  -9.613  1.00  0.00     0.047 C 
BRANCH  11  12
HETATM   12  C1  UNL     1      47.763  13.741  -9.088  1.00  0.00     0.231 C 
BRANCH  12  13
HETATM   13  N1  UNL     1      48.054  14.091  -7.733  1.00  0.00    -0.079 N 
ATOM     14  H13 UNL     1      48.665  14.907  -7.680  1.00  0.00     0.274 HD
ATOM     15  H12 UNL     1      47.236  14.477  -7.263  1.00  0.00     0.274 HD
ATOM     16  H11 UNL     1      48.441  13.300  -7.220  1.00  0.00     0.274 HD
ENDBRANCH  12  13
ENDBRANCH  11  12
ENDBRANCH  10  11
ENDBRANCH   8  10
ENDBRANCH   1   8
BRANCH   7  17
HETATM   17  N5  UNL     1      47.591  17.207 -13.585  1.00  0.00    -0.261 N 
ATOM     18  H5  UNL     1      47.734  17.702 -12.705  1.00  0.00     0.190 HD
BRANCH  17  19
HETATM   19  N6  UNL     1      47.757  17.900 -14.791  1.00  0.00    -0.208 N 
ATOM     20  H6  UNL     1      48.631  18.374 -15.019  1.00  0.00     0.215 HD
BRANCH  19  21
HETATM   21  O2  UNL     1      46.701  17.911 -15.640  1.00  0.00    -0.274 OA
ATOM     22  H2  UNL     1      45.878  18.236 -15.295  1.00  0.00     0.246 HD
ENDBRANCH  19  21
ENDBRANCH  17  19
ENDBRANCH   7  17
TORSDOF 8
ENDMDL
MODEL 2
REMARK VINA RESULT: -5.245158575      1.431      2.041
REMARK  8 active torsions:
REMARK  status: ('A' for Active; 'I' for Inactive)
REMARK    1  A    between atoms: N1_1  and  C1_5 
REMARK    2  A    between atoms: C1_5  and  C2_6 
REMARK    3  A    between atoms: C2_6  and  C3_7 
REMARK    4  A    between atoms: C3_7  and  N2_8 
REMARK    5  A    between atoms: N2_8  and  C4_10 
REMARK    6  A    between atoms: C5_16  and  N5_17 
REMARK    7  A    between atoms: N5_17  and  N6_19 
REMARK    8  A    between atoms: N6_19  and  O2_21 
ROOT
HETATM    1  C4  UNL     1      47.671  15.415 -12.038  1.00  0.00     0.171 A 
HETATM    2  N3  UNL     1      48.621  16.174 -11.465  1.00  0.00    -0.222 N 
ATOM      3  H3  UNL     1      49.001  16.057 -10.526  1.00  0.00     0.198 HD
HETATM    4  O1  UNL     1      48.962  17.074 -12.317  1.00  0.00    -0.153 OA
HETATM    5  N4  UNL     1      48.316  16.987 -13.432  1.00  0.00    -0.221 N 
ATOM      6  H4  UNL     1      48.418  17.589 -14.249  1.00  0.00     0.198 HD
HETATM    7  C5  UNL     1      47.483  15.942 -13.296  1.00  0.00     0.189 A 
ENDROOT
BRANCH   1   8
HETATM    8  N2  UNL     1      47.048  14.404 -11.551  1.00  0.00    -0.372 N 
ATOM      9  H2  UNL     1      46.845  13.589 -12.129  1.00  0.00     0.161 HD
BRANCH   8  10
HETATM   10  C3  UNL     1      46.639  14.447 -10.160  1.00  0.00     0.123 C 
BRANCH  10  11
HETATM   11  C2  UNL     1      47.419  13.383  -9.406  1.00  0.00     0.047 C 
BRANCH  11  12
HETATM   12  C1  UNL     1      47.854  14.004  -8.094  1.00  0.00     0.231 C 
BRANCH  12  13
HETATM   13  N1  UNL     1      47.915  15.429  -8.188  1.00  0.00    -0.079 N 
ATOM     14  H13 UNL     1      47.360  15.877  -7.459  1.00  0.00     0.274 HD
ATOM     15  H12 UNL     1      48.834  15.782  -7.924  1.00  0.00     0.274 HD
ATOM     16  H11 UNL     1      47.643  15.752  -9.116  1.00  0.00     0.274 HD
ENDBRANCH  12  13
ENDBRANCH  11  12
ENDBRANCH  10  11
ENDBRANCH   8  10
ENDBRANCH   1   8
BRANCH   7  17
HETATM   17  N5  UNL     1      46.667  15.541 -14.213  1.00  0.00    -0.261 N 
ATOM     18  H5  UNL     1      46.017  14.783 -14.002  1.00  0.00     0.190 HD
BRANCH  17  19
HETATM   19  N6  UNL     1      46.649  16.118 -15.488  1.00  0.00    -0.208 N 
ATOM     20  H6  UNL     1      46.841  15.569 -16.326  1.00  0.00     0.215 HD
BRANCH  19  21
HETATM   21  O2  UNL     1      46.365  17.441 -15.557  1.00  0.00    -0.274 OA
ATOM     22  H2  UNL     1      45.653  17.698 -16.130  1.00  0.00     0.246 HD
ENDBRANCH  19  21
ENDBRANCH  17  19
ENDBRANCH   7  17
TORSDOF 8
ENDMDL
MODEL 3
REMARK VINA RESULT: -5.234415173      2.133      5.276
REMARK  8 active torsions:
REMARK  status: ('A' for Active; 'I' for Inactive)
REMARK    1  A    between atoms: N1_1  and  C1_5 
REMARK    2  A    between atoms: C1_5  and  C2_6 
REMARK    3  A    between atoms: C2_6  and  C3_7 
REMARK    4  A    between atoms: C3_7  and  N2_8 
REMARK    5  A    between atoms: N2_8  and  C4_10 
REMARK    6  A    between atoms: C5_16  and  N5_17 
REMARK    7  A    between atoms: N5_17  and  N6_19 
REMARK    8  A    between atoms: N6_19  and  O2_21 
ROOT
HETATM    1  C4  UNL     1      47.199  16.018 -13.597  1.00  0.00     0.171 A 
HETATM    2  N3  UNL     1      46.667  15.274 -14.582  1.00  0.00    -0.222 N 
ATOM      3  H3  UNL     1      46.404  15.602 -15.511  1.00  0.00     0.198 HD
HETATM    4  O1  UNL     1      46.550  14.073 -14.138  1.00  0.00    -0.153 OA
HETATM    5  N4  UNL     1      46.964  13.941 -12.921  1.00  0.00    -0.221 N 
ATOM      6  H4  UNL     1      46.970  13.086 -12.364  1.00  0.00     0.198 HD
HETATM    7  C5  UNL     1      47.386  15.157 -12.539  1.00  0.00     0.189 A 
ENDROOT
BRANCH   1   8
HETATM    8  N2  UNL     1      47.487  17.269 -13.602  1.00  0.00    -0.372 N 
ATOM      9  H2  UNL     1      47.032  17.911 -12.953  1.00  0.00     0.161 HD
BRANCH   8  10
HETATM   10  C3  UNL     1      48.475  17.749 -14.550  1.00  0.00     0.123 C 
BRANCH  10  11
HETATM   11  C2  UNL     1      47.739  18.401 -15.709  1.00  0.00     0.047 C 
BRANCH  11  12
HETATM   12  C1  UNL     1      48.282  17.780 -16.979  1.00  0.00     0.231 C 
BRANCH  12  13
HETATM   13  N1  UNL     1      47.310  16.939 -17.604  1.00  0.00    -0.079 N 
ATOM     14  H13 UNL     1      46.722  16.471 -16.915  1.00  0.00     0.274 HD
ATOM     15  H12 UNL     1      46.592  17.486 -18.078  1.00  0.00     0.274 HD
ATOM     16  H11 UNL     1      47.749  16.271 -18.237  1.00  0.00     0.274 HD
ENDBRANCH  12  13
ENDBRANCH  11  12
ENDBRANCH  10  11
ENDBRANCH   8  10
ENDBRANCH   1   8
BRANCH   7  17
HETATM   17  N5  UNL     1      47.874  15.423 -11.374  1.00  0.00    -0.261 N 
ATOM     18  H5  UNL     1      48.823  15.789 -11.305  1.00  0.00     0.190 HD
BRANCH  17  19
HETATM   19  N6  UNL     1      47.134  15.223 -10.202  1.00  0.00    -0.208 N 
ATOM     20  H6  UNL     1      47.426  15.625  -9.310  1.00  0.00     0.215 HD
BRANCH  19  21
HETATM   21  O2  UNL     1      46.012  14.471 -10.308  1.00  0.00    -0.274 OA
ATOM     22  H2  UNL     1      45.434  14.453  -9.554  1.00  0.00     0.246 HD
ENDBRANCH  19  21
ENDBRANCH  17  19
ENDBRANCH   7  17
TORSDOF 8
ENDMDL
MODEL 4
REMARK VINA RESULT: -5.175611676      1.646      3.214
REMARK  8 active torsions:
REMARK  status: ('A' for Active; 'I' for Inactive)
REMARK    1  A    between atoms: N1_1  and  C1_5 
REMARK    2  A    between atoms: C1_5  and  C2_6 
REMARK    3  A    between atoms: C2_6  and  C3_7 
REMARK    4  A    between atoms: C3_7  and  N2_8 
REMARK    5  A    between atoms: N2_8  and  C4_10 
REMARK    6  A    between atoms: C5_16  and  N5_17 
REMARK    7  A    between atoms: N5_17  and  N6_19 
REMARK    8  A    between atoms: N6_19  and  O2_21 
ROOT
HETATM    1  C4  UNL     1      47.972  17.552 -14.113  1.00  0.00     0.171 A 
HETATM    2  N3  UNL     1      48.667  18.187 -15.072  1.00  0.00    -0.222 N 
ATOM      3  H3  UNL     1      49.360  18.922 -14.928  1.00  0.00     0.198 HD
HETATM    4  O1  UNL     1      48.301  17.699 -16.203  1.00  0.00    -0.153 OA
HETATM    5  N4  UNL     1      47.405  16.775 -16.089  1.00  0.00    -0.221 N 
ATOM      6  H4  UNL     1      46.967  16.247 -16.844  1.00  0.00     0.198 HD
HETATM    7  C5  UNL     1      47.167  16.650 -14.773  1.00  0.00     0.189 A 
ENDROOT
BRANCH   1   8
HETATM    8  N2  UNL     1      48.019  17.720 -12.841  1.00  0.00    -0.372 N 
ATOM      9  H2  UNL     1      47.663  18.576 -12.415  1.00  0.00     0.161 HD
BRANCH   8  10
HETATM   10  C3  UNL     1      48.588  16.667 -12.023  1.00  0.00     0.123 C 
BRANCH  10  11
HETATM   11  C2  UNL     1      47.617  16.370 -10.892  1.00  0.00     0.047 C 
BRANCH  11  12
HETATM   12  C1  UNL     1      47.958  14.990 -10.370  1.00  0.00     0.231 C 
BRANCH  12  13
HETATM   13  N1  UNL     1      46.912  14.056 -10.648  1.00  0.00    -0.079 N 
ATOM     14  H13 UNL     1      47.262  13.240 -11.151  1.00  0.00     0.274 HD
ATOM     15  H12 UNL     1      46.591  13.591  -9.799  1.00  0.00     0.274 HD
ATOM     16  H11 UNL     1      46.141  14.499 -11.145  1.00  0.00     0.274 HD
ENDBRANCH  12  13
ENDBRANCH  11  12
ENDBRANCH  10  11
ENDBRANCH   8  10
ENDBRANCH   1   8
BRANCH   7  17
HETATM   17  N5  UNL     1      46.323  15.817 -14.264  1.00  0.00    -0.261 N 
ATOM     18  H5  UNL     1      45.527  16.177 -13.736  1.00  0.00     0.190 HD
BRANCH  17  19
HETATM   19  N6  UNL     1      46.469  14.433 -14.416  1.00  0.00    -0.208 N 
ATOM     20  H6  UNL     1      45.932  13.912 -15.109  1.00  0.00     0.215 HD
BRANCH  19  21
HETATM   21  O2  UNL     1      47.358  13.819 -13.598  1.00  0.00    -0.274 OA
ATOM     22  H2  UNL     1      47.154  12.929 -13.335  1.00  0.00     0.246 HD
ENDBRANCH  19  21
ENDBRANCH  17  19
ENDBRANCH   7  17
TORSDOF 8
ENDMDL
MODEL 5
REMARK VINA RESULT: -5.118058634      1.662      1.741
REMARK  8 active torsions:
REMARK  status: ('A' for Active; 'I' for Inactive)
REMARK    1  A    between atoms: N1_1  and  C1_5 
REMARK    2  A    between atoms: C1_5  and  C2_6 
REMARK    3  A    between atoms: C2_6  and  C3_7 
REMARK    4  A    between atoms: C3_7  and  N2_8 
REMARK    5  A    between atoms: N2_8  and  C4_10 
REMARK    6  A    between atoms: C5_16  and  N5_17 
REMARK    7  A    between atoms: N5_17  and  N6_19 
REMARK    8  A    between atoms: N6_19  and  O2_21 
ROOT
HETATM    1  C4  UNL     1      47.545  15.455 -12.310  1.00  0.00     0.171 A 
HETATM    2  N3  UNL     1      46.943  14.382 -12.851  1.00  0.00    -0.222 N 
ATOM      3  H3  UNL     1      46.753  13.497 -12.382  1.00  0.00     0.198 HD
HETATM    4  O1  UNL     1      46.648  14.676 -14.068  1.00  0.00    -0.153 OA
HETATM    5  N4  UNL     1      47.005  15.873 -14.400  1.00  0.00    -0.221 N 
ATOM      6  H4  UNL     1      46.877  16.323 -15.306  1.00  0.00     0.198 HD
HETATM    7  C5  UNL     1      47.581  16.403 -13.308  1.00  0.00     0.189 A 
ENDROOT
BRANCH   1   8
HETATM    8  N2  UNL     1      48.004  15.604 -11.121  1.00  0.00    -0.372 N 
ATOM      9  H2  UNL     1      49.005  15.711 -10.959  1.00  0.00     0.161 HD
BRANCH   8  10
HETATM   10  C3  UNL     1      47.068  15.618 -10.013  1.00  0.00     0.123 C 
BRANCH  10  11
HETATM   11  C2  UNL     1      47.809  15.171  -8.764  1.00  0.00     0.047 C 
BRANCH  11  12
HETATM   12  C1  UNL     1      48.151  13.708  -8.954  1.00  0.00     0.231 C 
BRANCH  12  13
HETATM   13  N1  UNL     1      47.058  12.989  -9.530  1.00  0.00    -0.079 N 
ATOM     14  H13 UNL     1      46.284  13.609  -9.766  1.00  0.00     0.274 HD
ATOM     15  H12 UNL     1      47.283  12.654 -10.466  1.00  0.00     0.274 HD
ATOM     16  H11 UNL     1      46.755  12.227  -8.923  1.00  0.00     0.274 HD
ENDBRANCH  12  13
ENDBRANCH  11  12
ENDBRANCH  10  11
ENDBRANCH   8  10
ENDBRANCH   1   8
BRANCH   7  17
HETATM   17  N5  UNL     1      48.068  17.598 -13.253  1.00  0.00    -0.261 N 
ATOM     18  H5  UNL     1      48.861  17.839 -13.846  1.00  0.00     0.190 HD
BRANCH  17  19
HETATM   19  N6  UNL     1      47.535  18.572 -12.399  1.00  0.00    -0.208 N 
ATOM     20  H6  UNL     1      46.722  19.128 -12.664  1.00  0.00     0.215 HD
BRANCH  19  21
HETATM   21  O2  UNL     1      48.152  18.741 -11.205  1.00  0.00    -0.274 OA
ATOM     22  H2  UNL     1      48.118  18.011 -10.598  1.00  0.00     0.246 HD
ENDBRANCH  19  21
ENDBRANCH  17  19
ENDBRANCH   7  17
TORSDOF 8
ENDMDL
