MODEL 1
REMARK VINA RESULT: -7.651043782      0.000      0.000
REMARK  13 active torsions:
REMARK  status: ('A' for Active; 'I' for Inactive)
REMARK    1  A    between atoms: C3_3  and  O1_5 
REMARK    2  A    between atoms: O1_5  and  C5_6 
REMARK    3  A    between atoms: C5_6  and  C6_8 
REMARK    4  A    between atoms: N1_13  and  C11_14 
REMARK    5  A    between atoms: C11_14  and  C12_15 
REMARK    6  A    between atoms: C12_15  and  C13_17 
REMARK    7  A    between atoms: C13_17  and  C14_18 
REMARK    8  A    between atoms: C14_18  and  C15_19 
REMARK    9  A    between atoms: C15_19  and  C16_20 
REMARK   10  A    between atoms: C16_20  and  C17_21 
REMARK   11  A    between atoms: C17_21  and  C18_22 
REMARK   12  A    between atoms: C18_22  and  C19_23 
REMARK   13  A    between atoms: C19_23  and  C20_24 
ROOT
HETATM    1  C1  UNL     1      32.445  30.667  18.154  1.00  0.00     0.015 C 
HETATM    2  C2  UNL     1      31.314  30.444  17.796  1.00  0.00    -0.085 C 
HETATM    3  C3  UNL     1      29.927  30.176  17.325  1.00  0.00     0.205 C 
HETATM    4  C4  UNL     1      29.187  29.303  18.278  1.00  0.00     0.054 C 
ENDROOT
BRANCH   3   5
HETATM    5  O1  UNL     1      30.079  29.630  16.028  1.00  0.00    -0.302 OA
BRANCH   5   6
HETATM    6  C5  UNL     1      29.667  30.284  14.871  1.00  0.00     0.283 C 
HETATM    7  O2  UNL     1      28.449  30.255  14.599  1.00  0.00    -0.263 OA
BRANCH   6   8
HETATM    8  C6  UNL     1      30.711  30.966  14.055  1.00  0.00     0.183 C 
HETATM    9  C7  UNL     1      31.842  29.928  13.949  1.00  0.00     0.035 C 
HETATM   10  C8  UNL     1      32.831  30.437  12.955  1.00  0.00     0.004 C 
HETATM   11  C9  UNL     1      33.280  31.830  13.330  1.00  0.00     0.020 C 
HETATM   12  C10 UNL     1      32.658  32.277  14.651  1.00  0.00     0.123 C 
HETATM   13  N1  UNL     1      31.248  32.125  14.623  1.00  0.00    -0.373 N 
BRANCH  13  14
HETATM   14  C11 UNL     1      30.478  33.276  14.824  1.00  0.00     0.136 C 
BRANCH  14  15
HETATM   15  C12 UNL     1      30.818  34.467  14.056  1.00  0.00     0.164 C 
HETATM   16  O3  UNL     1      30.591  34.544  12.876  1.00  0.00    -0.292 OA
BRANCH  15  17
HETATM   17  C13 UNL     1      31.463  35.628  14.728  1.00  0.00     0.084 C 
BRANCH  17  18
HETATM   18  C14 UNL     1      32.754  35.956  14.038  1.00  0.00     0.008 C 
BRANCH  18  19
HETATM   19  C15 UNL     1      33.352  37.291  14.448  1.00  0.00     0.000 C 
BRANCH  19  20
HETATM   20  C16 UNL     1      32.989  38.391  13.543  1.00  0.00     0.000 C 
BRANCH  20  21
HETATM   21  C17 UNL     1      32.491  39.664  14.076  1.00  0.00     0.000 C 
BRANCH  21  22
HETATM   22  C18 UNL     1      33.367  40.733  14.534  1.00  0.00     0.004 C 
BRANCH  22  23
HETATM   23  C19 UNL     1      33.860  40.800  15.928  1.00  0.00     0.026 C 
BRANCH  23  24
HETATM   24  C20 UNL     1      33.746  42.242  16.381  1.00  0.00    -0.037 C 
HETATM   25  C21 UNL     1      33.384  43.204  15.567  1.00  0.00     0.007 C 
ENDBRANCH  23  24
ENDBRANCH  22  23
ENDBRANCH  21  22
ENDBRANCH  20  21
ENDBRANCH  19  20
ENDBRANCH  18  19
ENDBRANCH  17  18
ENDBRANCH  15  17
ENDBRANCH  14  15
ENDBRANCH  13  14
ENDBRANCH   6   8
ENDBRANCH   5   6
ENDBRANCH   3   5
TORSDOF 13
ENDMDL
MODEL 2
REMARK VINA RESULT: -7.619447325      3.254      5.797
REMARK  13 active torsions:
REMARK  status: ('A' for Active; 'I' for Inactive)
REMARK    1  A    between atoms: C3_3  and  O1_5 
REMARK    2  A    between atoms: O1_5  and  C5_6 
REMARK    3  A    between atoms: C5_6  and  C6_8 
REMARK    4  A    between atoms: N1_13  and  C11_14 
REMARK    5  A    between atoms: C11_14  and  C12_15 
REMARK    6  A    between atoms: C12_15  and  C13_17 
REMARK    7  A    between atoms: C13_17  and  C14_18 
REMARK    8  A    between atoms: C14_18  and  C15_19 
REMARK    9  A    between atoms: C15_19  and  C16_20 
REMARK   10  A    between atoms: C16_20  and  C17_21 
REMARK   11  A    between atoms: C17_21  and  C18_22 
REMARK   12  A    between atoms: C18_22  and  C19_23 
REMARK   13  A    between atoms: C19_23  and  C20_24 
ROOT
HETATM    1  C1  UNL     1      32.190  29.078  13.794  1.00  0.00     0.015 C 
HETATM    2  C2  UNL     1      31.112  28.551  13.655  1.00  0.00    -0.085 C 
HETATM    3  C3  UNL     1      29.782  27.896  13.513  1.00  0.00     0.205 C 
HETATM    4  C4  UNL     1      29.077  28.353  12.284  1.00  0.00     0.054 C 
ENDROOT
BRANCH   3   5
HETATM    5  O1  UNL     1      29.101  28.186  14.720  1.00  0.00    -0.302 OA
BRANCH   5   6
HETATM    6  C5  UNL     1      28.880  27.241  15.717  1.00  0.00     0.283 C 
HETATM    7  O2  UNL     1      27.911  26.467  15.570  1.00  0.00    -0.263 OA
BRANCH   6   8
HETATM    8  C6  UNL     1      29.818  27.228  16.876  1.00  0.00     0.183 C 
HETATM    9  C7  UNL     1      29.953  25.737  17.233  1.00  0.00     0.035 C 
HETATM   10  C8  UNL     1      31.052  25.609  18.233  1.00  0.00     0.004 C 
HETATM   11  C9  UNL     1      30.799  26.524  19.408  1.00  0.00     0.020 C 
HETATM   12  C10 UNL     1      29.463  27.248  19.271  1.00  0.00     0.123 C 
HETATM   13  N1  UNL     1      29.367  27.900  18.015  1.00  0.00    -0.373 N 
BRANCH  13  14
HETATM   14  C11 UNL     1      29.174  29.286  18.029  1.00  0.00     0.136 C 
BRANCH  14  15
HETATM   15  C12 UNL     1      30.329  30.138  17.777  1.00  0.00     0.164 C 
HETATM   16  O3  UNL     1      31.224  30.243  18.577  1.00  0.00    -0.292 OA
BRANCH  15  17
HETATM   17  C13 UNL     1      30.426  30.906  16.506  1.00  0.00     0.084 C 
BRANCH  17  18
HETATM   18  C14 UNL     1      31.684  31.725  16.507  1.00  0.00     0.008 C 
BRANCH  18  19
HETATM   19  C15 UNL     1      31.701  32.831  15.466  1.00  0.00     0.000 C 
BRANCH  19  20
HETATM   20  C16 UNL     1      32.617  32.561  14.349  1.00  0.00     0.000 C 
BRANCH  20  21
HETATM   21  C17 UNL     1      32.515  33.322  13.099  1.00  0.00     0.000 C 
BRANCH  21  22
HETATM   22  C18 UNL     1      31.539  34.382  12.888  1.00  0.00     0.004 C 
BRANCH  22  23
HETATM   23  C19 UNL     1      31.946  35.778  12.607  1.00  0.00     0.026 C 
BRANCH  23  24
HETATM   24  C20 UNL     1      32.419  36.384  13.913  1.00  0.00    -0.037 C 
HETATM   25  C21 UNL     1      31.632  36.500  14.955  1.00  0.00     0.007 C 
ENDBRANCH  23  24
ENDBRANCH  22  23
ENDBRANCH  21  22
ENDBRANCH  20  21
ENDBRANCH  19  20
ENDBRANCH  18  19
ENDBRANCH  17  18
ENDBRANCH  15  17
ENDBRANCH  14  15
ENDBRANCH  13  14
ENDBRANCH   6   8
ENDBRANCH   5   6
ENDBRANCH   3   5
TORSDOF 13
ENDMDL
MODEL 3
REMARK VINA RESULT: -7.609572520      1.425      2.342
REMARK  13 active torsions:
REMARK  status: ('A' for Active; 'I' for Inactive)
REMARK    1  A    between atoms: C3_3  and  O1_5 
REMARK    2  A    between atoms: O1_5  and  C5_6 
REMARK    3  A    between atoms: C5_6  and  C6_8 
REMARK    4  A    between atoms: N1_13  and  C11_14 
REMARK    5  A    between atoms: C11_14  and  C12_15 
REMARK    6  A    between atoms: C12_15  and  C13_17 
REMARK    7  A    between atoms: C13_17  and  C14_18 
REMARK    8  A    between atoms: C14_18  and  C15_19 
REMARK    9  A    between atoms: C15_19  and  C16_20 
REMARK   10  A    between atoms: C16_20  and  C17_21 
REMARK   11  A    between atoms: C17_21  and  C18_22 
REMARK   12  A    between atoms: C18_22  and  C19_23 
REMARK   13  A    between atoms: C19_23  and  C20_24 
ROOT
HETATM    1  C1  UNL     1      29.033  28.338  11.890  1.00  0.00     0.015 C 
HETATM    2  C2  UNL     1      29.303  28.287  13.065  1.00  0.00    -0.085 C 
HETATM    3  C3  UNL     1      29.650  28.251  14.513  1.00  0.00     0.205 C 
HETATM    4  C4  UNL     1      28.740  27.347  15.270  1.00  0.00     0.054 C 
ENDROOT
BRANCH   3   5
HETATM    5  O1  UNL     1      29.613  29.603  14.932  1.00  0.00    -0.302 OA
BRANCH   5   6
HETATM    6  C5  UNL     1      30.752  30.331  15.262  1.00  0.00     0.283 C 
HETATM    7  O2  UNL     1      31.089  30.354  16.464  1.00  0.00    -0.263 OA
BRANCH   6   8
HETATM    8  C6  UNL     1      31.475  31.020  14.155  1.00  0.00     0.183 C 
HETATM    9  C7  UNL     1      32.596  30.038  13.771  1.00  0.00     0.035 C 
HETATM   10  C8  UNL     1      33.229  30.541  12.518  1.00  0.00     0.004 C 
HETATM   11  C9  UNL     1      33.672  31.975  12.695  1.00  0.00     0.020 C 
HETATM   12  C10 UNL     1      33.420  32.463  14.120  1.00  0.00     0.123 C 
HETATM   13  N1  UNL     1      32.073  32.236  14.501  1.00  0.00    -0.373 N 
BRANCH  13  14
HETATM   14  C11 UNL     1      31.316  33.354  14.868  1.00  0.00     0.136 C 
BRANCH  14  15
HETATM   15  C12 UNL     1      30.730  34.159  13.805  1.00  0.00     0.164 C 
HETATM   16  O3  UNL     1      29.605  33.972  13.417  1.00  0.00    -0.292 OA
BRANCH  15  17
HETATM   17  C13 UNL     1      31.523  35.246  13.169  1.00  0.00     0.084 C 
BRANCH  17  18
HETATM   18  C14 UNL     1      32.453  35.850  14.180  1.00  0.00     0.008 C 
BRANCH  18  19
HETATM   19  C15 UNL     1      32.224  37.331  14.424  1.00  0.00     0.000 C 
BRANCH  19  20
HETATM   20  C16 UNL     1      32.916  38.192  13.454  1.00  0.00     0.000 C 
BRANCH  20  21
HETATM   21  C17 UNL     1      33.191  39.599  13.766  1.00  0.00     0.000 C 
BRANCH  21  22
HETATM   22  C18 UNL     1      33.004  40.172  15.093  1.00  0.00     0.004 C 
BRANCH  22  23
HETATM   23  C19 UNL     1      34.138  40.699  15.886  1.00  0.00     0.026 C 
BRANCH  23  24
HETATM   24  C20 UNL     1      33.750  42.082  16.369  1.00  0.00    -0.037 C 
HETATM   25  C21 UNL     1      33.397  43.037  15.542  1.00  0.00     0.007 C 
ENDBRANCH  23  24
ENDBRANCH  22  23
ENDBRANCH  21  22
ENDBRANCH  20  21
ENDBRANCH  19  20
ENDBRANCH  18  19
ENDBRANCH  17  18
ENDBRANCH  15  17
ENDBRANCH  14  15
ENDBRANCH  13  14
ENDBRANCH   6   8
ENDBRANCH   5   6
ENDBRANCH   3   5
TORSDOF 13
ENDMDL
MODEL 4
REMARK VINA RESULT: -7.472506917      4.678      7.123
REMARK  13 active torsions:
REMARK  status: ('A' for Active; 'I' for Inactive)
REMARK    1  A    between atoms: C3_3  and  O1_5 
REMARK    2  A    between atoms: O1_5  and  C5_6 
REMARK    3  A    between atoms: C5_6  and  C6_8 
REMARK    4  A    between atoms: N1_13  and  C11_14 
REMARK    5  A    between atoms: C11_14  and  C12_15 
REMARK    6  A    between atoms: C12_15  and  C13_17 
REMARK    7  A    between atoms: C13_17  and  C14_18 
REMARK    8  A    between atoms: C14_18  and  C15_19 
REMARK    9  A    between atoms: C15_19  and  C16_20 
REMARK   10  A    between atoms: C16_20  and  C17_21 
REMARK   11  A    between atoms: C17_21  and  C18_22 
REMARK   12  A    between atoms: C18_22  and  C19_23 
REMARK   13  A    between atoms: C19_23  and  C20_24 
ROOT
HETATM    1  C1  UNL     1      28.905  28.332  11.797  1.00  0.00     0.015 C 
HETATM    2  C2  UNL     1      29.485  28.291  12.856  1.00  0.00    -0.085 C 
HETATM    3  C3  UNL     1      30.178  28.222  14.173  1.00  0.00     0.205 C 
HETATM    4  C4  UNL     1      31.622  28.559  14.047  1.00  0.00     0.054 C 
ENDROOT
BRANCH   3   5
HETATM    5  O1  UNL     1      29.921  26.915  14.653  1.00  0.00    -0.302 OA
BRANCH   5   6
HETATM    6  C5  UNL     1      29.261  26.658  15.850  1.00  0.00     0.283 C 
HETATM    7  O2  UNL     1      28.036  26.423  15.791  1.00  0.00    -0.263 OA
BRANCH   6   8
HETATM    8  C6  UNL     1      30.069  26.682  17.102  1.00  0.00     0.183 C 
HETATM    9  C7  UNL     1      30.407  25.203  17.359  1.00  0.00     0.035 C 
HETATM   10  C8  UNL     1      31.408  25.153  18.464  1.00  0.00     0.004 C 
HETATM   11  C9  UNL     1      30.895  25.905  19.669  1.00  0.00     0.020 C 
HETATM   12  C10 UNL     1      29.478  26.425  19.437  1.00  0.00     0.123 C 
HETATM   13  N1  UNL     1      29.404  27.169  18.231  1.00  0.00    -0.373 N 
BRANCH  13  14
HETATM   14  C11 UNL     1      28.988  28.501  18.328  1.00  0.00     0.136 C 
BRANCH  14  15
HETATM   15  C12 UNL     1      29.995  29.543  18.168  1.00  0.00     0.164 C 
HETATM   16  O3  UNL     1      30.880  29.694  18.970  1.00  0.00    -0.292 OA
BRANCH  15  17
HETATM   17  C13 UNL     1      29.945  30.453  16.991  1.00  0.00     0.084 C 
BRANCH  17  18
HETATM   18  C14 UNL     1      28.605  30.344  16.326  1.00  0.00     0.008 C 
BRANCH  18  19
HETATM   19  C15 UNL     1      28.368  31.380  15.240  1.00  0.00     0.000 C 
BRANCH  19  20
HETATM   20  C16 UNL     1      29.590  31.742  14.508  1.00  0.00     0.000 C 
BRANCH  20  21
HETATM   21  C17 UNL     1      30.096  33.119  14.534  1.00  0.00     0.000 C 
BRANCH  21  22
HETATM   22  C18 UNL     1      31.515  33.447  14.507  1.00  0.00     0.004 C 
BRANCH  22  23
HETATM   23  C19 UNL     1      32.562  32.400  14.535  1.00  0.00     0.026 C 
BRANCH  23  24
HETATM   24  C20 UNL     1      33.173  32.331  13.150  1.00  0.00    -0.037 C 
HETATM   25  C21 UNL     1      33.637  31.213  12.646  1.00  0.00     0.007 C 
ENDBRANCH  23  24
ENDBRANCH  22  23
ENDBRANCH  21  22
ENDBRANCH  20  21
ENDBRANCH  19  20
ENDBRANCH  18  19
ENDBRANCH  17  18
ENDBRANCH  15  17
ENDBRANCH  14  15
ENDBRANCH  13  14
ENDBRANCH   6   8
ENDBRANCH   5   6
ENDBRANCH   3   5
TORSDOF 13
ENDMDL
MODEL 5
REMARK VINA RESULT: -7.407343779      3.625      6.525
REMARK  13 active torsions:
REMARK  status: ('A' for Active; 'I' for Inactive)
REMARK    1  A    between atoms: C3_3  and  O1_5 
REMARK    2  A    between atoms: O1_5  and  C5_6 
REMARK    3  A    between atoms: C5_6  and  C6_8 
REMARK    4  A    between atoms: N1_13  and  C11_14 
REMARK    5  A    between atoms: C11_14  and  C12_15 
REMARK    6  A    between atoms: C12_15  and  C13_17 
REMARK    7  A    between atoms: C13_17  and  C14_18 
REMARK    8  A    between atoms: C14_18  and  C15_19 
REMARK    9  A    between atoms: C15_19  and  C16_20 
REMARK   10  A    between atoms: C16_20  and  C17_21 
REMARK   11  A    between atoms: C17_21  and  C18_22 
REMARK   12  A    between atoms: C18_22  and  C19_23 
REMARK   13  A    between atoms: C19_23  and  C20_24 
ROOT
HETATM    1  C1  UNL     1      31.942  32.169  16.296  1.00  0.00     0.015 C 
HETATM    2  C2  UNL     1      30.903  31.587  16.097  1.00  0.00    -0.085 C 
HETATM    3  C3  UNL     1      29.626  30.852  15.878  1.00  0.00     0.205 C 
HETATM    4  C4  UNL     1      28.695  31.624  15.009  1.00  0.00     0.054 C 
ENDROOT
BRANCH   3   5
HETATM    5  O1  UNL     1      29.130  30.585  17.176  1.00  0.00    -0.302 OA
BRANCH   5   6
HETATM    6  C5  UNL     1      29.674  29.621  18.018  1.00  0.00     0.283 C 
HETATM    7  O2  UNL     1      30.432  30.015  18.929  1.00  0.00    -0.263 OA
BRANCH   6   8
HETATM    8  C6  UNL     1      29.308  28.198  17.766  1.00  0.00     0.183 C 
HETATM    9  C7  UNL     1      28.781  27.699  19.123  1.00  0.00     0.035 C 
HETATM   10  C8  UNL     1      28.176  26.354  18.907  1.00  0.00     0.004 C 
HETATM   11  C9  UNL     1      29.169  25.435  18.234  1.00  0.00     0.020 C 
HETATM   12  C10 UNL     1      30.520  26.120  18.046  1.00  0.00     0.123 C 
HETATM   13  N1  UNL     1      30.367  27.368  17.388  1.00  0.00    -0.373 N 
BRANCH  13  14
HETATM   14  C11 UNL     1      31.044  27.537  16.176  1.00  0.00     0.136 C 
BRANCH  14  15
HETATM   15  C12 UNL     1      30.311  27.278  14.944  1.00  0.00     0.164 C 
HETATM   16  O3  UNL     1      29.465  26.422  14.879  1.00  0.00    -0.292 OA
BRANCH  15  17
HETATM   17  C13 UNL     1      30.598  28.079  13.722  1.00  0.00     0.084 C 
BRANCH  17  18
HETATM   18  C14 UNL     1      31.922  28.770  13.873  1.00  0.00     0.008 C 
BRANCH  18  19
HETATM   19  C15 UNL     1      32.001  30.113  13.168  1.00  0.00     0.000 C 
BRANCH  19  20
HETATM   20  C16 UNL     1      33.380  30.569  12.942  1.00  0.00     0.000 C 
BRANCH  20  21
HETATM   21  C17 UNL     1      33.659  31.968  12.601  1.00  0.00     0.000 C 
BRANCH  21  22
HETATM   22  C18 UNL     1      33.068  33.094  13.311  1.00  0.00     0.004 C 
BRANCH  22  23
HETATM   23  C19 UNL     1      32.108  34.015  12.659  1.00  0.00     0.026 C 
BRANCH  23  24
HETATM   24  C20 UNL     1      32.111  35.308  13.450  1.00  0.00    -0.037 C 
HETATM   25  C21 UNL     1      31.457  35.438  14.579  1.00  0.00     0.007 C 
ENDBRANCH  23  24
ENDBRANCH  22  23
ENDBRANCH  21  22
ENDBRANCH  20  21
ENDBRANCH  19  20
ENDBRANCH  18  19
ENDBRANCH  17  18
ENDBRANCH  15  17
ENDBRANCH  14  15
ENDBRANCH  13  14
ENDBRANCH   6   8
ENDBRANCH   5   6
ENDBRANCH   3   5
TORSDOF 13
ENDMDL
