MODEL 1
REMARK VINA RESULT: -2.462139921      0.000      0.000
REMARK  1 active torsions:
REMARK  status: ('A' for Active; 'I' for Inactive)
REMARK    1  A    between atoms: N1_1  and  C1_5 
ROOT
HETATM    1  C1  UNL     1      35.880  17.317  10.068  1.00  0.00     0.255 C 
HETATM    2  C2  UNL     1      35.649  16.141   9.189  1.00  0.00     0.284 C 
HETATM    3  C3  UNL     1      34.829  16.367   7.947  1.00  0.00     0.273 C 
HETATM    4  N2  UNL     1      35.530  17.414   7.274  1.00  0.00    -0.039 N 
ATOM      5  H21 UNL     1      35.063  18.316   7.362  1.00  0.00     0.279 HD
ATOM      6  H22 UNL     1      35.480  17.327   6.259  1.00  0.00     0.279 HD
HETATM    7  C4  UNL     1      36.882  17.448   7.755  1.00  0.00     0.456 A 
HETATM    8  C5  UNL     1      37.070  17.642   9.191  1.00  0.00     0.319 A 
HETATM    9  N3  UNL     1      36.994  16.266   8.673  1.00  0.00     0.141 N 
ENDROOT
BRANCH   1  10
HETATM   10  N1  UNL     1      34.828  18.295  10.069  1.00  0.00    -0.071 N 
ATOM     11  H13 UNL     1      35.182  19.192  10.402  1.00  0.00     0.274 HD
ATOM     12  H12 UNL     1      34.580  18.546   9.111  1.00  0.00     0.274 HD
ATOM     13  H11 UNL     1      33.991  18.033  10.590  1.00  0.00     0.274 HD
ENDBRANCH   1  10
TORSDOF 1
ENDMDL
MODEL 2
REMARK VINA RESULT: -1.951434402      1.392      2.449
REMARK  1 active torsions:
REMARK  status: ('A' for Active; 'I' for Inactive)
REMARK    1  A    between atoms: N1_1  and  C1_5 
ROOT
HETATM    1  C1  UNL     1      36.062  16.867   7.594  1.00  0.00     0.255 C 
HETATM    2  C2  UNL     1      35.888  17.898   8.650  1.00  0.00     0.284 C 
HETATM    3  C3  UNL     1      34.832  17.639   9.691  1.00  0.00     0.273 C 
HETATM    4  N2  UNL     1      35.205  16.372  10.233  1.00  0.00    -0.039 N 
ATOM      5  H21 UNL     1      34.609  15.614   9.899  1.00  0.00     0.279 HD
ATOM      6  H22 UNL     1      34.989  16.293  11.226  1.00  0.00     0.279 HD
HETATM    7  C4  UNL     1      36.594  16.141   9.953  1.00  0.00     0.456 A 
HETATM    8  C5  UNL     1      37.000  16.158   8.550  1.00  0.00     0.319 A 
HETATM    9  N3  UNL     1      37.075  17.412   9.317  1.00  0.00     0.141 N 
ENDROOT
BRANCH   1  10
HETATM   10  N1  UNL     1      34.872  16.141   7.247  1.00  0.00    -0.071 N 
ATOM     11  H13 UNL     1      34.074  16.504   7.769  1.00  0.00     0.274 HD
ATOM     12  H12 UNL     1      34.584  16.373   6.296  1.00  0.00     0.274 HD
ATOM     13  H11 UNL     1      34.933  15.129   7.358  1.00  0.00     0.274 HD
ENDBRANCH   1  10
TORSDOF 1
ENDMDL
MODEL 3
REMARK VINA RESULT: -1.948589851      1.154      2.209
REMARK  1 active torsions:
REMARK  status: ('A' for Active; 'I' for Inactive)
REMARK    1  A    between atoms: N1_1  and  C1_5 
ROOT
HETATM    1  C1  UNL     1      34.945  16.999   9.577  1.00  0.00     0.255 C 
HETATM    2  C2  UNL     1      36.027  17.892   9.086  1.00  0.00     0.284 C 
HETATM    3  C3  UNL     1      37.439  17.385   9.208  1.00  0.00     0.273 C 
HETATM    4  N2  UNL     1      37.406  16.142   8.506  1.00  0.00    -0.039 N 
ATOM      5  H21 UNL     1      37.402  15.339   9.135  1.00  0.00     0.279 HD
ATOM      6  H22 UNL     1      38.284  15.941   8.027  1.00  0.00     0.279 HD
HETATM    7  C4  UNL     1      36.282  16.146   7.614  1.00  0.00     0.456 A 
HETATM    8  C5  UNL     1      34.964  16.352   8.208  1.00  0.00     0.319 A 
HETATM    9  N3  UNL     1      35.706  17.527   7.724  1.00  0.00     0.141 N 
ENDROOT
BRANCH   1  10
HETATM   10  N1  UNL     1      35.310  16.141  10.671  1.00  0.00    -0.071 N 
ATOM     11  H13 UNL     1      35.992  15.449  10.362  1.00  0.00     0.274 HD
ATOM     12  H12 UNL     1      35.872  16.656  11.349  1.00  0.00     0.274 HD
ATOM     13  H11 UNL     1      34.530  15.680  11.139  1.00  0.00     0.274 HD
ENDBRANCH   1  10
TORSDOF 1
ENDMDL
MODEL 4
REMARK VINA RESULT: -1.940650510      1.233      2.183
REMARK  1 active torsions:
REMARK  status: ('A' for Active; 'I' for Inactive)
REMARK    1  A    between atoms: N1_1  and  C1_5 
ROOT
HETATM    1  C1  UNL     1      34.677  17.640   9.541  1.00  0.00     0.255 C 
HETATM    2  C2  UNL     1      35.693  17.553   8.460  1.00  0.00     0.284 C 
HETATM    3  C3  UNL     1      37.069  18.076   8.772  1.00  0.00     0.273 C 
HETATM    4  N2  UNL     1      37.451  17.334   9.930  1.00  0.00    -0.039 N 
ATOM      5  H21 UNL     1      37.394  17.888  10.785  1.00  0.00     0.279 HD
ATOM      6  H22 UNL     1      38.451  17.138   9.956  1.00  0.00     0.279 HD
HETATM    7  C4  UNL     1      36.656  16.141   9.996  1.00  0.00     0.456 A 
HETATM    8  C5  UNL     1      35.206  16.311  10.039  1.00  0.00     0.319 A 
HETATM    9  N3  UNL     1      35.853  16.141   8.729  1.00  0.00     0.141 N 
ENDROOT
BRANCH   1  10
HETATM   10  N1  UNL     1      34.839  18.747  10.444  1.00  0.00    -0.071 N 
ATOM     11  H13 UNL     1      35.747  18.694  10.904  1.00  0.00     0.274 HD
ATOM     12  H12 UNL     1      34.954  19.614   9.919  1.00  0.00     0.274 HD
ATOM     13  H11 UNL     1      34.099  18.851  11.138  1.00  0.00     0.274 HD
ENDBRANCH   1  10
TORSDOF 1
ENDMDL
MODEL 5
REMARK VINA RESULT: -1.668120292      1.111      2.267
REMARK  1 active torsions:
REMARK  status: ('A' for Active; 'I' for Inactive)
REMARK    1  A    between atoms: N1_1  and  C1_5 
ROOT
HETATM    1  C1  UNL     1      36.233  16.883  10.435  1.00  0.00     0.255 C 
HETATM    2  C2  UNL     1      36.298  17.907   9.360  1.00  0.00     0.284 C 
HETATM    3  C3  UNL     1      37.242  17.640   8.218  1.00  0.00     0.273 C 
HETATM    4  N2  UNL     1      36.816  16.369   7.726  1.00  0.00    -0.039 N 
ATOM      5  H21 UNL     1      37.443  15.613   8.002  1.00  0.00     0.279 HD
ATOM      6  H22 UNL     1      36.929  16.284   6.716  1.00  0.00     0.279 HD
HETATM    7  C4  UNL     1      35.463  16.141   8.148  1.00  0.00     0.456 A 
HETATM    8  C5  UNL     1      35.203  16.168   9.585  1.00  0.00     0.319 A 
HETATM    9  N3  UNL     1      35.049  17.416   8.821  1.00  0.00     0.141 N 
ENDROOT
BRANCH   1  10
HETATM   10  N1  UNL     1      37.453  16.159  10.664  1.00  0.00    -0.071 N 
ATOM     11  H13 UNL     1      38.182  16.489  10.030  1.00  0.00     0.274 HD
ATOM     12  H12 UNL     1      37.859  16.430  11.560  1.00  0.00     0.274 HD
ATOM     13  H11 UNL     1      37.372  15.144  10.607  1.00  0.00     0.274 HD
ENDBRANCH   1  10
TORSDOF 1
ENDMDL
