MODEL 1
REMARK VINA RESULT: -2.611459502      0.000      0.000
REMARK  0 active torsions:
REMARK  status: ('A' for Active; 'I' for Inactive)
ROOT
HETATM    1  C1  UNL     1      37.185  19.584  18.944  1.00  0.00     0.107 C 
HETATM    2  N1  UNL     1      36.438  20.650  18.777  1.00  0.00    -0.317 N 
ATOM      3  H1  UNL     1      36.482  21.193  17.916  1.00  0.00     0.185 HD
HETATM    4  N2  UNL     1      35.580  21.015  19.820  1.00  0.00    -0.312 N 
ATOM      5  H2  UNL     1      35.486  21.982  20.131  1.00  0.00     0.182 HD
HETATM    6  C2  UNL     1      34.830  19.934  20.432  1.00  0.00     0.371 C 
HETATM    7  N3  UNL     1      35.579  18.727  20.568  1.00  0.00    -0.054 N 
ATOM      8  H31 UNL     1      35.172  17.979  20.007  1.00  0.00     0.279 HD
ATOM      9  H32 UNL     1      35.456  18.323  21.497  1.00  0.00     0.279 HD
HETATM   10  C3  UNL     1      36.997  18.907  20.257  1.00  0.00     0.280 C 
ENDROOT
TORSDOF 0
ENDMDL
MODEL 2
REMARK VINA RESULT: -2.333112442      0.940      2.027
REMARK  0 active torsions:
REMARK  status: ('A' for Active; 'I' for Inactive)
ROOT
HETATM    1  C1  UNL     1      35.242  20.524  20.554  1.00  0.00     0.107 C 
HETATM    2  N1  UNL     1      35.580  21.200  19.481  1.00  0.00    -0.317 N 
ATOM      3  H1  UNL     1      35.302  22.174  19.364  1.00  0.00     0.185 HD
HETATM    4  N2  UNL     1      36.336  20.541  18.505  1.00  0.00    -0.312 N 
ATOM      5  H2  UNL     1      36.124  20.620  17.511  1.00  0.00     0.182 HD
HETATM    6  C2  UNL     1      37.440  19.736  18.995  1.00  0.00     0.371 C 
HETATM    7  N3  UNL     1      37.144  19.037  20.203  1.00  0.00    -0.054 N 
ATOM      8  H31 UNL     1      37.737  19.360  20.968  1.00  0.00     0.279 HD
ATOM      9  H32 UNL     1      37.455  18.067  20.151  1.00  0.00     0.279 HD
HETATM   10  C3  UNL     1      35.728  19.117  20.567  1.00  0.00     0.280 C 
ENDROOT
TORSDOF 0
ENDMDL
MODEL 3
REMARK VINA RESULT: -2.307879398      0.777      2.716
REMARK  0 active torsions:
REMARK  status: ('A' for Active; 'I' for Inactive)
ROOT
HETATM    1  C1  UNL     1      34.675  19.516  20.568  1.00  0.00     0.107 C 
HETATM    2  N1  UNL     1      35.578  18.564  20.568  1.00  0.00    -0.317 N 
ATOM      3  H1  UNL     1      35.331  17.603  20.802  1.00  0.00     0.185 HD
HETATM    4  N2  UNL     1      36.893  18.912  20.237  1.00  0.00    -0.312 N 
ATOM      5  H2  UNL     1      37.694  18.571  20.768  1.00  0.00     0.182 HD
HETATM    6  C2  UNL     1      37.046  19.789  19.090  1.00  0.00     0.371 C 
HETATM    7  N3  UNL     1      36.042  20.798  19.006  1.00  0.00    -0.054 N 
ATOM      8  H31 UNL     1      35.473  20.679  18.167  1.00  0.00     0.279 HD
ATOM      9  H32 UNL     1      36.453  21.708  18.799  1.00  0.00     0.279 HD
HETATM   10  C3  UNL     1      35.204  20.860  20.204  1.00  0.00     0.280 C 
ENDROOT
TORSDOF 0
ENDMDL
MODEL 4
REMARK VINA RESULT: -2.224140391      0.742      1.991
REMARK  0 active torsions:
REMARK  status: ('A' for Active; 'I' for Inactive)
ROOT
HETATM    1  C1  UNL     1      37.318  19.298  19.757  1.00  0.00     0.107 C 
HETATM    2  N1  UNL     1      36.588  18.571  20.568  1.00  0.00    -0.317 N 
ATOM      3  H1  UNL     1      37.014  17.874  21.179  1.00  0.00     0.185 HD
HETATM    4  N2  UNL     1      35.204  18.783  20.568  1.00  0.00    -0.312 N 
ATOM      5  H2  UNL     1      34.538  18.010  20.567  1.00  0.00     0.182 HD
HETATM    6  C2  UNL     1      34.776  20.169  20.568  1.00  0.00     0.371 C 
HETATM    7  N3  UNL     1      35.586  21.016  19.756  1.00  0.00    -0.054 N 
ATOM      8  H31 UNL     1      36.063  21.719  20.321  1.00  0.00     0.279 HD
ATOM      9  H32 UNL     1      35.011  21.631  19.179  1.00  0.00     0.279 HD
HETATM   10  C3  UNL     1      36.540  20.266  18.936  1.00  0.00     0.280 C 
ENDROOT
TORSDOF 0
ENDMDL
MODEL 5
REMARK VINA RESULT: -2.195236085      1.033      2.116
REMARK  0 active torsions:
REMARK  status: ('A' for Active; 'I' for Inactive)
ROOT
HETATM    1  C1  UNL     1      37.344  18.132  19.902  1.00  0.00     0.107 C 
HETATM    2  N1  UNL     1      36.215  18.173  20.568  1.00  0.00    -0.317 N 
ATOM      3  H1  UNL     1      36.031  17.525  21.334  1.00  0.00     0.185 HD
HETATM    4  N2  UNL     1      35.272  19.137  20.194  1.00  0.00    -0.312 N 
ATOM      5  H2  UNL     1      34.280  18.917  20.101  1.00  0.00     0.182 HD
HETATM    6  C2  UNL     1      35.791  20.470  19.947  1.00  0.00     0.371 C 
HETATM    7  N3  UNL     1      37.056  20.475  19.289  1.00  0.00    -0.054 N 
ATOM      8  H31 UNL     1      37.778  20.883  19.884  1.00  0.00     0.279 HD
ATOM      9  H32 UNL     1      37.069  21.153  18.527  1.00  0.00     0.279 HD
HETATM   10  C3  UNL     1      37.452  19.147  18.818  1.00  0.00     0.280 C 
ENDROOT
TORSDOF 0
ENDMDL
