MODEL 1
REMARK VINA RESULT: -6.370296514      0.000      0.000
REMARK  8 active torsions:
REMARK  status: ('A' for Active; 'I' for Inactive)
REMARK    1  A    between atoms: N1_7  and  C8_9 
REMARK    2  A    between atoms: C8_9  and  C9_10 
REMARK    3  A    between atoms: C9_10  and  O1_11 
REMARK    4  A    between atoms: O1_11  and  C10_12 
REMARK    5  A    between atoms: C10_12  and  C11_13 
REMARK    6  A    between atoms: C11_13  and  O2_15 
REMARK    7  A    between atoms: C11_13  and  C13_17 
REMARK    8  A    between atoms: C13_17  and  O3_18 
ROOT
HETATM    1  C9  UNL     1       4.593  -8.680  15.221  1.00  0.00     0.195 C 
ENDROOT
BRANCH   1   2
HETATM    2  C8  UNL     1       5.572  -8.701  14.033  1.00  0.00     0.263 C 
BRANCH   2   3
HETATM    3  N1  UNL     1       5.115  -9.591  12.989  1.00  0.00    -0.065 N 
HETATM    4  C2  UNL     1       4.937  -8.911  11.743  1.00  0.00     0.186 C 
HETATM    5  C1  UNL     1       3.843  -9.652  10.957  1.00  0.00     0.040 C 
HETATM    6  C3  UNL     1       6.125  -8.712  10.905  1.00  0.00     0.033 C 
HETATM    7  C4  UNL     1       7.317  -9.538  11.175  1.00  0.00     0.004 C 
HETATM    8  C5  UNL     1       7.412 -10.106  12.552  1.00  0.00     0.028 C 
HETATM    9  C6  UNL     1       6.083 -10.667  12.934  1.00  0.00     0.237 C 
HETATM   10  C7  UNL     1       3.883 -10.203  13.454  1.00  0.00     0.273 C 
ENDBRANCH   2   3
ENDBRANCH   1   2
BRANCH   1  11
HETATM   11  O1  UNL     1       5.269  -8.611  16.382  1.00  0.00    -0.386 OA
BRANCH  11  12
HETATM   12  C10 UNL     1       5.516  -9.663  17.155  1.00  0.00     0.207 C 
BRANCH  12  13
HETATM   13  C11 UNL     1       6.225  -9.546  18.454  1.00  0.00     0.096 C 
HETATM   14  C12 UNL     1       7.037 -10.713  18.879  1.00  0.00     0.050 C 
BRANCH  13  15
HETATM   15  O2  UNL     1       7.078  -8.389  18.268  1.00  0.00    -0.386 OA
ATOM     16  H2  UNL     1       7.883  -8.634  18.710  1.00  0.00     0.210 HD
ENDBRANCH  13  15
BRANCH  13  17
HETATM   17  C13 UNL     1       5.347  -9.095  19.622  1.00  0.00     0.203 C 
BRANCH  17  18
HETATM   18  O3  UNL     1       4.899  -7.811  19.243  1.00  0.00    -0.398 OA
ATOM     19  H3  UNL     1       5.653  -7.250  19.383  1.00  0.00     0.209 HD
ENDBRANCH  17  18
ENDBRANCH  13  17
ENDBRANCH  12  13
ENDBRANCH  11  12
ENDBRANCH   1  11
TORSDOF 8
ENDMDL
MODEL 2
REMARK VINA RESULT: -6.251141838      0.884      1.176
REMARK  8 active torsions:
REMARK  status: ('A' for Active; 'I' for Inactive)
REMARK    1  A    between atoms: N1_7  and  C8_9 
REMARK    2  A    between atoms: C8_9  and  C9_10 
REMARK    3  A    between atoms: C9_10  and  O1_11 
REMARK    4  A    between atoms: O1_11  and  C10_12 
REMARK    5  A    between atoms: C10_12  and  C11_13 
REMARK    6  A    between atoms: C11_13  and  O2_15 
REMARK    7  A    between atoms: C11_13  and  C13_17 
REMARK    8  A    between atoms: C13_17  and  O3_18 
ROOT
HETATM    1  C9  UNL     1       4.521  -8.829  15.026  1.00  0.00     0.195 C 
ENDROOT
BRANCH   1   2
HETATM    2  C8  UNL     1       5.525  -8.787  13.859  1.00  0.00     0.263 C 
BRANCH   2   3
HETATM    3  N1  UNL     1       5.106  -9.644  12.772  1.00  0.00    -0.065 N 
HETATM    4  C2  UNL     1       4.933  -8.918  11.551  1.00  0.00     0.186 C 
HETATM    5  C1  UNL     1       3.869  -9.652  10.718  1.00  0.00     0.040 C 
HETATM    6  C3  UNL     1       6.129  -8.658  10.743  1.00  0.00     0.033 C 
HETATM    7  C4  UNL     1       7.336  -9.467  11.000  1.00  0.00     0.004 C 
HETATM    8  C5  UNL     1       7.422 -10.088  12.354  1.00  0.00     0.028 C 
HETATM    9  C6  UNL     1       6.100 -10.694  12.691  1.00  0.00     0.237 C 
HETATM   10  C7  UNL     1       3.882 -10.302  13.191  1.00  0.00     0.273 C 
ENDBRANCH   2   3
ENDBRANCH   1   2
BRANCH   1  11
HETATM   11  O1  UNL     1       5.142  -8.546  16.186  1.00  0.00    -0.386 OA
BRANCH  11  12
HETATM   12  C10 UNL     1       4.662  -8.880  17.378  1.00  0.00     0.207 C 
BRANCH  12  13
HETATM   13  C11 UNL     1       5.417  -9.738  18.327  1.00  0.00     0.096 C 
HETATM   14  C12 UNL     1       4.627 -10.425  19.378  1.00  0.00     0.050 C 
BRANCH  13  15
HETATM   15  O2  UNL     1       6.052 -10.715  17.464  1.00  0.00    -0.386 OA
ATOM     16  H2  UNL     1       5.743 -11.546  17.806  1.00  0.00     0.210 HD
ENDBRANCH  13  15
BRANCH  13  17
HETATM   17  C13 UNL     1       6.629  -9.064  18.971  1.00  0.00     0.203 C 
BRANCH  17  18
HETATM   18  O3  UNL     1       6.942  -8.002  18.095  1.00  0.00    -0.398 OA
ATOM     19  H3  UNL     1       7.868  -8.112  17.916  1.00  0.00     0.209 HD
ENDBRANCH  17  18
ENDBRANCH  13  17
ENDBRANCH  12  13
ENDBRANCH  11  12
ENDBRANCH   1  11
TORSDOF 8
ENDMDL
MODEL 3
REMARK VINA RESULT: -6.189419731      1.102      1.912
REMARK  8 active torsions:
REMARK  status: ('A' for Active; 'I' for Inactive)
REMARK    1  A    between atoms: N1_7  and  C8_9 
REMARK    2  A    between atoms: C8_9  and  C9_10 
REMARK    3  A    between atoms: C9_10  and  O1_11 
REMARK    4  A    between atoms: O1_11  and  C10_12 
REMARK    5  A    between atoms: C10_12  and  C11_13 
REMARK    6  A    between atoms: C11_13  and  O2_15 
REMARK    7  A    between atoms: C11_13  and  C13_17 
REMARK    8  A    between atoms: C13_17  and  O3_18 
ROOT
HETATM    1  C9  UNL     1       4.997  -8.519  14.768  1.00  0.00     0.195 C 
ENDROOT
BRANCH   1   2
HETATM    2  C8  UNL     1       6.108  -8.660  13.711  1.00  0.00     0.263 C 
BRANCH   2   3
HETATM    3  N1  UNL     1       5.958  -9.878  12.947  1.00  0.00    -0.065 N 
HETATM    4  C2  UNL     1       4.594 -10.124  12.592  1.00  0.00     0.186 C 
HETATM    5  C1  UNL     1       4.412 -11.645  12.462  1.00  0.00     0.040 C 
HETATM    6  C3  UNL     1       4.070  -9.440  11.404  1.00  0.00     0.033 C 
HETATM    7  C4  UNL     1       5.034  -8.880  10.439  1.00  0.00     0.004 C 
HETATM    8  C5  UNL     1       6.394  -8.587  10.979  1.00  0.00     0.028 C 
HETATM    9  C6  UNL     1       6.843  -9.743  11.809  1.00  0.00     0.237 C 
HETATM   10  C7  UNL     1       6.514 -10.957  13.744  1.00  0.00     0.273 C 
ENDBRANCH   2   3
ENDBRANCH   1   2
BRANCH   1  11
HETATM   11  O1  UNL     1       5.534  -8.379  15.994  1.00  0.00    -0.386 OA
BRANCH  11  12
HETATM   12  C10 UNL     1       4.896  -8.690  17.117  1.00  0.00     0.207 C 
BRANCH  12  13
HETATM   13  C11 UNL     1       5.466  -9.624  18.122  1.00  0.00     0.096 C 
HETATM   14  C12 UNL     1       4.518 -10.208  19.102  1.00  0.00     0.050 C 
BRANCH  13  15
HETATM   15  O2  UNL     1       6.051 -10.673  17.311  1.00  0.00    -0.386 OA
ATOM     16  H2  UNL     1       5.823 -11.468  17.780  1.00  0.00     0.210 HD
ENDBRANCH  13  15
BRANCH  13  17
HETATM   17  C13 UNL     1       6.691  -9.092  18.865  1.00  0.00     0.203 C 
BRANCH  17  18
HETATM   18  O3  UNL     1       7.063  -7.938  18.140  1.00  0.00    -0.398 OA
ATOM     19  H3  UNL     1       7.763  -7.554  18.655  1.00  0.00     0.209 HD
ENDBRANCH  17  18
ENDBRANCH  13  17
ENDBRANCH  12  13
ENDBRANCH  11  12
ENDBRANCH   1  11
TORSDOF 8
ENDMDL
MODEL 4
REMARK VINA RESULT: -5.746238963      2.816      6.732
REMARK  8 active torsions:
REMARK  status: ('A' for Active; 'I' for Inactive)
REMARK    1  A    between atoms: N1_7  and  C8_9 
REMARK    2  A    between atoms: C8_9  and  C9_10 
REMARK    3  A    between atoms: C9_10  and  O1_11 
REMARK    4  A    between atoms: O1_11  and  C10_12 
REMARK    5  A    between atoms: C10_12  and  C11_13 
REMARK    6  A    between atoms: C11_13  and  O2_15 
REMARK    7  A    between atoms: C11_13  and  C13_17 
REMARK    8  A    between atoms: C13_17  and  O3_18 
ROOT
HETATM    1  C9  UNL     1       6.075  -9.091  18.949  1.00  0.00     0.195 C 
ENDROOT
BRANCH   1   2
HETATM    2  C8  UNL     1       6.422 -10.592  18.946  1.00  0.00     0.263 C 
BRANCH   2   3
HETATM    3  N1  UNL     1       5.599 -11.326  19.880  1.00  0.00    -0.065 N 
HETATM    4  C2  UNL     1       5.541 -12.720  19.564  1.00  0.00     0.186 C 
HETATM    5  C1  UNL     1       4.193 -13.259  20.072  1.00  0.00     0.040 C 
HETATM    6  C3  UNL     1       6.643 -13.567  20.035  1.00  0.00     0.033 C 
HETATM    7  C4  UNL     1       7.511 -13.050  21.110  1.00  0.00     0.004 C 
HETATM    8  C5  UNL     1       7.541 -11.565  21.259  1.00  0.00     0.028 C 
HETATM    9  C6  UNL     1       6.143 -11.046  21.192  1.00  0.00     0.237 C 
HETATM   10  C7  UNL     1       4.283 -10.711  19.868  1.00  0.00     0.273 C 
ENDBRANCH   2   3
ENDBRANCH   1   2
BRANCH   1  11
HETATM   11  O1  UNL     1       6.086  -8.606  17.695  1.00  0.00    -0.386 OA
BRANCH  11  12
HETATM   12  C10 UNL     1       5.050  -8.679  16.867  1.00  0.00     0.207 C 
BRANCH  12  13
HETATM   13  C11 UNL     1       5.184  -9.152  15.465  1.00  0.00     0.096 C 
HETATM   14  C12 UNL     1       6.053  -8.348  14.570  1.00  0.00     0.050 C 
BRANCH  13  15
HETATM   15  O2  UNL     1       5.725 -10.489  15.612  1.00  0.00    -0.386 OA
ATOM     16  H2  UNL     1       6.660 -10.362  15.501  1.00  0.00     0.210 HD
ENDBRANCH  13  15
BRANCH  13  17
HETATM   17  C13 UNL     1       3.859  -9.433  14.758  1.00  0.00     0.203 C 
BRANCH  17  18
HETATM   18  O3  UNL     1       2.902  -9.421  15.796  1.00  0.00    -0.398 OA
ATOM     19  H3  UNL     1       2.069  -9.497  15.346  1.00  0.00     0.209 HD
ENDBRANCH  17  18
ENDBRANCH  13  17
ENDBRANCH  12  13
ENDBRANCH  11  12
ENDBRANCH   1  11
TORSDOF 8
ENDMDL
MODEL 5
REMARK VINA RESULT: -5.738144329      1.158      1.667
REMARK  8 active torsions:
REMARK  status: ('A' for Active; 'I' for Inactive)
REMARK    1  A    between atoms: N1_7  and  C8_9 
REMARK    2  A    between atoms: C8_9  and  C9_10 
REMARK    3  A    between atoms: C9_10  and  O1_11 
REMARK    4  A    between atoms: O1_11  and  C10_12 
REMARK    5  A    between atoms: C10_12  and  C11_13 
REMARK    6  A    between atoms: C11_13  and  O2_15 
REMARK    7  A    between atoms: C11_13  and  C13_17 
REMARK    8  A    between atoms: C13_17  and  O3_18 
ROOT
HETATM    1  C9  UNL     1       4.040  -8.829  14.936  1.00  0.00     0.195 C 
ENDROOT
BRANCH   1   2
HETATM    2  C8  UNL     1       5.261  -9.022  14.017  1.00  0.00     0.263 C 
BRANCH   2   3
HETATM    3  N1  UNL     1       4.918  -9.784  12.837  1.00  0.00    -0.065 N 
HETATM    4  C2  UNL     1       4.904  -8.973  11.659  1.00  0.00     0.186 C 
HETATM    5  C1  UNL     1       3.900  -9.594  10.674  1.00  0.00     0.040 C 
HETATM    6  C3  UNL     1       6.189  -8.724  10.994  1.00  0.00     0.033 C 
HETATM    7  C4  UNL     1       7.324  -9.610  11.313  1.00  0.00     0.004 C 
HETATM    8  C5  UNL     1       7.241 -10.321  12.622  1.00  0.00     0.028 C 
HETATM    9  C6  UNL     1       5.866 -10.878  12.783  1.00  0.00     0.237 C 
HETATM   10  C7  UNL     1       3.628 -10.403  13.085  1.00  0.00     0.273 C 
ENDBRANCH   2   3
ENDBRANCH   1   2
BRANCH   1  11
HETATM   11  O1  UNL     1       4.253  -9.420  16.125  1.00  0.00    -0.386 OA
BRANCH  11  12
HETATM   12  C10 UNL     1       5.018  -8.901  17.079  1.00  0.00     0.207 C 
BRANCH  12  13
HETATM   13  C11 UNL     1       5.242  -9.586  18.378  1.00  0.00     0.096 C 
HETATM   14  C12 UNL     1       5.732  -8.746  19.499  1.00  0.00     0.050 C 
BRANCH  13  15
HETATM   15  O2  UNL     1       3.939 -10.133  18.699  1.00  0.00    -0.386 OA
ATOM     16  H2  UNL     1       3.735  -9.740  19.539  1.00  0.00     0.210 HD
ENDBRANCH  13  15
BRANCH  13  17
HETATM   17  C13 UNL     1       6.094 -10.853  18.292  1.00  0.00     0.203 C 
BRANCH  17  18
HETATM   18  O3  UNL     1       6.240 -11.080  16.906  1.00  0.00    -0.398 OA
ATOM     19  H3  UNL     1       6.663 -10.293  16.584  1.00  0.00     0.209 HD
ENDBRANCH  17  18
ENDBRANCH  13  17
ENDBRANCH  12  13
ENDBRANCH  11  12
ENDBRANCH   1  11
TORSDOF 8
ENDMDL
