MODEL 1
REMARK VINA RESULT: -7.988725077      0.000      0.000
REMARK  17 active torsions:
REMARK  status: ('A' for Active; 'I' for Inactive)
REMARK    1  A    between atoms: S1_2  and  C2_5 
REMARK    2  A    between atoms: C3_10  and  C4_11 
REMARK    3  A    between atoms: C4_11  and  O3_12 
REMARK    4  A    between atoms: C4_11  and  C5_14 
REMARK    5  A    between atoms: C5_14  and  O5_16 
REMARK    6  A    between atoms: O5_16  and  C6_17 
REMARK    7  A    between atoms: C6_17  and  C7_18 
REMARK    8  A    between atoms: C8_19  and  C9_20 
REMARK    9  A    between atoms: C9_20  and  O6_21 
REMARK   10  A    between atoms: C9_20  and  C10_23 
REMARK   11  A    between atoms: C11_25  and  N3_26 
REMARK       I    between atoms: N3_26  and  C12_28 
REMARK   12  A    between atoms: C12_28  and  C13_30 
REMARK   13  A    between atoms: C13_30  and  N4_31 
REMARK   14  A    between atoms: C15_33  and  C16_34 
REMARK       I    between atoms: C16_34  and  N5_36 
REMARK   15  A    between atoms: N5_36  and  N6_38 
REMARK   16  A    between atoms: C17_41  and  N7_42 
REMARK   17  A    between atoms: C19_49  and  O11_50 
ROOT
HETATM    1  C10 UNL     1       4.459   4.852  28.860  1.00  0.00     0.216 C 
HETATM    2  O7  UNL     1       4.007   5.425  27.621  1.00  0.00    -0.349 OA
HETATM    3  C11 UNL     1       3.400   6.537  28.186  1.00  0.00     0.256 C 
HETATM    4  C19 UNL     1       4.137   6.237  29.444  1.00  0.00     0.202 C 
ENDROOT
BRANCH   1   5
HETATM    5  C9  UNL     1       3.608   3.765  29.309  1.00  0.00     0.109 C 
BRANCH   5   6
HETATM    6  C8  UNL     1       2.254   3.603  29.737  1.00  0.00     0.115 C 
HETATM    7  C7  UNL     1       1.856   3.559  30.985  1.00  0.00     0.038 C 
HETATM    8  S2  UNL     1       0.032   3.492  31.203  1.00  0.00    -0.127 SA
HETATM    9  C21 UNL     1      -0.524   2.264  29.994  1.00  0.00     0.106 C 
HETATM   10  C20 UNL     1       0.346   2.368  28.768  1.00  0.00     0.186 C 
HETATM   11  O12 UNL     1       1.210   3.471  28.754  1.00  0.00    -0.347 OA
BRANCH   7  12
HETATM   12  C6  UNL     1       2.676   3.658  32.162  1.00  0.00     0.227 C 
BRANCH  12  13
HETATM   13  O5  UNL     1       2.189   4.541  33.119  1.00  0.00    -0.314 OA
BRANCH  13  14
HETATM   14  C5  UNL     1       2.297   4.532  34.445  1.00  0.00     0.294 C 
HETATM   15  O4  UNL     1       1.789   3.643  35.162  1.00  0.00    -0.262 OA
BRANCH  14  16
HETATM   16  C4  UNL     1       3.066   5.633  35.172  1.00  0.00     0.275 C 
BRANCH  16  17
HETATM   17  C3  UNL     1       3.384   6.699  34.185  1.00  0.00     0.107 A 
HETATM   18  N2  UNL     1       4.472   6.739  33.426  1.00  0.00    -0.293 N 
HETATM   19  N1  UNL     1       4.642   7.694  32.618  1.00  0.00    -0.284 N 
ATOM     20  H2  UNL     1       5.171   6.000  33.497  1.00  0.00     0.187 HD
HETATM   21  C2  UNL     1       3.729   8.657  32.528  1.00  0.00     0.186 A 
ATOM     22  H1  UNL     1       5.477   7.726  32.034  1.00  0.00     0.188 HD
HETATM   23  S3  UNL     1       2.582   8.120  33.688  1.00  0.00    -0.041 SA
BRANCH  21  24
HETATM   24  S1  UNL     1       3.719  10.081  31.498  1.00  0.00     0.195 S 
HETATM   25  C1  UNL     1       2.064  10.715  31.504  1.00  0.00     0.169 C 
HETATM   26  O1  UNL     1       4.613  11.145  32.059  1.00  0.00    -0.221 OA
HETATM   27  O2  UNL     1       4.179   9.680  30.147  1.00  0.00    -0.221 OA
ENDBRANCH  21  24
ENDBRANCH  16  17
BRANCH  16  28
HETATM   28  O3  UNL     1       2.278   6.143  36.201  1.00  0.00    -0.379 OA
ATOM     29  H3  UNL     1       2.822   6.535  36.873  1.00  0.00     0.211 HD
ENDBRANCH  16  28
ENDBRANCH  14  16
ENDBRANCH  13  14
ENDBRANCH  12  13
ENDBRANCH   7  12
ENDBRANCH   5   6
BRANCH   5  30
HETATM   30  O6  UNL     1       4.289   2.623  29.321  1.00  0.00    -0.359 OA
ATOM     31  H6  UNL     1       3.946   1.986  28.705  1.00  0.00     0.217 HD
ENDBRANCH   5  30
ENDBRANCH   1   5
BRANCH   4  32
HETATM   32  O11 UNL     1       5.234   7.010  29.728  1.00  0.00    -0.388 OA
ATOM     33  H11 UNL     1       5.529   7.561  29.013  1.00  0.00     0.210 HD
ENDBRANCH   4  32
BRANCH   3  34
HETATM   34  N3  UNL     1       3.799   7.753  27.505  1.00  0.00    -0.331 N 
HETATM   35  C12 UNL     1       3.100   8.303  26.415  1.00  0.00     0.238 C 
HETATM   36  O8  UNL     1       2.059   7.671  26.030  1.00  0.00    -0.272 OA
ATOM     37  H3  UNL     1       4.634   8.236  27.835  1.00  0.00     0.165 HD
BRANCH  35  38
HETATM   38  C13 UNL     1       3.473   9.526  25.702  1.00  0.00     0.235 C 
BRANCH  38  39
HETATM   39  N4  UNL     1       4.819   9.975  25.951  1.00  0.00    -0.300 N 
HETATM   40  C14 UNL     1       5.134  10.821  26.960  1.00  0.00     0.117 A 
HETATM   41  C15 UNL     1       6.412  11.252  27.204  1.00  0.00     0.092 A 
HETATM   42  C17 UNL     1       7.439  10.810  26.390  1.00  0.00     0.120 A 
HETATM   43  N8  UNL     1       7.115   9.981  25.406  1.00  0.00    -0.294 N 
HETATM   44  C18 UNL     1       5.850   9.574  25.189  1.00  0.00     0.328 A 
ATOM     45  H8  UNL     1       7.853   9.640  24.790  1.00  0.00     0.172 HD
HETATM   46  O10 UNL     1       5.660   8.793  24.235  1.00  0.00    -0.246 OA
BRANCH  41  47
HETATM   47  C16 UNL     1       6.738  12.157  28.284  1.00  0.00     0.274 C 
HETATM   48  O9  UNL     1       7.293  13.251  28.060  1.00  0.00    -0.266 OA
HETATM   49  N5  UNL     1       6.427  11.800  29.615  1.00  0.00    -0.272 N 
ATOM     50  H5  UNL     1       5.973  10.908  29.813  1.00  0.00     0.189 HD
BRANCH  49  51
HETATM   51  N6  UNL     1       6.739  12.667  30.656  1.00  0.00    -0.342 N 
ATOM     52  H62 UNL     1       7.699  12.702  31.001  1.00  0.00     0.176 HD
ATOM     53  H61 UNL     1       6.013  13.257  31.063  1.00  0.00     0.176 HD
ENDBRANCH  49  51
ENDBRANCH  41  47
BRANCH  42  54
HETATM   54  N7  UNL     1       8.658  11.166  26.551  1.00  0.00    -0.385 N 
ATOM     55  H72 UNL     1       8.944  11.625  27.415  1.00  0.00     0.157 HD
ATOM     56  H71 UNL     1       9.379  11.013  25.846  1.00  0.00     0.157 HD
ENDBRANCH  42  54
ENDBRANCH  38  39
ENDBRANCH  35  38
ENDBRANCH   3  34
TORSDOF 17
ENDMDL
MODEL 2
REMARK VINA RESULT: -7.870028237      2.824      6.211
REMARK  17 active torsions:
REMARK  status: ('A' for Active; 'I' for Inactive)
REMARK    1  A    between atoms: S1_2  and  C2_5 
REMARK    2  A    between atoms: C3_10  and  C4_11 
REMARK    3  A    between atoms: C4_11  and  O3_12 
REMARK    4  A    between atoms: C4_11  and  C5_14 
REMARK    5  A    between atoms: C5_14  and  O5_16 
REMARK    6  A    between atoms: O5_16  and  C6_17 
REMARK    7  A    between atoms: C6_17  and  C7_18 
REMARK    8  A    between atoms: C8_19  and  C9_20 
REMARK    9  A    between atoms: C9_20  and  O6_21 
REMARK   10  A    between atoms: C9_20  and  C10_23 
REMARK   11  A    between atoms: C11_25  and  N3_26 
REMARK       I    between atoms: N3_26  and  C12_28 
REMARK   12  A    between atoms: C12_28  and  C13_30 
REMARK   13  A    between atoms: C13_30  and  N4_31 
REMARK   14  A    between atoms: C15_33  and  C16_34 
REMARK       I    between atoms: C16_34  and  N5_36 
REMARK   15  A    between atoms: N5_36  and  N6_38 
REMARK   16  A    between atoms: C17_41  and  N7_42 
REMARK   17  A    between atoms: C19_49  and  O11_50 
ROOT
HETATM    1  C10 UNL     1       3.435   6.022  35.215  1.00  0.00     0.216 C 
HETATM    2  O7  UNL     1       3.770   6.439  33.880  1.00  0.00    -0.349 OA
HETATM    3  C11 UNL     1       4.737   7.362  34.252  1.00  0.00     0.256 C 
HETATM    4  C19 UNL     1       4.740   6.737  35.604  1.00  0.00     0.202 C 
ENDROOT
BRANCH   1   5
HETATM    5  C9  UNL     1       2.211   6.637  35.696  1.00  0.00     0.109 C 
BRANCH   5   6
HETATM    6  C8  UNL     1       0.893   6.873  35.199  1.00  0.00     0.115 C 
HETATM    7  C7  UNL     1       0.522   7.925  34.510  1.00  0.00     0.038 C 
HETATM    8  S2  UNL     1      -1.206   7.861  33.889  1.00  0.00    -0.127 SA
HETATM    9  C21 UNL     1      -2.174   7.273  35.302  1.00  0.00     0.106 C 
HETATM   10  C20 UNL     1      -1.341   6.287  36.078  1.00  0.00     0.186 C 
HETATM   11  O12 UNL     1      -0.146   5.909  35.452  1.00  0.00    -0.347 OA
BRANCH   7  12
HETATM   12  C6  UNL     1       1.342   9.040  34.120  1.00  0.00     0.227 C 
BRANCH  12  13
HETATM   13  O5  UNL     1       1.423   9.230  32.745  1.00  0.00    -0.314 OA
BRANCH  13  14
HETATM   14  C5  UNL     1       2.262   9.963  32.016  1.00  0.00     0.294 C 
HETATM   15  O4  UNL     1       2.951  10.886  32.499  1.00  0.00    -0.262 OA
BRANCH  14  16
HETATM   16  C4  UNL     1       2.425   9.704  30.520  1.00  0.00     0.275 C 
BRANCH  16  17
HETATM   17  C3  UNL     1       2.783   8.273  30.339  1.00  0.00     0.107 A 
HETATM   18  N2  UNL     1       2.976   7.401  31.321  1.00  0.00    -0.293 N 
HETATM   19  N1  UNL     1       3.277   6.205  31.053  1.00  0.00    -0.284 N 
ATOM     20  H2  UNL     1       2.883   7.699  32.292  1.00  0.00     0.187 HD
HETATM   21  C2  UNL     1       3.399   5.820  29.785  1.00  0.00     0.186 A 
ATOM     22  H1  UNL     1       3.426   5.535  31.806  1.00  0.00     0.188 HD
HETATM   23  S3  UNL     1       3.054   7.291  28.969  1.00  0.00    -0.041 SA
BRANCH  21  24
HETATM   24  S1  UNL     1       3.803   4.235  29.143  1.00  0.00     0.195 S 
HETATM   25  C1  UNL     1       2.394   3.193  29.407  1.00  0.00     0.169 C 
HETATM   26  O1  UNL     1       4.040   4.309  27.665  1.00  0.00    -0.221 OA
HETATM   27  O2  UNL     1       5.019   3.749  29.836  1.00  0.00    -0.221 OA
ENDBRANCH  21  24
ENDBRANCH  16  17
BRANCH  16  28
HETATM   28  O3  UNL     1       1.227   9.992  29.870  1.00  0.00    -0.379 OA
ATOM     29  H3  UNL     1       0.863  10.808  30.192  1.00  0.00     0.211 HD
ENDBRANCH  16  28
ENDBRANCH  14  16
ENDBRANCH  13  14
ENDBRANCH  12  13
ENDBRANCH   7  12
ENDBRANCH   5   6
BRANCH   5  30
HETATM   30  O6  UNL     1       2.384   7.099  36.930  1.00  0.00    -0.359 OA
ATOM     31  H6  UNL     1       3.157   6.741  37.350  1.00  0.00     0.217 HD
ENDBRANCH   5  30
ENDBRANCH   1   5
BRANCH   4  32
HETATM   32  O11 UNL     1       5.784   5.902  35.909  1.00  0.00    -0.388 OA
ATOM     33  H11 UNL     1       6.474   5.873  35.256  1.00  0.00     0.210 HD
ENDBRANCH   4  32
BRANCH   3  34
HETATM   34  N3  UNL     1       5.953   7.183  33.483  1.00  0.00    -0.331 N 
HETATM   35  C12 UNL     1       6.362   8.054  32.456  1.00  0.00     0.238 C 
HETATM   36  O8  UNL     1       5.597   9.048  32.215  1.00  0.00    -0.272 OA
ATOM     37  H3  UNL     1       6.545   6.381  33.698  1.00  0.00     0.165 HD
BRANCH  35  38
HETATM   38  C13 UNL     1       7.580   7.906  31.658  1.00  0.00     0.235 C 
BRANCH  38  39
HETATM   39  N4  UNL     1       7.373   7.330  30.354  1.00  0.00    -0.300 N 
HETATM   40  C14 UNL     1       7.011   8.066  29.277  1.00  0.00     0.117 A 
HETATM   41  C15 UNL     1       6.815   7.526  28.033  1.00  0.00     0.092 A 
HETATM   42  C17 UNL     1       6.991   6.167  27.853  1.00  0.00     0.120 A 
HETATM   43  N8  UNL     1       7.346   5.458  28.917  1.00  0.00    -0.294 N 
HETATM   44  C18 UNL     1       7.533   6.015  30.129  1.00  0.00     0.328 A 
ATOM     45  H8  UNL     1       7.483   4.452  28.814  1.00  0.00     0.172 HD
HETATM   46  O10 UNL     1       7.865   5.255  31.059  1.00  0.00    -0.246 OA
BRANCH  41  47
HETATM   47  C16 UNL     1       6.428   8.321  26.889  1.00  0.00     0.274 C 
HETATM   48  O9  UNL     1       5.284   8.229  26.400  1.00  0.00    -0.266 OA
HETATM   49  N5  UNL     1       7.355   9.217  26.311  1.00  0.00    -0.272 N 
ATOM     50  H5  UNL     1       8.294   9.302  26.700  1.00  0.00     0.189 HD
BRANCH  49  51
HETATM   51  N6  UNL     1       6.987   9.983  25.210  1.00  0.00    -0.342 N 
ATOM     52  H62 UNL     1       6.042   9.889  24.836  1.00  0.00     0.176 HD
ATOM     53  H61 UNL     1       7.657  10.627  24.790  1.00  0.00     0.176 HD
ENDBRANCH  49  51
ENDBRANCH  41  47
BRANCH  42  54
HETATM   54  N7  UNL     1       6.826   5.585  26.724  1.00  0.00    -0.385 N 
ATOM     55  H72 UNL     1       6.988   6.100  25.859  1.00  0.00     0.157 HD
ATOM     56  H71 UNL     1       6.536   4.612  26.638  1.00  0.00     0.157 HD
ENDBRANCH  42  54
ENDBRANCH  38  39
ENDBRANCH  35  38
ENDBRANCH   3  34
TORSDOF 17
ENDMDL
MODEL 3
REMARK VINA RESULT: -7.857898973      2.941      7.756
REMARK  17 active torsions:
REMARK  status: ('A' for Active; 'I' for Inactive)
REMARK    1  A    between atoms: S1_2  and  C2_5 
REMARK    2  A    between atoms: C3_10  and  C4_11 
REMARK    3  A    between atoms: C4_11  and  O3_12 
REMARK    4  A    between atoms: C4_11  and  C5_14 
REMARK    5  A    between atoms: C5_14  and  O5_16 
REMARK    6  A    between atoms: O5_16  and  C6_17 
REMARK    7  A    between atoms: C6_17  and  C7_18 
REMARK    8  A    between atoms: C8_19  and  C9_20 
REMARK    9  A    between atoms: C9_20  and  O6_21 
REMARK   10  A    between atoms: C9_20  and  C10_23 
REMARK   11  A    between atoms: C11_25  and  N3_26 
REMARK       I    between atoms: N3_26  and  C12_28 
REMARK   12  A    between atoms: C12_28  and  C13_30 
REMARK   13  A    between atoms: C13_30  and  N4_31 
REMARK   14  A    between atoms: C15_33  and  C16_34 
REMARK       I    between atoms: C16_34  and  N5_36 
REMARK   15  A    between atoms: N5_36  and  N6_38 
REMARK   16  A    between atoms: C17_41  and  N7_42 
REMARK   17  A    between atoms: C19_49  and  O11_50 
ROOT
HETATM    1  C10 UNL     1       6.895   7.341  28.723  1.00  0.00     0.216 C 
HETATM    2  O7  UNL     1       5.500   7.045  28.913  1.00  0.00    -0.349 OA
HETATM    3  C11 UNL     1       5.489   5.891  28.145  1.00  0.00     0.256 C 
HETATM    4  C19 UNL     1       6.976   5.895  28.207  1.00  0.00     0.202 C 
ENDROOT
BRANCH   1   5
HETATM    5  C9  UNL     1       7.110   8.378  27.731  1.00  0.00     0.109 C 
BRANCH   5   6
HETATM    6  C8  UNL     1       6.657   9.712  27.495  1.00  0.00     0.115 C 
HETATM    7  C7  UNL     1       5.695  10.050  26.670  1.00  0.00     0.038 C 
HETATM    8  S2  UNL     1       5.250  11.833  26.704  1.00  0.00    -0.127 SA
HETATM    9  C21 UNL     1       6.841  12.698  26.700  1.00  0.00     0.106 C 
HETATM   10  C20 UNL     1       7.831  11.887  27.494  1.00  0.00     0.186 C 
HETATM   11  O12 UNL     1       7.277  10.808  28.195  1.00  0.00    -0.347 OA
BRANCH   7  12
HETATM   12  C6  UNL     1       4.914   9.172  25.843  1.00  0.00     0.227 C 
BRANCH  12  13
HETATM   13  O5  UNL     1       4.012   8.383  26.548  1.00  0.00    -0.314 OA
BRANCH  13  14
HETATM   14  C5  UNL     1       2.682   8.394  26.573  1.00  0.00     0.294 C 
HETATM   15  O4  UNL     1       1.982   7.742  25.769  1.00  0.00    -0.262 OA
BRANCH  14  16
HETATM   16  C4  UNL     1       1.928   9.226  27.610  1.00  0.00     0.275 C 
BRANCH  16  17
HETATM   17  C3  UNL     1       2.654   9.114  28.902  1.00  0.00     0.107 A 
HETATM   18  N2  UNL     1       2.840   7.989  29.581  1.00  0.00    -0.293 N 
HETATM   19  N1  UNL     1       3.474   8.008  30.672  1.00  0.00    -0.284 N 
ATOM     20  H2  UNL     1       2.470   7.109  29.220  1.00  0.00     0.187 HD
HETATM   21  C2  UNL     1       3.955   9.156  31.139  1.00  0.00     0.186 A 
ATOM     22  H1  UNL     1       3.618   7.144  31.194  1.00  0.00     0.188 HD
HETATM   23  S3  UNL     1       3.444  10.241  29.911  1.00  0.00    -0.041 SA
BRANCH  21  24
HETATM   24  S1  UNL     1       4.864   9.459  32.613  1.00  0.00     0.195 S 
HETATM   25  C1  UNL     1       3.759  10.251  33.751  1.00  0.00     0.169 C 
HETATM   26  O1  UNL     1       5.304   8.168  33.236  1.00  0.00    -0.221 OA
HETATM   27  O2  UNL     1       6.039  10.294  32.272  1.00  0.00    -0.221 OA
ENDBRANCH  21  24
ENDBRANCH  16  17
BRANCH  16  28
HETATM   28  O3  UNL     1       1.884  10.553  27.190  1.00  0.00    -0.379 OA
ATOM     29  H3  UNL     1       2.062  11.137  27.918  1.00  0.00     0.211 HD
ENDBRANCH  16  28
ENDBRANCH  14  16
ENDBRANCH  13  14
ENDBRANCH  12  13
ENDBRANCH   7  12
ENDBRANCH   5   6
BRANCH   5  30
HETATM   30  O6  UNL     1       7.957   7.953  26.798  1.00  0.00    -0.359 OA
ATOM     31  H6  UNL     1       8.866   8.061  27.053  1.00  0.00     0.217 HD
ENDBRANCH   5  30
ENDBRANCH   1   5
BRANCH   4  32
HETATM   32  O11 UNL     1       7.572   5.010  29.069  1.00  0.00    -0.388 OA
ATOM     33  H11 UNL     1       7.080   4.212  29.223  1.00  0.00     0.210 HD
ENDBRANCH   4  32
BRANCH   3  34
HETATM   34  N3  UNL     1       4.840   4.801  28.848  1.00  0.00    -0.331 N 
HETATM   35  C12 UNL     1       3.476   4.484  28.710  1.00  0.00     0.238 C 
HETATM   36  O8  UNL     1       2.801   5.216  27.911  1.00  0.00    -0.272 OA
ATOM     37  H3  UNL     1       5.405   4.233  29.479  1.00  0.00     0.165 HD
BRANCH  35  38
HETATM   38  C13 UNL     1       2.788   3.395  29.403  1.00  0.00     0.235 C 
BRANCH  38  39
HETATM   39  N4  UNL     1       2.072   3.798  30.587  1.00  0.00    -0.300 N 
HETATM   40  C14 UNL     1       2.545   4.731  31.446  1.00  0.00     0.117 A 
HETATM   41  C15 UNL     1       1.869   5.122  32.573  1.00  0.00     0.092 A 
HETATM   42  C17 UNL     1       0.646   4.545  32.859  1.00  0.00     0.120 A 
HETATM   43  N8  UNL     1       0.195   3.632  32.008  1.00  0.00    -0.294 N 
HETATM   44  C18 UNL     1       0.880   3.267  30.907  1.00  0.00     0.328 A 
ATOM     45  H8  UNL     1      -0.705   3.189  32.194  1.00  0.00     0.172 HD
HETATM   46  O10 UNL     1       0.362   2.400  30.176  1.00  0.00    -0.246 OA
BRANCH  41  47
HETATM   47  C16 UNL     1       2.383   6.119  33.485  1.00  0.00     0.274 C 
HETATM   48  O9  UNL     1       1.947   7.288  33.470  1.00  0.00    -0.266 OA
HETATM   49  N5  UNL     1       3.395   5.771  34.407  1.00  0.00    -0.272 N 
ATOM     50  H5  UNL     1       3.761   4.820  34.429  1.00  0.00     0.189 HD
BRANCH  49  51
HETATM   51  N6  UNL     1       3.892   6.728  35.285  1.00  0.00    -0.342 N 
ATOM     52  H62 UNL     1       3.545   7.685  35.223  1.00  0.00     0.176 HD
ATOM     53  H61 UNL     1       4.594   6.467  35.978  1.00  0.00     0.176 HD
ENDBRANCH  49  51
ENDBRANCH  41  47
BRANCH  42  54
HETATM   54  N7  UNL     1      -0.047   4.853  33.891  1.00  0.00    -0.385 N 
ATOM     55  H72 UNL     1       0.208   5.667  34.450  1.00  0.00     0.157 HD
ATOM     56  H71 UNL     1      -0.860   4.318  34.194  1.00  0.00     0.157 HD
ENDBRANCH  42  54
ENDBRANCH  38  39
ENDBRANCH  35  38
ENDBRANCH   3  34
TORSDOF 17
ENDMDL
MODEL 4
REMARK VINA RESULT: -7.831610903      4.420      7.232
REMARK  17 active torsions:
REMARK  status: ('A' for Active; 'I' for Inactive)
REMARK    1  A    between atoms: S1_2  and  C2_5 
REMARK    2  A    between atoms: C3_10  and  C4_11 
REMARK    3  A    between atoms: C4_11  and  O3_12 
REMARK    4  A    between atoms: C4_11  and  C5_14 
REMARK    5  A    between atoms: C5_14  and  O5_16 
REMARK    6  A    between atoms: O5_16  and  C6_17 
REMARK    7  A    between atoms: C6_17  and  C7_18 
REMARK    8  A    between atoms: C8_19  and  C9_20 
REMARK    9  A    between atoms: C9_20  and  O6_21 
REMARK   10  A    between atoms: C9_20  and  C10_23 
REMARK   11  A    between atoms: C11_25  and  N3_26 
REMARK       I    between atoms: N3_26  and  C12_28 
REMARK   12  A    between atoms: C12_28  and  C13_30 
REMARK   13  A    between atoms: C13_30  and  N4_31 
REMARK   14  A    between atoms: C15_33  and  C16_34 
REMARK       I    between atoms: C16_34  and  N5_36 
REMARK   15  A    between atoms: N5_36  and  N6_38 
REMARK   16  A    between atoms: C17_41  and  N7_42 
REMARK   17  A    between atoms: C19_49  and  O11_50 
ROOT
HETATM    1  C10 UNL     1       2.028   4.754  36.322  1.00  0.00     0.216 C 
HETATM    2  O7  UNL     1       1.311   3.755  35.577  1.00  0.00    -0.349 OA
HETATM    3  C11 UNL     1       1.153   4.515  34.427  1.00  0.00     0.256 C 
HETATM    4  C19 UNL     1       2.194   5.439  34.956  1.00  0.00     0.202 C 
ENDROOT
BRANCH   1   5
HETATM    5  C9  UNL     1       1.181   5.447  37.276  1.00  0.00     0.109 C 
BRANCH   5   6
HETATM    6  C8  UNL     1       0.061   5.131  38.104  1.00  0.00     0.115 C 
HETATM    7  C7  UNL     1      -1.196   5.216  37.741  1.00  0.00     0.038 C 
HETATM    8  S2  UNL     1      -2.395   4.596  38.988  1.00  0.00    -0.127 SA
HETATM    9  C21 UNL     1      -1.820   5.293  40.557  1.00  0.00     0.106 C 
HETATM   10  C20 UNL     1      -0.314   5.342  40.538  1.00  0.00     0.186 C 
HETATM   11  O12 UNL     1       0.280   4.681  39.455  1.00  0.00    -0.347 OA
BRANCH   7  12
HETATM   12  C6  UNL     1      -1.703   5.640  36.465  1.00  0.00     0.227 C 
BRANCH  12  13
HETATM   13  O5  UNL     1      -1.314   6.924  36.098  1.00  0.00    -0.314 OA
BRANCH  13  14
HETATM   14  C5  UNL     1      -2.020   7.939  35.608  1.00  0.00     0.294 C 
HETATM   15  O4  UNL     1      -3.177   8.210  35.992  1.00  0.00    -0.262 OA
BRANCH  14  16
HETATM   16  C4  UNL     1      -1.435   8.844  34.524  1.00  0.00     0.275 C 
BRANCH  16  17
HETATM   17  C3  UNL     1       0.043   8.854  34.684  1.00  0.00     0.107 A 
HETATM   18  N2  UNL     1       0.688   9.029  35.830  1.00  0.00    -0.293 N 
HETATM   19  N1  UNL     1       1.950   9.019  35.852  1.00  0.00    -0.284 N 
ATOM     20  H2  UNL     1       0.164   9.173  36.693  1.00  0.00     0.187 HD
HETATM   21  C2  UNL     1       2.631   8.831  34.725  1.00  0.00     0.186 A 
ATOM     22  H1  UNL     1       2.447   9.153  36.732  1.00  0.00     0.188 HD
HETATM   23  S3  UNL     1       1.346   8.666  33.598  1.00  0.00    -0.041 SA
BRANCH  21  24
HETATM   24  S1  UNL     1       4.371   8.772  34.478  1.00  0.00     0.195 S 
HETATM   25  C1  UNL     1       5.069   7.971  35.897  1.00  0.00     0.169 C 
HETATM   26  O1  UNL     1       4.705   7.939  33.278  1.00  0.00    -0.221 OA
HETATM   27  O2  UNL     1       4.861  10.158  34.296  1.00  0.00    -0.221 OA
ENDBRANCH  21  24
ENDBRANCH  16  17
BRANCH  16  28
HETATM   28  O3  UNL     1      -1.785   8.346  33.271  1.00  0.00    -0.379 OA
ATOM     29  H3  UNL     1      -2.592   7.848  33.326  1.00  0.00     0.211 HD
ENDBRANCH  16  28
ENDBRANCH  14  16
ENDBRANCH  13  14
ENDBRANCH  12  13
ENDBRANCH   7  12
ENDBRANCH   5   6
BRANCH   5  30
HETATM   30  O6  UNL     1       1.566   6.714  37.396  1.00  0.00    -0.359 OA
ATOM     31  H6  UNL     1       2.446   6.862  37.070  1.00  0.00     0.217 HD
ENDBRANCH   5  30
ENDBRANCH   1   5
BRANCH   4  32
HETATM   32  O11 UNL     1       3.451   5.346  34.415  1.00  0.00    -0.388 OA
ATOM     33  H11 UNL     1       4.116   5.854  34.865  1.00  0.00     0.210 HD
ENDBRANCH   4  32
BRANCH   3  34
HETATM   34  N3  UNL     1       1.532   3.762  33.247  1.00  0.00    -0.331 N 
HETATM   35  C12 UNL     1       0.894   3.892  31.999  1.00  0.00     0.238 C 
HETATM   36  O8  UNL     1      -0.067   4.730  31.938  1.00  0.00    -0.272 OA
ATOM     37  H3  UNL     1       2.304   3.100  33.327  1.00  0.00     0.165 HD
BRANCH  35  38
HETATM   38  C13 UNL     1       1.247   3.149  30.789  1.00  0.00     0.235 C 
BRANCH  38  39
HETATM   39  N4  UNL     1       2.465   3.583  30.155  1.00  0.00    -0.300 N 
HETATM   40  C14 UNL     1       3.588   3.878  30.851  1.00  0.00     0.117 A 
HETATM   41  C15 UNL     1       4.752   4.290  30.255  1.00  0.00     0.092 A 
HETATM   42  C17 UNL     1       4.796   4.415  28.879  1.00  0.00     0.120 A 
HETATM   43  N8  UNL     1       3.687   4.123  28.210  1.00  0.00    -0.294 N 
HETATM   44  C18 UNL     1       2.558   3.720  28.821  1.00  0.00     0.328 A 
ATOM     45  H8  UNL     1       3.691   4.206  27.193  1.00  0.00     0.172 HD
HETATM   46  O10 UNL     1       1.575   3.471  28.095  1.00  0.00    -0.246 OA
BRANCH  41  47
HETATM   47  C16 UNL     1       5.946   4.603  31.007  1.00  0.00     0.274 C 
HETATM   48  O9  UNL     1       7.054   4.134  30.678  1.00  0.00    -0.266 OA
HETATM   49  N5  UNL     1       5.863   5.450  32.135  1.00  0.00    -0.272 N 
ATOM     50  H5  UNL     1       4.963   5.840  32.416  1.00  0.00     0.189 HD
BRANCH  49  51
HETATM   51  N6  UNL     1       7.009   5.752  32.861  1.00  0.00    -0.342 N 
ATOM     52  H62 UNL     1       7.847   6.052  32.362  1.00  0.00     0.176 HD
ATOM     53  H61 UNL     1       7.003   5.673  33.878  1.00  0.00     0.176 HD
ENDBRANCH  49  51
ENDBRANCH  41  47
BRANCH  42  54
HETATM   54  N7  UNL     1       5.842   4.794  28.246  1.00  0.00    -0.385 N 
ATOM     55  H72 UNL     1       6.388   5.583  28.593  1.00  0.00     0.157 HD
ATOM     56  H71 UNL     1       6.171   4.342  27.394  1.00  0.00     0.157 HD
ENDBRANCH  42  54
ENDBRANCH  38  39
ENDBRANCH  35  38
ENDBRANCH   3  34
TORSDOF 17
ENDMDL
MODEL 5
REMARK VINA RESULT: -7.827976349      2.794      5.459
REMARK  17 active torsions:
REMARK  status: ('A' for Active; 'I' for Inactive)
REMARK    1  A    between atoms: S1_2  and  C2_5 
REMARK    2  A    between atoms: C3_10  and  C4_11 
REMARK    3  A    between atoms: C4_11  and  O3_12 
REMARK    4  A    between atoms: C4_11  and  C5_14 
REMARK    5  A    between atoms: C5_14  and  O5_16 
REMARK    6  A    between atoms: O5_16  and  C6_17 
REMARK    7  A    between atoms: C6_17  and  C7_18 
REMARK    8  A    between atoms: C8_19  and  C9_20 
REMARK    9  A    between atoms: C9_20  and  O6_21 
REMARK   10  A    between atoms: C9_20  and  C10_23 
REMARK   11  A    between atoms: C11_25  and  N3_26 
REMARK       I    between atoms: N3_26  and  C12_28 
REMARK   12  A    between atoms: C12_28  and  C13_30 
REMARK   13  A    between atoms: C13_30  and  N4_31 
REMARK   14  A    between atoms: C15_33  and  C16_34 
REMARK       I    between atoms: C16_34  and  N5_36 
REMARK   15  A    between atoms: N5_36  and  N6_38 
REMARK   16  A    between atoms: C17_41  and  N7_42 
REMARK   17  A    between atoms: C19_49  and  O11_50 
ROOT
HETATM    1  C10 UNL     1       6.033   6.204  32.821  1.00  0.00     0.216 C 
HETATM    2  O7  UNL     1       5.389   6.584  31.593  1.00  0.00    -0.349 OA
HETATM    3  C11 UNL     1       5.930   7.860  31.532  1.00  0.00     0.256 C 
HETATM    4  C19 UNL     1       6.916   7.436  32.564  1.00  0.00     0.202 C 
ENDROOT
BRANCH   1   5
HETATM    5  C9  UNL     1       5.143   6.294  33.964  1.00  0.00     0.109 C 
BRANCH   5   6
HETATM    6  C8  UNL     1       3.766   6.597  34.198  1.00  0.00     0.115 C 
HETATM    7  C7  UNL     1       2.752   5.875  33.785  1.00  0.00     0.038 C 
HETATM    8  S2  UNL     1       1.112   6.454  34.375  1.00  0.00    -0.127 SA
HETATM    9  C21 UNL     1       1.149   8.248  34.132  1.00  0.00     0.106 C 
HETATM   10  C20 UNL     1       2.549   8.739  34.393  1.00  0.00     0.186 C 
HETATM   11  O12 UNL     1       3.414   7.781  34.938  1.00  0.00    -0.347 OA
BRANCH   7  12
HETATM   12  C6  UNL     1       2.808   4.656  33.024  1.00  0.00     0.227 C 
BRANCH  12  13
HETATM   13  O5  UNL     1       2.301   4.770  31.734  1.00  0.00    -0.314 OA
BRANCH  13  14
HETATM   14  C5  UNL     1       1.702   3.874  30.954  1.00  0.00     0.294 C 
HETATM   15  O4  UNL     1       0.763   3.149  31.348  1.00  0.00    -0.262 OA
BRANCH  14  16
HETATM   16  C4  UNL     1       2.145   3.683  29.504  1.00  0.00     0.275 C 
BRANCH  16  17
HETATM   17  C3  UNL     1       3.609   3.929  29.436  1.00  0.00     0.107 A 
HETATM   18  N2  UNL     1       4.523   3.317  30.178  1.00  0.00    -0.293 N 
HETATM   19  N1  UNL     1       5.745   3.603  30.037  1.00  0.00    -0.284 N 
ATOM     20  H2  UNL     1       4.239   2.617  30.863  1.00  0.00     0.187 HD
HETATM   21  C2  UNL     1       6.113   4.516  29.143  1.00  0.00     0.186 A 
ATOM     22  H1  UNL     1       6.448   3.133  30.606  1.00  0.00     0.188 HD
HETATM   23  S3  UNL     1       4.587   4.963  28.494  1.00  0.00    -0.041 SA
BRANCH  21  24
HETATM   24  S1  UNL     1       7.726   5.094  28.749  1.00  0.00     0.195 S 
HETATM   25  C1  UNL     1       8.539   3.796  27.857  1.00  0.00     0.169 C 
HETATM   26  O1  UNL     1       7.652   6.287  27.845  1.00  0.00    -0.221 OA
HETATM   27  O2  UNL     1       8.414   5.447  30.013  1.00  0.00    -0.221 OA
ENDBRANCH  21  24
ENDBRANCH  16  17
BRANCH  16  28
HETATM   28  O3  UNL     1       1.850   2.383  29.101  1.00  0.00    -0.379 OA
ATOM     29  H3  UNL     1       2.276   2.188  28.274  1.00  0.00     0.211 HD
ENDBRANCH  16  28
ENDBRANCH  14  16
ENDBRANCH  13  14
ENDBRANCH  12  13
ENDBRANCH   7  12
ENDBRANCH   5   6
BRANCH   5  30
HETATM   30  O6  UNL     1       5.804   6.019  35.084  1.00  0.00    -0.359 OA
ATOM     31  H6  UNL     1       6.016   5.096  35.167  1.00  0.00     0.217 HD
ENDBRANCH   5  30
ENDBRANCH   1   5
BRANCH   4  32
HETATM   32  O11 UNL     1       8.188   7.153  32.138  1.00  0.00    -0.388 OA
ATOM     33  H11 UNL     1       8.465   7.631  31.365  1.00  0.00     0.210 HD
ENDBRANCH   4  32
BRANCH   3  34
HETATM   34  N3  UNL     1       6.481   8.131  30.219  1.00  0.00    -0.331 N 
HETATM   35  C12 UNL     1       6.657   9.427  29.698  1.00  0.00     0.238 C 
HETATM   36  O8  UNL     1       6.302  10.394  30.451  1.00  0.00    -0.272 OA
ATOM     37  H3  UNL     1       6.757   7.338  29.640  1.00  0.00     0.165 HD
BRANCH  35  38
HETATM   38  C13 UNL     1       7.208   9.738  28.379  1.00  0.00     0.235 C 
BRANCH  38  39
HETATM   39  N4  UNL     1       6.283   9.565  27.288  1.00  0.00    -0.300 N 
HETATM   40  C14 UNL     1       4.972   9.287  27.478  1.00  0.00     0.117 A 
HETATM   41  C15 UNL     1       4.085   9.122  26.446  1.00  0.00     0.092 A 
HETATM   42  C17 UNL     1       4.536   9.243  25.145  1.00  0.00     0.120 A 
HETATM   43  N8  UNL     1       5.823   9.517  24.974  1.00  0.00    -0.294 N 
HETATM   44  C18 UNL     1       6.673   9.674  26.007  1.00  0.00     0.328 A 
ATOM     45  H8  UNL     1       6.183   9.611  24.024  1.00  0.00     0.172 HD
HETATM   46  O10 UNL     1       7.862   9.929  25.732  1.00  0.00    -0.246 OA
BRANCH  41  47
HETATM   47  C16 UNL     1       2.686   8.825  26.659  1.00  0.00     0.274 C 
HETATM   48  O9  UNL     1       2.151   7.835  26.119  1.00  0.00    -0.266 OA
HETATM   49  N5  UNL     1       1.908   9.664  27.487  1.00  0.00    -0.272 N 
ATOM     50  H5  UNL     1       2.333  10.477  27.934  1.00  0.00     0.189 HD
BRANCH  49  51
HETATM   51  N6  UNL     1       0.563   9.381  27.694  1.00  0.00    -0.342 N 
ATOM     52  H62 UNL     1       0.206   8.460  27.439  1.00  0.00     0.176 HD
ATOM     53  H61 UNL     1      -0.051  10.090  28.095  1.00  0.00     0.176 HD
ENDBRANCH  49  51
ENDBRANCH  41  47
BRANCH  42  54
HETATM   54  N7  UNL     1       3.772   9.103  24.126  1.00  0.00    -0.385 N 
ATOM     55  H72 UNL     1       3.262   8.231  23.989  1.00  0.00     0.157 HD
ATOM     56  H71 UNL     1       3.641   9.832  23.425  1.00  0.00     0.157 HD
ENDBRANCH  42  54
ENDBRANCH  38  39
ENDBRANCH  35  38
ENDBRANCH   3  34
TORSDOF 17
ENDMDL
