MODEL 1
REMARK VINA RESULT: -7.240257102      0.000      0.000
REMARK  4 active torsions:
REMARK  status: ('A' for Active; 'I' for Inactive)
REMARK    1  A    between atoms: N1_1  and  C1_5 
REMARK    2  A    between atoms: C1_5  and  C2_6 
REMARK    3  A    between atoms: C2_6  and  N2_7 
REMARK    4  A    between atoms: C3_9  and  C4_10 
ROOT
HETATM    1  C4  UNL     1      15.747  -8.373  23.033  1.00  0.00     0.048 A 
HETATM    2  C5  UNL     1      15.461  -9.128  24.175  1.00  0.00     0.032 A 
HETATM    3  C6  UNL     1      16.534  -9.459  24.976  1.00  0.00    -0.008 A 
HETATM    4  C7  UNL     1      16.338 -10.207  26.128  1.00  0.00     0.014 A 
HETATM    5  C8  UNL     1      17.371 -10.569  26.968  1.00  0.00     0.001 A 
HETATM    6  C9  UNL     1      18.668 -10.170  26.653  1.00  0.00     0.002 A 
HETATM    7  C10 UNL     1      18.861  -9.423  25.498  1.00  0.00     0.030 A 
HETATM    8  C11 UNL     1      17.822  -9.069  24.670  1.00  0.00     0.045 A 
HETATM    9  N3  UNL     1      18.037  -8.344  23.558  1.00  0.00    -0.322 N 
ATOM     10  H3  UNL     1      18.987  -8.053  23.329  1.00  0.00     0.169 HD
HETATM   11  C12 UNL     1      17.019  -7.992  22.736  1.00  0.00     0.257 A 
HETATM   12  O1  UNL     1      17.232  -7.310  21.694  1.00  0.00    -0.267 OA
ENDROOT
BRANCH   1  13
HETATM   13  C3  UNL     1      14.633  -8.005  22.161  1.00  0.00     0.100 C 
HETATM   14  N2  UNL     1      14.677  -8.390  20.929  1.00  0.00    -0.396 N 
ATOM     15  H2  UNL     1      15.466  -8.934  20.580  1.00  0.00     0.158 HD
BRANCH  14  16
HETATM   16  C2  UNL     1      13.578  -8.031  20.052  1.00  0.00     0.146 C 
BRANCH  16  17
HETATM   17  C1  UNL     1      14.171  -7.288  18.847  1.00  0.00     0.249 C 
BRANCH  17  18
HETATM   18  N1  UNL     1      15.598  -7.646  18.809  1.00  0.00    -0.078 N 
ATOM     19  H13 UNL     1      16.201  -6.883  18.502  1.00  0.00     0.274 HD
ATOM     20  H12 UNL     1      16.011  -7.767  19.733  1.00  0.00     0.274 HD
ATOM     21  H11 UNL     1      15.664  -8.478  18.222  1.00  0.00     0.274 HD
ENDBRANCH  17  18
ENDBRANCH  16  17
ENDBRANCH  14  16
ENDBRANCH   1  13
TORSDOF 4
ENDMDL
MODEL 2
REMARK VINA RESULT: -7.094748197      0.962      1.002
REMARK  4 active torsions:
REMARK  status: ('A' for Active; 'I' for Inactive)
REMARK    1  A    between atoms: N1_1  and  C1_5 
REMARK    2  A    between atoms: C1_5  and  C2_6 
REMARK    3  A    between atoms: C2_6  and  N2_7 
REMARK    4  A    between atoms: C3_9  and  C4_10 
ROOT
HETATM    1  C4  UNL     1      15.769  -8.347  23.040  1.00  0.00     0.048 A 
HETATM    2  C5  UNL     1      15.456  -9.110  24.170  1.00  0.00     0.032 A 
HETATM    3  C6  UNL     1      16.513  -9.464  24.982  1.00  0.00    -0.008 A 
HETATM    4  C7  UNL     1      16.291 -10.220  26.124  1.00  0.00     0.014 A 
HETATM    5  C8  UNL     1      17.307 -10.605  26.974  1.00  0.00     0.001 A 
HETATM    6  C9  UNL     1      18.614 -10.222  26.681  1.00  0.00     0.002 A 
HETATM    7  C10 UNL     1      18.833  -9.465  25.538  1.00  0.00     0.030 A 
HETATM    8  C11 UNL     1      17.811  -9.088  24.699  1.00  0.00     0.045 A 
HETATM    9  N3  UNL     1      18.052  -8.355  23.598  1.00  0.00    -0.322 N 
ATOM     10  H3  UNL     1      19.009  -8.075  23.385  1.00  0.00     0.169 HD
HETATM   11  C12 UNL     1      17.050  -7.980  22.765  1.00  0.00     0.257 A 
HETATM   12  O1  UNL     1      17.287  -7.291  21.733  1.00  0.00    -0.267 OA
ENDROOT
BRANCH   1  13
HETATM   13  C3  UNL     1      14.672  -7.954  22.157  1.00  0.00     0.100 C 
HETATM   14  N2  UNL     1      14.695  -8.383  20.939  1.00  0.00    -0.396 N 
ATOM     15  H2  UNL     1      15.456  -8.976  20.608  1.00  0.00     0.158 HD
BRANCH  14  16
HETATM   16  C2  UNL     1      13.613  -8.001  20.050  1.00  0.00     0.146 C 
BRANCH  16  17
HETATM   17  C1  UNL     1      13.260  -6.538  20.353  1.00  0.00     0.249 C 
BRANCH  17  18
HETATM   18  N1  UNL     1      12.487  -6.057  19.198  1.00  0.00    -0.078 N 
ATOM     19  H13 UNL     1      12.328  -6.773  18.488  1.00  0.00     0.274 HD
ATOM     20  H12 UNL     1      11.506  -5.876  19.412  1.00  0.00     0.274 HD
ATOM     21  H11 UNL     1      12.984  -5.239  18.846  1.00  0.00     0.274 HD
ENDBRANCH  17  18
ENDBRANCH  16  17
ENDBRANCH  14  16
ENDBRANCH   1  13
TORSDOF 4
ENDMDL
MODEL 3
REMARK VINA RESULT: -6.971293417      1.530      1.748
REMARK  4 active torsions:
REMARK  status: ('A' for Active; 'I' for Inactive)
REMARK    1  A    between atoms: N1_1  and  C1_5 
REMARK    2  A    between atoms: C1_5  and  C2_6 
REMARK    3  A    between atoms: C2_6  and  N2_7 
REMARK    4  A    between atoms: C3_9  and  C4_10 
ROOT
HETATM    1  C4  UNL     1      15.810  -8.362  23.009  1.00  0.00     0.048 A 
HETATM    2  C5  UNL     1      15.503  -9.115  24.148  1.00  0.00     0.032 A 
HETATM    3  C6  UNL     1      16.562  -9.448  24.966  1.00  0.00    -0.008 A 
HETATM    4  C7  UNL     1      16.345 -10.194  26.116  1.00  0.00     0.014 A 
HETATM    5  C8  UNL     1      17.363 -10.557  26.974  1.00  0.00     0.001 A 
HETATM    6  C9  UNL     1      18.666 -10.163  26.679  1.00  0.00     0.002 A 
HETATM    7  C10 UNL     1      18.879  -9.417  25.527  1.00  0.00     0.030 A 
HETATM    8  C11 UNL     1      17.856  -9.061  24.682  1.00  0.00     0.045 A 
HETATM    9  N3  UNL     1      18.091  -8.338  23.573  1.00  0.00    -0.322 N 
ATOM     10  H3  UNL     1      19.046  -8.050  23.359  1.00  0.00     0.169 HD
HETATM   11  C12 UNL     1      17.087  -7.984  22.734  1.00  0.00     0.257 A 
HETATM   12  O1  UNL     1      17.319  -7.304  21.694  1.00  0.00    -0.267 OA
ENDROOT
BRANCH   1  13
HETATM   13  C3  UNL     1      14.711  -7.992  22.119  1.00  0.00     0.100 C 
HETATM   14  N2  UNL     1      14.567  -6.743  21.824  1.00  0.00    -0.396 N 
ATOM     15  H2  UNL     1      15.203  -6.041  22.203  1.00  0.00     0.158 HD
BRANCH  14  16
HETATM   16  C2  UNL     1      13.481  -6.360  20.942  1.00  0.00     0.146 C 
BRANCH  16  17
HETATM   17  C1  UNL     1      13.180  -4.876  21.195  1.00  0.00     0.249 C 
BRANCH  17  18
HETATM   18  N1  UNL     1      13.145  -4.711  22.656  1.00  0.00    -0.078 N 
ATOM     19  H13 UNL     1      13.641  -5.445  23.161  1.00  0.00     0.274 HD
ATOM     20  H12 UNL     1      13.708  -3.929  22.990  1.00  0.00     0.274 HD
ATOM     21  H11 UNL     1      12.159  -4.639  22.909  1.00  0.00     0.274 HD
ENDBRANCH  17  18
ENDBRANCH  16  17
ENDBRANCH  14  16
ENDBRANCH   1  13
TORSDOF 4
ENDMDL
MODEL 4
REMARK VINA RESULT: -6.883324125      1.485      2.131
REMARK  4 active torsions:
REMARK  status: ('A' for Active; 'I' for Inactive)
REMARK    1  A    between atoms: N1_1  and  C1_5 
REMARK    2  A    between atoms: C1_5  and  C2_6 
REMARK    3  A    between atoms: C2_6  and  N2_7 
REMARK    4  A    between atoms: C3_9  and  C4_10 
ROOT
HETATM    1  C4  UNL     1      16.482  -8.047  22.787  1.00  0.00     0.048 A 
HETATM    2  C5  UNL     1      17.665  -8.378  23.455  1.00  0.00     0.032 A 
HETATM    3  C6  UNL     1      17.530  -9.117  24.612  1.00  0.00    -0.008 A 
HETATM    4  C7  UNL     1      18.654  -9.487  25.336  1.00  0.00     0.014 A 
HETATM    5  C8  UNL     1      18.583 -10.225  26.500  1.00  0.00     0.001 A 
HETATM    6  C9  UNL     1      17.333 -10.618  26.974  1.00  0.00     0.002 A 
HETATM    7  C10 UNL     1      16.211 -10.245  26.247  1.00  0.00     0.030 A 
HETATM    8  C11 UNL     1      16.296  -9.509  25.089  1.00  0.00     0.045 A 
HETATM    9  N3  UNL     1      15.192  -9.162  24.405  1.00  0.00    -0.322 N 
ATOM     10  H3  UNL     1      14.278  -9.450  24.753  1.00  0.00     0.169 HD
HETATM   11  C12 UNL     1      15.267  -8.437  23.262  1.00  0.00     0.257 A 
HETATM   12  O1  UNL     1      14.224  -8.115  22.627  1.00  0.00    -0.267 OA
ENDROOT
BRANCH   1  13
HETATM   13  C3  UNL     1      16.588  -7.264  21.557  1.00  0.00     0.100 C 
HETATM   14  N2  UNL     1      16.152  -7.796  20.464  1.00  0.00    -0.396 N 
ATOM     15  H2  UNL     1      15.747  -8.732  20.464  1.00  0.00     0.158 HD
BRANCH  14  16
HETATM   16  C2  UNL     1      16.251  -7.031  19.235  1.00  0.00     0.146 C 
BRANCH  16  17
HETATM   17  C1  UNL     1      14.900  -7.139  18.512  1.00  0.00     0.249 C 
BRANCH  17  18
HETATM   18  N1  UNL     1      14.035  -7.948  19.384  1.00  0.00    -0.078 N 
ATOM     19  H13 UNL     1      14.410  -8.876  19.582  1.00  0.00     0.274 HD
ATOM     20  H12 UNL     1      14.008  -7.618  20.349  1.00  0.00     0.274 HD
ATOM     21  H11 UNL     1      13.120  -7.967  18.935  1.00  0.00     0.274 HD
ENDBRANCH  17  18
ENDBRANCH  16  17
ENDBRANCH  14  16
ENDBRANCH   1  13
TORSDOF 4
ENDMDL
MODEL 5
REMARK VINA RESULT: -6.869165222      2.107      2.612
REMARK  4 active torsions:
REMARK  status: ('A' for Active; 'I' for Inactive)
REMARK    1  A    between atoms: N1_1  and  C1_5 
REMARK    2  A    between atoms: C1_5  and  C2_6 
REMARK    3  A    between atoms: C2_6  and  N2_7 
REMARK    4  A    between atoms: C3_9  and  C4_10 
ROOT
HETATM    1  C4  UNL     1      16.460  -7.994  22.785  1.00  0.00     0.048 A 
HETATM    2  C5  UNL     1      17.615  -8.334  23.496  1.00  0.00     0.032 A 
HETATM    3  C6  UNL     1      17.433  -9.085  24.639  1.00  0.00    -0.008 A 
HETATM    4  C7  UNL     1      18.526  -9.465  25.404  1.00  0.00     0.014 A 
HETATM    5  C8  UNL     1      18.407 -10.215  26.555  1.00  0.00     0.001 A 
HETATM    6  C9  UNL     1      17.139 -10.612  26.974  1.00  0.00     0.002 A 
HETATM    7  C10 UNL     1      16.047 -10.229  26.206  1.00  0.00     0.030 A 
HETATM    8  C11 UNL     1      16.180  -9.481  25.061  1.00  0.00     0.045 A 
HETATM    9  N3  UNL     1      15.105  -9.125  24.336  1.00  0.00    -0.322 N 
ATOM     10  H3  UNL     1      14.177  -9.416  24.644  1.00  0.00     0.169 HD
HETATM   11  C12 UNL     1      15.227  -8.388  23.206  1.00  0.00     0.257 A 
HETATM   12  O1  UNL     1      14.210  -8.058  22.532  1.00  0.00    -0.267 OA
ENDROOT
BRANCH   1  13
HETATM   13  C3  UNL     1      16.616  -7.198  21.568  1.00  0.00     0.100 C 
HETATM   14  N2  UNL     1      16.444  -5.921  21.656  1.00  0.00    -0.396 N 
ATOM     15  H2  UNL     1      16.206  -5.487  22.547  1.00  0.00     0.158 HD
BRANCH  14  16
HETATM   16  C2  UNL     1      16.596  -5.119  20.457  1.00  0.00     0.146 C 
BRANCH  16  17
HETATM   17  C1  UNL     1      17.150  -6.033  19.355  1.00  0.00     0.249 C 
BRANCH  17  18
HETATM   18  N1  UNL     1      18.334  -5.348  18.814  1.00  0.00    -0.078 N 
ATOM     19  H13 UNL     1      18.254  -5.120  17.822  1.00  0.00     0.274 HD
ATOM     20  H12 UNL     1      18.440  -4.392  19.152  1.00  0.00     0.274 HD
ATOM     21  H11 UNL     1      19.130  -5.947  19.030  1.00  0.00     0.274 HD
ENDBRANCH  17  18
ENDBRANCH  16  17
ENDBRANCH  14  16
ENDBRANCH   1  13
TORSDOF 4
ENDMDL
