MODEL 1
REMARK VINA RESULT: -7.467376551      0.000      0.000
REMARK  20 active torsions:
REMARK  status: ('A' for Active; 'I' for Inactive)
REMARK    1  A    between atoms: N1_1  and  C1_5 
REMARK    2  A    between atoms: C1_5  and  C2_6 
REMARK    3  A    between atoms: C2_6  and  N2_7 
REMARK    4  A    between atoms: N2_7  and  C3_10 
REMARK    5  A    between atoms: C3_10  and  C4_11 
REMARK    6  A    between atoms: C4_11  and  N3_12 
REMARK    7  A    between atoms: C4_11  and  C8_23 
REMARK    8  A    between atoms: N3_12  and  C5_14 
REMARK    9  A    between atoms: C5_14  and  C6_15 
REMARK   10  A    between atoms: C5_14  and  C7_20 
REMARK   11  A    between atoms: C6_15  and  N4_16 
REMARK   12  A    between atoms: C7_20  and  O1_21 
REMARK   13  A    between atoms: C9_25  and  O3_26 
REMARK   14  A    between atoms: O3_26  and  C10_27 
REMARK   15  A    between atoms: C11_28  and  N5_29 
REMARK   16  A    between atoms: C13_34  and  N6_35 
REMARK   17  A    between atoms: C14_39  and  O4_40 
REMARK   18  A    between atoms: C15_42  and  O5_43 
REMARK   19  A    between atoms: C16_45  and  N7_46 
REMARK   20  A    between atoms: C17_50  and  N8_51 
ROOT
HETATM    1  C8  UNL     1      35.632  53.025  17.000  1.00  0.00     0.181 C 
HETATM    2  O2  UNL     1      35.305  52.162  18.052  1.00  0.00    -0.350 OA
HETATM    3  C9  UNL     1      36.052  52.591  19.138  1.00  0.00     0.293 C 
HETATM    4  C16 UNL     1      36.364  54.040  18.987  1.00  0.00     0.271 C 
HETATM    5  C17 UNL     1      35.805  54.374  17.623  1.00  0.00     0.249 C 
ENDROOT
BRANCH   1   6
HETATM    6  C4  UNL     1      36.902  52.508  16.297  1.00  0.00     0.138 C 
BRANCH   6   7
HETATM    7  C3  UNL     1      37.563  53.578  15.504  1.00  0.00     0.259 C 
BRANCH   7   8
HETATM    8  N2  UNL     1      38.963  53.718  15.704  1.00  0.00    -0.072 N 
ATOM      9  H22 UNL     1      39.478  53.139  15.041  1.00  0.00     0.277 HD
ATOM     10  H21 UNL     1      39.246  53.274  16.578  1.00  0.00     0.277 HD
BRANCH   8  11
HETATM   11  C2  UNL     1      39.425  55.066  15.657  1.00  0.00     0.259 C 
BRANCH  11  12
HETATM   12  C1  UNL     1      38.254  56.033  15.577  1.00  0.00     0.257 C 
BRANCH  12  13
HETATM   13  N1  UNL     1      38.250  56.969  16.662  1.00  0.00    -0.078 N 
ATOM     14  H13 UNL     1      37.657  56.646  17.426  1.00  0.00     0.274 HD
ATOM     15  H12 UNL     1      39.148  56.977  17.146  1.00  0.00     0.274 HD
ATOM     16  H11 UNL     1      37.986  57.907  16.360  1.00  0.00     0.274 HD
ENDBRANCH  12  13
ENDBRANCH  11  12
ENDBRANCH   8  11
ENDBRANCH   7   8
ENDBRANCH   6   7
BRANCH   6  17
HETATM   17  N3  UNL     1      36.498  51.414  15.536  1.00  0.00    -0.384 N 
ATOM     18  H3  UNL     1      37.222  50.735  15.298  1.00  0.00     0.159 HD
BRANCH  17  19
HETATM   19  C5  UNL     1      35.228  51.146  15.069  1.00  0.00     0.032 C 
BRANCH  19  20
HETATM   20  C6  UNL     1      34.556  49.877  15.594  1.00  0.00     0.283 C 
BRANCH  20  21
HETATM   21  N4  UNL     1      34.959  49.503  16.909  1.00  0.00    -0.074 N 
ATOM     22  H43 UNL     1      35.736  50.084  17.223  1.00  0.00     0.274 HD
ATOM     23  H42 UNL     1      34.252  49.777  17.591  1.00  0.00     0.274 HD
ATOM     24  H41 UNL     1      35.189  48.515  17.011  1.00  0.00     0.274 HD
ENDBRANCH  20  21
ENDBRANCH  19  20
BRANCH  19  25
HETATM   25  C7  UNL     1      34.875  51.430  13.634  1.00  0.00     0.217 C 
BRANCH  25  26
HETATM   26  O1  UNL     1      33.452  51.494  13.607  1.00  0.00    -0.395 OA
ATOM     27  H1  UNL     1      33.250  52.316  13.176  1.00  0.00     0.209 HD
ENDBRANCH  25  26
ENDBRANCH  19  25
ENDBRANCH  17  19
ENDBRANCH   6  17
ENDBRANCH   1   6
BRANCH   5  28
HETATM   28  N8  UNL     1      34.516  55.042  17.809  1.00  0.00    -0.070 N 
ATOM     29  H83 UNL     1      33.971  55.052  16.947  1.00  0.00     0.274 HD
ATOM     30  H82 UNL     1      33.886  54.485  18.387  1.00  0.00     0.274 HD
ATOM     31  H81 UNL     1      34.637  55.982  18.185  1.00  0.00     0.274 HD
ENDBRANCH   5  28
BRANCH   3  32
HETATM   32  O3  UNL     1      35.467  52.359  20.358  1.00  0.00    -0.349 OA
BRANCH  32  33
HETATM   33  C10 UNL     1      34.500  51.371  20.241  1.00  0.00     0.186 C 
HETATM   34  C11 UNL     1      35.062  49.993  20.519  1.00  0.00     0.217 C 
HETATM   35  C12 UNL     1      33.891  49.050  20.692  1.00  0.00     0.071 C 
HETATM   36  C13 UNL     1      33.257  49.368  22.018  1.00  0.00     0.216 C 
HETATM   37  C14 UNL     1      33.067  50.836  22.253  1.00  0.00     0.179 C 
HETATM   38  C15 UNL     1      33.283  51.693  21.059  1.00  0.00     0.180 C 
BRANCH  34  39
HETATM   39  N5  UNL     1      35.908  49.994  21.683  1.00  0.00    -0.072 N 
ATOM     40  H53 UNL     1      36.135  50.944  21.978  1.00  0.00     0.274 HD
ATOM     41  H52 UNL     1      35.401  49.687  22.513  1.00  0.00     0.274 HD
ATOM     42  H51 UNL     1      36.750  49.439  21.533  1.00  0.00     0.274 HD
ENDBRANCH  34  39
BRANCH  36  43
HETATM   43  N6  UNL     1      32.025  48.616  22.114  1.00  0.00    -0.072 N 
ATOM     44  H63 UNL     1      31.257  49.049  21.602  1.00  0.00     0.274 HD
ATOM     45  H62 UNL     1      32.056  47.737  21.597  1.00  0.00     0.274 HD
ATOM     46  H61 UNL     1      31.813  48.483  23.104  1.00  0.00     0.274 HD
ENDBRANCH  36  43
BRANCH  37  47
HETATM   47  O4  UNL     1      33.783  51.279  23.388  1.00  0.00    -0.391 OA
ATOM     48  H4  UNL     1      34.604  51.691  23.146  1.00  0.00     0.210 HD
ENDBRANCH  37  47
BRANCH  38  49
HETATM   49  O5  UNL     1      33.409  53.027  21.490  1.00  0.00    -0.390 OA
ATOM     50  H5  UNL     1      34.180  53.074  22.043  1.00  0.00     0.210 HD
ENDBRANCH  38  49
ENDBRANCH  32  33
ENDBRANCH   3  32
BRANCH   4  51
HETATM   51  N7  UNL     1      37.816  54.292  19.015  1.00  0.00    -0.068 N 
ATOM     52  H73 UNL     1      38.019  55.286  19.110  1.00  0.00     0.275 HD
ATOM     53  H72 UNL     1      38.235  53.960  19.884  1.00  0.00     0.275 HD
ATOM     54  H71 UNL     1      38.285  53.894  18.202  1.00  0.00     0.275 HD
ENDBRANCH   4  51
TORSDOF 20
ENDMDL
MODEL 2
REMARK VINA RESULT: -7.438078665      1.676      1.980
REMARK  20 active torsions:
REMARK  status: ('A' for Active; 'I' for Inactive)
REMARK    1  A    between atoms: N1_1  and  C1_5 
REMARK    2  A    between atoms: C1_5  and  C2_6 
REMARK    3  A    between atoms: C2_6  and  N2_7 
REMARK    4  A    between atoms: N2_7  and  C3_10 
REMARK    5  A    between atoms: C3_10  and  C4_11 
REMARK    6  A    between atoms: C4_11  and  N3_12 
REMARK    7  A    between atoms: C4_11  and  C8_23 
REMARK    8  A    between atoms: N3_12  and  C5_14 
REMARK    9  A    between atoms: C5_14  and  C6_15 
REMARK   10  A    between atoms: C5_14  and  C7_20 
REMARK   11  A    between atoms: C6_15  and  N4_16 
REMARK   12  A    between atoms: C7_20  and  O1_21 
REMARK   13  A    between atoms: C9_25  and  O3_26 
REMARK   14  A    between atoms: O3_26  and  C10_27 
REMARK   15  A    between atoms: C11_28  and  N5_29 
REMARK   16  A    between atoms: C13_34  and  N6_35 
REMARK   17  A    between atoms: C14_39  and  O4_40 
REMARK   18  A    between atoms: C15_42  and  O5_43 
REMARK   19  A    between atoms: C16_45  and  N7_46 
REMARK   20  A    between atoms: C17_50  and  N8_51 
ROOT
HETATM    1  C8  UNL     1      35.847  54.646  17.704  1.00  0.00     0.181 C 
HETATM    2  O2  UNL     1      35.147  53.721  18.487  1.00  0.00    -0.350 OA
HETATM    3  C9  UNL     1      36.112  52.915  19.072  1.00  0.00     0.293 C 
HETATM    4  C16 UNL     1      37.393  53.669  19.177  1.00  0.00     0.271 C 
HETATM    5  C17 UNL     1      37.086  54.972  18.475  1.00  0.00     0.249 C 
ENDROOT
BRANCH   1   6
HETATM    6  C4  UNL     1      36.131  54.027  16.322  1.00  0.00     0.138 C 
BRANCH   6   7
HETATM    7  C3  UNL     1      36.426  55.071  15.305  1.00  0.00     0.259 C 
BRANCH   7   8
HETATM    8  N2  UNL     1      35.544  56.184  15.290  1.00  0.00    -0.072 N 
ATOM      9  H22 UNL     1      35.852  56.894  15.956  1.00  0.00     0.277 HD
ATOM     10  H21 UNL     1      34.646  55.935  15.706  1.00  0.00     0.277 HD
BRANCH   8  11
HETATM   11  C2  UNL     1      35.354  56.759  13.999  1.00  0.00     0.259 C 
BRANCH  11  12
HETATM   12  C1  UNL     1      35.164  58.265  14.105  1.00  0.00     0.257 C 
BRANCH  12  13
HETATM   13  N1  UNL     1      34.181  58.618  15.086  1.00  0.00    -0.078 N 
ATOM     14  H13 UNL     1      33.243  58.361  14.778  1.00  0.00     0.274 HD
ATOM     15  H12 UNL     1      34.249  58.021  15.910  1.00  0.00     0.274 HD
ATOM     16  H11 UNL     1      34.229  59.604  15.341  1.00  0.00     0.274 HD
ENDBRANCH  12  13
ENDBRANCH  11  12
ENDBRANCH   8  11
ENDBRANCH   7   8
ENDBRANCH   6   7
BRANCH   6  17
HETATM   17  N3  UNL     1      35.020  53.245  16.018  1.00  0.00    -0.384 N 
ATOM     18  H3  UNL     1      34.109  53.646  16.240  1.00  0.00     0.159 HD
BRANCH  17  19
HETATM   19  C5  UNL     1      35.016  51.987  15.451  1.00  0.00     0.032 C 
BRANCH  19  20
HETATM   20  C6  UNL     1      35.885  50.926  16.125  1.00  0.00     0.283 C 
BRANCH  20  21
HETATM   21  N4  UNL     1      35.150  49.866  16.731  1.00  0.00    -0.074 N 
ATOM     22  H43 UNL     1      35.519  49.660  17.659  1.00  0.00     0.274 HD
ATOM     23  H42 UNL     1      34.213  50.180  16.982  1.00  0.00     0.274 HD
ATOM     24  H41 UNL     1      35.103  49.016  16.170  1.00  0.00     0.274 HD
ENDBRANCH  20  21
ENDBRANCH  19  20
BRANCH  19  25
HETATM   25  C7  UNL     1      34.981  51.833  13.954  1.00  0.00     0.217 C 
BRANCH  25  26
HETATM   26  O1  UNL     1      33.642  51.452  13.652  1.00  0.00    -0.395 OA
ATOM     27  H1  UNL     1      33.137  52.254  13.713  1.00  0.00     0.209 HD
ENDBRANCH  25  26
ENDBRANCH  19  25
ENDBRANCH  17  19
ENDBRANCH   6  17
ENDBRANCH   1   6
BRANCH   5  28
HETATM   28  N8  UNL     1      36.824  55.989  19.495  1.00  0.00    -0.070 N 
ATOM     29  H83 UNL     1      35.887  55.895  19.886  1.00  0.00     0.274 HD
ATOM     30  H82 UNL     1      37.366  55.817  20.343  1.00  0.00     0.274 HD
ATOM     31  H81 UNL     1      36.986  56.928  19.131  1.00  0.00     0.274 HD
ENDBRANCH   5  28
BRANCH   3  32
HETATM   32  O3  UNL     1      35.761  52.408  20.299  1.00  0.00    -0.349 OA
BRANCH  32  33
HETATM   33  C10 UNL     1      34.757  51.462  20.153  1.00  0.00     0.186 C 
HETATM   34  C11 UNL     1      35.240  50.066  20.483  1.00  0.00     0.217 C 
HETATM   35  C12 UNL     1      34.019  49.182  20.616  1.00  0.00     0.071 C 
HETATM   36  C13 UNL     1      33.338  49.555  21.903  1.00  0.00     0.216 C 
HETATM   37  C14 UNL     1      33.206  51.035  22.101  1.00  0.00     0.179 C 
HETATM   38  C15 UNL     1      33.518  51.856  20.904  1.00  0.00     0.180 C 
BRANCH  34  39
HETATM   39  N5  UNL     1      36.028  50.053  21.686  1.00  0.00    -0.072 N 
ATOM     40  H53 UNL     1      36.850  50.651  21.601  1.00  0.00     0.274 HD
ATOM     41  H52 UNL     1      35.556  50.541  22.448  1.00  0.00     0.274 HD
ATOM     42  H51 UNL     1      36.285  49.103  21.954  1.00  0.00     0.274 HD
ENDBRANCH  34  39
BRANCH  36  43
HETATM   43  N6  UNL     1      32.069  48.862  21.953  1.00  0.00    -0.072 N 
ATOM     44  H63 UNL     1      31.417  49.279  22.616  1.00  0.00     0.274 HD
ATOM     45  H62 UNL     1      31.511  48.997  21.110  1.00  0.00     0.274 HD
ATOM     46  H61 UNL     1      32.255  47.878  22.149  1.00  0.00     0.274 HD
ENDBRANCH  36  43
BRANCH  37  47
HETATM   47  O4  UNL     1      33.886  51.467  23.263  1.00  0.00    -0.391 OA
ATOM     48  H4  UNL     1      33.398  51.260  24.051  1.00  0.00     0.210 HD
ENDBRANCH  37  47
BRANCH  38  49
HETATM   49  O5  UNL     1      33.685  53.192  21.317  1.00  0.00    -0.390 OA
ATOM     50  H5  UNL     1      34.015  53.174  22.207  1.00  0.00     0.210 HD
ENDBRANCH  38  49
ENDBRANCH  32  33
ENDBRANCH   3  32
BRANCH   4  51
HETATM   51  N7  UNL     1      38.495  52.971  18.491  1.00  0.00    -0.068 N 
ATOM     52  H73 UNL     1      38.494  51.974  18.703  1.00  0.00     0.275 HD
ATOM     53  H72 UNL     1      38.334  52.920  17.485  1.00  0.00     0.275 HD
ATOM     54  H71 UNL     1      39.399  53.394  18.701  1.00  0.00     0.275 HD
ENDBRANCH   4  51
TORSDOF 20
ENDMDL
MODEL 3
REMARK VINA RESULT: -7.397504582      1.768      2.213
REMARK  20 active torsions:
REMARK  status: ('A' for Active; 'I' for Inactive)
REMARK    1  A    between atoms: N1_1  and  C1_5 
REMARK    2  A    between atoms: C1_5  and  C2_6 
REMARK    3  A    between atoms: C2_6  and  N2_7 
REMARK    4  A    between atoms: N2_7  and  C3_10 
REMARK    5  A    between atoms: C3_10  and  C4_11 
REMARK    6  A    between atoms: C4_11  and  N3_12 
REMARK    7  A    between atoms: C4_11  and  C8_23 
REMARK    8  A    between atoms: N3_12  and  C5_14 
REMARK    9  A    between atoms: C5_14  and  C6_15 
REMARK   10  A    between atoms: C5_14  and  C7_20 
REMARK   11  A    between atoms: C6_15  and  N4_16 
REMARK   12  A    between atoms: C7_20  and  O1_21 
REMARK   13  A    between atoms: C9_25  and  O3_26 
REMARK   14  A    between atoms: O3_26  and  C10_27 
REMARK   15  A    between atoms: C11_28  and  N5_29 
REMARK   16  A    between atoms: C13_34  and  N6_35 
REMARK   17  A    between atoms: C14_39  and  O4_40 
REMARK   18  A    between atoms: C15_42  and  O5_43 
REMARK   19  A    between atoms: C16_45  and  N7_46 
REMARK   20  A    between atoms: C17_50  and  N8_51 
ROOT
HETATM    1  C8  UNL     1      35.872  54.611  17.646  1.00  0.00     0.181 C 
HETATM    2  O2  UNL     1      35.155  53.712  18.443  1.00  0.00    -0.350 OA
HETATM    3  C9  UNL     1      36.106  52.918  19.067  1.00  0.00     0.293 C 
HETATM    4  C16 UNL     1      37.388  53.669  19.172  1.00  0.00     0.271 C 
HETATM    5  C17 UNL     1      37.100  54.953  18.429  1.00  0.00     0.249 C 
ENDROOT
BRANCH   1   6
HETATM    6  C4  UNL     1      36.177  53.953  16.287  1.00  0.00     0.138 C 
BRANCH   6   7
HETATM    7  C3  UNL     1      36.116  54.938  15.175  1.00  0.00     0.259 C 
BRANCH   7   8
HETATM    8  N2  UNL     1      35.572  56.208  15.505  1.00  0.00    -0.072 N 
ATOM      9  H22 UNL     1      35.730  56.419  16.491  1.00  0.00     0.277 HD
ATOM     10  H21 UNL     1      34.553  56.174  15.497  1.00  0.00     0.277 HD
BRANCH   8  11
HETATM   11  C2  UNL     1      36.043  57.274  14.685  1.00  0.00     0.259 C 
BRANCH  11  12
HETATM   12  C1  UNL     1      34.876  58.068  14.116  1.00  0.00     0.257 C 
BRANCH  12  13
HETATM   13  N1  UNL     1      34.116  58.722  15.140  1.00  0.00    -0.078 N 
ATOM     14  H13 UNL     1      34.190  58.225  16.028  1.00  0.00     0.274 HD
ATOM     15  H12 UNL     1      34.546  59.605  15.412  1.00  0.00     0.274 HD
ATOM     16  H11 UNL     1      33.141  58.853  14.870  1.00  0.00     0.274 HD
ENDBRANCH  12  13
ENDBRANCH  11  12
ENDBRANCH   8  11
ENDBRANCH   7   8
ENDBRANCH   6   7
BRANCH   6  17
HETATM   17  N3  UNL     1      35.270  52.904  16.159  1.00  0.00    -0.384 N 
ATOM     18  H3  UNL     1      34.291  53.127  16.341  1.00  0.00     0.159 HD
BRANCH  17  19
HETATM   19  C5  UNL     1      35.548  51.598  15.813  1.00  0.00     0.032 C 
BRANCH  19  20
HETATM   20  C6  UNL     1      35.759  51.310  14.327  1.00  0.00     0.283 C 
BRANCH  20  21
HETATM   21  N4  UNL     1      34.726  51.812  13.482  1.00  0.00    -0.074 N 
ATOM     22  H43 UNL     1      33.892  51.230  13.555  1.00  0.00     0.274 HD
ATOM     23  H42 UNL     1      34.358  52.689  13.850  1.00  0.00     0.274 HD
ATOM     24  H41 UNL     1      35.000  51.921  12.506  1.00  0.00     0.274 HD
ENDBRANCH  20  21
ENDBRANCH  19  20
BRANCH  19  25
HETATM   25  C7  UNL     1      34.858  50.465  16.524  1.00  0.00     0.217 C 
BRANCH  25  26
HETATM   26  O1  UNL     1      34.073  49.823  15.524  1.00  0.00    -0.395 OA
ATOM     27  H1  UNL     1      33.536  49.197  15.996  1.00  0.00     0.209 HD
ENDBRANCH  25  26
ENDBRANCH  19  25
ENDBRANCH  17  19
ENDBRANCH   6  17
ENDBRANCH   1   6
BRANCH   5  28
HETATM   28  N8  UNL     1      36.826  56.000  19.415  1.00  0.00    -0.070 N 
ATOM     29  H83 UNL     1      36.458  56.843  18.974  1.00  0.00     0.274 HD
ATOM     30  H82 UNL     1      36.022  55.764  19.997  1.00  0.00     0.274 HD
ATOM     31  H81 UNL     1      37.651  56.202  19.979  1.00  0.00     0.274 HD
ENDBRANCH   5  28
BRANCH   3  32
HETATM   32  O3  UNL     1      35.731  52.448  20.301  1.00  0.00    -0.349 OA
BRANCH  32  33
HETATM   33  C10 UNL     1      34.744  51.483  20.162  1.00  0.00     0.186 C 
HETATM   34  C11 UNL     1      35.254  50.098  20.502  1.00  0.00     0.217 C 
HETATM   35  C12 UNL     1      34.050  49.192  20.642  1.00  0.00     0.071 C 
HETATM   36  C13 UNL     1      33.362  49.562  21.927  1.00  0.00     0.216 C 
HETATM   37  C14 UNL     1      33.203  51.040  22.115  1.00  0.00     0.179 C 
HETATM   38  C15 UNL     1      33.499  51.859  20.911  1.00  0.00     0.180 C 
BRANCH  34  39
HETATM   39  N5  UNL     1      36.043  50.108  21.705  1.00  0.00    -0.072 N 
ATOM     40  H53 UNL     1      37.006  50.387  21.517  1.00  0.00     0.274 HD
ATOM     41  H52 UNL     1      35.773  50.874  22.322  1.00  0.00     0.274 HD
ATOM     42  H51 UNL     1      36.002  49.210  22.186  1.00  0.00     0.274 HD
ENDBRANCH  34  39
BRANCH  36  43
HETATM   43  N6  UNL     1      32.106  48.845  21.983  1.00  0.00    -0.072 N 
ATOM     44  H63 UNL     1      31.386  49.267  21.397  1.00  0.00     0.274 HD
ATOM     45  H62 UNL     1      32.147  47.939  21.517  1.00  0.00     0.274 HD
ATOM     46  H61 UNL     1      31.828  48.774  22.961  1.00  0.00     0.274 HD
ENDBRANCH  36  43
BRANCH  37  47
HETATM   47  O4  UNL     1      33.875  51.494  23.272  1.00  0.00    -0.391 OA
ATOM     48  H4  UNL     1      34.695  51.922  23.055  1.00  0.00     0.210 HD
ENDBRANCH  37  47
BRANCH  38  49
HETATM   49  O5  UNL     1      33.641  53.200  21.314  1.00  0.00    -0.390 OA
ATOM     50  H5  UNL     1      32.774  53.526  21.523  1.00  0.00     0.210 HD
ENDBRANCH  38  49
ENDBRANCH  32  33
ENDBRANCH   3  32
BRANCH   4  51
HETATM   51  N7  UNL     1      38.498  52.947  18.525  1.00  0.00    -0.068 N 
ATOM     52  H73 UNL     1      38.758  52.115  19.052  1.00  0.00     0.275 HD
ATOM     53  H72 UNL     1      38.196  52.500  17.659  1.00  0.00     0.275 HD
ATOM     54  H71 UNL     1      39.303  53.554  18.368  1.00  0.00     0.275 HD
ENDBRANCH   4  51
TORSDOF 20
ENDMDL
MODEL 4
REMARK VINA RESULT: -7.096270777      1.260      1.417
REMARK  20 active torsions:
REMARK  status: ('A' for Active; 'I' for Inactive)
REMARK    1  A    between atoms: N1_1  and  C1_5 
REMARK    2  A    between atoms: C1_5  and  C2_6 
REMARK    3  A    between atoms: C2_6  and  N2_7 
REMARK    4  A    between atoms: N2_7  and  C3_10 
REMARK    5  A    between atoms: C3_10  and  C4_11 
REMARK    6  A    between atoms: C4_11  and  N3_12 
REMARK    7  A    between atoms: C4_11  and  C8_23 
REMARK    8  A    between atoms: N3_12  and  C5_14 
REMARK    9  A    between atoms: C5_14  and  C6_15 
REMARK   10  A    between atoms: C5_14  and  C7_20 
REMARK   11  A    between atoms: C6_15  and  N4_16 
REMARK   12  A    between atoms: C7_20  and  O1_21 
REMARK   13  A    between atoms: C9_25  and  O3_26 
REMARK   14  A    between atoms: O3_26  and  C10_27 
REMARK   15  A    between atoms: C11_28  and  N5_29 
REMARK   16  A    between atoms: C13_34  and  N6_35 
REMARK   17  A    between atoms: C14_39  and  O4_40 
REMARK   18  A    between atoms: C15_42  and  O5_43 
REMARK   19  A    between atoms: C16_45  and  N7_46 
REMARK   20  A    between atoms: C17_50  and  N8_51 
ROOT
HETATM    1  C8  UNL     1      35.820  54.702  17.768  1.00  0.00     0.181 C 
HETATM    2  O2  UNL     1      35.125  53.774  18.551  1.00  0.00    -0.350 OA
HETATM    3  C9  UNL     1      36.091  52.943  19.098  1.00  0.00     0.293 C 
HETATM    4  C16 UNL     1      37.385  53.676  19.185  1.00  0.00     0.271 C 
HETATM    5  C17 UNL     1      37.082  54.995  18.514  1.00  0.00     0.249 C 
ENDROOT
BRANCH   1   6
HETATM    6  C4  UNL     1      36.061  54.104  16.368  1.00  0.00     0.138 C 
BRANCH   6   7
HETATM    7  C3  UNL     1      36.261  55.165  15.346  1.00  0.00     0.259 C 
BRANCH   7   8
HETATM    8  N2  UNL     1      37.390  55.002  14.500  1.00  0.00    -0.072 N 
ATOM      9  H22 UNL     1      37.702  55.906  14.142  1.00  0.00     0.277 HD
ATOM     10  H21 UNL     1      37.119  54.554  13.624  1.00  0.00     0.277 HD
BRANCH   8  11
HETATM   11  C2  UNL     1      38.474  54.303  15.105  1.00  0.00     0.259 C 
BRANCH  11  12
HETATM   12  C1  UNL     1      39.583  55.268  15.498  1.00  0.00     0.257 C 
BRANCH  12  13
HETATM   13  N1  UNL     1      39.971  56.117  14.411  1.00  0.00    -0.078 N 
ATOM     14  H13 UNL     1      40.517  55.604  13.719  1.00  0.00     0.274 HD
ATOM     15  H12 UNL     1      39.170  56.366  13.832  1.00  0.00     0.274 HD
ATOM     16  H11 UNL     1      40.468  56.948  14.731  1.00  0.00     0.274 HD
ENDBRANCH  12  13
ENDBRANCH  11  12
ENDBRANCH   8  11
ENDBRANCH   7   8
ENDBRANCH   6   7
BRANCH   6  17
HETATM   17  N3  UNL     1      34.971  53.277  16.113  1.00  0.00    -0.384 N 
ATOM     18  H3  UNL     1      34.057  53.629  16.401  1.00  0.00     0.159 HD
BRANCH  17  19
HETATM   19  C5  UNL     1      34.989  52.033  15.516  1.00  0.00     0.032 C 
BRANCH  19  20
HETATM   20  C6  UNL     1      35.877  50.972  16.164  1.00  0.00     0.283 C 
BRANCH  20  21
HETATM   21  N4  UNL     1      35.161  49.885  16.745  1.00  0.00    -0.074 N 
ATOM     22  H43 UNL     1      35.558  49.641  17.652  1.00  0.00     0.274 HD
ATOM     23  H42 UNL     1      34.232  50.186  17.038  1.00  0.00     0.274 HD
ATOM     24  H41 UNL     1      35.098  49.060  16.150  1.00  0.00     0.274 HD
ENDBRANCH  20  21
ENDBRANCH  19  20
BRANCH  19  25
HETATM   25  C7  UNL     1      34.956  51.916  14.015  1.00  0.00     0.217 C 
BRANCH  25  26
HETATM   26  O1  UNL     1      33.658  51.415  13.710  1.00  0.00    -0.395 OA
ATOM     27  H1  UNL     1      33.056  52.069  14.045  1.00  0.00     0.209 HD
ENDBRANCH  25  26
ENDBRANCH  19  25
ENDBRANCH  17  19
ENDBRANCH   6  17
ENDBRANCH   1   6
BRANCH   5  28
HETATM   28  N8  UNL     1      36.861  55.998  19.558  1.00  0.00    -0.070 N 
ATOM     29  H83 UNL     1      36.258  56.753  19.230  1.00  0.00     0.274 HD
ATOM     30  H82 UNL     1      36.267  55.636  20.304  1.00  0.00     0.274 HD
ATOM     31  H81 UNL     1      37.744  56.355  19.921  1.00  0.00     0.274 HD
ENDBRANCH   5  28
BRANCH   3  32
HETATM   32  O3  UNL     1      35.762  52.419  20.324  1.00  0.00    -0.349 OA
BRANCH  32  33
HETATM   33  C10 UNL     1      34.772  51.458  20.180  1.00  0.00     0.186 C 
HETATM   34  C11 UNL     1      35.272  50.073  20.532  1.00  0.00     0.217 C 
HETATM   35  C12 UNL     1      34.062  49.173  20.664  1.00  0.00     0.071 C 
HETATM   36  C13 UNL     1      33.364  49.552  21.940  1.00  0.00     0.216 C 
HETATM   37  C14 UNL     1      33.209  51.032  22.120  1.00  0.00     0.179 C 
HETATM   38  C15 UNL     1      33.521  51.843  20.915  1.00  0.00     0.180 C 
BRANCH  34  39
HETATM   39  N5  UNL     1      36.049  50.085  21.742  1.00  0.00    -0.072 N 
ATOM     40  H53 UNL     1      35.506  50.437  22.531  1.00  0.00     0.274 HD
ATOM     41  H52 UNL     1      36.227  49.140  22.081  1.00  0.00     0.274 HD
ATOM     42  H51 UNL     1      36.916  50.609  21.624  1.00  0.00     0.274 HD
ENDBRANCH  34  39
BRANCH  36  43
HETATM   43  N6  UNL     1      32.104  48.842  21.987  1.00  0.00    -0.072 N 
ATOM     44  H63 UNL     1      31.928  48.410  22.893  1.00  0.00     0.274 HD
ATOM     45  H62 UNL     1      31.298  49.466  21.975  1.00  0.00     0.274 HD
ATOM     46  H61 UNL     1      32.094  48.169  21.220  1.00  0.00     0.274 HD
ENDBRANCH  36  43
BRANCH  37  47
HETATM   47  O4  UNL     1      33.873  51.488  23.282  1.00  0.00    -0.391 OA
ATOM     48  H4  UNL     1      33.356  51.333  24.063  1.00  0.00     0.210 HD
ENDBRANCH  37  47
BRANCH  38  49
HETATM   49  O5  UNL     1      33.666  53.186  21.313  1.00  0.00    -0.390 OA
ATOM     50  H5  UNL     1      34.418  53.539  20.852  1.00  0.00     0.210 HD
ENDBRANCH  38  49
ENDBRANCH  32  33
ENDBRANCH   3  32
BRANCH   4  51
HETATM   51  N7  UNL     1      38.460  52.974  18.460  1.00  0.00    -0.068 N 
ATOM     52  H73 UNL     1      38.367  51.962  18.546  1.00  0.00     0.275 HD
ATOM     53  H72 UNL     1      38.344  53.059  17.450  1.00  0.00     0.275 HD
ATOM     54  H71 UNL     1      39.383  53.289  18.756  1.00  0.00     0.275 HD
ENDBRANCH   4  51
TORSDOF 20
ENDMDL
MODEL 5
REMARK VINA RESULT: -7.061199925      1.435      1.671
REMARK  20 active torsions:
REMARK  status: ('A' for Active; 'I' for Inactive)
REMARK    1  A    between atoms: N1_1  and  C1_5 
REMARK    2  A    between atoms: C1_5  and  C2_6 
REMARK    3  A    between atoms: C2_6  and  N2_7 
REMARK    4  A    between atoms: N2_7  and  C3_10 
REMARK    5  A    between atoms: C3_10  and  C4_11 
REMARK    6  A    between atoms: C4_11  and  N3_12 
REMARK    7  A    between atoms: C4_11  and  C8_23 
REMARK    8  A    between atoms: N3_12  and  C5_14 
REMARK    9  A    between atoms: C5_14  and  C6_15 
REMARK   10  A    between atoms: C5_14  and  C7_20 
REMARK   11  A    between atoms: C6_15  and  N4_16 
REMARK   12  A    between atoms: C7_20  and  O1_21 
REMARK   13  A    between atoms: C9_25  and  O3_26 
REMARK   14  A    between atoms: O3_26  and  C10_27 
REMARK   15  A    between atoms: C11_28  and  N5_29 
REMARK   16  A    between atoms: C13_34  and  N6_35 
REMARK   17  A    between atoms: C14_39  and  O4_40 
REMARK   18  A    between atoms: C15_42  and  O5_43 
REMARK   19  A    between atoms: C16_45  and  N7_46 
REMARK   20  A    between atoms: C17_50  and  N8_51 
ROOT
HETATM    1  C8  UNL     1      35.869  53.170  17.099  1.00  0.00     0.181 C 
HETATM    2  O2  UNL     1      35.716  52.220  18.115  1.00  0.00    -0.350 OA
HETATM    3  C9  UNL     1      36.321  52.766  19.237  1.00  0.00     0.293 C 
HETATM    4  C16 UNL     1      36.305  54.253  19.137  1.00  0.00     0.271 C 
HETATM    5  C17 UNL     1      35.721  54.501  17.765  1.00  0.00     0.249 C 
ENDROOT
BRANCH   1   6
HETATM    6  C4  UNL     1      37.241  52.973  16.424  1.00  0.00     0.138 C 
BRANCH   6   7
HETATM    7  C3  UNL     1      37.991  54.253  16.324  1.00  0.00     0.259 C 
BRANCH   7   8
HETATM    8  N2  UNL     1      38.971  54.315  15.298  1.00  0.00    -0.072 N 
ATOM      9  H22 UNL     1      38.558  54.084  14.394  1.00  0.00     0.277 HD
ATOM     10  H21 UNL     1      39.632  53.542  15.387  1.00  0.00     0.277 HD
BRANCH   8  11
HETATM   11  C2  UNL     1      39.664  55.558  15.229  1.00  0.00     0.259 C 
BRANCH  11  12
HETATM   12  C1  UNL     1      39.051  56.455  14.164  1.00  0.00     0.257 C 
BRANCH  12  13
HETATM   13  N1  UNL     1      39.167  55.893  12.850  1.00  0.00    -0.078 N 
ATOM     14  H13 UNL     1      39.798  55.092  12.847  1.00  0.00     0.274 HD
ATOM     15  H12 UNL     1      38.307  55.422  12.573  1.00  0.00     0.274 HD
ATOM     16  H11 UNL     1      39.447  56.588  12.158  1.00  0.00     0.274 HD
ENDBRANCH  12  13
ENDBRANCH  11  12
ENDBRANCH   8  11
ENDBRANCH   7   8
ENDBRANCH   6   7
BRANCH   6  17
HETATM   17  N3  UNL     1      36.978  52.377  15.193  1.00  0.00    -0.384 N 
ATOM     18  H3  UNL     1      37.668  51.704  14.859  1.00  0.00     0.159 HD
BRANCH  17  19
HETATM   19  C5  UNL     1      35.888  52.597  14.376  1.00  0.00     0.032 C 
BRANCH  19  20
HETATM   20  C6  UNL     1      35.219  51.361  13.777  1.00  0.00     0.283 C 
BRANCH  20  21
HETATM   21  N4  UNL     1      35.331  51.264  12.359  1.00  0.00    -0.074 N 
ATOM     22  H43 UNL     1      34.748  51.967  11.906  1.00  0.00     0.274 HD
ATOM     23  H42 UNL     1      36.252  51.578  12.052  1.00  0.00     0.274 HD
ATOM     24  H41 UNL     1      35.127  50.337  11.986  1.00  0.00     0.274 HD
ENDBRANCH  20  21
ENDBRANCH  19  20
BRANCH  19  25
HETATM   25  C7  UNL     1      35.875  53.771  13.433  1.00  0.00     0.217 C 
BRANCH  25  26
HETATM   26  O1  UNL     1      37.146  53.743  12.790  1.00  0.00    -0.395 OA
ATOM     27  H1  UNL     1      37.701  53.225  13.360  1.00  0.00     0.209 HD
ENDBRANCH  25  26
ENDBRANCH  19  25
ENDBRANCH  17  19
ENDBRANCH   6  17
ENDBRANCH   1   6
BRANCH   5  28
HETATM   28  N8  UNL     1      34.311  54.859  17.927  1.00  0.00    -0.070 N 
ATOM     29  H83 UNL     1      34.199  55.685  18.515  1.00  0.00     0.274 HD
ATOM     30  H82 UNL     1      33.917  55.228  17.061  1.00  0.00     0.274 HD
ATOM     31  H81 UNL     1      33.767  54.072  18.280  1.00  0.00     0.274 HD
ENDBRANCH   5  28
BRANCH   3  32
HETATM   32  O3  UNL     1      35.770  52.368  20.430  1.00  0.00    -0.349 OA
BRANCH  32  33
HETATM   33  C10 UNL     1      34.763  51.441  20.202  1.00  0.00     0.186 C 
HETATM   34  C11 UNL     1      35.208  50.031  20.528  1.00  0.00     0.217 C 
HETATM   35  C12 UNL     1      33.970  49.162  20.568  1.00  0.00     0.071 C 
HETATM   36  C13 UNL     1      33.218  49.515  21.821  1.00  0.00     0.216 C 
HETATM   37  C14 UNL     1      33.094  50.992  22.046  1.00  0.00     0.179 C 
HETATM   38  C15 UNL     1      33.488  51.835  20.888  1.00  0.00     0.180 C 
BRANCH  34  39
HETATM   39  N5  UNL     1      35.923  49.979  21.775  1.00  0.00    -0.072 N 
ATOM     40  H53 UNL     1      35.328  49.644  22.533  1.00  0.00     0.274 HD
ATOM     41  H52 UNL     1      36.617  49.231  21.776  1.00  0.00     0.274 HD
ATOM     42  H51 UNL     1      36.345  50.879  22.001  1.00  0.00     0.274 HD
ENDBRANCH  34  39
BRANCH  36  43
HETATM   43  N6  UNL     1      31.939  48.839  21.779  1.00  0.00    -0.072 N 
ATOM     44  H63 UNL     1      31.154  49.485  21.704  1.00  0.00     0.274 HD
ATOM     45  H62 UNL     1      31.786  48.336  20.906  1.00  0.00     0.274 HD
ATOM     46  H61 UNL     1      31.876  48.235  22.599  1.00  0.00     0.274 HD
ENDBRANCH  36  43
BRANCH  37  47
HETATM   47  O4  UNL     1      33.710  51.388  23.255  1.00  0.00    -0.391 OA
ATOM     48  H4  UNL     1      33.668  52.329  23.376  1.00  0.00     0.210 HD
ENDBRANCH  37  47
BRANCH  38  49
HETATM   49  O5  UNL     1      33.648  53.159  21.342  1.00  0.00    -0.390 OA
ATOM     50  H5  UNL     1      32.893  53.367  21.881  1.00  0.00     0.210 HD
ENDBRANCH  38  49
ENDBRANCH  32  33
ENDBRANCH   3  32
BRANCH   4  51
HETATM   51  N7  UNL     1      37.663  54.820  19.220  1.00  0.00    -0.068 N 
ATOM     52  H73 UNL     1      37.704  55.748  18.799  1.00  0.00     0.275 HD
ATOM     53  H72 UNL     1      37.904  55.069  20.179  1.00  0.00     0.275 HD
ATOM     54  H71 UNL     1      38.358  54.196  18.812  1.00  0.00     0.275 HD
ENDBRANCH   4  51
TORSDOF 20
ENDMDL
