MODEL 1
REMARK VINA RESULT: -5.799044347      0.000      0.000
REMARK  6 active torsions:
REMARK  status: ('A' for Active; 'I' for Inactive)
REMARK    1  A    between atoms: C4_6  and  N2_7 
REMARK    2  A    between atoms: N2_7  and  N3_9 
REMARK    3  A    between atoms: N3_9  and  N4_10 
REMARK    4  A    between atoms: C5_14  and  C6_15 
REMARK    5  A    between atoms: C6_15  and  O3_16 
REMARK    6  A    between atoms: C7_18  and  O4_19 
ROOT
HETATM    1  N1  UNL     1      19.541   9.490  30.621  1.00  0.00    -0.196 NA
HETATM    2  C1  UNL     1      18.712   8.740  30.367  1.00  0.00     0.074 C 
HETATM    3  C2  UNL     1      17.655   7.792  30.020  1.00  0.00     0.198 C 
HETATM    4  C3  UNL     1      17.642   7.496  28.571  1.00  0.00     0.197 C 
HETATM    5  O1  UNL     1      18.278   8.160  27.796  1.00  0.00    -0.291 OA
HETATM    6  C4  UNL     1      16.814   6.349  28.143  1.00  0.00     0.322 C 
HETATM    7  O2  UNL     1      16.985   5.220  28.881  1.00  0.00    -0.347 OA
HETATM    8  C5  UNL     1      17.119   5.345  30.219  1.00  0.00     0.178 C 
HETATM    9  C7  UNL     1      17.925   6.486  30.718  1.00  0.00     0.174 C 
ENDROOT
BRANCH   9  10
HETATM   10  O4  UNL     1      19.289   6.197  30.539  1.00  0.00    -0.391 OA
ATOM     11  H4  UNL     1      19.666   6.085  31.404  1.00  0.00     0.210 HD
ENDBRANCH   9  10
BRANCH   6  12
HETATM   12  N2  UNL     1      17.199   6.029  26.764  1.00  0.00    -0.216 N 
ATOM     13  H2  UNL     1      17.782   6.690  26.251  1.00  0.00     0.200 HD
BRANCH  12  14
HETATM   14  N3  UNL     1      16.845   4.994  26.205  1.00  0.00    -0.246 NA
BRANCH  14  15
HETATM   15  N4  UNL     1      16.473   3.901  25.791  1.00  0.00    -0.261 N 
ATOM     16  H42 UNL     1      15.537   4.301  25.844  1.00  0.00     0.193 HD
ATOM     17  H41 UNL     1      16.291   2.958  25.447  1.00  0.00     0.193 HD
ENDBRANCH  14  15
ENDBRANCH  12  14
ENDBRANCH   6  12
BRANCH   8  18
HETATM   18  C6  UNL     1      15.776   5.361  30.960  1.00  0.00     0.198 C 
BRANCH  18  19
HETATM   19  O3  UNL     1      15.228   4.092  31.044  1.00  0.00    -0.398 OA
ATOM     20  H3  UNL     1      14.444   4.086  31.580  1.00  0.00     0.209 HD
ENDBRANCH  18  19
ENDBRANCH   8  18
TORSDOF 6
ENDMDL
MODEL 2
REMARK VINA RESULT: -5.768587820      1.993      3.686
REMARK  6 active torsions:
REMARK  status: ('A' for Active; 'I' for Inactive)
REMARK    1  A    between atoms: C4_6  and  N2_7 
REMARK    2  A    between atoms: N2_7  and  N3_9 
REMARK    3  A    between atoms: N3_9  and  N4_10 
REMARK    4  A    between atoms: C5_14  and  C6_15 
REMARK    5  A    between atoms: C6_15  and  O3_16 
REMARK    6  A    between atoms: C7_18  and  O4_19 
ROOT
HETATM    1  N1  UNL     1      16.951   6.418  31.481  1.00  0.00    -0.196 NA
HETATM    2  C1  UNL     1      17.336   6.511  30.406  1.00  0.00     0.074 C 
HETATM    3  C2  UNL     1      17.821   6.607  29.030  1.00  0.00     0.198 C 
HETATM    4  C3  UNL     1      17.166   5.613  28.151  1.00  0.00     0.197 C 
HETATM    5  O1  UNL     1      16.516   4.712  28.610  1.00  0.00    -0.291 OA
HETATM    6  C4  UNL     1      17.359   5.795  26.697  1.00  0.00     0.322 C 
HETATM    7  O2  UNL     1      17.156   7.064  26.253  1.00  0.00    -0.347 OA
HETATM    8  C5  UNL     1      17.607   8.087  27.010  1.00  0.00     0.178 C 
HETATM    9  C7  UNL     1      17.460   7.961  28.480  1.00  0.00     0.174 C 
ENDROOT
BRANCH   9  10
HETATM   10  O4  UNL     1      16.120   8.205  28.830  1.00  0.00    -0.391 OA
ATOM     11  H4  UNL     1      16.073   9.099  29.148  1.00  0.00     0.210 HD
ENDBRANCH   9  10
BRANCH   6  12
HETATM   12  N2  UNL     1      16.382   4.936  26.021  1.00  0.00    -0.216 N 
ATOM     13  H2  UNL     1      15.389   5.094  26.190  1.00  0.00     0.200 HD
BRANCH  12  14
HETATM   14  N3  UNL     1      16.716   4.032  25.258  1.00  0.00    -0.246 NA
BRANCH  14  15
HETATM   15  N4  UNL     1      17.103   3.056  24.625  1.00  0.00    -0.261 N 
ATOM     16  H42 UNL     1      17.120   2.589  25.531  1.00  0.00     0.193 HD
ATOM     17  H41 UNL     1      17.417   2.321  23.991  1.00  0.00     0.193 HD
ENDBRANCH  14  15
ENDBRANCH  12  14
ENDBRANCH   6  12
BRANCH   8  18
HETATM   18  C6  UNL     1      19.067   8.455  26.716  1.00  0.00     0.198 C 
BRANCH  18  19
HETATM   19  O3  UNL     1      19.580   9.305  27.682  1.00  0.00    -0.398 OA
ATOM     20  H3  UNL     1      20.472   9.562  27.480  1.00  0.00     0.209 HD
ENDBRANCH  18  19
ENDBRANCH   8  18
TORSDOF 6
ENDMDL
MODEL 3
REMARK VINA RESULT: -5.632965354      2.268      3.826
REMARK  6 active torsions:
REMARK  status: ('A' for Active; 'I' for Inactive)
REMARK    1  A    between atoms: C4_6  and  N2_7 
REMARK    2  A    between atoms: N2_7  and  N3_9 
REMARK    3  A    between atoms: N3_9  and  N4_10 
REMARK    4  A    between atoms: C5_14  and  C6_15 
REMARK    5  A    between atoms: C6_15  and  O3_16 
REMARK    6  A    between atoms: C7_18  and  O4_19 
ROOT
HETATM    1  N1  UNL     1      16.232   4.236  30.686  1.00  0.00    -0.196 NA
HETATM    2  C1  UNL     1      16.807   5.124  30.247  1.00  0.00     0.074 C 
HETATM    3  C2  UNL     1      17.540   6.247  29.664  1.00  0.00     0.198 C 
HETATM    4  C3  UNL     1      17.298   6.360  28.210  1.00  0.00     0.197 C 
HETATM    5  O1  UNL     1      16.761   5.474  27.600  1.00  0.00    -0.291 OA
HETATM    6  C4  UNL     1      17.751   7.609  27.564  1.00  0.00     0.322 C 
HETATM    7  O2  UNL     1      17.394   8.747  28.219  1.00  0.00    -0.347 OA
HETATM    8  C5  UNL     1      17.461   8.757  29.567  1.00  0.00     0.178 C 
HETATM    9  C7  UNL     1      17.037   7.527  30.278  1.00  0.00     0.174 C 
ENDROOT
BRANCH   9  10
HETATM   10  O4  UNL     1      15.633   7.459  30.281  1.00  0.00    -0.391 OA
ATOM     11  H4  UNL     1      15.333   7.915  31.059  1.00  0.00     0.210 HD
ENDBRANCH   9  10
BRANCH   6  12
HETATM   12  N2  UNL     1      17.131   7.660  26.236  1.00  0.00    -0.216 N 
ATOM     13  H2  UNL     1      17.371   6.939  25.555  1.00  0.00     0.200 HD
BRANCH  12  14
HETATM   14  N3  UNL     1      16.335   8.537  25.914  1.00  0.00    -0.246 NA
BRANCH  14  15
HETATM   15  N4  UNL     1      15.475   9.393  25.733  1.00  0.00    -0.261 N 
ATOM     16  H42 UNL     1      14.817   8.617  25.804  1.00  0.00     0.193 HD
ATOM     17  H41 UNL     1      14.859  10.191  25.577  1.00  0.00     0.193 HD
ENDBRANCH  14  15
ENDBRANCH  12  14
ENDBRANCH   6  12
BRANCH   8  18
HETATM   18  C6  UNL     1      18.846   9.150  30.098  1.00  0.00     0.198 C 
BRANCH  18  19
HETATM   19  O3  UNL     1      19.472   8.083  30.721  1.00  0.00    -0.398 OA
ATOM     20  H3  UNL     1      20.252   7.814  30.249  1.00  0.00     0.209 HD
ENDBRANCH  18  19
ENDBRANCH   8  18
TORSDOF 6
ENDMDL
MODEL 4
REMARK VINA RESULT: -5.304160103      2.910      5.131
REMARK  6 active torsions:
REMARK  status: ('A' for Active; 'I' for Inactive)
REMARK    1  A    between atoms: C4_6  and  N2_7 
REMARK    2  A    between atoms: N2_7  and  N3_9 
REMARK    3  A    between atoms: N3_9  and  N4_10 
REMARK    4  A    between atoms: C5_14  and  C6_15 
REMARK    5  A    between atoms: C6_15  and  O3_16 
REMARK    6  A    between atoms: C7_18  and  O4_19 
ROOT
HETATM    1  N1  UNL     1      16.082   5.274  25.151  1.00  0.00    -0.196 NA
HETATM    2  C1  UNL     1      16.880   5.686  25.863  1.00  0.00     0.074 C 
HETATM    3  C2  UNL     1      17.914   6.208  26.754  1.00  0.00     0.198 C 
HETATM    4  C3  UNL     1      19.091   6.692  25.999  1.00  0.00     0.197 C 
HETATM    5  O1  UNL     1      19.226   6.439  24.832  1.00  0.00    -0.291 OA
HETATM    6  C4  UNL     1      20.073   7.494  26.758  1.00  0.00     0.322 C 
HETATM    7  O2  UNL     1      19.530   8.479  27.522  1.00  0.00    -0.347 OA
HETATM    8  C5  UNL     1      18.388   8.215  28.190  1.00  0.00     0.178 C 
HETATM    9  C7  UNL     1      17.364   7.399  27.492  1.00  0.00     0.174 C 
ENDROOT
BRANCH   9  10
HETATM   10  O4  UNL     1      16.705   8.203  26.545  1.00  0.00    -0.391 OA
ATOM     11  H4  UNL     1      16.978   7.903  25.686  1.00  0.00     0.210 HD
ENDBRANCH   9  10
BRANCH   6  12
HETATM   12  N2  UNL     1      20.954   8.138  25.779  1.00  0.00    -0.216 N 
ATOM     13  H2  UNL     1      21.104   7.683  24.879  1.00  0.00     0.200 HD
BRANCH  12  14
HETATM   14  N3  UNL     1      21.519   9.205  26.004  1.00  0.00    -0.246 NA
BRANCH  14  15
HETATM   15  N4  UNL     1      21.942  10.338  26.208  1.00  0.00    -0.261 N 
ATOM     16  H42 UNL     1      21.644  10.524  25.251  1.00  0.00     0.193 HD
ATOM     17  H41 UNL     1      22.326  11.238  26.498  1.00  0.00     0.193 HD
ENDBRANCH  14  15
ENDBRANCH  12  14
ENDBRANCH   6  12
BRANCH   8  18
HETATM   18  C6  UNL     1      18.628   7.584  29.568  1.00  0.00     0.198 C 
BRANCH  18  19
HETATM   19  O3  UNL     1      19.376   8.418  30.383  1.00  0.00    -0.398 OA
ATOM     20  H3  UNL     1      19.899   7.921  31.002  1.00  0.00     0.209 HD
ENDBRANCH  18  19
ENDBRANCH   8  18
TORSDOF 6
ENDMDL
MODEL 5
REMARK VINA RESULT: -5.282959826      3.062      3.657
REMARK  6 active torsions:
REMARK  status: ('A' for Active; 'I' for Inactive)
REMARK    1  A    between atoms: C4_6  and  N2_7 
REMARK    2  A    between atoms: N2_7  and  N3_9 
REMARK    3  A    between atoms: N3_9  and  N4_10 
REMARK    4  A    between atoms: C5_14  and  C6_15 
REMARK    5  A    between atoms: C6_15  and  O3_16 
REMARK    6  A    between atoms: C7_18  and  O4_19 
ROOT
HETATM    1  N1  UNL     1      19.783  10.106  30.881  1.00  0.00    -0.196 NA
HETATM    2  C1  UNL     1      18.874   9.652  30.352  1.00  0.00     0.074 C 
HETATM    3  C2  UNL     1      17.726   9.052  29.675  1.00  0.00     0.198 C 
HETATM    4  C3  UNL     1      17.733   7.578  29.792  1.00  0.00     0.197 C 
HETATM    5  O1  UNL     1      18.705   6.992  30.188  1.00  0.00    -0.291 OA
HETATM    6  C4  UNL     1      16.490   6.882  29.398  1.00  0.00     0.322 C 
HETATM    7  O2  UNL     1      15.352   7.418  29.916  1.00  0.00    -0.347 OA
HETATM    8  C5  UNL     1      15.247   8.763  29.973  1.00  0.00     0.178 C 
HETATM    9  C7  UNL     1      16.464   9.525  30.346  1.00  0.00     0.174 C 
ENDROOT
BRANCH   9  10
HETATM   10  O4  UNL     1      16.667   9.414  31.733  1.00  0.00    -0.391 OA
ATOM     11  H4  UNL     1      15.815   9.482  32.146  1.00  0.00     0.210 HD
ENDBRANCH   9  10
BRANCH   6  12
HETATM   12  N2  UNL     1      16.588   5.507  29.897  1.00  0.00    -0.216 N 
ATOM     13  H2  UNL     1      17.385   4.937  29.612  1.00  0.00     0.200 HD
BRANCH  12  14
HETATM   14  N3  UNL     1      15.746   5.015  30.643  1.00  0.00    -0.246 NA
BRANCH  14  15
HETATM   15  N4  UNL     1      14.920   4.393  31.304  1.00  0.00    -0.261 N 
ATOM     16  H42 UNL     1      15.719   3.839  31.611  1.00  0.00     0.193 HD
ATOM     17  H41 UNL     1      14.144   3.957  31.803  1.00  0.00     0.193 HD
ENDBRANCH  14  15
ENDBRANCH  12  14
ENDBRANCH   6  12
BRANCH   8  18
HETATM   18  C6  UNL     1      14.687   9.378  28.685  1.00  0.00     0.198 C 
BRANCH  18  19
HETATM   19  O3  UNL     1      13.754  10.366  28.959  1.00  0.00    -0.398 OA
ATOM     20  H3  UNL     1      14.167  11.215  29.062  1.00  0.00     0.209 HD
ENDBRANCH  18  19
ENDBRANCH   8  18
TORSDOF 6
ENDMDL
