MODEL 1
REMARK VINA RESULT: -6.386576150      0.000      0.000
REMARK  8 active torsions:
REMARK  status: ('A' for Active; 'I' for Inactive)
REMARK    1  A    between atoms: N1_2  and  C3_4 
REMARK    2  A    between atoms: C3_4  and  C4_5 
REMARK    3  A    between atoms: C4_5  and  C5_6 
REMARK    4  A    between atoms: C5_6  and  N2_7 
REMARK    5  A    between atoms: C7_12  and  C8_13 
REMARK    6  A    between atoms: C8_13  and  C11_16 
REMARK    7  A    between atoms: C11_16  and  N4_17 
REMARK    8  A    between atoms: C15_21  and  C16_22 
ROOT
HETATM    1  N2  UNL     1      56.425  23.349  30.921  1.00  0.00    -0.226 N 
ATOM      2  H2  UNL     1      56.981  24.179  31.129  1.00  0.00     0.177 HD
HETATM    3  C6  UNL     1      56.912  22.911  29.884  1.00  0.00     0.678 A 
HETATM    4  N3  UNL     1      56.517  21.806  29.184  1.00  0.00    -0.195 N 
ATOM      5  H3  UNL     1      55.689  21.307  29.509  1.00  0.00     0.184 HD
HETATM    6  C7  UNL     1      57.142  21.337  28.103  1.00  0.00     0.038 A 
HETATM    7  C14 UNL     1      58.280  22.055  27.690  1.00  0.00     0.052 A 
HETATM    8  C15 UNL     1      58.729  23.178  28.363  1.00  0.00     0.036 A 
HETATM    9  N5  UNL     1      58.029  23.555  29.421  1.00  0.00    -0.195 N 
ATOM     10  H5  UNL     1      58.344  24.383  29.927  1.00  0.00     0.184 HD
ENDROOT
BRANCH   1  11
HETATM   11  C5  UNL     1      55.517  23.290  31.937  1.00  0.00     0.140 C 
BRANCH  11  12
HETATM   12  C4  UNL     1      56.316  23.003  33.243  1.00  0.00     0.050 C 
BRANCH  12  13
HETATM   13  C3  UNL     1      57.525  23.835  33.314  1.00  0.00     0.273 C 
BRANCH  13  14
HETATM   14  N1  UNL     1      57.256  25.228  33.524  1.00  0.00     0.080 N 
HETATM   15  C1  UNL     1      57.956  26.096  32.611  1.00  0.00     0.309 C 
HETATM   16  C2  UNL     1      57.579  25.560  34.926  1.00  0.00     0.309 C 
ENDBRANCH  13  14
ENDBRANCH  12  13
ENDBRANCH  11  12
ENDBRANCH   1  11
BRANCH   6  17
HETATM   17  C8  UNL     1      56.813  20.085  27.364  1.00  0.00     0.022 C 
HETATM   18  C9  UNL     1      57.268  18.984  28.341  1.00  0.00     0.023 C 
HETATM   19  C10 UNL     1      57.746  19.909  26.187  1.00  0.00     0.023 C 
BRANCH  17  20
HETATM   20  C11 UNL     1      55.428  19.895  26.917  1.00  0.00     0.286 C 
BRANCH  20  21
HETATM   21  N4  UNL     1      55.112  19.603  25.585  1.00  0.00     0.081 N 
HETATM   22  C12 UNL     1      53.769  20.112  25.218  1.00  0.00     0.309 C 
HETATM   23  C13 UNL     1      54.970  18.140  25.446  1.00  0.00     0.309 C 
ENDBRANCH  20  21
ENDBRANCH  17  20
ENDBRANCH   6  17
BRANCH   8  24
HETATM   24  C16 UNL     1      60.003  23.856  27.947  1.00  0.00    -0.008 C 
HETATM   25  C17 UNL     1      60.667  24.669  28.985  1.00  0.00     0.021 C 
HETATM   26  C18 UNL     1      60.973  22.705  27.518  1.00  0.00     0.021 C 
HETATM   27  C19 UNL     1      59.715  24.650  26.704  1.00  0.00     0.021 C 
ENDBRANCH   8  24
TORSDOF 8
ENDMDL
MODEL 2
REMARK VINA RESULT: -6.333441392      6.508     11.149
REMARK  8 active torsions:
REMARK  status: ('A' for Active; 'I' for Inactive)
REMARK    1  A    between atoms: N1_2  and  C3_4 
REMARK    2  A    between atoms: C3_4  and  C4_5 
REMARK    3  A    between atoms: C4_5  and  C5_6 
REMARK    4  A    between atoms: C5_6  and  N2_7 
REMARK    5  A    between atoms: C7_12  and  C8_13 
REMARK    6  A    between atoms: C8_13  and  C11_16 
REMARK    7  A    between atoms: C11_16  and  N4_17 
REMARK    8  A    between atoms: C15_21  and  C16_22 
ROOT
HETATM    1  N2  UNL     1      54.724  25.119  40.547  1.00  0.00    -0.226 N 
ATOM      2  H2  UNL     1      54.278  24.621  41.317  1.00  0.00     0.177 HD
HETATM    3  C6  UNL     1      55.265  24.235  39.890  1.00  0.00     0.678 A 
HETATM    4  N3  UNL     1      56.005  24.384  38.749  1.00  0.00    -0.195 N 
ATOM      5  H3  UNL     1      56.190  25.332  38.423  1.00  0.00     0.184 HD
HETATM    6  C7  UNL     1      56.500  23.371  38.037  1.00  0.00     0.038 A 
HETATM    7  C14 UNL     1      56.219  22.081  38.523  1.00  0.00     0.052 A 
HETATM    8  C15 UNL     1      55.471  21.870  39.669  1.00  0.00     0.036 A 
HETATM    9  N5  UNL     1      55.032  22.949  40.298  1.00  0.00    -0.195 N 
ATOM     10  H5  UNL     1      54.482  22.812  41.146  1.00  0.00     0.184 HD
ENDROOT
BRANCH   1  11
HETATM   11  C5  UNL     1      54.416  26.428  40.769  1.00  0.00     0.140 C 
BRANCH  11  12
HETATM   12  C4  UNL     1      55.472  26.979  41.773  1.00  0.00     0.050 C 
BRANCH  12  13
HETATM   13  C3  UNL     1      55.007  26.832  43.159  1.00  0.00     0.273 C 
BRANCH  13  14
HETATM   14  N1  UNL     1      55.788  25.913  43.935  1.00  0.00     0.080 N 
HETATM   15  C1  UNL     1      57.056  25.583  43.337  1.00  0.00     0.309 C 
HETATM   16  C2  UNL     1      54.981  24.701  44.175  1.00  0.00     0.309 C 
ENDBRANCH  13  14
ENDBRANCH  12  13
ENDBRANCH  11  12
ENDBRANCH   1  11
BRANCH   6  17
HETATM   17  C8  UNL     1      57.226  23.474  36.739  1.00  0.00     0.022 C 
HETATM   18  C9  UNL     1      57.087  22.053  36.159  1.00  0.00     0.023 C 
HETATM   19  C10 UNL     1      58.713  23.606  36.978  1.00  0.00     0.023 C 
BRANCH  17  20
HETATM   20  C11 UNL     1      56.793  24.506  35.790  1.00  0.00     0.286 C 
BRANCH  20  21
HETATM   21  N4  UNL     1      57.651  25.017  34.807  1.00  0.00     0.081 N 
HETATM   22  C12 UNL     1      57.664  26.499  34.810  1.00  0.00     0.309 C 
HETATM   23  C13 UNL     1      57.095  24.684  33.481  1.00  0.00     0.309 C 
ENDBRANCH  20  21
ENDBRANCH  17  20
ENDBRANCH   6  17
BRANCH   8  24
HETATM   24  C16 UNL     1      55.111  20.476  40.098  1.00  0.00    -0.008 C 
HETATM   25  C17 UNL     1      54.334  20.369  41.348  1.00  0.00     0.021 C 
HETATM   26  C18 UNL     1      54.259  19.881  38.928  1.00  0.00     0.021 C 
HETATM   27  C19 UNL     1      56.378  19.670  40.147  1.00  0.00     0.021 C 
ENDBRANCH   8  24
TORSDOF 8
ENDMDL
MODEL 3
REMARK VINA RESULT: -6.321044797      5.897     12.305
REMARK  8 active torsions:
REMARK  status: ('A' for Active; 'I' for Inactive)
REMARK    1  A    between atoms: N1_2  and  C3_4 
REMARK    2  A    between atoms: C3_4  and  C4_5 
REMARK    3  A    between atoms: C4_5  and  C5_6 
REMARK    4  A    between atoms: C5_6  and  N2_7 
REMARK    5  A    between atoms: C7_12  and  C8_13 
REMARK    6  A    between atoms: C8_13  and  C11_16 
REMARK    7  A    between atoms: C11_16  and  N4_17 
REMARK    8  A    between atoms: C15_21  and  C16_22 
ROOT
HETATM    1  N2  UNL     1      56.740  24.544  36.919  1.00  0.00    -0.226 N 
ATOM      2  H2  UNL     1      56.752  23.646  36.437  1.00  0.00     0.177 HD
HETATM    3  C6  UNL     1      56.117  24.324  37.952  1.00  0.00     0.678 A 
HETATM    4  N3  UNL     1      55.817  25.214  38.946  1.00  0.00    -0.195 N 
ATOM      5  H3  UNL     1      56.080  26.190  38.806  1.00  0.00     0.184 HD
HETATM    6  C7  UNL     1      55.204  24.891  40.085  1.00  0.00     0.038 A 
HETATM    7  C14 UNL     1      54.860  23.534  40.236  1.00  0.00     0.052 A 
HETATM    8  C15 UNL     1      55.143  22.588  39.266  1.00  0.00     0.036 A 
HETATM    9  N5  UNL     1      55.753  23.023  38.174  1.00  0.00    -0.195 N 
ATOM     10  H5  UNL     1      55.966  22.340  37.447  1.00  0.00     0.184 HD
ENDROOT
BRANCH   1  11
HETATM   11  C5  UNL     1      57.425  25.381  36.088  1.00  0.00     0.140 C 
BRANCH  11  12
HETATM   12  C4  UNL     1      57.805  24.554  34.824  1.00  0.00     0.050 C 
BRANCH  12  13
HETATM   13  C3  UNL     1      56.633  23.855  34.280  1.00  0.00     0.273 C 
BRANCH  13  14
HETATM   14  N1  UNL     1      56.398  24.117  32.890  1.00  0.00     0.080 N 
HETATM   15  C1  UNL     1      55.455  23.213  32.283  1.00  0.00     0.309 C 
HETATM   16  C2  UNL     1      57.694  24.087  32.183  1.00  0.00     0.309 C 
ENDBRANCH  13  14
ENDBRANCH  12  13
ENDBRANCH  11  12
ENDBRANCH   1  11
BRANCH   6  17
HETATM   17  C8  UNL     1      54.942  25.799  41.238  1.00  0.00     0.022 C 
HETATM   18  C9  UNL     1      53.790  25.089  41.975  1.00  0.00     0.023 C 
HETATM   19  C10 UNL     1      54.306  27.085  40.760  1.00  0.00     0.023 C 
BRANCH  17  20
HETATM   20  C11 UNL     1      56.063  26.115  42.131  1.00  0.00     0.286 C 
BRANCH  20  21
HETATM   21  N4  UNL     1      56.818  25.115  42.757  1.00  0.00     0.081 N 
HETATM   22  C12 UNL     1      56.922  25.343  44.218  1.00  0.00     0.309 C 
HETATM   23  C13 UNL     1      58.215  25.224  42.295  1.00  0.00     0.309 C 
ENDBRANCH  20  21
ENDBRANCH  17  20
ENDBRANCH   6  17
BRANCH   8  24
HETATM   24  C16 UNL     1      54.848  21.136  39.509  1.00  0.00    -0.008 C 
HETATM   25  C17 UNL     1      53.682  20.588  38.790  1.00  0.00     0.021 C 
HETATM   26  C18 UNL     1      56.128  20.362  39.047  1.00  0.00     0.021 C 
HETATM   27  C19 UNL     1      54.745  20.931  40.994  1.00  0.00     0.021 C 
ENDBRANCH   8  24
TORSDOF 8
ENDMDL
MODEL 4
REMARK VINA RESULT: -6.279665142      1.178      4.458
REMARK  8 active torsions:
REMARK  status: ('A' for Active; 'I' for Inactive)
REMARK    1  A    between atoms: N1_2  and  C3_4 
REMARK    2  A    between atoms: C3_4  and  C4_5 
REMARK    3  A    between atoms: C4_5  and  C5_6 
REMARK    4  A    between atoms: C5_6  and  N2_7 
REMARK    5  A    between atoms: C7_12  and  C8_13 
REMARK    6  A    between atoms: C8_13  and  C11_16 
REMARK    7  A    between atoms: C11_16  and  N4_17 
REMARK    8  A    between atoms: C15_21  and  C16_22 
ROOT
HETATM    1  N2  UNL     1      56.004  22.822  30.871  1.00  0.00    -0.226 N 
ATOM      2  H2  UNL     1      55.317  22.069  30.841  1.00  0.00     0.177 HD
HETATM    3  C6  UNL     1      56.772  22.567  29.949  1.00  0.00     0.678 A 
HETATM    4  N3  UNL     1      57.878  23.277  29.569  1.00  0.00    -0.195 N 
ATOM      5  H3  UNL     1      58.147  24.079  30.138  1.00  0.00     0.184 HD
HETATM    6  C7  UNL     1      58.627  22.988  28.505  1.00  0.00     0.038 A 
HETATM    7  C14 UNL     1      58.219  21.874  27.748  1.00  0.00     0.052 A 
HETATM    8  C15 UNL     1      57.106  21.122  28.082  1.00  0.00     0.036 A 
HETATM    9  N5  UNL     1      56.439  21.498  29.161  1.00  0.00    -0.195 N 
ATOM     10  H5  UNL     1      55.617  20.953  29.424  1.00  0.00     0.184 HD
ENDROOT
BRANCH   1  11
HETATM   11  C5  UNL     1      55.602  23.602  31.914  1.00  0.00     0.140 C 
BRANCH  11  12
HETATM   12  C4  UNL     1      56.389  23.122  33.169  1.00  0.00     0.050 C 
BRANCH  12  13
HETATM   13  C3  UNL     1      57.598  23.931  33.374  1.00  0.00     0.273 C 
BRANCH  13  14
HETATM   14  N1  UNL     1      57.375  25.343  33.255  1.00  0.00     0.080 N 
HETATM   15  C1  UNL     1      58.172  25.969  32.231  1.00  0.00     0.309 C 
HETATM   16  C2  UNL     1      57.615  25.967  34.571  1.00  0.00     0.309 C 
ENDBRANCH  13  14
ENDBRANCH  12  13
ENDBRANCH  11  12
ENDBRANCH   1  11
BRANCH   6  17
HETATM   17  C8  UNL     1      59.779  23.783  27.992  1.00  0.00     0.022 C 
HETATM   18  C9  UNL     1      60.876  22.716  27.814  1.00  0.00     0.023 C 
HETATM   19  C10 UNL     1      60.333  24.670  29.085  1.00  0.00     0.023 C 
BRANCH  17  20
HETATM   20  C11 UNL     1      59.577  24.581  26.776  1.00  0.00     0.286 C 
BRANCH  20  21
HETATM   21  N4  UNL     1      60.274  24.317  25.591  1.00  0.00     0.081 N 
HETATM   22  C12 UNL     1      60.720  25.566  24.930  1.00  0.00     0.309 C 
HETATM   23  C13 UNL     1      59.335  23.731  24.615  1.00  0.00     0.309 C 
ENDBRANCH  20  21
ENDBRANCH  17  20
ENDBRANCH   6  17
BRANCH   8  24
HETATM   24  C16 UNL     1      56.650  20.001  27.192  1.00  0.00    -0.008 C 
HETATM   25  C17 UNL     1      55.257  20.088  26.712  1.00  0.00     0.021 C 
HETATM   26  C18 UNL     1      57.607  20.028  25.954  1.00  0.00     0.021 C 
HETATM   27  C19 UNL     1      56.922  18.708  27.907  1.00  0.00     0.021 C 
ENDBRANCH   8  24
TORSDOF 8
ENDMDL
MODEL 5
REMARK VINA RESULT: -6.237967778      6.215     10.902
REMARK  8 active torsions:
REMARK  status: ('A' for Active; 'I' for Inactive)
REMARK    1  A    between atoms: N1_2  and  C3_4 
REMARK    2  A    between atoms: C3_4  and  C4_5 
REMARK    3  A    between atoms: C4_5  and  C5_6 
REMARK    4  A    between atoms: C5_6  and  N2_7 
REMARK    5  A    between atoms: C7_12  and  C8_13 
REMARK    6  A    between atoms: C8_13  and  C11_16 
REMARK    7  A    between atoms: C11_16  and  N4_17 
REMARK    8  A    between atoms: C15_21  and  C16_22 
ROOT
HETATM    1  N2  UNL     1      54.783  25.576  40.561  1.00  0.00    -0.226 N 
ATOM      2  H2  UNL     1      54.410  24.996  41.313  1.00  0.00     0.177 HD
HETATM    3  C6  UNL     1      55.325  24.777  39.804  1.00  0.00     0.678 A 
HETATM    4  N3  UNL     1      55.985  25.054  38.639  1.00  0.00    -0.195 N 
ATOM      5  H3  UNL     1      56.104  26.033  38.381  1.00  0.00     0.184 HD
HETATM    6  C7  UNL     1      56.484  24.128  37.819  1.00  0.00     0.038 A 
HETATM    7  C14 UNL     1      56.297  22.790  38.214  1.00  0.00     0.052 A 
HETATM    8  C15 UNL     1      55.633  22.450  39.380  1.00  0.00     0.036 A 
HETATM    9  N5  UNL     1      55.181  23.451  40.119  1.00  0.00    -0.195 N 
ATOM     10  H5  UNL     1      54.692  23.219  40.983  1.00  0.00     0.184 HD
ENDROOT
BRANCH   1  11
HETATM   11  C5  UNL     1      54.426  26.845  40.907  1.00  0.00     0.140 C 
BRANCH  11  12
HETATM   12  C4  UNL     1      55.102  27.150  42.276  1.00  0.00     0.050 C 
BRANCH  12  13
HETATM   13  C3  UNL     1      54.493  26.356  43.352  1.00  0.00     0.273 C 
BRANCH  13  14
HETATM   14  N1  UNL     1      55.425  25.517  44.049  1.00  0.00     0.080 N 
HETATM   15  C1  UNL     1      56.794  25.718  43.649  1.00  0.00     0.309 C 
HETATM   16  C2  UNL     1      55.018  24.110  43.864  1.00  0.00     0.309 C 
ENDBRANCH  13  14
ENDBRANCH  12  13
ENDBRANCH  11  12
ENDBRANCH   1  11
BRANCH   6  17
HETATM   17  C8  UNL     1      57.123  24.371  36.495  1.00  0.00     0.022 C 
HETATM   18  C9  UNL     1      58.445  23.587  36.606  1.00  0.00     0.023 C 
HETATM   19  C10 UNL     1      57.582  25.809  36.389  1.00  0.00     0.023 C 
BRANCH  17  20
HETATM   20  C11 UNL     1      56.365  24.015  35.290  1.00  0.00     0.286 C 
BRANCH  20  21
HETATM   21  N4  UNL     1      56.995  23.743  34.070  1.00  0.00     0.081 N 
HETATM   22  C12 UNL     1      57.205  24.978  33.277  1.00  0.00     0.309 C 
HETATM   23  C13 UNL     1      56.073  22.954  33.231  1.00  0.00     0.309 C 
ENDBRANCH  20  21
ENDBRANCH  17  20
ENDBRANCH   6  17
BRANCH   8  24
HETATM   24  C16 UNL     1      55.369  21.010  39.714  1.00  0.00    -0.008 C 
HETATM   25  C17 UNL     1      56.549  20.123  39.712  1.00  0.00     0.021 C 
HETATM   26  C18 UNL     1      54.752  21.016  41.153  1.00  0.00     0.021 C 
HETATM   27  C19 UNL     1      54.288  20.516  38.795  1.00  0.00     0.021 C 
ENDBRANCH   8  24
TORSDOF 8
ENDMDL
