MODEL 1
REMARK VINA RESULT: -7.833020870      0.000      0.000
REMARK  10 active torsions:
REMARK  status: ('A' for Active; 'I' for Inactive)
REMARK    1  A    between atoms: O1_1  and  C1_3 
REMARK    2  A    between atoms: C1_3  and  C2_4 
REMARK    3  A    between atoms: C1_3  and  N1_13 
REMARK    4  A    between atoms: C2_4  and  C3_5 
REMARK    5  A    between atoms: C3_5  and  C4_6 
REMARK    6  A    between atoms: C4_6  and  C5_7 
REMARK    7  A    between atoms: N1_13  and  C11_14 
REMARK    8  A    between atoms: C12_17  and  O2_18 
REMARK    9  A    between atoms: O2_18  and  C13_19 
REMARK   10  A    between atoms: C13_19  and  C14_20 
ROOT
HETATM    1  C11 UNL     1      56.465  23.661  31.205  1.00  0.00     0.279 A 
HETATM    2  N2  UNL     1      56.535  24.232  32.262  1.00  0.00    -0.280 N 
ATOM      3  H2  UNL     1      56.179  23.688  33.049  1.00  0.00     0.173 HD
HETATM    4  C12 UNL     1      56.968  25.384  32.586  1.00  0.00     0.242 A 
HETATM    5  N4  UNL     1      57.363  25.861  31.373  1.00  0.00    -0.261 N 
ATOM      6  H4  UNL     1      57.776  26.778  31.202  1.00  0.00     0.190 HD
HETATM    7  N5  UNL     1      57.142  25.008  30.518  1.00  0.00    -0.256 N 
ATOM      8  H5  UNL     1      57.347  25.113  29.525  1.00  0.00     0.191 HD
ENDROOT
BRANCH   1   9
HETATM    9  N1  UNL     1      56.401  23.080  30.091  1.00  0.00    -0.349 NA
BRANCH   9  10
HETATM   10  C1  UNL     1      56.334  22.528  28.949  1.00  0.00     0.193 C 
BRANCH  10  11
HETATM   11  O1  UNL     1      55.657  23.011  27.941  1.00  0.00    -0.339 OA
ATOM     12  H1  UNL     1      54.725  22.832  27.979  1.00  0.00     0.220 HD
ENDBRANCH  10  11
BRANCH  10  13
HETATM   13  C2  UNL     1      57.055  21.219  28.644  1.00  0.00     0.100 C 
BRANCH  13  14
HETATM   14  C3  UNL     1      55.984  20.157  28.431  1.00  0.00     0.010 C 
BRANCH  14  15
HETATM   15  C4  UNL     1      56.464  19.165  27.364  1.00  0.00     0.005 C 
BRANCH  15  16
HETATM   16  C5  UNL     1      55.919  19.556  26.030  1.00  0.00    -0.014 C 
HETATM   17  C6  UNL     1      54.481  20.012  26.159  1.00  0.00     0.004 C 
HETATM   18  C7  UNL     1      53.885  19.966  24.756  1.00  0.00     0.000 C 
HETATM   19  C8  UNL     1      53.581  18.519  24.418  1.00  0.00     0.000 C 
HETATM   20  C9  UNL     1      54.639  17.636  25.045  1.00  0.00     0.000 C 
HETATM   21  C10 UNL     1      55.933  18.401  25.048  1.00  0.00     0.004 C 
ENDBRANCH  15  16
ENDBRANCH  14  15
ENDBRANCH  13  14
ENDBRANCH  10  13
ENDBRANCH   9  10
ENDBRANCH   1   9
BRANCH   4  22
HETATM   22  O2  UNL     1      57.053  26.045  33.789  1.00  0.00    -0.321 OA
BRANCH  22  23
HETATM   23  C13 UNL     1      57.914  25.613  34.819  1.00  0.00     0.183 C 
BRANCH  23  24
HETATM   24  C14 UNL     1      57.193  24.644  35.734  1.00  0.00     0.013 C 
HETATM   25  C15 UNL     1      57.068  25.279  37.099  1.00  0.00     0.034 C 
HETATM   26  C16 UNL     1      56.700  24.249  38.146  1.00  0.00     0.232 C 
HETATM   27  N3  UNL     1      56.177  23.081  37.480  1.00  0.00    -0.075 N 
HETATM   28  C17 UNL     1      57.191  22.380  36.717  1.00  0.00     0.232 C 
ATOM     29  H32 UNL     1      55.716  22.456  38.142  1.00  0.00     0.277 HD
ATOM     30  H31 UNL     1      55.375  23.320  36.897  1.00  0.00     0.277 HD
HETATM   31  C18 UNL     1      57.973  23.373  35.880  1.00  0.00     0.034 C 
ENDBRANCH  23  24
ENDBRANCH  22  23
ENDBRANCH   4  22
TORSDOF 10
ENDMDL
MODEL 2
REMARK VINA RESULT: -7.818904234      2.108      9.432
REMARK  10 active torsions:
REMARK  status: ('A' for Active; 'I' for Inactive)
REMARK    1  A    between atoms: O1_1  and  C1_3 
REMARK    2  A    between atoms: C1_3  and  C2_4 
REMARK    3  A    between atoms: C1_3  and  N1_13 
REMARK    4  A    between atoms: C2_4  and  C3_5 
REMARK    5  A    between atoms: C3_5  and  C4_6 
REMARK    6  A    between atoms: C4_6  and  C5_7 
REMARK    7  A    between atoms: N1_13  and  C11_14 
REMARK    8  A    between atoms: C12_17  and  O2_18 
REMARK    9  A    between atoms: O2_18  and  C13_19 
REMARK   10  A    between atoms: C13_19  and  C14_20 
ROOT
HETATM    1  C11 UNL     1      57.608  25.435  32.104  1.00  0.00     0.279 A 
HETATM    2  N2  UNL     1      57.705  25.011  30.982  1.00  0.00    -0.280 N 
ATOM      3  H2  UNL     1      58.451  25.448  30.439  1.00  0.00     0.173 HD
HETATM    4  C12 UNL     1      57.056  24.123  30.342  1.00  0.00     0.242 A 
HETATM    5  N4  UNL     1      56.156  23.731  31.287  1.00  0.00    -0.261 N 
ATOM      6  H4  UNL     1      55.439  23.017  31.163  1.00  0.00     0.190 HD
HETATM    7  N5  UNL     1      56.350  24.378  32.313  1.00  0.00    -0.256 N 
ATOM      8  H5  UNL     1      55.811  24.278  33.173  1.00  0.00     0.191 HD
ENDROOT
BRANCH   1   9
HETATM    9  N1  UNL     1      57.490  25.865  33.279  1.00  0.00    -0.349 NA
BRANCH   9  10
HETATM   10  C1  UNL     1      57.405  26.286  34.475  1.00  0.00     0.193 C 
BRANCH  10  11
HETATM   11  O1  UNL     1      57.002  27.485  34.802  1.00  0.00    -0.339 OA
ATOM     12  H1  UNL     1      56.116  27.685  34.523  1.00  0.00     0.220 HD
ENDBRANCH  10  11
BRANCH  10  13
HETATM   13  C2  UNL     1      57.775  25.409  35.666  1.00  0.00     0.100 C 
BRANCH  13  14
HETATM   14  C3  UNL     1      56.777  24.258  35.703  1.00  0.00     0.010 C 
BRANCH  14  15
HETATM   15  C4  UNL     1      57.522  22.956  36.022  1.00  0.00     0.005 C 
BRANCH  15  16
HETATM   16  C5  UNL     1      56.952  22.338  37.257  1.00  0.00    -0.014 C 
HETATM   17  C6  UNL     1      55.633  22.989  37.613  1.00  0.00     0.004 C 
HETATM   18  C7  UNL     1      55.352  22.629  39.068  1.00  0.00     0.000 C 
HETATM   19  C8  UNL     1      56.222  23.504  39.949  1.00  0.00     0.000 C 
HETATM   20  C9  UNL     1      57.546  23.738  39.252  1.00  0.00     0.000 C 
HETATM   21  C10 UNL     1      57.868  22.507  38.453  1.00  0.00     0.004 C 
ENDBRANCH  15  16
ENDBRANCH  14  15
ENDBRANCH  13  14
ENDBRANCH  10  13
ENDBRANCH   9  10
ENDBRANCH   1   9
BRANCH   4  22
HETATM   22  O2  UNL     1      57.160  23.631  29.062  1.00  0.00    -0.321 OA
BRANCH  22  23
HETATM   23  C13 UNL     1      56.193  22.761  28.517  1.00  0.00     0.183 C 
BRANCH  23  24
HETATM   24  C14 UNL     1      56.640  21.320  28.667  1.00  0.00     0.013 C 
HETATM   25  C15 UNL     1      58.098  21.229  28.285  1.00  0.00     0.034 C 
HETATM   26  C16 UNL     1      58.512  19.791  28.055  1.00  0.00     0.232 C 
HETATM   27  N3  UNL     1      57.531  18.926  28.664  1.00  0.00    -0.075 N 
HETATM   28  C17 UNL     1      56.251  18.980  27.986  1.00  0.00     0.232 C 
ATOM     29  H32 UNL     1      57.875  17.967  28.727  1.00  0.00     0.277 HD
ATOM     30  H31 UNL     1      57.430  19.129  29.658  1.00  0.00     0.277 HD
HETATM   31  C18 UNL     1      55.862  20.426  27.750  1.00  0.00     0.034 C 
ENDBRANCH  23  24
ENDBRANCH  22  23
ENDBRANCH   4  22
TORSDOF 10
ENDMDL
MODEL 3
REMARK VINA RESULT: -7.810156058      1.976      9.797
REMARK  10 active torsions:
REMARK  status: ('A' for Active; 'I' for Inactive)
REMARK    1  A    between atoms: O1_1  and  C1_3 
REMARK    2  A    between atoms: C1_3  and  C2_4 
REMARK    3  A    between atoms: C1_3  and  N1_13 
REMARK    4  A    between atoms: C2_4  and  C3_5 
REMARK    5  A    between atoms: C3_5  and  C4_6 
REMARK    6  A    between atoms: C4_6  and  C5_7 
REMARK    7  A    between atoms: N1_13  and  C11_14 
REMARK    8  A    between atoms: C12_17  and  O2_18 
REMARK    9  A    between atoms: O2_18  and  C13_19 
REMARK   10  A    between atoms: C13_19  and  C14_20 
ROOT
HETATM    1  C11 UNL     1      56.737  23.516  30.489  1.00  0.00     0.279 A 
HETATM    2  N2  UNL     1      56.411  22.603  29.778  1.00  0.00    -0.280 N 
ATOM      3  H2  UNL     1      56.163  21.753  30.286  1.00  0.00     0.173 HD
HETATM    4  C12 UNL     1      56.316  22.493  28.514  1.00  0.00     0.242 A 
HETATM    5  N4  UNL     1      56.697  23.739  28.117  1.00  0.00    -0.261 N 
ATOM      6  H4  UNL     1      56.756  24.062  27.152  1.00  0.00     0.190 HD
HETATM    7  N5  UNL     1      56.959  24.410  29.112  1.00  0.00    -0.256 N 
ATOM      8  H5  UNL     1      57.270  25.381  29.093  1.00  0.00     0.191 HD
ENDROOT
BRANCH   1   9
HETATM    9  N1  UNL     1      57.082  24.483  31.216  1.00  0.00    -0.349 NA
BRANCH   9  10
HETATM   10  C1  UNL     1      57.426  25.483  31.920  1.00  0.00     0.193 C 
BRANCH  10  11
HETATM   11  O1  UNL     1      57.164  26.724  31.606  1.00  0.00    -0.339 OA
ATOM     12  H1  UNL     1      57.135  27.314  32.350  1.00  0.00     0.220 HD
ENDBRANCH  10  11
BRANCH  10  13
HETATM   13  C2  UNL     1      58.195  25.322  33.227  1.00  0.00     0.100 C 
BRANCH  13  14
HETATM   14  C3  UNL     1      57.970  23.893  33.707  1.00  0.00     0.010 C 
BRANCH  14  15
HETATM   15  C4  UNL     1      56.739  23.857  34.621  1.00  0.00     0.005 C 
BRANCH  15  16
HETATM   16  C5  UNL     1      57.149  24.135  36.031  1.00  0.00    -0.014 C 
HETATM   17  C6  UNL     1      58.437  23.411  36.358  1.00  0.00     0.004 C 
HETATM   18  C7  UNL     1      58.542  23.382  37.879  1.00  0.00     0.000 C 
HETATM   19  C8  UNL     1      57.603  22.312  38.400  1.00  0.00     0.000 C 
HETATM   20  C9  UNL     1      56.373  22.268  37.517  1.00  0.00     0.000 C 
HETATM   21  C10 UNL     1      56.108  23.665  37.029  1.00  0.00     0.004 C 
ENDBRANCH  15  16
ENDBRANCH  14  15
ENDBRANCH  13  14
ENDBRANCH  10  13
ENDBRANCH   9  10
ENDBRANCH   1   9
BRANCH   4  22
HETATM   22  O2  UNL     1      55.943  21.455  27.692  1.00  0.00    -0.321 OA
BRANCH  22  23
HETATM   23  C13 UNL     1      56.391  20.135  27.907  1.00  0.00     0.183 C 
BRANCH  23  24
HETATM   24  C14 UNL     1      55.794  19.204  26.869  1.00  0.00     0.013 C 
HETATM   25  C15 UNL     1      56.902  18.732  25.957  1.00  0.00     0.034 C 
HETATM   26  C16 UNL     1      56.340  18.109  24.697  1.00  0.00     0.232 C 
HETATM   27  N3  UNL     1      54.955  17.776  24.925  1.00  0.00    -0.075 N 
HETATM   28  C17 UNL     1      54.121  18.952  25.073  1.00  0.00     0.232 C 
ATOM     29  H32 UNL     1      54.599  17.161  24.193  1.00  0.00     0.277 HD
ATOM     30  H31 UNL     1      54.855  17.151  25.725  1.00  0.00     0.277 HD
HETATM   31  C18 UNL     1      54.777  19.923  26.036  1.00  0.00     0.034 C 
ENDBRANCH  23  24
ENDBRANCH  22  23
ENDBRANCH   4  22
TORSDOF 10
ENDMDL
MODEL 4
REMARK VINA RESULT: -7.809724615      3.779      9.657
REMARK  10 active torsions:
REMARK  status: ('A' for Active; 'I' for Inactive)
REMARK    1  A    between atoms: O1_1  and  C1_3 
REMARK    2  A    between atoms: C1_3  and  C2_4 
REMARK    3  A    between atoms: C1_3  and  N1_13 
REMARK    4  A    between atoms: C2_4  and  C3_5 
REMARK    5  A    between atoms: C3_5  and  C4_6 
REMARK    6  A    between atoms: C4_6  and  C5_7 
REMARK    7  A    between atoms: N1_13  and  C11_14 
REMARK    8  A    between atoms: C12_17  and  O2_18 
REMARK    9  A    between atoms: O2_18  and  C13_19 
REMARK   10  A    between atoms: C13_19  and  C14_20 
ROOT
HETATM    1  C11 UNL     1      57.696  24.403  30.264  1.00  0.00     0.279 A 
HETATM    2  N2  UNL     1      58.153  24.311  29.155  1.00  0.00    -0.280 N 
ATOM      3  H2  UNL     1      59.089  24.706  29.061  1.00  0.00     0.173 HD
HETATM    4  C12 UNL     1      57.693  23.815  28.078  1.00  0.00     0.242 A 
HETATM    5  N4  UNL     1      56.471  23.380  28.495  1.00  0.00    -0.261 N 
ATOM      6  H4  UNL     1      55.777  22.913  27.912  1.00  0.00     0.190 HD
HETATM    7  N5  UNL     1      56.342  23.641  29.688  1.00  0.00    -0.256 N 
ATOM      8  H5  UNL     1      55.518  23.420  30.245  1.00  0.00     0.191 HD
ENDROOT
BRANCH   1   9
HETATM    9  N1  UNL     1      57.201  24.490  31.417  1.00  0.00    -0.349 NA
BRANCH   9  10
HETATM   10  C1  UNL     1      56.712  24.613  32.583  1.00  0.00     0.193 C 
BRANCH  10  11
HETATM   11  O1  UNL     1      56.649  25.745  33.234  1.00  0.00    -0.339 OA
ATOM     12  H1  UNL     1      56.818  26.511  32.697  1.00  0.00     0.220 HD
ENDBRANCH  10  11
BRANCH  10  13
HETATM   13  C2  UNL     1      56.142  23.424  33.349  1.00  0.00     0.100 C 
BRANCH  13  14
HETATM   14  C3  UNL     1      57.317  22.701  33.994  1.00  0.00     0.010 C 
BRANCH  14  15
HETATM   15  C4  UNL     1      58.116  23.697  34.844  1.00  0.00     0.005 C 
BRANCH  15  16
HETATM   16  C5  UNL     1      58.059  23.293  36.281  1.00  0.00    -0.014 C 
HETATM   17  C6  UNL     1      57.193  22.064  36.451  1.00  0.00     0.004 C 
HETATM   18  C7  UNL     1      56.836  21.987  37.931  1.00  0.00     0.000 C 
HETATM   19  C8  UNL     1      55.750  23.007  38.211  1.00  0.00     0.000 C 
HETATM   20  C9  UNL     1      55.982  24.222  37.337  1.00  0.00     0.000 C 
HETATM   21  C10 UNL     1      57.465  24.380  37.155  1.00  0.00     0.004 C 
ENDBRANCH  15  16
ENDBRANCH  14  15
ENDBRANCH  13  14
ENDBRANCH  10  13
ENDBRANCH   9  10
ENDBRANCH   1   9
BRANCH   4  22
HETATM   22  O2  UNL     1      58.206  23.704  26.807  1.00  0.00    -0.321 OA
BRANCH  22  23
HETATM   23  C13 UNL     1      59.394  22.992  26.541  1.00  0.00     0.183 C 
BRANCH  23  24
HETATM   24  C14 UNL     1      60.365  23.861  25.766  1.00  0.00     0.013 C 
HETATM   25  C15 UNL     1      61.500  24.245  26.685  1.00  0.00     0.034 C 
HETATM   26  C16 UNL     1      62.302  25.394  26.108  1.00  0.00     0.232 C 
HETATM   27  N3  UNL     1      62.012  25.495  24.699  1.00  0.00    -0.075 N 
HETATM   28  C17 UNL     1      60.650  25.925  24.445  1.00  0.00     0.232 C 
ATOM     29  H32 UNL     1      62.683  26.102  24.228  1.00  0.00     0.277 HD
ATOM     30  H31 UNL     1      62.217  24.620  24.217  1.00  0.00     0.277 HD
HETATM   31  C18 UNL     1      59.695  25.118  25.301  1.00  0.00     0.034 C 
ENDBRANCH  23  24
ENDBRANCH  22  23
ENDBRANCH   4  22
TORSDOF 10
ENDMDL
MODEL 5
REMARK VINA RESULT: -7.764575100      2.568      9.058
REMARK  10 active torsions:
REMARK  status: ('A' for Active; 'I' for Inactive)
REMARK    1  A    between atoms: O1_1  and  C1_3 
REMARK    2  A    between atoms: C1_3  and  C2_4 
REMARK    3  A    between atoms: C1_3  and  N1_13 
REMARK    4  A    between atoms: C2_4  and  C3_5 
REMARK    5  A    between atoms: C3_5  and  C4_6 
REMARK    6  A    between atoms: C4_6  and  C5_7 
REMARK    7  A    between atoms: N1_13  and  C11_14 
REMARK    8  A    between atoms: C12_17  and  O2_18 
REMARK    9  A    between atoms: O2_18  and  C13_19 
REMARK   10  A    between atoms: C13_19  and  C14_20 
ROOT
HETATM    1  C11 UNL     1      58.450  24.535  29.660  1.00  0.00     0.279 A 
HETATM    2  N2  UNL     1      58.799  23.973  28.656  1.00  0.00    -0.280 N 
ATOM      3  H2  UNL     1      59.812  23.883  28.564  1.00  0.00     0.173 HD
HETATM    4  C12 UNL     1      58.148  23.469  27.685  1.00  0.00     0.242 A 
HETATM    5  N4  UNL     1      56.868  23.732  28.070  1.00  0.00    -0.261 N 
ATOM      6  H4  UNL     1      56.029  23.481  27.548  1.00  0.00     0.190 HD
HETATM    7  N5  UNL     1      56.890  24.319  29.148  1.00  0.00    -0.256 N 
ATOM      8  H5  UNL     1      56.062  24.630  29.657  1.00  0.00     0.191 HD
ENDROOT
BRANCH   1   9
HETATM    9  N1  UNL     1      58.065  25.121  30.705  1.00  0.00    -0.349 NA
BRANCH   9  10
HETATM   10  C1  UNL     1      57.660  25.680  31.771  1.00  0.00     0.193 C 
BRANCH  10  11
HETATM   11  O1  UNL     1      57.116  26.868  31.813  1.00  0.00    -0.339 OA
ATOM     12  H1  UNL     1      57.622  27.541  31.374  1.00  0.00     0.220 HD
ENDBRANCH  10  11
BRANCH  10  13
HETATM   13  C2  UNL     1      57.775  25.001  33.131  1.00  0.00     0.100 C 
BRANCH  13  14
HETATM   14  C3  UNL     1      56.727  23.896  33.171  1.00  0.00     0.010 C 
BRANCH  14  15
HETATM   15  C4  UNL     1      57.100  22.887  34.264  1.00  0.00     0.005 C 
BRANCH  15  16
HETATM   16  C5  UNL     1      57.223  23.588  35.577  1.00  0.00    -0.014 C 
HETATM   17  C6  UNL     1      58.603  23.375  36.163  1.00  0.00     0.004 C 
HETATM   18  C7  UNL     1      58.503  23.728  37.643  1.00  0.00     0.000 C 
HETATM   19  C8  UNL     1      57.828  22.575  38.361  1.00  0.00     0.000 C 
HETATM   20  C9  UNL     1      56.787  21.968  37.443  1.00  0.00     0.000 C 
HETATM   21  C10 UNL     1      56.223  23.073  36.594  1.00  0.00     0.004 C 
ENDBRANCH  15  16
ENDBRANCH  14  15
ENDBRANCH  13  14
ENDBRANCH  10  13
ENDBRANCH   9  10
ENDBRANCH   1   9
BRANCH   4  22
HETATM   22  O2  UNL     1      58.537  22.825  26.534  1.00  0.00    -0.321 OA
BRANCH  22  23
HETATM   23  C13 UNL     1      59.116  21.539  26.558  1.00  0.00     0.183 C 
BRANCH  23  24
HETATM   24  C14 UNL     1      58.257  20.592  27.372  1.00  0.00     0.013 C 
HETATM   25  C15 UNL     1      59.159  19.579  28.037  1.00  0.00     0.034 C 
HETATM   26  C16 UNL     1      58.363  18.399  28.554  1.00  0.00     0.232 C 
HETATM   27  N3  UNL     1      56.974  18.779  28.635  1.00  0.00    -0.075 N 
HETATM   28  C17 UNL     1      56.382  18.987  27.328  1.00  0.00     0.232 C 
ATOM     29  H32 UNL     1      56.438  18.102  29.179  1.00  0.00     0.277 HD
ATOM     30  H31 UNL     1      56.852  19.599  29.229  1.00  0.00     0.277 HD
HETATM   31  C18 UNL     1      57.299  19.853  26.486  1.00  0.00     0.034 C 
ENDBRANCH  23  24
ENDBRANCH  22  23
ENDBRANCH   4  22
TORSDOF 10
ENDMDL
