MODEL 1
REMARK VINA RESULT: -7.413664890      0.000      0.000
REMARK  7 active torsions:
REMARK  status: ('A' for Active; 'I' for Inactive)
REMARK    1  A    between atoms: N1_1  and  C1_5 
REMARK    2  A    between atoms: C1_5  and  C2_6 
REMARK    3  A    between atoms: C1_5  and  C3_9 
REMARK    4  A    between atoms: C2_6  and  O1_7 
REMARK    5  A    between atoms: C3_9  and  N2_10 
REMARK    6  A    between atoms: N2_10  and  C4_12 
REMARK    7  A    between atoms: C8_23  and  C9_24 
ROOT
HETATM    1  C4  UNL     1      17.310  45.609 -51.095  1.00  0.00     0.133 A 
HETATM    2  N3  UNL     1      18.168  45.122 -50.183  1.00  0.00    -0.337 N 
ATOM      3  H3  UNL     1      17.801  44.790 -49.291  1.00  0.00     0.168 HD
HETATM    4  C5  UNL     1      19.496  45.056 -50.401  1.00  0.00     0.183 A 
HETATM    5  N4  UNL     1      19.946  45.504 -51.587  1.00  0.00    -0.337 N 
ATOM      6  H4  UNL     1      20.949  45.463 -51.768  1.00  0.00     0.168 HD
HETATM    7  C6  UNL     1      19.147  46.004 -52.546  1.00  0.00     0.140 A 
HETATM    8  N5  UNL     1      19.593  46.448 -53.722  1.00  0.00    -0.305 N 
ATOM      9  H5  UNL     1      20.593  46.413 -53.922  1.00  0.00     0.170 HD
HETATM   10  C7  UNL     1      18.759  46.936 -54.644  1.00  0.00     0.277 A 
HETATM   11  O2  UNL     1      19.166  47.362 -55.767  1.00  0.00    -0.265 OA
HETATM   12  C8  UNL     1      17.405  46.998 -54.408  1.00  0.00     0.148 A 
HETATM   13  N10 UNL     1      16.933  46.555 -53.227  1.00  0.00    -0.343 N 
ATOM     14  H10 UNL     1      15.933  46.589 -53.027  1.00  0.00     0.166 HD
HETATM   15  C10 UNL     1      17.788  46.068 -52.317  1.00  0.00     0.122 A 
ENDROOT
BRANCH   1  16
HETATM   16  N2  UNL     1      16.038  45.680 -50.906  1.00  0.00    -0.372 N 
ATOM     17  H2  UNL     1      15.437  45.132 -51.520  1.00  0.00     0.161 HD
BRANCH  16  18
HETATM   18  C3  UNL     1      15.409  46.472 -49.897  1.00  0.00     0.156 C 
BRANCH  18  19
HETATM   19  C1  UNL     1      13.919  46.604 -50.099  1.00  0.00     0.224 C 
BRANCH  19  20
HETATM   20  N1  UNL     1      13.551  46.079 -51.395  1.00  0.00    -0.071 N 
ATOM     21  H13 UNL     1      13.022  45.209 -51.336  1.00  0.00     0.274 HD
ATOM     22  H12 UNL     1      12.836  46.637 -51.862  1.00  0.00     0.274 HD
ATOM     23  H11 UNL     1      14.407  45.988 -51.943  1.00  0.00     0.274 HD
ENDBRANCH  19  20
BRANCH  19  24
HETATM   24  C2  UNL     1      13.139  45.838 -49.063  1.00  0.00     0.198 C 
BRANCH  24  25
HETATM   25  O1  UNL     1      12.222  44.976 -49.609  1.00  0.00    -0.399 OA
ATOM     26  H1  UNL     1      11.351  45.350 -49.671  1.00  0.00     0.209 HD
ENDBRANCH  24  25
ENDBRANCH  19  24
ENDBRANCH  18  19
ENDBRANCH  16  18
ENDBRANCH   1  16
BRANCH  12  27
HETATM   27  C9  UNL     1      16.511  47.538 -55.436  1.00  0.00     0.164 A 
HETATM   28  N6  UNL     1      16.165  46.960 -56.595  1.00  0.00    -0.268 N 
HETATM   29  N7  UNL     1      15.335  47.791 -57.231  1.00  0.00    -0.007 NA
ATOM     30  H6  UNL     1      16.478  46.049 -56.930  1.00  0.00     0.185 HD
HETATM   31  N8  UNL     1      15.157  48.874 -56.494  1.00  0.00    -0.007 NA
HETATM   32  N9  UNL     1      15.884  48.705 -55.398  1.00  0.00    -0.268 N 
ATOM     33  H9  UNL     1      15.951  49.378 -54.634  1.00  0.00     0.185 HD
ENDBRANCH  12  27
TORSDOF 7
ENDMDL
MODEL 2
REMARK VINA RESULT: -7.326645576      1.098      1.370
REMARK  7 active torsions:
REMARK  status: ('A' for Active; 'I' for Inactive)
REMARK    1  A    between atoms: N1_1  and  C1_5 
REMARK    2  A    between atoms: C1_5  and  C2_6 
REMARK    3  A    between atoms: C1_5  and  C3_9 
REMARK    4  A    between atoms: C2_6  and  O1_7 
REMARK    5  A    between atoms: C3_9  and  N2_10 
REMARK    6  A    between atoms: N2_10  and  C4_12 
REMARK    7  A    between atoms: C8_23  and  C9_24 
ROOT
HETATM    1  C4  UNL     1      16.221  45.908 -51.167  1.00  0.00     0.133 A 
HETATM    2  N3  UNL     1      16.885  45.358 -50.136  1.00  0.00    -0.337 N 
ATOM      3  H3  UNL     1      16.365  45.110 -49.294  1.00  0.00     0.168 HD
HETATM    4  C5  UNL     1      18.211  45.123 -50.171  1.00  0.00     0.183 A 
HETATM    5  N4  UNL     1      18.865  45.465 -51.296  1.00  0.00    -0.337 N 
ATOM      6  H4  UNL     1      19.871  45.296 -51.339  1.00  0.00     0.168 HD
HETATM    7  C6  UNL     1      18.268  46.019 -52.366  1.00  0.00     0.140 A 
HETATM    8  N5  UNL     1      18.916  46.357 -53.482  1.00  0.00    -0.305 N 
ATOM      9  H5  UNL     1      19.921  46.194 -53.544  1.00  0.00     0.170 HD
HETATM   10  C7  UNL     1      18.277  46.905 -54.519  1.00  0.00     0.277 A 
HETATM   11  O2  UNL     1      18.878  47.233 -55.587  1.00  0.00    -0.265 OA
HETATM   12  C8  UNL     1      16.922  47.139 -54.470  1.00  0.00     0.148 A 
HETATM   13  N10 UNL     1      16.248  46.804 -53.353  1.00  0.00    -0.343 N 
ATOM     14  H10 UNL     1      15.243  46.968 -53.291  1.00  0.00     0.166 HD
HETATM   15  C10 UNL     1      16.909  46.256 -52.324  1.00  0.00     0.122 A 
ENDROOT
BRANCH   1  16
HETATM   16  N2  UNL     1      14.955  46.140 -51.153  1.00  0.00    -0.372 N 
ATOM     17  H2  UNL     1      14.348  45.486 -51.649  1.00  0.00     0.161 HD
BRANCH  16  18
HETATM   18  C3  UNL     1      14.337  47.246 -50.493  1.00  0.00     0.156 C 
BRANCH  18  19
HETATM   19  C1  UNL     1      14.080  46.986 -49.029  1.00  0.00     0.224 C 
BRANCH  19  20
HETATM   20  N1  UNL     1      13.504  48.161 -48.415  1.00  0.00    -0.071 N 
ATOM     21  H13 UNL     1      13.175  47.991 -47.464  1.00  0.00     0.274 HD
ATOM     22  H12 UNL     1      14.198  48.874 -48.189  1.00  0.00     0.274 HD
ATOM     23  H11 UNL     1      12.770  48.502 -49.035  1.00  0.00     0.274 HD
ENDBRANCH  19  20
BRANCH  19  24
HETATM   24  C2  UNL     1      13.116  45.847 -48.819  1.00  0.00     0.198 C 
BRANCH  24  25
HETATM   25  O1  UNL     1      12.408  45.527 -49.950  1.00  0.00    -0.399 OA
ATOM     26  H1  UNL     1      12.057  46.288 -50.397  1.00  0.00     0.209 HD
ENDBRANCH  24  25
ENDBRANCH  19  24
ENDBRANCH  18  19
ENDBRANCH  16  18
ENDBRANCH   1  16
BRANCH  12  27
HETATM   27  C9  UNL     1      16.245  47.741 -55.622  1.00  0.00     0.164 A 
HETATM   28  N6  UNL     1      15.772  48.991 -55.722  1.00  0.00    -0.268 N 
HETATM   29  N7  UNL     1      15.232  49.125 -56.937  1.00  0.00    -0.007 NA
ATOM     30  H6  UNL     1      15.816  49.711 -55.001  1.00  0.00     0.185 HD
HETATM   31  N8  UNL     1      15.360  47.985 -57.595  1.00  0.00    -0.007 NA
HETATM   32  N9  UNL     1      15.982  47.147 -56.777  1.00  0.00    -0.268 N 
ATOM     33  H9  UNL     1      16.223  46.182 -57.005  1.00  0.00     0.185 HD
ENDBRANCH  12  27
TORSDOF 7
ENDMDL
MODEL 3
REMARK VINA RESULT: -7.209577658      1.360      1.437
REMARK  7 active torsions:
REMARK  status: ('A' for Active; 'I' for Inactive)
REMARK    1  A    between atoms: N1_1  and  C1_5 
REMARK    2  A    between atoms: C1_5  and  C2_6 
REMARK    3  A    between atoms: C1_5  and  C3_9 
REMARK    4  A    between atoms: C2_6  and  O1_7 
REMARK    5  A    between atoms: C3_9  and  N2_10 
REMARK    6  A    between atoms: N2_10  and  C4_12 
REMARK    7  A    between atoms: C8_23  and  C9_24 
ROOT
HETATM    1  C4  UNL     1      16.256  46.061 -51.153  1.00  0.00     0.133 A 
HETATM    2  N3  UNL     1      16.910  45.493 -50.125  1.00  0.00    -0.337 N 
ATOM      3  H3  UNL     1      16.398  45.301 -49.264  1.00  0.00     0.168 HD
HETATM    4  C5  UNL     1      18.215  45.167 -50.189  1.00  0.00     0.183 A 
HETATM    5  N4  UNL     1      18.859  45.435 -51.339  1.00  0.00    -0.337 N 
ATOM      6  H4  UNL     1      19.849  45.197 -51.404  1.00  0.00     0.168 HD
HETATM    7  C6  UNL     1      18.271  46.002 -52.408  1.00  0.00     0.140 A 
HETATM    8  N5  UNL     1      18.909  46.268 -53.549  1.00  0.00    -0.305 N 
ATOM      9  H5  UNL     1      19.899  46.035 -53.633  1.00  0.00     0.170 HD
HETATM   10  C7  UNL     1      18.280  46.832 -54.583  1.00  0.00     0.277 A 
HETATM   11  O2  UNL     1      18.872  47.092 -55.674  1.00  0.00    -0.265 OA
HETATM   12  C8  UNL     1      16.946  47.160 -54.504  1.00  0.00     0.148 A 
HETATM   13  N10 UNL     1      16.283  46.900 -53.362  1.00  0.00    -0.343 N 
ATOM     14  H10 UNL     1      15.293  47.133 -53.278  1.00  0.00     0.166 HD
HETATM   15  C10 UNL     1      16.933  46.332 -52.337  1.00  0.00     0.122 A 
ENDROOT
BRANCH   1  16
HETATM   16  N2  UNL     1      15.009  46.379 -51.112  1.00  0.00    -0.372 N 
ATOM     17  H2  UNL     1      14.723  47.237 -51.585  1.00  0.00     0.161 HD
BRANCH  16  18
HETATM   18  C3  UNL     1      13.996  45.618 -50.452  1.00  0.00     0.156 C 
BRANCH  18  19
HETATM   19  C1  UNL     1      13.234  46.420 -49.426  1.00  0.00     0.224 C 
BRANCH  19  20
HETATM   20  N1  UNL     1      12.870  45.575 -48.312  1.00  0.00    -0.071 N 
ATOM     21  H13 UNL     1      12.781  44.592 -48.571  1.00  0.00     0.274 HD
ATOM     22  H12 UNL     1      13.622  45.465 -47.632  1.00  0.00     0.274 HD
ATOM     23  H11 UNL     1      12.017  45.958 -47.903  1.00  0.00     0.274 HD
ENDBRANCH  19  20
BRANCH  19  24
HETATM   24  C2  UNL     1      14.053  47.560 -48.879  1.00  0.00     0.198 C 
BRANCH  24  25
HETATM   25  O1  UNL     1      15.125  47.142 -48.132  1.00  0.00    -0.399 OA
ATOM     26  H1  UNL     1      14.877  46.820 -47.273  1.00  0.00     0.209 HD
ENDBRANCH  24  25
ENDBRANCH  19  24
ENDBRANCH  18  19
ENDBRANCH  16  18
ENDBRANCH   1  16
BRANCH  12  27
HETATM   27  C9  UNL     1      16.280  47.778 -55.654  1.00  0.00     0.164 A 
HETATM   28  N6  UNL     1      15.946  47.189 -56.811  1.00  0.00    -0.268 N 
HETATM   29  N7  UNL     1      15.359  48.110 -57.580  1.00  0.00    -0.007 NA
ATOM     30  H6  UNL     1      16.110  46.214 -57.059  1.00  0.00     0.185 HD
HETATM   31  N8  UNL     1      15.320  49.260 -56.928  1.00  0.00    -0.007 NA
HETATM   32  N9  UNL     1      15.888  49.041 -55.749  1.00  0.00    -0.268 N 
ATOM     33  H9  UNL     1      16.006  49.745 -55.020  1.00  0.00     0.185 HD
ENDBRANCH  12  27
TORSDOF 7
ENDMDL
MODEL 4
REMARK VINA RESULT: -7.204284686      3.092      4.298
REMARK  7 active torsions:
REMARK  status: ('A' for Active; 'I' for Inactive)
REMARK    1  A    between atoms: N1_1  and  C1_5 
REMARK    2  A    between atoms: C1_5  and  C2_6 
REMARK    3  A    between atoms: C1_5  and  C3_9 
REMARK    4  A    between atoms: C2_6  and  O1_7 
REMARK    5  A    between atoms: C3_9  and  N2_10 
REMARK    6  A    between atoms: N2_10  and  C4_12 
REMARK    7  A    between atoms: C8_23  and  C9_24 
ROOT
HETATM    1  C4  UNL     1      14.600  47.769 -50.289  1.00  0.00     0.133 A 
HETATM    2  N3  UNL     1      13.893  47.260 -49.265  1.00  0.00    -0.337 N 
ATOM      3  H3  UNL     1      13.779  47.821 -48.420  1.00  0.00     0.168 HD
HETATM    4  C5  UNL     1      13.329  46.038 -49.312  1.00  0.00     0.183 A 
HETATM    5  N4  UNL     1      13.501  45.325 -50.439  1.00  0.00    -0.337 N 
ATOM      6  H4  UNL     1      13.083  44.396 -50.491  1.00  0.00     0.168 HD
HETATM    7  C6  UNL     1      14.195  45.769 -51.502  1.00  0.00     0.140 A 
HETATM    8  N5  UNL     1      14.365  45.063 -52.622  1.00  0.00    -0.305 N 
ATOM      9  H5  UNL     1      13.953  44.133 -52.692  1.00  0.00     0.170 HD
HETATM   10  C7  UNL     1      15.064  45.548 -53.651  1.00  0.00     0.277 A 
HETATM   11  O2  UNL     1      15.236  44.890 -54.722  1.00  0.00    -0.265 OA
HETATM   12  C8  UNL     1      15.634  46.799 -53.590  1.00  0.00     0.148 A 
HETATM   13  N10 UNL     1      15.474  47.529 -52.470  1.00  0.00    -0.343 N 
ATOM     14  H10 UNL     1      15.887  48.459 -52.400  1.00  0.00     0.166 HD
HETATM   15  C10 UNL     1      14.769  47.023 -51.449  1.00  0.00     0.122 A 
ENDROOT
BRANCH   1  16
HETATM   16  N2  UNL     1      15.146  48.935 -50.264  1.00  0.00    -0.372 N 
ATOM     17  H2  UNL     1      16.061  49.039 -50.701  1.00  0.00     0.161 HD
BRANCH  16  18
HETATM   18  C3  UNL     1      14.561  50.095 -49.669  1.00  0.00     0.156 C 
BRANCH  18  19
HETATM   19  C1  UNL     1      13.145  50.340 -50.129  1.00  0.00     0.224 C 
BRANCH  19  20
HETATM   20  N1  UNL     1      12.234  50.200 -49.016  1.00  0.00    -0.071 N 
ATOM     21  H13 UNL     1      11.762  51.071 -48.776  1.00  0.00     0.274 HD
ATOM     22  H12 UNL     1      11.402  49.657 -49.247  1.00  0.00     0.274 HD
ATOM     23  H11 UNL     1      12.762  49.806 -48.237  1.00  0.00     0.274 HD
ENDBRANCH  19  20
BRANCH  19  24
HETATM   24  C2  UNL     1      12.965  51.728 -50.688  1.00  0.00     0.198 C 
BRANCH  24  25
HETATM   25  O1  UNL     1      11.974  51.802 -51.634  1.00  0.00    -0.399 OA
ATOM     26  H1  UNL     1      11.381  52.530 -51.495  1.00  0.00     0.209 HD
ENDBRANCH  24  25
ENDBRANCH  19  24
ENDBRANCH  18  19
ENDBRANCH  16  18
ENDBRANCH   1  16
BRANCH  12  27
HETATM   27  C9  UNL     1      16.396  47.307 -54.735  1.00  0.00     0.164 A 
HETATM   28  N6  UNL     1      15.909  47.905 -55.831  1.00  0.00    -0.268 N 
HETATM   29  N7  UNL     1      16.943  48.210 -56.620  1.00  0.00    -0.007 NA
ATOM     30  H6  UNL     1      14.927  48.094 -56.028  1.00  0.00     0.185 HD
HETATM   31  N8  UNL     1      18.063  47.815 -56.039  1.00  0.00    -0.007 NA
HETATM   32  N9  UNL     1      17.712  47.263 -54.884  1.00  0.00    -0.268 N 
ATOM     33  H9  UNL     1      18.363  46.863 -54.209  1.00  0.00     0.185 HD
ENDBRANCH  12  27
TORSDOF 7
ENDMDL
MODEL 5
REMARK VINA RESULT: -7.192250452      3.389      4.508
REMARK  7 active torsions:
REMARK  status: ('A' for Active; 'I' for Inactive)
REMARK    1  A    between atoms: N1_1  and  C1_5 
REMARK    2  A    between atoms: C1_5  and  C2_6 
REMARK    3  A    between atoms: C1_5  and  C3_9 
REMARK    4  A    between atoms: C2_6  and  O1_7 
REMARK    5  A    between atoms: C3_9  and  N2_10 
REMARK    6  A    between atoms: N2_10  and  C4_12 
REMARK    7  A    between atoms: C8_23  and  C9_24 
ROOT
HETATM    1  C4  UNL     1      15.229  47.848 -50.403  1.00  0.00     0.133 A 
HETATM    2  N3  UNL     1      14.449  47.496 -49.366  1.00  0.00    -0.337 N 
ATOM      3  H3  UNL     1      14.490  48.050 -48.511  1.00  0.00     0.168 HD
HETATM    4  C5  UNL     1      13.615  46.439 -49.414  1.00  0.00     0.183 A 
HETATM    5  N4  UNL     1      13.588  45.730 -50.557  1.00  0.00    -0.337 N 
ATOM      6  H4  UNL     1      12.964  44.925 -50.610  1.00  0.00     0.168 HD
HETATM    7  C6  UNL     1      14.339  46.023 -51.634  1.00  0.00     0.140 A 
HETATM    8  N5  UNL     1      14.312  45.321 -52.767  1.00  0.00    -0.305 N 
ATOM      9  H5  UNL     1      13.693  44.513 -52.839  1.00  0.00     0.170 HD
HETATM   10  C7  UNL     1      15.078  45.652 -53.810  1.00  0.00     0.277 A 
HETATM   11  O2  UNL     1      15.065  44.995 -54.895  1.00  0.00    -0.265 OA
HETATM   12  C8  UNL     1      15.925  46.735 -53.748  1.00  0.00     0.148 A 
HETATM   13  N10 UNL     1      15.968  47.458 -52.613  1.00  0.00    -0.343 N 
ATOM     14  H10 UNL     1      16.587  48.265 -52.541  1.00  0.00     0.166 HD
HETATM   15  C10 UNL     1      15.190  47.108 -51.579  1.00  0.00     0.122 A 
ENDROOT
BRANCH   1  16
HETATM   16  N2  UNL     1      16.031  48.855 -50.377  1.00  0.00    -0.372 N 
ATOM     17  H2  UNL     1      16.039  49.475 -51.187  1.00  0.00     0.161 HD
BRANCH  16  18
HETATM   18  C3  UNL     1      16.911  49.167 -49.295  1.00  0.00     0.156 C 
BRANCH  18  19
HETATM   19  C1  UNL     1      16.794  50.600 -48.839  1.00  0.00     0.224 C 
BRANCH  19  20
HETATM   20  N1  UNL     1      15.406  50.932 -48.610  1.00  0.00    -0.071 N 
ATOM     21  H13 UNL     1      14.971  51.395 -49.408  1.00  0.00     0.274 HD
ATOM     22  H12 UNL     1      14.799  50.112 -48.587  1.00  0.00     0.274 HD
ATOM     23  H11 UNL     1      15.360  51.485 -47.755  1.00  0.00     0.274 HD
ENDBRANCH  19  20
BRANCH  19  24
HETATM   24  C2  UNL     1      17.535  50.845 -47.550  1.00  0.00     0.198 C 
BRANCH  24  25
HETATM   25  O1  UNL     1      17.130  51.986 -46.906  1.00  0.00    -0.399 OA
ATOM     26  H1  UNL     1      17.762  52.693 -46.966  1.00  0.00     0.209 HD
ENDBRANCH  24  25
ENDBRANCH  19  24
ENDBRANCH  18  19
ENDBRANCH  16  18
ENDBRANCH   1  16
BRANCH  12  27
HETATM   27  C9  UNL     1      16.755  47.077 -54.906  1.00  0.00     0.164 A 
HETATM   28  N6  UNL     1      17.999  46.652 -55.166  1.00  0.00    -0.268 N 
HETATM   29  N7  UNL     1      18.384  47.203 -56.321  1.00  0.00    -0.007 NA
ATOM     30  H6  UNL     1      18.553  46.022 -54.586  1.00  0.00     0.185 HD
HETATM   31  N8  UNL     1      17.405  47.960 -56.786  1.00  0.00    -0.007 NA
HETATM   32  N9  UNL     1      16.414  47.874 -55.909  1.00  0.00    -0.268 N 
ATOM     33  H9  UNL     1      15.517  48.353 -55.994  1.00  0.00     0.185 HD
ENDBRANCH  12  27
TORSDOF 7
ENDMDL
