MODEL 1
REMARK VINA RESULT: -6.420669287      0.000      0.000
REMARK  18 active torsions:
REMARK  status: ('A' for Active; 'I' for Inactive)
REMARK    1  A    between atoms: S1_2  and  C2_3 
REMARK    2  A    between atoms: C4_5  and  O1_6 
REMARK    3  A    between atoms: C5_8  and  C6_9 
REMARK    4  A    between atoms: C6_9  and  O2_10 
REMARK    5  A    between atoms: C7_13  and  N1_14 
REMARK    6  A    between atoms: C8_15  and  C9_16 
REMARK       I    between atoms: C9_16  and  N2_18 
REMARK    7  A    between atoms: N2_18  and  C10_20 
REMARK    8  A    between atoms: C11_25  and  S2_26 
REMARK    9  A    between atoms: S2_26  and  C12_27 
REMARK   10  A    between atoms: N8_32  and  C13_33 
REMARK   11  A    between atoms: C13_33  and  O5_34 
REMARK   12  A    between atoms: O5_34  and  C14_35 
REMARK   13  A    between atoms: C14_35  and  C15_36 
REMARK   14  A    between atoms: C14_35  and  C16_39 
REMARK   15  A    between atoms: C15_36  and  O6_37 
REMARK   16  A    between atoms: C16_39  and  O7_40 
REMARK   17  A    between atoms: C18_49  and  N12_50 
REMARK   18  A    between atoms: C19_55  and  N14_56 
ROOT
HETATM    1  N1  UNL     1      36.698   6.958  24.195  1.00  0.00    -0.283 N 
HETATM    2  C8  UNL     1      36.782   5.741  23.643  1.00  0.00     0.182 A 
HETATM    3  N11 UNL     1      38.083   5.611  23.218  1.00  0.00    -0.332 N 
ATOM      4  H11 UNL     1      38.467   4.789  22.752  1.00  0.00     0.168 HD
HETATM    5  C17 UNL     1      38.767   6.715  23.503  1.00  0.00     0.124 A 
HETATM    6  C18 UNL     1      40.099   7.080  23.280  1.00  0.00     0.145 A 
HETATM    7  N13 UNL     1      40.498   8.290  23.689  1.00  0.00    -0.175 N 
ATOM      8  H13 UNL     1      41.468   8.565  23.533  1.00  0.00     0.186 HD
HETATM    9  C19 UNL     1      39.672   9.154  24.297  1.00  0.00     0.679 A 
HETATM   10  N15 UNL     1      38.386   8.790  24.506  1.00  0.00    -0.174 N 
ATOM     11  H15 UNL     1      37.754   9.444  24.967  1.00  0.00     0.186 HD
HETATM   12  C20 UNL     1      37.919   7.587  24.123  1.00  0.00     0.158 A 
ENDROOT
BRANCH   2  13
HETATM   13  C9  UNL     1      35.785   4.679  23.461  1.00  0.00     0.304 C 
HETATM   14  O4  UNL     1      34.964   4.568  22.544  1.00  0.00    -0.263 OA
HETATM   15  N2  UNL     1      35.778   3.654  24.483  1.00  0.00    -0.150 N 
ATOM     16  H2  UNL     1      35.411   3.866  25.411  1.00  0.00     0.188 HD
BRANCH  15  17
HETATM   17  C10 UNL     1      36.233   2.472  24.228  1.00  0.00     0.714 A 
HETATM   18  N3  UNL     1      37.523   2.205  24.493  1.00  0.00    -0.129 N 
HETATM   19  N4  UNL     1      38.057   0.995  24.253  1.00  0.00    -0.264 N 
ATOM     20  H3  UNL     1      38.112   2.939  24.887  1.00  0.00     0.205 HD
HETATM   21  C11 UNL     1      37.263   0.048  23.735  1.00  0.00     0.182 A 
ATOM     22  H4  UNL     1      39.038   0.804  24.458  1.00  0.00     0.189 HD
HETATM   23  N9  UNL     1      35.966   0.314  23.470  1.00  0.00    -0.264 N 
HETATM   24  N10 UNL     1      35.446   1.514  23.711  1.00  0.00    -0.129 N 
ATOM     25  H9  UNL     1      35.374  -0.418  23.077  1.00  0.00     0.189 HD
ATOM     26  H10 UNL     1      34.465   1.705  23.508  1.00  0.00     0.205 HD
BRANCH  21  27
HETATM   27  S2  UNL     1      37.912  -1.586  23.392  1.00  0.00    -0.013 SA
BRANCH  27  28
HETATM   28  C12 UNL     1      39.687  -1.536  23.225  1.00  0.00     0.182 A 
HETATM   29  N5  UNL     1      40.604  -2.095  24.013  1.00  0.00    -0.264 N 
HETATM   30  N6  UNL     1      41.821  -1.838  23.568  1.00  0.00    -0.006 NA
ATOM     31  H5  UNL     1      40.395  -2.647  24.845  1.00  0.00     0.186 HD
HETATM   32  N7  UNL     1      41.661  -1.100  22.478  1.00  0.00    -0.002 NA
HETATM   33  N8  UNL     1      40.368  -0.910  22.258  1.00  0.00    -0.232 N 
BRANCH  33  34
HETATM   34  C13 UNL     1      39.879  -0.135  21.127  1.00  0.00     0.317 C 
BRANCH  34  35
HETATM   35  O5  UNL     1      39.163   0.968  21.556  1.00  0.00    -0.361 OA
BRANCH  35  36
HETATM   36  C14 UNL     1      39.195   1.941  20.581  1.00  0.00     0.170 C 
BRANCH  36  37
HETATM   37  C15 UNL     1      39.818   3.208  21.126  1.00  0.00     0.198 C 
BRANCH  37  38
HETATM   38  O6  UNL     1      39.538   3.310  22.484  1.00  0.00    -0.398 OA
ATOM     39  H6  UNL     1      40.180   3.878  22.895  1.00  0.00     0.209 HD
ENDBRANCH  37  38
ENDBRANCH  36  37
BRANCH  36  40
HETATM   40  C16 UNL     1      37.785   2.201  20.075  1.00  0.00     0.198 C 
BRANCH  40  41
HETATM   41  O7  UNL     1      36.946   2.439  21.160  1.00  0.00    -0.398 OA
ATOM     42  H7  UNL     1      36.880   3.375  21.306  1.00  0.00     0.209 HD
ENDBRANCH  40  41
ENDBRANCH  36  40
ENDBRANCH  35  36
ENDBRANCH  34  35
ENDBRANCH  33  34
ENDBRANCH  27  28
ENDBRANCH  21  27
ENDBRANCH  15  17
ENDBRANCH   2  13
BRANCH   1  43
HETATM   43  C7  UNL     1      35.579   7.598  24.794  1.00  0.00     0.253 C 
HETATM   44  C2  UNL     1      34.497   8.109  23.935  1.00  0.00     0.077 C 
HETATM   45  C3  UNL     1      33.240   7.226  24.057  1.00  0.00     0.034 C 
HETATM   46  C4  UNL     1      34.116   9.431  24.574  1.00  0.00     0.171 C 
HETATM   47  C5  UNL     1      34.793   9.340  25.918  1.00  0.00     0.178 C 
HETATM   48  O3  UNL     1      35.946   8.578  25.706  1.00  0.00    -0.354 OA
BRANCH  44  49
HETATM   49  S1  UNL     1      34.880   8.385  22.217  1.00  0.00    -0.157 SA
HETATM   50  C1  UNL     1      35.873   9.844  21.921  1.00  0.00     0.091 C 
ENDBRANCH  44  49
BRANCH  46  51
HETATM   51  O1  UNL     1      32.748   9.605  24.715  1.00  0.00    -0.391 OA
ATOM     52  H1  UNL     1      32.426   9.402  25.585  1.00  0.00     0.210 HD
ENDBRANCH  46  51
BRANCH  47  53
HETATM   53  C6  UNL     1      35.039  10.710  26.440  1.00  0.00     0.198 C 
BRANCH  53  54
HETATM   54  O2  UNL     1      33.870  11.197  26.997  1.00  0.00    -0.398 OA
ATOM     55  H2  UNL     1      33.532  10.558  27.614  1.00  0.00     0.209 HD
ENDBRANCH  53  54
ENDBRANCH  47  53
ENDBRANCH   1  43
BRANCH   6  56
HETATM   56  N12 UNL     1      40.906   6.250  22.693  1.00  0.00    -0.383 N 
ATOM     57 2H12 UNL     1      40.662   5.783  21.821  1.00  0.00     0.157 HD
ATOM     58 1H12 UNL     1      41.817   6.051  23.106  1.00  0.00     0.157 HD
ENDBRANCH   6  56
BRANCH   9  59
HETATM   59  N14 UNL     1      40.129  10.304  24.662  1.00  0.00    -0.234 N 
ATOM     60 2H14 UNL     1      40.800  10.825  24.099  1.00  0.00     0.174 HD
ATOM     61 1H14 UNL     1      39.807  10.707  25.542  1.00  0.00     0.174 HD
ENDBRANCH   9  59
TORSDOF 18
ENDMDL
MODEL 2
REMARK VINA RESULT: -6.287195185      2.475      3.298
REMARK  18 active torsions:
REMARK  status: ('A' for Active; 'I' for Inactive)
REMARK    1  A    between atoms: S1_2  and  C2_3 
REMARK    2  A    between atoms: C4_5  and  O1_6 
REMARK    3  A    between atoms: C5_8  and  C6_9 
REMARK    4  A    between atoms: C6_9  and  O2_10 
REMARK    5  A    between atoms: C7_13  and  N1_14 
REMARK    6  A    between atoms: C8_15  and  C9_16 
REMARK       I    between atoms: C9_16  and  N2_18 
REMARK    7  A    between atoms: N2_18  and  C10_20 
REMARK    8  A    between atoms: C11_25  and  S2_26 
REMARK    9  A    between atoms: S2_26  and  C12_27 
REMARK   10  A    between atoms: N8_32  and  C13_33 
REMARK   11  A    between atoms: C13_33  and  O5_34 
REMARK   12  A    between atoms: O5_34  and  C14_35 
REMARK   13  A    between atoms: C14_35  and  C15_36 
REMARK   14  A    between atoms: C14_35  and  C16_39 
REMARK   15  A    between atoms: C15_36  and  O6_37 
REMARK   16  A    between atoms: C16_39  and  O7_40 
REMARK   17  A    between atoms: C18_49  and  N12_50 
REMARK   18  A    between atoms: C19_55  and  N14_56 
ROOT
HETATM    1  N1  UNL     1      36.843   6.604  23.888  1.00  0.00    -0.283 N 
HETATM    2  C8  UNL     1      36.956   5.370  23.379  1.00  0.00     0.182 A 
HETATM    3  N11 UNL     1      38.217   5.303  22.837  1.00  0.00    -0.332 N 
ATOM      4  H11 UNL     1      38.610   4.486  22.370  1.00  0.00     0.168 HD
HETATM    5  C17 UNL     1      38.850   6.459  23.011  1.00  0.00     0.124 A 
HETATM    6  C18 UNL     1      40.128   6.896  22.647  1.00  0.00     0.145 A 
HETATM    7  N13 UNL     1      40.482   8.146  22.967  1.00  0.00    -0.175 N 
ATOM      8  H13 UNL     1      41.412   8.474  22.708  1.00  0.00     0.186 HD
HETATM    9  C19 UNL     1      39.661   8.984  23.617  1.00  0.00     0.679 A 
HETATM   10  N15 UNL     1      38.427   8.550  23.963  1.00  0.00    -0.174 N 
ATOM     11  H15 UNL     1      37.798   9.184  24.456  1.00  0.00     0.186 HD
HETATM   12  C20 UNL     1      38.008   7.304  23.674  1.00  0.00     0.158 A 
ENDROOT
BRANCH   2  13
HETATM   13  C9  UNL     1      36.019   4.241  23.336  1.00  0.00     0.304 C 
HETATM   14  O4  UNL     1      35.133   4.032  22.501  1.00  0.00    -0.263 OA
HETATM   15  N2  UNL     1      36.167   3.272  24.402  1.00  0.00    -0.150 N 
ATOM     16  H2  UNL     1      35.867   3.511  25.348  1.00  0.00     0.188 HD
BRANCH  15  17
HETATM   17  C10 UNL     1      36.675   2.110  24.165  1.00  0.00     0.714 A 
HETATM   18  N3  UNL     1      37.957   1.884  24.501  1.00  0.00    -0.129 N 
HETATM   19  N4  UNL     1      38.545   0.695  24.282  1.00  0.00    -0.264 N 
ATOM     20  H3  UNL     1      38.497   2.633  24.933  1.00  0.00     0.205 HD
HETATM   21  C11 UNL     1      37.814  -0.274  23.713  1.00  0.00     0.182 A 
ATOM     22  H4  UNL     1      39.518   0.534  24.541  1.00  0.00     0.189 HD
HETATM   23  N9  UNL     1      36.525  -0.049  23.376  1.00  0.00    -0.264 N 
HETATM   24  N10 UNL     1      35.952   1.131  23.596  1.00  0.00    -0.129 N 
ATOM     25  H9  UNL     1      35.982  -0.796  22.944  1.00  0.00     0.189 HD
ATOM     26  H10 UNL     1      34.978   1.290  23.339  1.00  0.00     0.205 HD
BRANCH  21  27
HETATM   27  S2  UNL     1      38.536  -1.881  23.394  1.00  0.00    -0.013 SA
BRANCH  27  28
HETATM   28  C12 UNL     1      39.155  -1.973  21.723  1.00  0.00     0.182 A 
HETATM   29  N5  UNL     1      39.758  -1.020  21.015  1.00  0.00    -0.264 N 
HETATM   30  N6  UNL     1      40.073  -1.462  19.810  1.00  0.00    -0.006 NA
ATOM     31  H5  UNL     1      39.950  -0.078  21.356  1.00  0.00     0.186 HD
HETATM   32  N7  UNL     1      39.658  -2.720  19.765  1.00  0.00    -0.002 NA
HETATM   33  N8  UNL     1      39.098  -3.044  20.923  1.00  0.00    -0.232 N 
BRANCH  33  34
HETATM   34  C13 UNL     1      38.545  -4.367  21.174  1.00  0.00     0.317 C 
BRANCH  34  35
HETATM   35  O5  UNL     1      37.164  -4.346  21.109  1.00  0.00    -0.361 OA
BRANCH  35  36
HETATM   36  C14 UNL     1      36.643  -4.856  22.278  1.00  0.00     0.170 C 
BRANCH  36  37
HETATM   37  C15 UNL     1      36.520  -6.361  22.184  1.00  0.00     0.198 C 
BRANCH  37  38
HETATM   38  O6  UNL     1      35.403  -6.777  22.901  1.00  0.00    -0.398 OA
ATOM     39  H6  UNL     1      35.324  -6.253  23.690  1.00  0.00     0.209 HD
ENDBRANCH  37  38
ENDBRANCH  36  37
BRANCH  36  40
HETATM   40  C16 UNL     1      35.293  -4.214  22.556  1.00  0.00     0.198 C 
BRANCH  40  41
HETATM   41  O7  UNL     1      35.378  -2.846  22.319  1.00  0.00    -0.398 OA
ATOM     42  H7  UNL     1      34.574  -2.547  21.912  1.00  0.00     0.209 HD
ENDBRANCH  40  41
ENDBRANCH  36  40
ENDBRANCH  35  36
ENDBRANCH  34  35
ENDBRANCH  33  34
ENDBRANCH  27  28
ENDBRANCH  21  27
ENDBRANCH  15  17
ENDBRANCH   2  13
BRANCH   1  43
HETATM   43  C7  UNL     1      35.745   7.199  24.566  1.00  0.00     0.253 C 
HETATM   44  C2  UNL     1      34.614   7.726  23.782  1.00  0.00     0.077 C 
HETATM   45  C3  UNL     1      33.378   6.817  23.928  1.00  0.00     0.034 C 
HETATM   46  C4  UNL     1      34.245   9.014  24.493  1.00  0.00     0.171 C 
HETATM   47  C5  UNL     1      34.987   8.880  25.798  1.00  0.00     0.178 C 
HETATM   48  O3  UNL     1      36.140   8.148  25.500  1.00  0.00    -0.354 OA
BRANCH  44  49
HETATM   49  S1  UNL     1      34.909   8.078  22.060  1.00  0.00    -0.157 SA
HETATM   50  C1  UNL     1      35.720   9.647  21.770  1.00  0.00     0.091 C 
ENDBRANCH  44  49
BRANCH  46  51
HETATM   51  O1  UNL     1      32.882   9.158  24.705  1.00  0.00    -0.391 OA
ATOM     52  H1  UNL     1      32.362   9.069  23.915  1.00  0.00     0.210 HD
ENDBRANCH  46  51
BRANCH  47  53
HETATM   53  C6  UNL     1      35.237  10.233  26.363  1.00  0.00     0.198 C 
BRANCH  53  54
HETATM   54  O2  UNL     1      34.043  10.752  26.831  1.00  0.00    -0.398 OA
ATOM     55  H2  UNL     1      33.886  10.424  27.709  1.00  0.00     0.209 HD
ENDBRANCH  53  54
ENDBRANCH  47  53
ENDBRANCH   1  43
BRANCH   6  56
HETATM   56  N12 UNL     1      40.930   6.092  22.019  1.00  0.00    -0.383 N 
ATOM     57 2H12 UNL     1      40.615   5.202  21.636  1.00  0.00     0.157 HD
ATOM     58 1H12 UNL     1      41.910   6.348  21.896  1.00  0.00     0.157 HD
ENDBRANCH   6  56
BRANCH   9  59
HETATM   59  N14 UNL     1      40.072  10.176  23.890  1.00  0.00    -0.234 N 
ATOM     60 2H14 UNL     1      40.121  10.527  24.846  1.00  0.00     0.174 HD
ATOM     61 1H14 UNL     1      40.356  10.789  23.126  1.00  0.00     0.174 HD
ENDBRANCH   9  59
TORSDOF 18
ENDMDL
MODEL 3
REMARK VINA RESULT: -6.216540765      2.568      9.473
REMARK  18 active torsions:
REMARK  status: ('A' for Active; 'I' for Inactive)
REMARK    1  A    between atoms: S1_2  and  C2_3 
REMARK    2  A    between atoms: C4_5  and  O1_6 
REMARK    3  A    between atoms: C5_8  and  C6_9 
REMARK    4  A    between atoms: C6_9  and  O2_10 
REMARK    5  A    between atoms: C7_13  and  N1_14 
REMARK    6  A    between atoms: C8_15  and  C9_16 
REMARK       I    between atoms: C9_16  and  N2_18 
REMARK    7  A    between atoms: N2_18  and  C10_20 
REMARK    8  A    between atoms: C11_25  and  S2_26 
REMARK    9  A    between atoms: S2_26  and  C12_27 
REMARK   10  A    between atoms: N8_32  and  C13_33 
REMARK   11  A    between atoms: C13_33  and  O5_34 
REMARK   12  A    between atoms: O5_34  and  C14_35 
REMARK   13  A    between atoms: C14_35  and  C15_36 
REMARK   14  A    between atoms: C14_35  and  C16_39 
REMARK   15  A    between atoms: C15_36  and  O6_37 
REMARK   16  A    between atoms: C16_39  and  O7_40 
REMARK   17  A    between atoms: C18_49  and  N12_50 
REMARK   18  A    between atoms: C19_55  and  N14_56 
ROOT
HETATM    1  N1  UNL     1      38.350  -1.042  23.453  1.00  0.00    -0.283 N 
HETATM    2  C8  UNL     1      37.063  -0.800  23.731  1.00  0.00     0.182 A 
HETATM    3  N11 UNL     1      36.365  -1.880  23.246  1.00  0.00    -0.332 N 
ATOM      4  H11 UNL     1      35.353  -1.997  23.304  1.00  0.00     0.168 HD
HETATM    5  C17 UNL     1      37.202  -2.751  22.690  1.00  0.00     0.124 A 
HETATM    6  C18 UNL     1      36.996  -3.983  22.061  1.00  0.00     0.145 A 
HETATM    7  N13 UNL     1      38.065  -4.636  21.589  1.00  0.00    -0.175 N 
ATOM      8  H13 UNL     1      37.927  -5.537  21.131  1.00  0.00     0.186 HD
HETATM    9  C19 UNL     1      39.311  -4.151  21.695  1.00  0.00     0.679 A 
HETATM   10  N15 UNL     1      39.497  -2.958  22.305  1.00  0.00    -0.174 N 
ATOM     11  H15 UNL     1      40.443  -2.585  22.387  1.00  0.00     0.186 HD
HETATM   12  C20 UNL     1      38.467  -2.250  22.805  1.00  0.00     0.158 A 
ENDROOT
BRANCH   2  13
HETATM   13  C9  UNL     1      36.403   0.328  24.399  1.00  0.00     0.304 C 
HETATM   14  O4  UNL     1      36.440   0.617  25.600  1.00  0.00    -0.263 OA
HETATM   15  N2  UNL     1      35.624   1.190  23.535  1.00  0.00    -0.150 N 
ATOM     16  H2  UNL     1      34.732   0.863  23.163  1.00  0.00     0.188 HD
BRANCH  15  17
HETATM   17  C10 UNL     1      36.050   2.370  23.230  1.00  0.00     0.714 A 
HETATM   18  N3  UNL     1      36.137   3.297  24.200  1.00  0.00    -0.129 N 
HETATM   19  N4  UNL     1      36.574   4.543  23.949  1.00  0.00    -0.264 N 
ATOM     20  H3  UNL     1      35.864   3.048  25.151  1.00  0.00     0.205 HD
HETATM   21  C11 UNL     1      36.927   4.845  22.692  1.00  0.00     0.182 A 
ATOM     22  H4  UNL     1      36.635   5.238  24.693  1.00  0.00     0.189 HD
HETATM   23  N9  UNL     1      36.842   3.915  21.716  1.00  0.00    -0.264 N 
HETATM   24  N10 UNL     1      36.408   2.684  21.974  1.00  0.00    -0.129 N 
ATOM     25  H9  UNL     1      37.115   4.160  20.765  1.00  0.00     0.189 HD
ATOM     26  H10 UNL     1      36.349   1.989  21.230  1.00  0.00     0.205 HD
BRANCH  21  27
HETATM   27  S2  UNL     1      37.518   6.487  22.290  1.00  0.00    -0.013 SA
BRANCH  27  28
HETATM   28  C12 UNL     1      38.333   7.224  23.696  1.00  0.00     0.182 A 
HETATM   29  N5  UNL     1      39.602   7.087  24.076  1.00  0.00    -0.264 N 
HETATM   30  N6  UNL     1      39.838   7.788  25.171  1.00  0.00    -0.006 NA
ATOM     31  H5  UNL     1      40.295   6.520  23.590  1.00  0.00     0.186 HD
HETATM   32  N7  UNL     1      38.691   8.376  25.481  1.00  0.00    -0.002 NA
HETATM   33  N8  UNL     1      37.767   8.041  24.591  1.00  0.00    -0.232 N 
BRANCH  33  34
HETATM   34  C13 UNL     1      36.400   8.535  24.669  1.00  0.00     0.317 C 
BRANCH  34  35
HETATM   35  O5  UNL     1      35.521   7.512  24.976  1.00  0.00    -0.361 OA
BRANCH  35  36
HETATM   36  C14 UNL     1      34.251   7.864  24.574  1.00  0.00     0.170 C 
BRANCH  36  37
HETATM   37  C15 UNL     1      33.484   6.637  24.133  1.00  0.00     0.198 C 
BRANCH  37  38
HETATM   38  O6  UNL     1      32.195   6.689  24.652  1.00  0.00    -0.398 OA
ATOM     39  H6  UNL     1      31.570   6.738  23.938  1.00  0.00     0.209 HD
ENDBRANCH  37  38
ENDBRANCH  36  37
BRANCH  36  40
HETATM   40  C16 UNL     1      34.338   8.886  23.452  1.00  0.00     0.198 C 
BRANCH  40  41
HETATM   41  O7  UNL     1      33.156   8.862  22.718  1.00  0.00    -0.398 OA
ATOM     42  H7  UNL     1      33.360   8.925  21.793  1.00  0.00     0.209 HD
ENDBRANCH  40  41
ENDBRANCH  36  40
ENDBRANCH  35  36
ENDBRANCH  34  35
ENDBRANCH  33  34
ENDBRANCH  27  28
ENDBRANCH  21  27
ENDBRANCH  15  17
ENDBRANCH   2  13
BRANCH   1  43
HETATM   43  C7  UNL     1      39.495  -0.251  23.738  1.00  0.00     0.253 C 
HETATM   44  C2  UNL     1      39.918   0.780  22.773  1.00  0.00     0.077 C 
HETATM   45  C3  UNL     1      39.608   2.190  23.311  1.00  0.00     0.034 C 
HETATM   46  C4  UNL     1      41.431   0.681  22.771  1.00  0.00     0.171 C 
HETATM   47  C5  UNL     1      41.696  -0.157  23.995  1.00  0.00     0.178 C 
HETATM   48  O3  UNL     1      40.596  -1.012  24.110  1.00  0.00    -0.354 OA
BRANCH  44  49
HETATM   49  S1  UNL     1      39.323   0.624  21.101  1.00  0.00    -0.157 SA
HETATM   50  C1  UNL     1      40.427  -0.282  20.021  1.00  0.00     0.091 C 
ENDBRANCH  44  49
BRANCH  46  51
HETATM   51  O1  UNL     1      42.067   1.910  22.859  1.00  0.00    -0.391 OA
ATOM     52  H1  UNL     1      42.984   1.882  22.613  1.00  0.00     0.210 HD
ENDBRANCH  46  51
BRANCH  47  53
HETATM   53  C6  UNL     1      43.006  -0.845  23.847  1.00  0.00     0.198 C 
BRANCH  53  54
HETATM   54  O2  UNL     1      44.002  -0.030  24.355  1.00  0.00    -0.398 OA
ATOM     55  H2  UNL     1      43.835   0.123  25.278  1.00  0.00     0.209 HD
ENDBRANCH  53  54
ENDBRANCH  47  53
ENDBRANCH   1  43
BRANCH   6  56
HETATM   56  N12 UNL     1      35.795  -4.461  21.954  1.00  0.00    -0.383 N 
ATOM     57 2H12 UNL     1      34.968  -3.886  22.111  1.00  0.00     0.157 HD
ATOM     58 1H12 UNL     1      35.659  -5.440  21.704  1.00  0.00     0.157 HD
ENDBRANCH   6  56
BRANCH   9  59
HETATM   59  N14 UNL     1      40.292  -4.837  21.214  1.00  0.00    -0.234 N 
ATOM     60 2H14 UNL     1      40.234  -5.846  21.077  1.00  0.00     0.174 HD
ATOM     61 1H14 UNL     1      41.156  -4.356  20.963  1.00  0.00     0.174 HD
ENDBRANCH   9  59
TORSDOF 18
ENDMDL
MODEL 4
REMARK VINA RESULT: -5.938858301      2.923      4.083
REMARK  18 active torsions:
REMARK  status: ('A' for Active; 'I' for Inactive)
REMARK    1  A    between atoms: S1_2  and  C2_3 
REMARK    2  A    between atoms: C4_5  and  O1_6 
REMARK    3  A    between atoms: C5_8  and  C6_9 
REMARK    4  A    between atoms: C6_9  and  O2_10 
REMARK    5  A    between atoms: C7_13  and  N1_14 
REMARK    6  A    between atoms: C8_15  and  C9_16 
REMARK       I    between atoms: C9_16  and  N2_18 
REMARK    7  A    between atoms: N2_18  and  C10_20 
REMARK    8  A    between atoms: C11_25  and  S2_26 
REMARK    9  A    between atoms: S2_26  and  C12_27 
REMARK   10  A    between atoms: N8_32  and  C13_33 
REMARK   11  A    between atoms: C13_33  and  O5_34 
REMARK   12  A    between atoms: O5_34  and  C14_35 
REMARK   13  A    between atoms: C14_35  and  C15_36 
REMARK   14  A    between atoms: C14_35  and  C16_39 
REMARK   15  A    between atoms: C15_36  and  O6_37 
REMARK   16  A    between atoms: C16_39  and  O7_40 
REMARK   17  A    between atoms: C18_49  and  N12_50 
REMARK   18  A    between atoms: C19_55  and  N14_56 
ROOT
HETATM    1  N1  UNL     1      36.776   6.751  23.898  1.00  0.00    -0.283 N 
HETATM    2  C8  UNL     1      36.872   5.525  23.367  1.00  0.00     0.182 A 
HETATM    3  N11 UNL     1      38.135   5.446  22.832  1.00  0.00    -0.332 N 
ATOM      4  H11 UNL     1      38.516   4.631  22.351  1.00  0.00     0.168 HD
HETATM    5  C17 UNL     1      38.787   6.587  23.031  1.00  0.00     0.124 A 
HETATM    6  C18 UNL     1      40.074   7.008  22.681  1.00  0.00     0.145 A 
HETATM    7  N13 UNL     1      40.447   8.246  23.027  1.00  0.00    -0.175 N 
ATOM      8  H13 UNL     1      41.385   8.562  22.779  1.00  0.00     0.186 HD
HETATM    9  C19 UNL     1      39.637   9.086  23.687  1.00  0.00     0.679 A 
HETATM   10  N15 UNL     1      38.394   8.668  24.018  1.00  0.00    -0.174 N 
ATOM     11  H15 UNL     1      37.773   9.303  24.519  1.00  0.00     0.186 HD
HETATM   12  C20 UNL     1      37.955   7.435  23.704  1.00  0.00     0.158 A 
ENDROOT
BRANCH   2  13
HETATM   13  C9  UNL     1      35.916   4.413  23.298  1.00  0.00     0.304 C 
HETATM   14  O4  UNL     1      34.969   4.284  22.515  1.00  0.00    -0.263 OA
HETATM   15  N2  UNL     1      36.122   3.357  24.267  1.00  0.00    -0.150 N 
ATOM     16  H2  UNL     1      35.894   3.518  25.248  1.00  0.00     0.188 HD
BRANCH  15  17
HETATM   17  C10 UNL     1      36.593   2.213  23.898  1.00  0.00     0.714 A 
HETATM   18  N3  UNL     1      36.799   1.268  24.830  1.00  0.00    -0.129 N 
HETATM   19  N4  UNL     1      37.286   0.056  24.512  1.00  0.00    -0.264 N 
ATOM     20  H3  UNL     1      36.579   1.474  25.805  1.00  0.00     0.205 HD
HETATM   21  C11 UNL     1      37.566  -0.192  23.224  1.00  0.00     0.182 A 
ATOM     22  H4  UNL     1      37.437  -0.654  25.228  1.00  0.00     0.189 HD
HETATM   23  N9  UNL     1      37.358   0.757  22.286  1.00  0.00    -0.264 N 
HETATM   24  N10 UNL     1      36.876   1.953  22.611  1.00  0.00    -0.129 N 
ATOM     25  H9  UNL     1      37.576   0.553  21.311  1.00  0.00     0.189 HD
ATOM     26  H10 UNL     1      36.723   2.663  21.894  1.00  0.00     0.205 HD
BRANCH  21  27
HETATM   27  S2  UNL     1      38.216  -1.786  22.732  1.00  0.00    -0.013 SA
BRANCH  27  28
HETATM   28  C12 UNL     1      36.927  -3.019  22.732  1.00  0.00     0.182 A 
HETATM   29  N5  UNL     1      35.612  -2.835  22.627  1.00  0.00    -0.264 N 
HETATM   30  N6  UNL     1      34.974  -3.991  22.667  1.00  0.00    -0.006 NA
ATOM     31  H5  UNL     1      35.160  -1.926  22.529  1.00  0.00     0.186 HD
HETATM   32  N7  UNL     1      35.913  -4.919  22.800  1.00  0.00    -0.002 NA
HETATM   33  N8  UNL     1      37.105  -4.341  22.840  1.00  0.00    -0.232 N 
BRANCH  33  34
HETATM   34  C13 UNL     1      38.335  -5.107  22.981  1.00  0.00     0.317 C 
BRANCH  34  35
HETATM   35  O5  UNL     1      38.648  -5.299  24.314  1.00  0.00    -0.361 OA
BRANCH  35  36
HETATM   36  C14 UNL     1      40.000  -5.111  24.498  1.00  0.00     0.170 C 
BRANCH  36  37
HETATM   37  C15 UNL     1      40.779  -5.820  23.412  1.00  0.00     0.198 C 
BRANCH  37  38
HETATM   38  O6  UNL     1      41.207  -7.056  23.885  1.00  0.00    -0.398 OA
ATOM     39  H6  UNL     1      40.591  -7.727  23.613  1.00  0.00     0.209 HD
ENDBRANCH  37  38
ENDBRANCH  36  37
BRANCH  36  40
HETATM   40  C16 UNL     1      40.401  -5.617  25.875  1.00  0.00     0.198 C 
BRANCH  40  41
HETATM   41  O7  UNL     1      39.416  -6.476  26.352  1.00  0.00    -0.398 OA
ATOM     42  H7  UNL     1      39.812  -7.116  26.932  1.00  0.00     0.209 HD
ENDBRANCH  40  41
ENDBRANCH  36  40
ENDBRANCH  35  36
ENDBRANCH  34  35
ENDBRANCH  33  34
ENDBRANCH  27  28
ENDBRANCH  21  27
ENDBRANCH  15  17
ENDBRANCH   2  13
BRANCH   1  43
HETATM   43  C7  UNL     1      35.685   7.353  24.580  1.00  0.00     0.253 C 
HETATM   44  C2  UNL     1      34.565   7.906  23.800  1.00  0.00     0.077 C 
HETATM   45  C3  UNL     1      33.316   7.013  23.930  1.00  0.00     0.034 C 
HETATM   46  C4  UNL     1      34.211   9.189  24.526  1.00  0.00     0.171 C 
HETATM   47  C5  UNL     1      34.947   9.029  25.832  1.00  0.00     0.178 C 
HETATM   48  O3  UNL     1      36.090   8.284  25.528  1.00  0.00    -0.354 OA
BRANCH  44  49
HETATM   49  S1  UNL     1      34.870   8.276  22.084  1.00  0.00    -0.157 SA
HETATM   50  C1  UNL     1      35.693   9.843  21.816  1.00  0.00     0.091 C 
ENDBRANCH  44  49
BRANCH  46  51
HETATM   51  O1  UNL     1      32.850   9.350  24.737  1.00  0.00    -0.391 OA
ATOM     52  H1  UNL     1      32.609   9.383  25.655  1.00  0.00     0.210 HD
ENDBRANCH  46  51
BRANCH  47  53
HETATM   53  C6  UNL     1      35.214  10.370  26.415  1.00  0.00     0.198 C 
BRANCH  53  54
HETATM   54  O2  UNL     1      34.014  10.939  26.802  1.00  0.00    -0.398 OA
ATOM     55  H2  UNL     1      34.104  11.885  26.791  1.00  0.00     0.209 HD
ENDBRANCH  53  54
ENDBRANCH  47  53
ENDBRANCH   1  43
BRANCH   6  56
HETATM   56  N12 UNL     1      40.866   6.203  22.044  1.00  0.00    -0.383 N 
ATOM     57 2H12 UNL     1      40.982   6.245  21.032  1.00  0.00     0.157 HD
ATOM     58 1H12 UNL     1      41.398   5.500  22.558  1.00  0.00     0.157 HD
ENDBRANCH   6  56
BRANCH   9  59
HETATM   59  N14 UNL     1      40.067  10.265  23.985  1.00  0.00    -0.234 N 
ATOM     60 2H14 UNL     1      41.035  10.545  23.832  1.00  0.00     0.174 HD
ATOM     61 1H14 UNL     1      39.418  10.942  24.386  1.00  0.00     0.174 HD
ENDBRANCH   9  59
TORSDOF 18
ENDMDL
MODEL 5
REMARK VINA RESULT: -5.918744979      1.982      2.659
REMARK  18 active torsions:
REMARK  status: ('A' for Active; 'I' for Inactive)
REMARK    1  A    between atoms: S1_2  and  C2_3 
REMARK    2  A    between atoms: C4_5  and  O1_6 
REMARK    3  A    between atoms: C5_8  and  C6_9 
REMARK    4  A    between atoms: C6_9  and  O2_10 
REMARK    5  A    between atoms: C7_13  and  N1_14 
REMARK    6  A    between atoms: C8_15  and  C9_16 
REMARK       I    between atoms: C9_16  and  N2_18 
REMARK    7  A    between atoms: N2_18  and  C10_20 
REMARK    8  A    between atoms: C11_25  and  S2_26 
REMARK    9  A    between atoms: S2_26  and  C12_27 
REMARK   10  A    between atoms: N8_32  and  C13_33 
REMARK   11  A    between atoms: C13_33  and  O5_34 
REMARK   12  A    between atoms: O5_34  and  C14_35 
REMARK   13  A    between atoms: C14_35  and  C15_36 
REMARK   14  A    between atoms: C14_35  and  C16_39 
REMARK   15  A    between atoms: C15_36  and  O6_37 
REMARK   16  A    between atoms: C16_39  and  O7_40 
REMARK   17  A    between atoms: C18_49  and  N12_50 
REMARK   18  A    between atoms: C19_55  and  N14_56 
ROOT
HETATM    1  N1  UNL     1      36.875   6.738  23.793  1.00  0.00    -0.283 N 
HETATM    2  C8  UNL     1      37.054   5.496  23.326  1.00  0.00     0.182 A 
HETATM    3  N11 UNL     1      38.283   5.499  22.712  1.00  0.00    -0.332 N 
ATOM      4  H11 UNL     1      38.710   4.694  22.253  1.00  0.00     0.168 HD
HETATM    5  C17 UNL     1      38.834   6.706  22.801  1.00  0.00     0.124 A 
HETATM    6  C18 UNL     1      40.051   7.221  22.343  1.00  0.00     0.145 A 
HETATM    7  N13 UNL     1      40.325   8.507  22.592  1.00  0.00    -0.175 N 
ATOM      8  H13 UNL     1      41.211   8.892  22.264  1.00  0.00     0.186 HD
HETATM    9  C19 UNL     1      39.481   9.308  23.257  1.00  0.00     0.679 A 
HETATM   10  N15 UNL     1      38.306   8.799  23.695  1.00  0.00    -0.174 N 
ATOM     11  H15 UNL     1      37.660   9.405  24.200  1.00  0.00     0.186 HD
HETATM   12  C20 UNL     1      37.968   7.514  23.481  1.00  0.00     0.158 A 
ENDROOT
BRANCH   2  13
HETATM   13  C9  UNL     1      36.206   4.299  23.385  1.00  0.00     0.304 C 
HETATM   14  O4  UNL     1      35.134   4.108  22.801  1.00  0.00    -0.263 OA
HETATM   15  N2  UNL     1      36.700   3.230  24.228  1.00  0.00    -0.150 N 
ATOM     16  H2  UNL     1      36.665   3.328  25.243  1.00  0.00     0.188 HD
BRANCH  15  17
HETATM   17  C10 UNL     1      37.184   2.154  23.704  1.00  0.00     0.714 A 
HETATM   18  N3  UNL     1      37.113   1.994  22.372  1.00  0.00    -0.129 N 
HETATM   19  N4  UNL     1      37.599   0.898  21.765  1.00  0.00    -0.264 N 
ATOM     20  H3  UNL     1      36.679   2.724  21.806  1.00  0.00     0.205 HD
HETATM   21  C11 UNL     1      38.165  -0.046  22.530  1.00  0.00     0.182 A 
ATOM     22  H4  UNL     1      37.540   0.787  20.753  1.00  0.00     0.189 HD
HETATM   23  N9  UNL     1      38.239   0.113  23.870  1.00  0.00    -0.264 N 
HETATM   24  N10 UNL     1      37.755   1.202  24.461  1.00  0.00    -0.129 N 
ATOM     25  H9  UNL     1      38.673  -0.614  24.437  1.00  0.00     0.189 HD
ATOM     26  H10 UNL     1      37.816   1.313  25.473  1.00  0.00     0.205 HD
BRANCH  21  27
HETATM   27  S2  UNL     1      38.834  -1.532  21.785  1.00  0.00    -0.013 SA
BRANCH  27  28
HETATM   28  C12 UNL     1      38.830  -2.879  22.954  1.00  0.00     0.182 A 
HETATM   29  N5  UNL     1      37.901  -3.819  23.124  1.00  0.00    -0.264 N 
HETATM   30  N6  UNL     1      38.249  -4.649  24.090  1.00  0.00    -0.006 NA
ATOM     31  H5  UNL     1      37.040  -3.888  22.581  1.00  0.00     0.186 HD
HETATM   32  N7  UNL     1      39.422  -4.219  24.535  1.00  0.00    -0.002 NA
HETATM   33  N8  UNL     1      39.786  -3.143  23.852  1.00  0.00    -0.232 N 
BRANCH  33  34
HETATM   34  C13 UNL     1      41.035  -2.443  24.115  1.00  0.00     0.317 C 
BRANCH  34  35
HETATM   35  O5  UNL     1      40.814  -1.302  24.865  1.00  0.00    -0.361 OA
BRANCH  35  36
HETATM   36  C14 UNL     1      41.533  -0.255  24.329  1.00  0.00     0.170 C 
BRANCH  36  37
HETATM   37  C15 UNL     1      42.968  -0.672  24.094  1.00  0.00     0.198 C 
BRANCH  37  38
HETATM   38  O6  UNL     1      43.814   0.165  24.813  1.00  0.00    -0.398 OA
ATOM     39  H6  UNL     1      43.423   1.029  24.874  1.00  0.00     0.209 HD
ENDBRANCH  37  38
ENDBRANCH  36  37
BRANCH  36  40
HETATM   40  C16 UNL     1      41.458   0.943  25.262  1.00  0.00     0.198 C 
BRANCH  40  41
HETATM   41  O7  UNL     1      40.355   0.804  26.099  1.00  0.00    -0.398 OA
ATOM     42  H7  UNL     1      40.653   0.613  26.980  1.00  0.00     0.209 HD
ENDBRANCH  40  41
ENDBRANCH  36  40
ENDBRANCH  35  36
ENDBRANCH  34  35
ENDBRANCH  33  34
ENDBRANCH  27  28
ENDBRANCH  21  27
ENDBRANCH  15  17
ENDBRANCH   2  13
BRANCH   1  43
HETATM   43  C7  UNL     1      35.775   7.279  24.512  1.00  0.00     0.253 C 
HETATM   44  C2  UNL     1      34.589   7.744  23.772  1.00  0.00     0.077 C 
HETATM   45  C3  UNL     1      33.409   6.773  23.968  1.00  0.00     0.034 C 
HETATM   46  C4  UNL     1      34.182   9.014  24.495  1.00  0.00     0.171 C 
HETATM   47  C5  UNL     1      34.981   8.924  25.770  1.00  0.00     0.178 C 
HETATM   48  O3  UNL     1      36.157   8.251  25.428  1.00  0.00    -0.354 OA
BRANCH  44  49
HETATM   49  S1  UNL     1      34.797   8.104  22.040  1.00  0.00    -0.157 SA
HETATM   50  C1  UNL     1      34.869   9.853  21.667  1.00  0.00     0.091 C 
ENDBRANCH  44  49
BRANCH  46  51
HETATM   51  O1  UNL     1      32.823   9.088  24.761  1.00  0.00    -0.391 OA
ATOM     52  H1  UNL     1      32.296   8.523  24.208  1.00  0.00     0.210 HD
ENDBRANCH  46  51
BRANCH  47  53
HETATM   53  C6  UNL     1      35.182  10.289  26.322  1.00  0.00     0.198 C 
BRANCH  53  54
HETATM   54  O2  UNL     1      33.953  10.824  26.661  1.00  0.00    -0.398 OA
ATOM     55  H2  UNL     1      34.064  11.743  26.875  1.00  0.00     0.209 HD
ENDBRANCH  53  54
ENDBRANCH  47  53
ENDBRANCH   1  43
BRANCH   6  56
HETATM   56  N12 UNL     1      40.875   6.453  21.699  1.00  0.00    -0.383 N 
ATOM     57 2H12 UNL     1      41.723   6.087  22.131  1.00  0.00     0.157 HD
ATOM     58 1H12 UNL     1      40.681   6.198  20.731  1.00  0.00     0.157 HD
ENDBRANCH   6  56
BRANCH   9  59
HETATM   59  N14 UNL     1      39.813  10.538  23.458  1.00  0.00    -0.234 N 
ATOM     60 2H14 UNL     1      40.778  10.819  23.630  1.00  0.00     0.174 HD
ATOM     61 1H14 UNL     1      39.088  11.256  23.445  1.00  0.00     0.174 HD
ENDBRANCH   9  59
TORSDOF 18
ENDMDL
