MODEL 1
REMARK VINA RESULT: -6.218711135      0.000      0.000
REMARK  4 active torsions:
REMARK  status: ('A' for Active; 'I' for Inactive)
REMARK    1  A    between atoms: N1_6  and  C5_8 
REMARK    2  A    between atoms: C5_8  and  C6_9 
REMARK    3  A    between atoms: C6_9  and  N2_10 
REMARK    4  A    between atoms: N2_10  and  C7_12 
ROOT
HETATM    1  C5  UNL     1      13.274  -0.500  21.515  1.00  0.00     0.143 C 
ENDROOT
BRANCH   1   2
HETATM    2  N1  UNL     1      12.088  -0.363  20.714  1.00  0.00    -0.354 N 
HETATM    3  C4  UNL     1      11.587  -1.336  20.018  1.00  0.00     0.224 A 
HETATM    4  O1  UNL     1      10.508  -1.201  19.292  1.00  0.00    -0.290 OA
HETATM    5  N4  UNL     1      12.037  -2.604  19.902  1.00  0.00    -0.324 N 
HETATM    6  C3  UNL     1      10.222  -2.334  18.694  1.00  0.00     0.170 A 
HETATM    7  C2  UNL     1      11.192  -3.231  19.079  1.00  0.00     0.031 A 
HETATM    8  C1  UNL     1      11.348  -4.664  18.696  1.00  0.00     0.070 C 
ATOM      9  H4  UNL     1      12.860  -3.004  20.354  1.00  0.00     0.169 HD
ATOM     10  H1  UNL     1      11.618   0.542  20.692  1.00  0.00     0.163 HD
ENDBRANCH   1   2
BRANCH   1  11
HETATM   11  C6  UNL     1      14.397   0.374  21.002  1.00  0.00     0.141 C 
BRANCH  11  12
HETATM   12  N2  UNL     1      15.531   0.344  21.907  1.00  0.00    -0.375 N 
ATOM     13  H2  UNL     1      16.196  -0.428  21.892  1.00  0.00     0.161 HD
BRANCH  12  14
HETATM   14  C7  UNL     1      15.668   1.327  22.731  1.00  0.00     0.100 A 
HETATM   15  C8  UNL     1      15.684   2.652  22.303  1.00  0.00     0.048 A 
HETATM   16  C9  UNL     1      15.830   3.710  23.173  1.00  0.00     0.005 A 
HETATM   17  C10 UNL     1      15.962   3.406  24.512  1.00  0.00     0.017 A 
HETATM   18  C11 UNL     1      15.946   2.086  24.935  1.00  0.00     0.089 A 
HETATM   19  N3  UNL     1      15.802   1.084  24.050  1.00  0.00    -0.353 N 
ATOM     20  H3  UNL     1      15.793   0.121  24.384  1.00  0.00     0.166 HD
ENDBRANCH  12  14
ENDBRANCH  11  12
ENDBRANCH   1  11
TORSDOF 4
ENDMDL
MODEL 2
REMARK VINA RESULT: -6.172658837      1.091      1.470
REMARK  4 active torsions:
REMARK  status: ('A' for Active; 'I' for Inactive)
REMARK    1  A    between atoms: N1_6  and  C5_8 
REMARK    2  A    between atoms: C5_8  and  C6_9 
REMARK    3  A    between atoms: C6_9  and  N2_10 
REMARK    4  A    between atoms: N2_10  and  C7_12 
ROOT
HETATM    1  C5  UNL     1      13.467   0.192  21.180  1.00  0.00     0.143 C 
ENDROOT
BRANCH   1   2
HETATM    2  N1  UNL     1      13.009  -0.485  19.998  1.00  0.00    -0.354 N 
HETATM    3  C4  UNL     1      11.845  -1.049  19.912  1.00  0.00     0.224 A 
HETATM    4  O1  UNL     1      11.437  -1.664  18.832  1.00  0.00    -0.290 OA
HETATM    5  N4  UNL     1      10.873  -1.119  20.849  1.00  0.00    -0.324 N 
HETATM    6  C3  UNL     1      10.228  -2.142  19.014  1.00  0.00     0.170 A 
HETATM    7  C2  UNL     1       9.864  -1.799  20.296  1.00  0.00     0.031 A 
HETATM    8  C1  UNL     1       8.593  -2.089  21.020  1.00  0.00     0.070 C 
ATOM      9  H4  UNL     1      10.904  -0.730  21.791  1.00  0.00     0.169 HD
ATOM     10  H1  UNL     1      13.628  -0.523  19.189  1.00  0.00     0.163 HD
ENDBRANCH   1   2
BRANCH   1  11
HETATM   11  C6  UNL     1      14.695  -0.473  21.763  1.00  0.00     0.141 C 
BRANCH  11  12
HETATM   12  N2  UNL     1      15.827   0.435  21.757  1.00  0.00    -0.375 N 
ATOM     13  H2  UNL     1      16.578   0.336  21.073  1.00  0.00     0.161 HD
BRANCH  12  14
HETATM   14  C7  UNL     1      15.853   1.370  22.645  1.00  0.00     0.100 A 
HETATM   15  C8  UNL     1      15.831   2.719  22.297  1.00  0.00     0.048 A 
HETATM   16  C9  UNL     1      15.858   3.726  23.236  1.00  0.00     0.005 A 
HETATM   17  C10 UNL     1      15.907   3.346  24.561  1.00  0.00     0.017 A 
HETATM   18  C11 UNL     1      15.930   2.003  24.904  1.00  0.00     0.089 A 
HETATM   19  N3  UNL     1      15.902   1.052  23.954  1.00  0.00    -0.353 N 
ATOM     20  H3  UNL     1      15.919   0.071  24.229  1.00  0.00     0.166 HD
ENDBRANCH  12  14
ENDBRANCH  11  12
ENDBRANCH   1  11
TORSDOF 4
ENDMDL
MODEL 3
REMARK VINA RESULT: -6.131110322      0.658      1.189
REMARK  4 active torsions:
REMARK  status: ('A' for Active; 'I' for Inactive)
REMARK    1  A    between atoms: N1_6  and  C5_8 
REMARK    2  A    between atoms: C5_8  and  C6_9 
REMARK    3  A    between atoms: C6_9  and  N2_10 
REMARK    4  A    between atoms: N2_10  and  C7_12 
ROOT
HETATM    1  C5  UNL     1      13.229  -0.535  21.542  1.00  0.00     0.143 C 
ENDROOT
BRANCH   1   2
HETATM    2  N1  UNL     1      12.034  -0.399  20.755  1.00  0.00    -0.354 N 
HETATM    3  C4  UNL     1      11.544  -1.363  20.040  1.00  0.00     0.224 A 
HETATM    4  O1  UNL     1      10.455  -1.229  19.327  1.00  0.00    -0.290 OA
HETATM    5  N4  UNL     1      12.014  -2.620  19.889  1.00  0.00    -0.324 N 
HETATM    6  C3  UNL     1      10.183  -2.352  18.704  1.00  0.00     0.170 A 
HETATM    7  C2  UNL     1      11.172  -3.241  19.058  1.00  0.00     0.031 A 
HETATM    8  C1  UNL     1      11.350  -4.662  18.639  1.00  0.00     0.070 C 
ATOM      9  H4  UNL     1      12.847  -3.017  20.324  1.00  0.00     0.169 HD
ATOM     10  H1  UNL     1      11.549   0.498  20.759  1.00  0.00     0.163 HD
ENDBRANCH   1   2
BRANCH   1  11
HETATM   11  C6  UNL     1      14.359   0.305  20.989  1.00  0.00     0.141 C 
BRANCH  11  12
HETATM   12  N2  UNL     1      15.497   0.299  21.890  1.00  0.00    -0.375 N 
ATOM     13  H2  UNL     1      16.165  -0.472  21.890  1.00  0.00     0.161 HD
BRANCH  12  14
HETATM   14  C7  UNL     1      15.636   1.301  22.691  1.00  0.00     0.100 A 
HETATM   15  C8  UNL     1      15.793   1.131  24.064  1.00  0.00     0.048 A 
HETATM   16  C9  UNL     1      15.942   2.192  24.929  1.00  0.00     0.005 A 
HETATM   17  C10 UNL     1      15.931   3.456  24.378  1.00  0.00     0.017 A 
HETATM   18  C11 UNL     1      15.774   3.623  23.010  1.00  0.00     0.089 A 
HETATM   19  N3  UNL     1      15.631   2.557  22.203  1.00  0.00    -0.353 N 
ATOM     20  H3  UNL     1      15.517   2.703  21.200  1.00  0.00     0.166 HD
ENDBRANCH  12  14
ENDBRANCH  11  12
ENDBRANCH   1  11
TORSDOF 4
ENDMDL
MODEL 4
REMARK VINA RESULT: -6.074592315      1.261      1.492
REMARK  4 active torsions:
REMARK  status: ('A' for Active; 'I' for Inactive)
REMARK    1  A    between atoms: N1_6  and  C5_8 
REMARK    2  A    between atoms: C5_8  and  C6_9 
REMARK    3  A    between atoms: C6_9  and  N2_10 
REMARK    4  A    between atoms: N2_10  and  C7_12 
ROOT
HETATM    1  C5  UNL     1      13.572  -0.319  22.434  1.00  0.00     0.143 C 
ENDROOT
BRANCH   1   2
HETATM    2  N1  UNL     1      13.643   0.003  21.035  1.00  0.00    -0.354 N 
HETATM    3  C4  UNL     1      12.858  -0.521  20.147  1.00  0.00     0.224 A 
HETATM    4  O1  UNL     1      12.931  -0.221  18.876  1.00  0.00    -0.290 OA
HETATM    5  N4  UNL     1      11.867  -1.421  20.328  1.00  0.00    -0.324 N 
HETATM    6  C3  UNL     1      12.025  -0.890  18.201  1.00  0.00     0.170 A 
HETATM    7  C2  UNL     1      11.345  -1.656  19.121  1.00  0.00     0.031 A 
HETATM    8  C1  UNL     1      10.214  -2.603  18.899  1.00  0.00     0.070 C 
ATOM      9  H4  UNL     1      11.575  -1.839  21.211  1.00  0.00     0.169 HD
ATOM     10  H1  UNL     1      14.345   0.676  20.726  1.00  0.00     0.163 HD
ENDBRANCH   1   2
BRANCH   1  11
HETATM   11  C6  UNL     1      14.931  -0.676  22.994  1.00  0.00     0.141 C 
BRANCH  11  12
HETATM   12  N2  UNL     1      15.937   0.275  22.558  1.00  0.00    -0.375 N 
ATOM     13  H2  UNL     1      16.585   0.048  21.804  1.00  0.00     0.161 HD
BRANCH  12  14
HETATM   14  C7  UNL     1      15.984   1.417  23.156  1.00  0.00     0.100 A 
HETATM   15  C8  UNL     1      15.910   2.619  22.456  1.00  0.00     0.048 A 
HETATM   16  C9  UNL     1      15.959   3.845  23.083  1.00  0.00     0.005 A 
HETATM   17  C10 UNL     1      16.084   3.841  24.456  1.00  0.00     0.017 A 
HETATM   18  C11 UNL     1      16.158   2.643  25.150  1.00  0.00     0.089 A 
HETATM   19  N3  UNL     1      16.106   1.469  24.497  1.00  0.00    -0.353 N 
ATOM     20  H3  UNL     1      16.162   0.600  25.027  1.00  0.00     0.166 HD
ENDBRANCH  12  14
ENDBRANCH  11  12
ENDBRANCH   1  11
TORSDOF 4
ENDMDL
MODEL 5
REMARK VINA RESULT: -6.061504200      1.445      2.012
REMARK  4 active torsions:
REMARK  status: ('A' for Active; 'I' for Inactive)
REMARK    1  A    between atoms: N1_6  and  C5_8 
REMARK    2  A    between atoms: C5_8  and  C6_9 
REMARK    3  A    between atoms: C6_9  and  N2_10 
REMARK    4  A    between atoms: N2_10  and  C7_12 
ROOT
HETATM    1  C5  UNL     1      13.652  -0.159  22.406  1.00  0.00     0.143 C 
ENDROOT
BRANCH   1   2
HETATM    2  N1  UNL     1      13.773   0.180  21.014  1.00  0.00    -0.354 N 
HETATM    3  C4  UNL     1      13.004  -0.316  20.096  1.00  0.00     0.224 A 
HETATM    4  O1  UNL     1      13.123  -0.002  18.831  1.00  0.00    -0.290 OA
HETATM    5  N4  UNL     1      11.990  -1.197  20.234  1.00  0.00    -0.324 N 
HETATM    6  C3  UNL     1      12.224  -0.643  18.121  1.00  0.00     0.170 A 
HETATM    7  C2  UNL     1      11.500  -1.405  19.009  1.00  0.00     0.031 A 
HETATM    8  C1  UNL     1      10.358  -2.326  18.740  1.00  0.00     0.070 C 
ATOM      9  H4  UNL     1      11.663  -1.620  21.103  1.00  0.00     0.169 HD
ATOM     10  H1  UNL     1      14.498   0.842  20.736  1.00  0.00     0.163 HD
ENDBRANCH   1   2
BRANCH   1  11
HETATM   11  C6  UNL     1      14.983  -0.565  22.998  1.00  0.00     0.141 C 
BRANCH  11  12
HETATM   12  N2  UNL     1      16.033   0.352  22.592  1.00  0.00    -0.375 N 
ATOM     13  H2  UNL     1      16.735   0.077  21.905  1.00  0.00     0.161 HD
BRANCH  12  14
HETATM   14  C7  UNL     1      16.048   1.524  23.128  1.00  0.00     0.100 A 
HETATM   15  C8  UNL     1      16.095   1.704  24.509  1.00  0.00     0.048 A 
HETATM   16  C9  UNL     1      16.112   2.951  25.093  1.00  0.00     0.005 A 
HETATM   17  C10 UNL     1      16.080   4.039  24.247  1.00  0.00     0.017 A 
HETATM   18  C11 UNL     1      16.033   3.858  22.873  1.00  0.00     0.089 A 
HETATM   19  N3  UNL     1      16.018   2.622  22.346  1.00  0.00    -0.353 N 
ATOM     20  H3  UNL     1      15.983   2.512  21.333  1.00  0.00     0.166 HD
ENDBRANCH  12  14
ENDBRANCH  11  12
ENDBRANCH   1  11
TORSDOF 4
ENDMDL
