MODEL 1
REMARK VINA RESULT: -6.990470702      0.000      0.000
REMARK  7 active torsions:
REMARK  status: ('A' for Active; 'I' for Inactive)
REMARK    1  A    between atoms: N1_2  and  C2_4 
REMARK    2  A    between atoms: C3_7  and  C4_8 
REMARK    3  A    between atoms: C4_8  and  O1_10 
REMARK    4  A    between atoms: C6_12  and  O2_13 
REMARK    5  A    between atoms: C7_17  and  N4_18 
REMARK    6  A    between atoms: C9_21  and  C10_22 
REMARK    7  A    between atoms: N7_25  and  N8_26 
ROOT
HETATM    1  C2  UNL     1      38.231   1.004  24.454  1.00  0.00     0.147 A 
HETATM    2  N2  UNL     1      38.628  -0.273  24.337  1.00  0.00    -0.337 N 
ATOM      3  H2  UNL     1      39.579  -0.536  24.595  1.00  0.00     0.167 HD
HETATM    4  C3  UNL     1      37.774  -1.207  23.881  1.00  0.00     0.091 A 
HETATM    5  C6  UNL     1      36.480  -0.821  23.535  1.00  0.00     0.167 A 
HETATM    6  N3  UNL     1      36.111   0.464  23.662  1.00  0.00    -0.318 N 
ATOM      7  H3  UNL     1      35.159   0.725  23.403  1.00  0.00     0.169 HD
HETATM    8  C7  UNL     1      36.937   1.423  24.115  1.00  0.00     0.164 A 
ENDROOT
BRANCH   8   9
HETATM    9  N4  UNL     1      36.557   2.781  24.254  1.00  0.00    -0.229 N 
HETATM   10  C8  UNL     1      37.101   3.819  23.595  1.00  0.00     0.163 A 
HETATM   11  N5  UNL     1      38.157   3.745  22.641  1.00  0.00    -0.079 NA
HETATM   12  C9  UNL     1      36.466   4.979  23.998  1.00  0.00     0.167 A 
HETATM   13  N7  UNL     1      35.532   4.623  24.908  1.00  0.00    -0.203 N 
HETATM   14  C11 UNL     1      35.600   3.268  25.054  1.00  0.00     0.355 A 
HETATM   15  O4  UNL     1      34.837   2.649  25.847  1.00  0.00    -0.244 OA
BRANCH  12  16
HETATM   16  C10 UNL     1      36.753   6.318  23.529  1.00  0.00     0.287 C 
HETATM   17  N6  UNL     1      37.639   7.197  24.243  1.00  0.00    -0.056 NA
HETATM   18  O3  UNL     1      36.239   6.762  22.484  1.00  0.00    -0.269 OA
ENDBRANCH  12  16
BRANCH  13  19
HETATM   19  N8  UNL     1      34.666   5.508  25.564  1.00  0.00    -0.334 N 
ATOM     20  H82 UNL     1      33.761   5.846  25.237  1.00  0.00     0.177 HD
ATOM     21  H81 UNL     1      34.840   5.935  26.473  1.00  0.00     0.177 HD
ENDBRANCH  13  19
ENDBRANCH   8   9
BRANCH   1  22
HETATM   22  N1  UNL     1      39.044   1.907  24.896  1.00  0.00    -0.378 N 
HETATM   23  C1  UNL     1      40.404   1.520  25.207  1.00  0.00     0.148 C 
ATOM     24  H1  UNL     1      38.734   2.870  25.023  1.00  0.00     0.160 HD
ENDBRANCH   1  22
BRANCH   5  25
HETATM   25  O2  UNL     1      35.646  -1.827  23.071  1.00  0.00    -0.345 OA
ATOM     26  H2  UNL     1      34.714  -1.639  23.084  1.00  0.00     0.219 HD
ENDBRANCH   5  25
BRANCH   4  27
HETATM   27  C4  UNL     1      38.176  -2.651  23.737  1.00  0.00     0.168 C 
HETATM   28  C5  UNL     1      39.547  -2.821  24.298  1.00  0.00     0.046 C 
BRANCH  27  29
HETATM   29  O1  UNL     1      38.112  -3.013  22.406  1.00  0.00    -0.390 OA
ATOM     30  H1  UNL     1      37.368  -3.589  22.272  1.00  0.00     0.210 HD
ENDBRANCH  27  29
ENDBRANCH   4  27
TORSDOF 7
ENDMDL
MODEL 2
REMARK VINA RESULT: -6.882266254      1.998      6.779
REMARK  7 active torsions:
REMARK  status: ('A' for Active; 'I' for Inactive)
REMARK    1  A    between atoms: N1_2  and  C2_4 
REMARK    2  A    between atoms: C3_7  and  C4_8 
REMARK    3  A    between atoms: C4_8  and  O1_10 
REMARK    4  A    between atoms: C6_12  and  O2_13 
REMARK    5  A    between atoms: C7_17  and  N4_18 
REMARK    6  A    between atoms: C9_21  and  C10_22 
REMARK    7  A    between atoms: N7_25  and  N8_26 
ROOT
HETATM    1  C2  UNL     1      36.829   2.710  22.926  1.00  0.00     0.147 A 
HETATM    2  N2  UNL     1      36.077   3.820  22.995  1.00  0.00    -0.337 N 
ATOM      3  H2  UNL     1      35.956   4.405  22.167  1.00  0.00     0.167 HD
HETATM    4  C3  UNL     1      35.485   4.164  24.152  1.00  0.00     0.091 A 
HETATM    5  C6  UNL     1      35.667   3.349  25.267  1.00  0.00     0.167 A 
HETATM    6  N3  UNL     1      36.425   2.244  25.169  1.00  0.00    -0.318 N 
ATOM      7  H3  UNL     1      36.546   1.661  25.998  1.00  0.00     0.169 HD
HETATM    8  C7  UNL     1      37.032   1.870  24.029  1.00  0.00     0.164 A 
ENDROOT
BRANCH   8   9
HETATM    9  N4  UNL     1      37.832   0.706  23.915  1.00  0.00    -0.229 N 
HETATM   10  C8  UNL     1      37.375  -0.558  23.875  1.00  0.00     0.163 A 
HETATM   11  N5  UNL     1      36.009  -0.958  23.940  1.00  0.00    -0.079 NA
HETATM   12  C9  UNL     1      38.455  -1.413  23.760  1.00  0.00     0.167 A 
HETATM   13  N7  UNL     1      39.567  -0.646  23.732  1.00  0.00    -0.203 N 
HETATM   14  C11 UNL     1      39.167   0.656  23.828  1.00  0.00     0.355 A 
HETATM   15  O4  UNL     1      39.999   1.605  23.827  1.00  0.00    -0.244 OA
BRANCH  12  16
HETATM   16  C10 UNL     1      38.397  -2.858  23.686  1.00  0.00     0.287 C 
HETATM   17  N6  UNL     1      37.900  -3.654  24.775  1.00  0.00    -0.056 NA
HETATM   18  O3  UNL     1      38.781  -3.469  22.670  1.00  0.00    -0.269 OA
ENDBRANCH  12  16
BRANCH  13  19
HETATM   19  N8  UNL     1      40.878  -1.128  23.623  1.00  0.00    -0.334 N 
ATOM     20  H82 UNL     1      41.555  -1.256  24.374  1.00  0.00     0.177 HD
ATOM     21  H81 UNL     1      41.328  -1.417  22.754  1.00  0.00     0.177 HD
ENDBRANCH  13  19
ENDBRANCH   8   9
BRANCH   1  22
HETATM   22  N1  UNL     1      37.399   2.370  21.816  1.00  0.00    -0.378 N 
HETATM   23  C1  UNL     1      38.332   3.294  21.205  1.00  0.00     0.148 C 
ATOM     24  H1  UNL     1      37.195   1.471  21.380  1.00  0.00     0.160 HD
ENDBRANCH   1  22
BRANCH   5  25
HETATM   25  O2  UNL     1      35.032   3.754  26.432  1.00  0.00    -0.345 OA
ATOM     26  H2  UNL     1      35.580   4.174  27.084  1.00  0.00     0.219 HD
ENDBRANCH   5  25
BRANCH   4  27
HETATM   27  C4  UNL     1      34.631   5.398  24.273  1.00  0.00     0.168 C 
HETATM   28  C5  UNL     1      34.621   6.101  22.957  1.00  0.00     0.046 C 
BRANCH  27  29
HETATM   29  O1  UNL     1      35.124   6.199  25.284  1.00  0.00    -0.390 OA
ATOM     30  H1  UNL     1      35.958   5.853  25.581  1.00  0.00     0.210 HD
ENDBRANCH  27  29
ENDBRANCH   4  27
TORSDOF 7
ENDMDL
MODEL 3
REMARK VINA RESULT: -6.775011528      2.274      6.964
REMARK  7 active torsions:
REMARK  status: ('A' for Active; 'I' for Inactive)
REMARK    1  A    between atoms: N1_2  and  C2_4 
REMARK    2  A    between atoms: C3_7  and  C4_8 
REMARK    3  A    between atoms: C4_8  and  O1_10 
REMARK    4  A    between atoms: C6_12  and  O2_13 
REMARK    5  A    between atoms: C7_17  and  N4_18 
REMARK    6  A    between atoms: C9_21  and  C10_22 
REMARK    7  A    between atoms: N7_25  and  N8_26 
ROOT
HETATM    1  C2  UNL     1      37.318   1.588  23.050  1.00  0.00     0.147 A 
HETATM    2  N2  UNL     1      36.691   2.774  23.115  1.00  0.00    -0.337 N 
ATOM      3  H2  UNL     1      36.940   3.518  22.463  1.00  0.00     0.167 HD
HETATM    4  C3  UNL     1      35.736   2.982  24.039  1.00  0.00     0.091 A 
HETATM    5  C6  UNL     1      35.416   1.950  24.918  1.00  0.00     0.167 A 
HETATM    6  N3  UNL     1      36.060   0.774  24.830  1.00  0.00    -0.318 N 
ATOM      7  H3  UNL     1      35.811   0.032  25.484  1.00  0.00     0.169 HD
HETATM    8  C7  UNL     1      37.019   0.531  23.920  1.00  0.00     0.164 A 
ENDROOT
BRANCH   8   9
HETATM    9  N4  UNL     1      37.704  -0.706  23.818  1.00  0.00    -0.229 N 
HETATM   10  C8  UNL     1      37.152  -1.880  23.465  1.00  0.00     0.163 A 
HETATM   11  N5  UNL     1      35.784  -2.096  23.131  1.00  0.00    -0.079 NA
HETATM   12  C9  UNL     1      38.136  -2.851  23.480  1.00  0.00     0.167 A 
HETATM   13  N7  UNL     1      39.287  -2.244  23.846  1.00  0.00    -0.203 N 
HETATM   14  C11 UNL     1      39.004  -0.924  24.050  1.00  0.00     0.355 A 
HETATM   15  O4  UNL     1      39.896  -0.104  24.404  1.00  0.00    -0.244 OA
BRANCH  12  16
HETATM   16  C10 UNL     1      37.959  -4.252  23.162  1.00  0.00     0.287 C 
HETATM   17  N6  UNL     1      38.110  -5.280  24.156  1.00  0.00    -0.056 NA
HETATM   18  O3  UNL     1      37.669  -4.622  22.008  1.00  0.00    -0.269 OA
ENDBRANCH  12  16
BRANCH  13  19
HETATM   19  N8  UNL     1      40.527  -2.880  23.983  1.00  0.00    -0.334 N 
ATOM     20  H82 UNL     1      41.421  -2.450  24.217  1.00  0.00     0.177 HD
ATOM     21  H81 UNL     1      40.692  -3.879  23.861  1.00  0.00     0.177 HD
ENDBRANCH  13  19
ENDBRANCH   8   9
BRANCH   1  22
HETATM   22  N1  UNL     1      38.234   1.378  22.162  1.00  0.00    -0.378 N 
HETATM   23  C1  UNL     1      38.266   2.222  20.986  1.00  0.00     0.148 C 
ATOM     24  H1  UNL     1      38.920   0.634  22.287  1.00  0.00     0.160 HD
ENDBRANCH   1  22
BRANCH   5  25
HETATM   25  O2  UNL     1      34.424   2.224  25.848  1.00  0.00    -0.345 OA
ATOM     26  H2  UNL     1      33.847   1.503  26.072  1.00  0.00     0.219 HD
ENDBRANCH   5  25
BRANCH   4  27
HETATM   27  C4  UNL     1      35.005   4.295  24.145  1.00  0.00     0.168 C 
HETATM   28  C5  UNL     1      35.554   5.230  23.121  1.00  0.00     0.046 C 
BRANCH  27  29
HETATM   29  O1  UNL     1      35.140   4.791  25.426  1.00  0.00    -0.390 OA
ATOM     30  H1  UNL     1      35.347   5.717  25.384  1.00  0.00     0.210 HD
ENDBRANCH  27  29
ENDBRANCH   4  27
TORSDOF 7
ENDMDL
MODEL 4
REMARK VINA RESULT: -6.708372114      1.032      1.092
REMARK  7 active torsions:
REMARK  status: ('A' for Active; 'I' for Inactive)
REMARK    1  A    between atoms: N1_2  and  C2_4 
REMARK    2  A    between atoms: C3_7  and  C4_8 
REMARK    3  A    between atoms: C4_8  and  O1_10 
REMARK    4  A    between atoms: C6_12  and  O2_13 
REMARK    5  A    between atoms: C7_17  and  N4_18 
REMARK    6  A    between atoms: C9_21  and  C10_22 
REMARK    7  A    between atoms: N7_25  and  N8_26 
ROOT
HETATM    1  C2  UNL     1      38.309   0.758  24.290  1.00  0.00     0.147 A 
HETATM    2  N2  UNL     1      38.759  -0.507  24.253  1.00  0.00    -0.337 N 
ATOM      3  H2  UNL     1      39.733  -0.707  24.482  1.00  0.00     0.167 HD
HETATM    4  C3  UNL     1      37.928  -1.509  23.916  1.00  0.00     0.091 A 
HETATM    5  C6  UNL     1      36.603  -1.208  23.608  1.00  0.00     0.167 A 
HETATM    6  N3  UNL     1      36.181   0.067  23.652  1.00  0.00    -0.318 N 
ATOM      7  H3  UNL     1      35.207   0.266  23.422  1.00  0.00     0.169 HD
HETATM    8  C7  UNL     1      36.983   1.093  23.985  1.00  0.00     0.164 A 
ENDROOT
BRANCH   8   9
HETATM    9  N4  UNL     1      36.547   2.441  24.036  1.00  0.00    -0.229 N 
HETATM   10  C8  UNL     1      36.913   3.416  23.186  1.00  0.00     0.163 A 
HETATM   11  N5  UNL     1      37.804   3.274  22.082  1.00  0.00    -0.079 NA
HETATM   12  C9  UNL     1      36.281   4.587  23.560  1.00  0.00     0.167 A 
HETATM   13  N7  UNL     1      35.530   4.303  24.647  1.00  0.00    -0.203 N 
HETATM   14  C11 UNL     1      35.704   2.978  24.927  1.00  0.00     0.355 A 
HETATM   15  O4  UNL     1      35.119   2.426  25.899  1.00  0.00    -0.244 OA
BRANCH  12  16
HETATM   16  C10 UNL     1      36.407   5.873  22.905  1.00  0.00     0.287 C 
HETATM   17  N6  UNL     1      35.255   6.630  22.495  1.00  0.00    -0.056 NA
HETATM   18  O3  UNL     1      37.524   6.373  22.671  1.00  0.00    -0.269 OA
ENDBRANCH  12  16
BRANCH  13  19
HETATM   19  N8  UNL     1      34.729   5.221  25.337  1.00  0.00    -0.334 N 
ATOM     20  H82 UNL     1      34.960   6.184  25.581  1.00  0.00     0.177 HD
ATOM     21  H81 UNL     1      33.791   5.034  25.690  1.00  0.00     0.177 HD
ENDBRANCH  13  19
ENDBRANCH   8   9
BRANCH   1  22
HETATM   22  N1  UNL     1      39.100   1.727  24.618  1.00  0.00    -0.378 N 
HETATM   23  C1  UNL     1      40.449   1.728  24.091  1.00  0.00     0.148 C 
ATOM     24  H1  UNL     1      38.781   2.474  25.234  1.00  0.00     0.160 HD
ENDBRANCH   1  22
BRANCH   5  25
HETATM   25  O2  UNL     1      35.795  -2.282  23.267  1.00  0.00    -0.345 OA
ATOM     26  H2  UNL     1      34.858  -2.120  23.269  1.00  0.00     0.219 HD
ENDBRANCH   5  25
BRANCH   4  27
HETATM   27  C4  UNL     1      38.389  -2.942  23.866  1.00  0.00     0.168 C 
HETATM   28  C5  UNL     1      38.348  -3.406  22.449  1.00  0.00     0.046 C 
BRANCH  27  29
HETATM   29  O1  UNL     1      37.587  -3.710  24.686  1.00  0.00    -0.390 OA
ATOM     30  H1  UNL     1      38.107  -4.403  25.075  1.00  0.00     0.210 HD
ENDBRANCH  27  29
ENDBRANCH   4  27
TORSDOF 7
ENDMDL
MODEL 5
REMARK VINA RESULT: -6.668009659      1.921      3.396
REMARK  7 active torsions:
REMARK  status: ('A' for Active; 'I' for Inactive)
REMARK    1  A    between atoms: N1_2  and  C2_4 
REMARK    2  A    between atoms: C3_7  and  C4_8 
REMARK    3  A    between atoms: C4_8  and  O1_10 
REMARK    4  A    between atoms: C6_12  and  O2_13 
REMARK    5  A    between atoms: C7_17  and  N4_18 
REMARK    6  A    between atoms: C9_21  and  C10_22 
REMARK    7  A    between atoms: N7_25  and  N8_26 
ROOT
HETATM    1  C2  UNL     1      37.218   2.742  22.593  1.00  0.00     0.147 A 
HETATM    2  N2  UNL     1      37.485   1.433  22.721  1.00  0.00    -0.337 N 
ATOM      3  H2  UNL     1      37.880   0.914  21.935  1.00  0.00     0.167 HD
HETATM    4  C3  UNL     1      37.232   0.802  23.882  1.00  0.00     0.091 A 
HETATM    5  C6  UNL     1      36.693   1.533  24.938  1.00  0.00     0.167 A 
HETATM    6  N3  UNL     1      36.435   2.843  24.781  1.00  0.00    -0.318 N 
ATOM      7  H3  UNL     1      36.040   3.359  25.567  1.00  0.00     0.169 HD
HETATM    8  C7  UNL     1      36.675   3.504  23.636  1.00  0.00     0.164 A 
ENDROOT
BRANCH   8   9
HETATM    9  N4  UNL     1      36.409   4.885  23.461  1.00  0.00    -0.229 N 
HETATM   10  C8  UNL     1      35.200   5.467  23.542  1.00  0.00     0.163 A 
HETATM   11  N5  UNL     1      33.968   4.804  23.817  1.00  0.00    -0.079 NA
HETATM   12  C9  UNL     1      35.346   6.822  23.312  1.00  0.00     0.167 A 
HETATM   13  N7  UNL     1      36.661   7.047  23.092  1.00  0.00    -0.203 N 
HETATM   14  C11 UNL     1      37.302   5.846  23.187  1.00  0.00     0.355 A 
HETATM   15  O4  UNL     1      38.549   5.748  23.026  1.00  0.00    -0.244 OA
BRANCH  12  16
HETATM   16  C10 UNL     1      34.286   7.808  23.310  1.00  0.00     0.287 C 
HETATM   17  N6  UNL     1      33.618   8.206  24.519  1.00  0.00    -0.056 NA
HETATM   18  O3  UNL     1      33.909   8.350  22.252  1.00  0.00    -0.269 OA
ENDBRANCH  12  16
BRANCH  13  19
HETATM   19  N8  UNL     1      37.231   8.297  22.819  1.00  0.00    -0.334 N 
ATOM     20  H82 UNL     1      37.101   9.164  23.340  1.00  0.00     0.177 HD
ATOM     21  H81 UNL     1      37.863   8.498  22.045  1.00  0.00     0.177 HD
ENDBRANCH  13  19
ENDBRANCH   8   9
BRANCH   1  22
HETATM   22  N1  UNL     1      37.462   3.357  21.481  1.00  0.00    -0.378 N 
HETATM   23  C1  UNL     1      38.401   2.762  20.553  1.00  0.00     0.148 C 
ATOM     24  H1  UNL     1      37.003   4.241  21.263  1.00  0.00     0.160 HD
ENDBRANCH   1  22
BRANCH   5  25
HETATM   25  O2  UNL     1      36.454   0.830  26.110  1.00  0.00    -0.345 OA
ATOM     26  H2  UNL     1      35.831   0.115  26.050  1.00  0.00     0.219 HD
ENDBRANCH   5  25
BRANCH   4  27
HETATM   27  C4  UNL     1      37.519  -0.664  24.070  1.00  0.00     0.168 C 
HETATM   28  C5  UNL     1      38.301  -1.150  22.897  1.00  0.00     0.046 C 
BRANCH  27  29
HETATM   29  O1  UNL     1      36.329  -1.347  24.219  1.00  0.00    -0.390 OA
ATOM     30  H1  UNL     1      36.107  -1.396  25.141  1.00  0.00     0.210 HD
ENDBRANCH  27  29
ENDBRANCH   4  27
TORSDOF 7
ENDMDL
