MODEL 1
REMARK VINA RESULT: -5.803023098      0.000      0.000
REMARK  8 active torsions:
REMARK  status: ('A' for Active; 'I' for Inactive)
REMARK    1  A    between atoms: C2_2  and  O1_3 
REMARK    2  A    between atoms: C2_2  and  C3_5 
REMARK    3  A    between atoms: C3_5  and  C4_6 
REMARK    4  A    between atoms: C6_14  and  O4_15 
REMARK    5  A    between atoms: C6_14  and  C7_17 
REMARK    6  A    between atoms: C7_17  and  O5_18 
REMARK    7  A    between atoms: C8_21  and  C9_22 
REMARK    8  A    between atoms: N4_26  and  O8_27 
ROOT
HETATM    1  C3  UNL     1      42.726 -18.743 113.538  1.00  0.00     0.259 C 
HETATM    2  N1  UNL     1      41.315 -18.519 113.699  1.00  0.00    -0.186 N 
ATOM      3  H1  UNL     1      40.668 -18.147 113.004  1.00  0.00     0.180 HD
HETATM    4  C5  UNL     1      41.007 -18.923 115.028  1.00  0.00     0.695 C 
HETATM    5  N2  UNL     1      39.875 -19.003 115.615  1.00  0.00    -0.181 N 
ATOM      6  H2  UNL     1      39.069 -18.738 115.050  1.00  0.00     0.182 HD
HETATM    7  C6  UNL     1      39.585 -19.407 116.940  1.00  0.00     0.222 C 
HETATM    8  S1  UNL     1      41.044 -19.962 117.858  1.00  0.00    -0.068 SA
HETATM    9  C8  UNL     1      42.445 -19.050 117.072  1.00  0.00     0.290 C 
HETATM   10  N3  UNL     1      42.268 -19.245 115.646  1.00  0.00    -0.092 N 
HETATM   11  N4  UNL     1      43.059 -19.708 114.593  1.00  0.00    -0.044 NA
ENDROOT
BRANCH   1  12
HETATM   12  C2  UNL     1      42.972 -19.279 112.159  1.00  0.00     0.173 C 
HETATM   13  C1  UNL     1      43.010 -18.126 111.196  1.00  0.00     0.044 C 
BRANCH  12  14
HETATM   14  O1  UNL     1      41.967 -20.144 111.737  1.00  0.00    -0.391 OA
ATOM     15  H1  UNL     1      42.388 -20.903 111.351  1.00  0.00     0.210 HD
ENDBRANCH  12  14
ENDBRANCH   1  12
BRANCH   1  16
HETATM   16  C4  UNL     1      43.531 -17.535 113.826  1.00  0.00     0.226 C 
HETATM   17  O2  UNL     1      44.786 -17.506 113.796  1.00  0.00    -0.645 OA
HETATM   18  O3  UNL     1      42.849 -16.372 114.150  1.00  0.00    -0.645 OA
ENDBRANCH   1  16
BRANCH  11  19
HETATM   19  O8  UNL     1      42.605 -20.948 114.232  1.00  0.00    -0.290 OA
ATOM     20  H8  UNL     1      43.086 -21.611 114.714  1.00  0.00     0.239 HD
ENDBRANCH  11  19
BRANCH   9  21
HETATM   21  C9  UNL     1      43.712 -19.542 117.573  1.00  0.00     0.209 C 
HETATM   22  O6  UNL     1      44.102 -20.710 117.751  1.00  0.00    -0.646 OA
HETATM   23  O7  UNL     1      44.691 -18.568 117.927  1.00  0.00    -0.646 OA
ENDBRANCH   9  21
BRANCH   7  24
HETATM   24  O4  UNL     1      39.099 -18.272 117.628  1.00  0.00    -0.360 OA
ATOM     25  H4  UNL     1      38.847 -18.557 118.499  1.00  0.00     0.213 HD
ENDBRANCH   7  24
BRANCH   7  26
HETATM   26  C7  UNL     1      38.490 -20.458 116.964  1.00  0.00     0.238 C 
BRANCH  26  27
HETATM   27  O5  UNL     1      37.835 -20.527 115.753  1.00  0.00    -0.395 OA
ATOM     28  H5  UNL     1      36.892 -20.545 115.871  1.00  0.00     0.209 HD
ENDBRANCH  26  27
ENDBRANCH   7  26
TORSDOF 8
ENDMDL
MODEL 2
REMARK VINA RESULT: -5.762213886      1.909      5.058
REMARK  8 active torsions:
REMARK  status: ('A' for Active; 'I' for Inactive)
REMARK    1  A    between atoms: C2_2  and  O1_3 
REMARK    2  A    between atoms: C2_2  and  C3_5 
REMARK    3  A    between atoms: C3_5  and  C4_6 
REMARK    4  A    between atoms: C6_14  and  O4_15 
REMARK    5  A    between atoms: C6_14  and  C7_17 
REMARK    6  A    between atoms: C7_17  and  O5_18 
REMARK    7  A    between atoms: C8_21  and  C9_22 
REMARK    8  A    between atoms: N4_26  and  O8_27 
ROOT
HETATM    1  C3  UNL     1      40.057 -20.437 116.699  1.00  0.00     0.259 C 
HETATM    2  N1  UNL     1      40.234 -19.857 115.396  1.00  0.00    -0.186 N 
ATOM      3  H1  UNL     1      39.598 -19.925 114.601  1.00  0.00     0.180 HD
HETATM    4  C5  UNL     1      41.479 -19.169 115.442  1.00  0.00     0.695 C 
HETATM    5  N2  UNL     1      42.032 -18.422 114.566  1.00  0.00    -0.181 N 
ATOM      6  H2  UNL     1      41.505 -18.298 113.701  1.00  0.00     0.182 HD
HETATM    7  C6  UNL     1      43.272 -17.744 114.627  1.00  0.00     0.222 C 
HETATM    8  S1  UNL     1      44.109 -17.921 116.223  1.00  0.00    -0.068 SA
HETATM    9  C8  UNL     1      43.494 -19.534 116.879  1.00  0.00     0.290 C 
HETATM   10  N3  UNL     1      42.053 -19.478 116.726  1.00  0.00    -0.092 N 
HETATM   11  N4  UNL     1      40.951 -19.656 117.563  1.00  0.00    -0.044 NA
ENDROOT
BRANCH   1  12
HETATM   12  C2  UNL     1      38.614 -20.311 117.088  1.00  0.00     0.173 C 
HETATM   13  C1  UNL     1      37.879 -21.528 116.601  1.00  0.00     0.044 C 
BRANCH  12  14
HETATM   14  O1  UNL     1      38.004 -19.198 116.519  1.00  0.00    -0.391 OA
ATOM     15  H1  UNL     1      38.042 -18.495 117.156  1.00  0.00     0.210 HD
ENDBRANCH  12  14
ENDBRANCH   1  12
BRANCH   1  16
HETATM   16  C4  UNL     1      40.542 -21.833 116.772  1.00  0.00     0.226 C 
HETATM   17  O2  UNL     1      40.818 -22.423 117.846  1.00  0.00    -0.645 OA
HETATM   18  O3  UNL     1      40.699 -22.520 115.578  1.00  0.00    -0.645 OA
ENDBRANCH   1  16
BRANCH  11  19
HETATM   19  O8  UNL     1      40.393 -18.428 117.801  1.00  0.00    -0.290 OA
ATOM     20  H8  UNL     1      39.935 -18.446 118.632  1.00  0.00     0.239 HD
ENDBRANCH  11  19
BRANCH   9  21
HETATM   21  C9  UNL     1      43.927 -19.721 118.248  1.00  0.00     0.209 C 
HETATM   22  O6  UNL     1      44.365 -18.894 119.068  1.00  0.00    -0.646 OA
HETATM   23  O7  UNL     1      43.854 -21.043 118.777  1.00  0.00    -0.646 OA
ENDBRANCH   9  21
BRANCH   7  24
HETATM   24  O4  UNL     1      44.124 -18.342 113.671  1.00  0.00    -0.360 OA
ATOM     25  H4  UNL     1      45.017 -18.119 113.910  1.00  0.00     0.213 HD
ENDBRANCH   7  24
BRANCH   7  26
HETATM   26  C7  UNL     1      43.117 -16.283 114.248  1.00  0.00     0.238 C 
BRANCH  26  27
HETATM   27  O5  UNL     1      44.035 -15.494 114.910  1.00  0.00    -0.395 OA
ATOM     28  H5  UNL     1      44.022 -14.602 114.583  1.00  0.00     0.209 HD
ENDBRANCH  26  27
ENDBRANCH   7  26
TORSDOF 8
ENDMDL
MODEL 3
REMARK VINA RESULT: -5.593673726      2.223      5.017
REMARK  8 active torsions:
REMARK  status: ('A' for Active; 'I' for Inactive)
REMARK    1  A    between atoms: C2_2  and  O1_3 
REMARK    2  A    between atoms: C2_2  and  C3_5 
REMARK    3  A    between atoms: C3_5  and  C4_6 
REMARK    4  A    between atoms: C6_14  and  O4_15 
REMARK    5  A    between atoms: C6_14  and  C7_17 
REMARK    6  A    between atoms: C7_17  and  O5_18 
REMARK    7  A    between atoms: C8_21  and  C9_22 
REMARK    8  A    between atoms: N4_26  and  O8_27 
ROOT
HETATM    1  C3  UNL     1      40.621 -20.262 116.935  1.00  0.00     0.259 C 
HETATM    2  N1  UNL     1      40.963 -19.782 115.624  1.00  0.00    -0.186 N 
ATOM      3  H1  UNL     1      40.401 -19.855 114.776  1.00  0.00     0.180 HD
HETATM    4  C5  UNL     1      42.248 -19.184 115.753  1.00  0.00     0.695 C 
HETATM    5  N2  UNL     1      42.937 -18.538 114.893  1.00  0.00    -0.181 N 
ATOM      6  H2  UNL     1      42.505 -18.432 113.975  1.00  0.00     0.182 HD
HETATM    7  C6  UNL     1      44.215 -17.948 115.037  1.00  0.00     0.222 C 
HETATM    8  S1  UNL     1      44.883 -18.081 116.714  1.00  0.00    -0.068 SA
HETATM    9  C8  UNL     1      44.086 -19.600 117.399  1.00  0.00     0.290 C 
HETATM   10  N3  UNL     1      42.674 -19.450 117.102  1.00  0.00    -0.092 N 
HETATM   11  N4  UNL     1      41.488 -19.493 117.836  1.00  0.00    -0.044 NA
ENDROOT
BRANCH   1  12
HETATM   12  C2  UNL     1      39.162 -20.007 117.173  1.00  0.00     0.173 C 
HETATM   13  C1  UNL     1      38.386 -21.215 116.729  1.00  0.00     0.044 C 
BRANCH  12  14
HETATM   14  O1  UNL     1      38.687 -18.916 116.452  1.00  0.00    -0.391 OA
ATOM     15  H1  UNL     1      38.271 -18.325 117.069  1.00  0.00     0.210 HD
ENDBRANCH  12  14
ENDBRANCH   1  12
BRANCH   1  16
HETATM   16  C4  UNL     1      40.986 -21.682 117.136  1.00  0.00     0.226 C 
HETATM   17  O2  UNL     1      41.109 -22.511 116.202  1.00  0.00    -0.645 OA
HETATM   18  O3  UNL     1      41.202 -22.110 118.437  1.00  0.00    -0.645 OA
ENDBRANCH   1  16
BRANCH  11  19
HETATM   19  O8  UNL     1      41.008 -18.215 117.947  1.00  0.00    -0.290 OA
ATOM     20  H8  UNL     1      40.276 -18.205 118.552  1.00  0.00     0.239 HD
ENDBRANCH  11  19
BRANCH   9  21
HETATM   21  C9  UNL     1      44.373 -19.728 118.812  1.00  0.00     0.209 C 
HETATM   22  O6  UNL     1      44.163 -20.679 119.587  1.00  0.00    -0.646 OA
HETATM   23  O7  UNL     1      44.992 -18.615 119.452  1.00  0.00    -0.646 OA
ENDBRANCH   9  21
BRANCH   7  24
HETATM   24  O4  UNL     1      45.104 -18.667 114.205  1.00  0.00    -0.360 OA
ATOM     25  H4  UNL     1      45.154 -18.202 113.378  1.00  0.00     0.213 HD
ENDBRANCH   7  24
BRANCH   7  26
HETATM   26  C7  UNL     1      44.211 -16.507 114.561  1.00  0.00     0.238 C 
BRANCH  26  27
HETATM   27  O5  UNL     1      43.053 -15.859 114.936  1.00  0.00    -0.395 OA
ATOM     28  H5  UNL     1      43.227 -14.960 115.189  1.00  0.00     0.209 HD
ENDBRANCH  26  27
ENDBRANCH   7  26
TORSDOF 8
ENDMDL
MODEL 4
REMARK VINA RESULT: -5.576000259      2.258      5.068
REMARK  8 active torsions:
REMARK  status: ('A' for Active; 'I' for Inactive)
REMARK    1  A    between atoms: C2_2  and  O1_3 
REMARK    2  A    between atoms: C2_2  and  C3_5 
REMARK    3  A    between atoms: C3_5  and  C4_6 
REMARK    4  A    between atoms: C6_14  and  O4_15 
REMARK    5  A    between atoms: C6_14  and  C7_17 
REMARK    6  A    between atoms: C7_17  and  O5_18 
REMARK    7  A    between atoms: C8_21  and  C9_22 
REMARK    8  A    between atoms: N4_26  and  O8_27 
ROOT
HETATM    1  C3  UNL     1      40.102 -20.598 116.434  1.00  0.00     0.259 C 
HETATM    2  N1  UNL     1      39.888 -21.255 115.173  1.00  0.00    -0.186 N 
ATOM      3  H1  UNL     1      39.425 -22.150 115.017  1.00  0.00     0.180 HD
HETATM    4  C5  UNL     1      40.457 -20.400 114.188  1.00  0.00     0.695 C 
HETATM    5  N2  UNL     1      40.441 -20.498 112.915  1.00  0.00    -0.181 N 
ATOM      6  H2  UNL     1      39.947 -21.310 112.544  1.00  0.00     0.182 HD
HETATM    7  C6  UNL     1      41.013 -19.638 111.947  1.00  0.00     0.222 C 
HETATM    8  S1  UNL     1      41.786 -18.165 112.662  1.00  0.00    -0.068 SA
HETATM    9  C8  UNL     1      42.280 -18.695 114.361  1.00  0.00     0.290 C 
HETATM   10  N3  UNL     1      41.102 -19.336 114.913  1.00  0.00    -0.092 N 
HETATM   11  N4  UNL     1      40.336 -19.195 116.071  1.00  0.00    -0.044 NA
ENDROOT
BRANCH   1  12
HETATM   12  C2  UNL     1      38.881 -20.784 117.284  1.00  0.00     0.173 C 
HETATM   13  C1  UNL     1      38.075 -21.922 116.723  1.00  0.00     0.044 C 
BRANCH  12  14
HETATM   14  O1  UNL     1      38.063 -19.658 117.296  1.00  0.00    -0.391 OA
ATOM     15  H1  UNL     1      38.612 -18.909 117.495  1.00  0.00     0.210 HD
ENDBRANCH  12  14
ENDBRANCH   1  12
BRANCH   1  16
HETATM   16  C4  UNL     1      41.337 -21.052 117.111  1.00  0.00     0.226 C 
HETATM   17  O2  UNL     1      41.890 -22.157 116.890  1.00  0.00    -0.645 OA
HETATM   18  O3  UNL     1      41.906 -20.200 118.045  1.00  0.00    -0.645 OA
ENDBRANCH   1  16
BRANCH  11  19
HETATM   19  O8  UNL     1      39.147 -18.611 115.728  1.00  0.00    -0.290 OA
ATOM     20  H8  UNL     1      39.142 -17.707 116.022  1.00  0.00     0.239 HD
ENDBRANCH  11  19
BRANCH   9  21
HETATM   21  C9  UNL     1      42.738 -17.557 115.132  1.00  0.00     0.209 C 
HETATM   22  O6  UNL     1      43.094 -17.489 116.323  1.00  0.00    -0.646 OA
HETATM   23  O7  UNL     1      42.807 -16.303 114.458  1.00  0.00    -0.646 OA
ENDBRANCH   9  21
BRANCH   7  24
HETATM   24  O4  UNL     1      42.052 -20.354 111.311  1.00  0.00    -0.360 OA
ATOM     25  H4  UNL     1      42.352 -19.827 110.580  1.00  0.00     0.213 HD
ENDBRANCH   7  24
BRANCH   7  26
HETATM   26  C7  UNL     1      40.000 -19.263 110.881  1.00  0.00     0.238 C 
BRANCH  26  27
HETATM   27  O5  UNL     1      39.195 -18.223 111.298  1.00  0.00    -0.395 OA
ATOM     28  H5  UNL     1      39.298 -18.059 112.228  1.00  0.00     0.209 HD
ENDBRANCH  26  27
ENDBRANCH   7  26
TORSDOF 8
ENDMDL
MODEL 5
REMARK VINA RESULT: -5.494239384      2.672      5.035
REMARK  8 active torsions:
REMARK  status: ('A' for Active; 'I' for Inactive)
REMARK    1  A    between atoms: C2_2  and  O1_3 
REMARK    2  A    between atoms: C2_2  and  C3_5 
REMARK    3  A    between atoms: C3_5  and  C4_6 
REMARK    4  A    between atoms: C6_14  and  O4_15 
REMARK    5  A    between atoms: C6_14  and  C7_17 
REMARK    6  A    between atoms: C7_17  and  O5_18 
REMARK    7  A    between atoms: C8_21  and  C9_22 
REMARK    8  A    between atoms: N4_26  and  O8_27 
ROOT
HETATM    1  C3  UNL     1      41.078 -19.847 116.505  1.00  0.00     0.259 C 
HETATM    2  N1  UNL     1      40.876 -21.097 115.826  1.00  0.00    -0.186 N 
ATOM      3  H1  UNL     1      40.894 -22.030 116.237  1.00  0.00     0.180 HD
HETATM    4  C5  UNL     1      40.647 -20.765 114.461  1.00  0.00     0.695 C 
HETATM    5  N2  UNL     1      40.328 -21.519 113.480  1.00  0.00    -0.181 N 
ATOM      6  H2  UNL     1      40.220 -22.508 113.705  1.00  0.00     0.182 HD
HETATM    7  C6  UNL     1      40.104 -21.172 112.127  1.00  0.00     0.222 C 
HETATM    8  S1  UNL     1      40.210 -19.392 111.813  1.00  0.00    -0.068 SA
HETATM    9  C8  UNL     1      41.352 -18.770 113.125  1.00  0.00     0.290 C 
HETATM   10  N3  UNL     1      40.854 -19.343 114.360  1.00  0.00    -0.092 N 
HETATM   11  N4  UNL     1      40.475 -18.851 115.610  1.00  0.00    -0.044 NA
ENDROOT
BRANCH   1  12
HETATM   12  C2  UNL     1      40.401 -19.913 117.842  1.00  0.00     0.173 C 
HETATM   13  C1  UNL     1      41.240 -20.755 118.763  1.00  0.00     0.044 C 
BRANCH  12  14
HETATM   14  O1  UNL     1      39.141 -20.499 117.773  1.00  0.00    -0.391 OA
ATOM     15  H1  UNL     1      38.865 -20.475 116.864  1.00  0.00     0.210 HD
ENDBRANCH  12  14
ENDBRANCH   1  12
BRANCH   1  16
HETATM   16  C4  UNL     1      42.508 -19.481 116.614  1.00  0.00     0.226 C 
HETATM   17  O2  UNL     1      43.453 -20.285 116.419  1.00  0.00    -0.645 OA
HETATM   18  O3  UNL     1      42.810 -18.171 116.952  1.00  0.00    -0.645 OA
ENDBRANCH   1  16
BRANCH  11  19
HETATM   19  O8  UNL     1      39.112 -18.925 115.703  1.00  0.00    -0.290 OA
ATOM     20  H8  UNL     1      38.728 -18.741 114.854  1.00  0.00     0.239 HD
ENDBRANCH  11  19
BRANCH   9  21
HETATM   21  C9  UNL     1      41.381 -17.322 113.125  1.00  0.00     0.209 C 
HETATM   22  O6  UNL     1      40.658 -16.508 112.522  1.00  0.00    -0.646 OA
HETATM   23  O7  UNL     1      42.376 -16.694 113.930  1.00  0.00    -0.646 OA
ENDBRANCH   9  21
BRANCH   7  24
HETATM   24  O4  UNL     1      41.137 -21.765 111.366  1.00  0.00    -0.360 OA
ATOM     25  H4  UNL     1      40.741 -22.444 110.832  1.00  0.00     0.213 HD
ENDBRANCH   7  24
BRANCH   7  26
HETATM   26  C7  UNL     1      38.787 -21.739 111.627  1.00  0.00     0.238 C 
BRANCH  26  27
HETATM   27  O5  UNL     1      37.843 -20.747 111.468  1.00  0.00    -0.395 OA
ATOM     28  H5  UNL     1      37.217 -20.972 110.790  1.00  0.00     0.209 HD
ENDBRANCH  26  27
ENDBRANCH   7  26
TORSDOF 8
ENDMDL
