MODEL 1
REMARK VINA RESULT: -5.877460957      0.000      0.000
REMARK  9 active torsions:
REMARK  status: ('A' for Active; 'I' for Inactive)
REMARK    1  A    between atoms: N1_1  and  N2_4 
REMARK    2  A    between atoms: N2_4  and  C1_6 
REMARK    3  A    between atoms: C1_6  and  N3_7 
REMARK    4  A    between atoms: C1_6  and  C2_11 
REMARK       I    between atoms: C2_11  and  N4_13 
REMARK    5  A    between atoms: N4_13  and  N5_15 
REMARK    6  A    between atoms: C3_16  and  O2_17 
REMARK    7  A    between atoms: C6_21  and  O3_22 
REMARK    8  A    between atoms: C7_24  and  C8_25 
REMARK    9  A    between atoms: C7_24  and  C9_28 
ROOT
HETATM    1  N5  UNL     1      42.286 -20.131 119.168  1.00  0.00    -0.207 N 
HETATM    2  C3  UNL     1      42.572 -21.280 118.490  1.00  0.00     0.181 A 
HETATM    3  C4  UNL     1      41.917 -21.283 117.287  1.00  0.00     0.106 A 
HETATM    4  C5  UNL     1      41.207 -20.123 117.201  1.00  0.00     0.070 A 
HETATM    5  C6  UNL     1      41.466 -19.425 118.406  1.00  0.00     0.175 A 
HETATM    6  C7  UNL     1      40.499 -20.112 115.918  1.00  0.00     0.268 A 
HETATM    7  O7  UNL     1      40.837 -21.305 115.272  1.00  0.00    -0.280 OA
HETATM    8  C10 UNL     1      41.680 -22.033 116.058  1.00  0.00     0.300 A 
HETATM    9  O8  UNL     1      42.202 -23.165 115.829  1.00  0.00    -0.259 OA
ENDROOT
BRANCH   1  10
HETATM   10  N4  UNL     1      42.800 -19.837 120.415  1.00  0.00    -0.256 N 
HETATM   11  C2  UNL     1      44.112 -19.696 120.846  1.00  0.00     0.288 C 
HETATM   12  O1  UNL     1      45.112 -19.819 120.141  1.00  0.00    -0.267 OA
ATOM     13  H4  UNL     1      42.098 -19.701 121.142  1.00  0.00     0.191 HD
BRANCH  11  14
HETATM   14  C1  UNL     1      44.382 -19.364 122.298  1.00  0.00     0.389 C 
BRANCH  14  15
HETATM   15  N2  UNL     1      44.584 -17.967 122.474  1.00  0.00    -0.305 N 
ATOM     16  H2  UNL     1      43.993 -17.417 123.097  1.00  0.00     0.182 HD
BRANCH  15  17
HETATM   17  N1  UNL     1      45.609 -17.395 121.768  1.00  0.00    -0.347 N 
ATOM     18  H12 UNL     1      46.580 -17.594 122.009  1.00  0.00     0.176 HD
ATOM     19  H11 UNL     1      45.352 -16.770 121.004  1.00  0.00     0.176 HD
ENDBRANCH  15  17
ENDBRANCH  14  15
BRANCH  14  20
HETATM   20  N3  UNL     1      43.388 -19.963 123.135  1.00  0.00    -0.048 N 
ATOM     21  H33 UNL     1      42.747 -19.248 123.477  1.00  0.00     0.277 HD
ATOM     22  H32 UNL     1      42.752 -20.524 122.569  1.00  0.00     0.277 HD
ATOM     23  H31 UNL     1      43.738 -20.518 123.916  1.00  0.00     0.277 HD
ENDBRANCH  14  20
ENDBRANCH  11  14
ENDBRANCH   1  10
BRANCH   2  24
HETATM   24  O2  UNL     1      43.392 -22.285 118.939  1.00  0.00    -0.344 OA
ATOM     25  H2  UNL     1      44.342 -22.263 118.937  1.00  0.00     0.219 HD
ENDBRANCH   2  24
BRANCH   5  26
HETATM   26  O3  UNL     1      40.867 -18.189 118.603  1.00  0.00    -0.344 OA
ATOM     27  H3  UNL     1      39.988 -17.954 118.876  1.00  0.00     0.219 HD
ENDBRANCH   5  26
BRANCH   6  28
HETATM   28  C8  UNL     1      40.967 -18.924 115.149  1.00  0.00     0.282 C 
HETATM   29  N6  UNL     1      40.331 -18.592 113.943  1.00  0.00    -0.058 NA
HETATM   30  O4  UNL     1      41.913 -18.262 115.605  1.00  0.00    -0.272 OA
ENDBRANCH   6  28
BRANCH   6  31
HETATM   31  C9  UNL     1      39.018 -20.078 116.089  1.00  0.00     0.225 C 
HETATM   32  O5  UNL     1      38.528 -19.231 116.869  1.00  0.00    -0.645 OA
HETATM   33  O6  UNL     1      38.198 -20.956 115.405  1.00  0.00    -0.645 OA
ENDBRANCH   6  31
TORSDOF 9
ENDMDL
MODEL 2
REMARK VINA RESULT: -5.794742283      3.808      8.487
REMARK  9 active torsions:
REMARK  status: ('A' for Active; 'I' for Inactive)
REMARK    1  A    between atoms: N1_1  and  N2_4 
REMARK    2  A    between atoms: N2_4  and  C1_6 
REMARK    3  A    between atoms: C1_6  and  N3_7 
REMARK    4  A    between atoms: C1_6  and  C2_11 
REMARK       I    between atoms: C2_11  and  N4_13 
REMARK    5  A    between atoms: N4_13  and  N5_15 
REMARK    6  A    between atoms: C3_16  and  O2_17 
REMARK    7  A    between atoms: C6_21  and  O3_22 
REMARK    8  A    between atoms: C7_24  and  C8_25 
REMARK    9  A    between atoms: C7_24  and  C9_28 
ROOT
HETATM    1  N5  UNL     1      40.592 -19.053 111.830  1.00  0.00    -0.207 N 
HETATM    2  C3  UNL     1      41.470 -18.109 112.276  1.00  0.00     0.181 A 
HETATM    3  C4  UNL     1      41.664 -18.257 113.623  1.00  0.00     0.106 A 
HETATM    4  C5  UNL     1      40.901 -19.307 114.038  1.00  0.00     0.070 A 
HETATM    5  C6  UNL     1      40.240 -19.781 112.879  1.00  0.00     0.175 A 
HETATM    6  C7  UNL     1      41.098 -19.476 115.480  1.00  0.00     0.268 A 
HETATM    7  O7  UNL     1      42.008 -18.489 115.872  1.00  0.00    -0.280 OA
HETATM    8  C10 UNL     1      42.368 -17.739 114.792  1.00  0.00     0.300 A 
HETATM    9  O8  UNL     1      43.164 -16.754 114.739  1.00  0.00    -0.259 OA
ENDROOT
BRANCH   1  10
HETATM   10  N4  UNL     1      40.197 -19.161 110.512  1.00  0.00    -0.256 N 
HETATM   11  C2  UNL     1      40.827 -19.740 109.419  1.00  0.00     0.288 C 
HETATM   12  O1  UNL     1      41.924 -20.294 109.440  1.00  0.00    -0.267 OA
ATOM     13  H4  UNL     1      39.288 -18.745 110.307  1.00  0.00     0.191 HD
BRANCH  11  14
HETATM   14  C1  UNL     1      40.144 -19.709 108.069  1.00  0.00     0.389 C 
BRANCH  14  15
HETATM   15  N2  UNL     1      40.448 -18.508 107.370  1.00  0.00    -0.305 N 
ATOM     16  H2  UNL     1      39.750 -18.034 106.796  1.00  0.00     0.182 HD
BRANCH  15  17
HETATM   17  N1  UNL     1      41.719 -18.016 107.504  1.00  0.00    -0.347 N 
ATOM     18  H12 UNL     1      42.461 -18.316 106.872  1.00  0.00     0.176 HD
ATOM     19  H11 UNL     1      41.879 -17.346 108.256  1.00  0.00     0.176 HD
ENDBRANCH  15  17
ENDBRANCH  14  15
BRANCH  14  20
HETATM   20  N3  UNL     1      40.395 -20.927 107.360  1.00  0.00    -0.048 N 
ATOM     21  H33 UNL     1      39.940 -21.705 107.837  1.00  0.00     0.277 HD
ATOM     22  H32 UNL     1      39.881 -20.926 106.479  1.00  0.00     0.277 HD
ATOM     23  H31 UNL     1      41.376 -21.149 107.189  1.00  0.00     0.277 HD
ENDBRANCH  14  20
ENDBRANCH  11  14
ENDBRANCH   1  10
BRANCH   2  24
HETATM   24  O2  UNL     1      42.073 -17.153 111.497  1.00  0.00    -0.344 OA
ATOM     25  H2  UNL     1      42.038 -16.216 111.651  1.00  0.00     0.219 HD
ENDBRANCH   2  24
BRANCH   5  26
HETATM   26  O3  UNL     1      39.380 -20.863 112.996  1.00  0.00    -0.344 OA
ATOM     27  H3  UNL     1      39.254 -21.627 112.447  1.00  0.00     0.219 HD
ENDBRANCH   5  26
BRANCH   6  28
HETATM   28  C8  UNL     1      41.645 -20.844 115.708  1.00  0.00     0.282 C 
HETATM   29  N6  UNL     1      42.857 -20.993 116.399  1.00  0.00    -0.058 NA
HETATM   30  O4  UNL     1      41.004 -21.815 115.273  1.00  0.00    -0.272 OA
ENDBRANCH   6  28
BRANCH   6  31
HETATM   31  C9  UNL     1      39.836 -19.279 116.250  1.00  0.00     0.225 C 
HETATM   32  O5  UNL     1      39.890 -18.648 117.330  1.00  0.00    -0.645 OA
HETATM   33  O6  UNL     1      38.630 -19.778 115.791  1.00  0.00    -0.645 OA
ENDBRANCH   6  31
TORSDOF 9
ENDMDL
MODEL 3
REMARK VINA RESULT: -5.669684445      4.718      7.968
REMARK  9 active torsions:
REMARK  status: ('A' for Active; 'I' for Inactive)
REMARK    1  A    between atoms: N1_1  and  N2_4 
REMARK    2  A    between atoms: N2_4  and  C1_6 
REMARK    3  A    between atoms: C1_6  and  N3_7 
REMARK    4  A    between atoms: C1_6  and  C2_11 
REMARK       I    between atoms: C2_11  and  N4_13 
REMARK    5  A    between atoms: N4_13  and  N5_15 
REMARK    6  A    between atoms: C3_16  and  O2_17 
REMARK    7  A    between atoms: C6_21  and  O3_22 
REMARK    8  A    between atoms: C7_24  and  C8_25 
REMARK    9  A    between atoms: C7_24  and  C9_28 
ROOT
HETATM    1  N5  UNL     1      45.597 -18.001 121.646  1.00  0.00    -0.207 N 
HETATM    2  C3  UNL     1      46.372 -17.427 122.611  1.00  0.00     0.181 A 
HETATM    3  C4  UNL     1      47.426 -16.773 122.032  1.00  0.00     0.106 A 
HETATM    4  C5  UNL     1      47.319 -16.932 120.682  1.00  0.00     0.070 A 
HETATM    5  C6  UNL     1      46.154 -17.712 120.480  1.00  0.00     0.175 A 
HETATM    6  C7  UNL     1      48.441 -16.237 120.047  1.00  0.00     0.268 A 
HETATM    7  O7  UNL     1      49.190 -15.669 121.083  1.00  0.00    -0.280 OA
HETATM    8  C10 UNL     1      48.617 -15.968 122.284  1.00  0.00     0.300 A 
HETATM    9  O8  UNL     1      48.995 -15.642 123.448  1.00  0.00    -0.259 OA
ENDROOT
BRANCH   1  10
HETATM   10  N4  UNL     1      44.458 -18.730 121.920  1.00  0.00    -0.256 N 
HETATM   11  C2  UNL     1      43.947 -19.874 121.322  1.00  0.00     0.288 C 
HETATM   12  O1  UNL     1      44.457 -20.475 120.378  1.00  0.00    -0.267 OA
ATOM     13  H4  UNL     1      43.897 -18.368 122.691  1.00  0.00     0.191 HD
BRANCH  11  14
HETATM   14  C1  UNL     1      42.654 -20.465 121.842  1.00  0.00     0.389 C 
BRANCH  14  15
HETATM   15  N2  UNL     1      41.527 -19.798 121.286  1.00  0.00    -0.305 N 
ATOM     16  H2  UNL     1      40.748 -19.490 121.869  1.00  0.00     0.182 HD
BRANCH  15  17
HETATM   17  N1  UNL     1      41.535 -19.587 119.933  1.00  0.00    -0.347 N 
ATOM     18  H12 UNL     1      41.531 -20.374 119.285  1.00  0.00     0.176 HD
ATOM     19  H11 UNL     1      41.545 -18.617 119.617  1.00  0.00     0.176 HD
ENDBRANCH  15  17
ENDBRANCH  14  15
BRANCH  14  20
HETATM   20  N3  UNL     1      42.670 -21.889 121.701  1.00  0.00    -0.048 N 
ATOM     21  H33 UNL     1      43.500 -22.273 122.154  1.00  0.00     0.277 HD
ATOM     22  H32 UNL     1      41.939 -22.302 122.280  1.00  0.00     0.277 HD
ATOM     23  H31 UNL     1      42.600 -22.244 120.748  1.00  0.00     0.277 HD
ENDBRANCH  14  20
ENDBRANCH  11  14
ENDBRANCH   1  10
BRANCH   2  24
HETATM   24  O2  UNL     1      46.137 -17.493 123.962  1.00  0.00    -0.344 OA
ATOM     25  H2  UNL     1      46.240 -16.773 124.574  1.00  0.00     0.219 HD
ENDBRANCH   2  24
BRANCH   5  26
HETATM   26  O3  UNL     1      45.787 -18.040 119.183  1.00  0.00    -0.344 OA
ATOM     27  H3  UNL     1      46.307 -18.198 118.404  1.00  0.00     0.219 HD
ENDBRANCH   5  26
BRANCH   6  28
HETATM   28  C8  UNL     1      47.880 -15.194 119.144  1.00  0.00     0.282 C 
HETATM   29  N6  UNL     1      48.753 -14.385 118.400  1.00  0.00    -0.058 NA
HETATM   30  O4  UNL     1      46.646 -15.072 119.079  1.00  0.00    -0.272 OA
ENDBRANCH   6  28
BRANCH   6  31
HETATM   31  C9  UNL     1      49.327 -17.167 119.289  1.00  0.00     0.225 C 
HETATM   32  O5  UNL     1      50.546 -17.193 119.573  1.00  0.00    -0.645 OA
HETATM   33  O6  UNL     1      48.823 -17.987 118.295  1.00  0.00    -0.645 OA
ENDBRANCH   6  31
TORSDOF 9
ENDMDL
MODEL 4
REMARK VINA RESULT: -5.667544065      2.514      7.006
REMARK  9 active torsions:
REMARK  status: ('A' for Active; 'I' for Inactive)
REMARK    1  A    between atoms: N1_1  and  N2_4 
REMARK    2  A    between atoms: N2_4  and  C1_6 
REMARK    3  A    between atoms: C1_6  and  N3_7 
REMARK    4  A    between atoms: C1_6  and  C2_11 
REMARK       I    between atoms: C2_11  and  N4_13 
REMARK    5  A    between atoms: N4_13  and  N5_15 
REMARK    6  A    between atoms: C3_16  and  O2_17 
REMARK    7  A    between atoms: C6_21  and  O3_22 
REMARK    8  A    between atoms: C7_24  and  C8_25 
REMARK    9  A    between atoms: C7_24  and  C9_28 
ROOT
HETATM    1  N5  UNL     1      42.235 -19.942 119.736  1.00  0.00    -0.207 N 
HETATM    2  C3  UNL     1      41.926 -20.301 121.015  1.00  0.00     0.181 A 
HETATM    3  C4  UNL     1      43.034 -20.180 121.811  1.00  0.00     0.106 A 
HETATM    4  C5  UNL     1      44.059 -19.737 121.028  1.00  0.00     0.070 A 
HETATM    5  C6  UNL     1      43.514 -19.600 119.727  1.00  0.00     0.175 A 
HETATM    6  C7  UNL     1      45.252 -19.602 121.866  1.00  0.00     0.268 A 
HETATM    7  O7  UNL     1      44.871 -19.978 123.158  1.00  0.00    -0.280 OA
HETATM    8  C10 UNL     1      43.554 -20.331 123.166  1.00  0.00     0.300 A 
HETATM    9  O8  UNL     1      42.844 -20.730 124.137  1.00  0.00    -0.259 OA
ENDROOT
BRANCH   1  10
HETATM   10  N4  UNL     1      41.323 -19.958 118.701  1.00  0.00    -0.256 N 
HETATM   11  C2  UNL     1      41.205 -19.146 117.581  1.00  0.00     0.288 C 
HETATM   12  O1  UNL     1      41.946 -18.206 117.301  1.00  0.00    -0.267 OA
ATOM     13  H4  UNL     1      40.616 -20.690 118.770  1.00  0.00     0.191 HD
BRANCH  11  14
HETATM   14  C1  UNL     1      40.085 -19.402 116.595  1.00  0.00     0.389 C 
BRANCH  14  15
HETATM   15  N2  UNL     1      38.834 -18.973 117.120  1.00  0.00    -0.305 N 
ATOM     16  H2  UNL     1      38.649 -17.989 117.319  1.00  0.00     0.182 HD
BRANCH  15  17
HETATM   17  N1  UNL     1      37.891 -19.939 117.346  1.00  0.00    -0.347 N 
ATOM     18  H12 UNL     1      37.900 -20.808 116.812  1.00  0.00     0.176 HD
ATOM     19  H11 UNL     1      37.193 -19.746 118.065  1.00  0.00     0.176 HD
ENDBRANCH  15  17
ENDBRANCH  14  15
BRANCH  14  20
HETATM   20  N3  UNL     1      40.433 -18.888 115.306  1.00  0.00    -0.048 N 
ATOM     21  H33 UNL     1      41.403 -18.572 115.310  1.00  0.00     0.277 HD
ATOM     22  H32 UNL     1      40.492 -19.652 114.633  1.00  0.00     0.277 HD
ATOM     23  H31 UNL     1      39.829 -18.151 114.943  1.00  0.00     0.277 HD
ENDBRANCH  14  20
ENDBRANCH  11  14
ENDBRANCH   1  10
BRANCH   2  24
HETATM   24  O2  UNL     1      40.693 -20.723 121.447  1.00  0.00    -0.344 OA
ATOM     25  H2  UNL     1      40.512 -21.558 121.862  1.00  0.00     0.219 HD
ENDBRANCH   2  24
BRANCH   5  26
HETATM   26  O3  UNL     1      44.338 -19.158 118.702  1.00  0.00    -0.344 OA
ATOM     27  H3  UNL     1      45.228 -19.393 118.468  1.00  0.00     0.219 HD
ENDBRANCH   5  26
BRANCH   6  28
HETATM   28  C8  UNL     1      45.685 -18.177 121.818  1.00  0.00     0.282 C 
HETATM   29  N6  UNL     1      45.958 -17.583 120.575  1.00  0.00    -0.058 NA
HETATM   30  O4  UNL     1      45.792 -17.557 122.888  1.00  0.00    -0.272 OA
ENDBRANCH   6  28
BRANCH   6  31
HETATM   31  C9  UNL     1      46.356 -20.503 121.427  1.00  0.00     0.225 C 
HETATM   32  O5  UNL     1      46.284 -21.025 120.292  1.00  0.00    -0.645 OA
HETATM   33  O6  UNL     1      47.440 -20.760 122.247  1.00  0.00    -0.645 OA
ENDBRANCH   6  31
TORSDOF 9
ENDMDL
MODEL 5
REMARK VINA RESULT: -5.661297599      3.801      7.006
REMARK  9 active torsions:
REMARK  status: ('A' for Active; 'I' for Inactive)
REMARK    1  A    between atoms: N1_1  and  N2_4 
REMARK    2  A    between atoms: N2_4  and  C1_6 
REMARK    3  A    between atoms: C1_6  and  N3_7 
REMARK    4  A    between atoms: C1_6  and  C2_11 
REMARK       I    between atoms: C2_11  and  N4_13 
REMARK    5  A    between atoms: N4_13  and  N5_15 
REMARK    6  A    between atoms: C3_16  and  O2_17 
REMARK    7  A    between atoms: C6_21  and  O3_22 
REMARK    8  A    between atoms: C7_24  and  C8_25 
REMARK    9  A    between atoms: C7_24  and  C9_28 
ROOT
HETATM    1  N5  UNL     1      38.283 -22.207 116.473  1.00  0.00    -0.207 N 
HETATM    2  C3  UNL     1      39.449 -22.914 116.444  1.00  0.00     0.181 A 
HETATM    3  C4  UNL     1      40.514 -22.053 116.476  1.00  0.00     0.106 A 
HETATM    4  C5  UNL     1      40.018 -20.785 116.527  1.00  0.00     0.070 A 
HETATM    5  C6  UNL     1      38.608 -20.925 116.523  1.00  0.00     0.175 A 
HETATM    6  C7  UNL     1      41.146 -19.851 116.562  1.00  0.00     0.268 A 
HETATM    7  O7  UNL     1      42.305 -20.633 116.536  1.00  0.00    -0.280 OA
HETATM    8  C10 UNL     1      41.970 -21.954 116.483  1.00  0.00     0.300 A 
HETATM    9  O8  UNL     1      42.731 -22.966 116.442  1.00  0.00    -0.259 OA
ENDROOT
BRANCH   1  10
HETATM   10  N4  UNL     1      37.036 -22.798 116.452  1.00  0.00    -0.256 N 
HETATM   11  C2  UNL     1      36.450 -23.651 115.526  1.00  0.00     0.288 C 
HETATM   12  O1  UNL     1      36.980 -24.054 114.493  1.00  0.00    -0.267 OA
ATOM     13  H4  UNL     1      36.445 -22.569 117.251  1.00  0.00     0.191 HD
BRANCH  11  14
HETATM   14  C1  UNL     1      35.042 -24.151 115.769  1.00  0.00     0.389 C 
BRANCH  14  15
HETATM   15  N2  UNL     1      34.080 -23.201 115.327  1.00  0.00    -0.305 N 
ATOM     16  H2  UNL     1      33.206 -23.052 115.833  1.00  0.00     0.182 HD
BRANCH  15  17
HETATM   17  N1  UNL     1      34.379 -22.496 114.192  1.00  0.00    -0.347 N 
ATOM     18  H12 UNL     1      35.344 -22.409 113.873  1.00  0.00     0.176 HD
ATOM     19  H11 UNL     1      33.598 -22.070 113.693  1.00  0.00     0.176 HD
ENDBRANCH  15  17
ENDBRANCH  14  15
BRANCH  14  20
HETATM   20  N3  UNL     1      34.894 -25.478 115.255  1.00  0.00    -0.048 N 
ATOM     21  H33 UNL     1      34.873 -26.147 116.024  1.00  0.00     0.277 HD
ATOM     22  H32 UNL     1      33.953 -25.601 114.880  1.00  0.00     0.277 HD
ATOM     23  H31 UNL     1      35.584 -25.768 114.561  1.00  0.00     0.277 HD
ENDBRANCH  14  20
ENDBRANCH  11  14
ENDBRANCH   1  10
BRANCH   2  24
HETATM   24  O2  UNL     1      39.549 -24.282 116.389  1.00  0.00    -0.344 OA
ATOM     25  H2  UNL     1      39.213 -24.885 117.043  1.00  0.00     0.219 HD
ENDBRANCH   2  24
BRANCH   5  26
HETATM   26  O3  UNL     1      37.824 -19.781 116.568  1.00  0.00    -0.344 OA
ATOM     27  H3  UNL     1      38.054 -18.861 116.531  1.00  0.00     0.219 HD
ENDBRANCH   5  26
BRANCH   6  28
HETATM   28  C8  UNL     1      41.048 -19.063 117.823  1.00  0.00     0.282 C 
HETATM   29  N6  UNL     1      41.949 -19.322 118.867  1.00  0.00    -0.058 NA
HETATM   30  O4  UNL     1      40.163 -18.197 117.909  1.00  0.00    -0.272 OA
ENDBRANCH   6  28
BRANCH   6  31
HETATM   31  C9  UNL     1      41.169 -18.947 115.377  1.00  0.00     0.225 C 
HETATM   32  O5  UNL     1      42.158 -18.197 115.218  1.00  0.00    -0.645 OA
HETATM   33  O6  UNL     1      40.126 -18.930 114.467  1.00  0.00    -0.645 OA
ENDBRANCH   6  31
TORSDOF 9
ENDMDL
