MODEL 1
REMARK VINA RESULT: -6.006262642      0.000      0.000
REMARK  10 active torsions:
REMARK  status: ('A' for Active; 'I' for Inactive)
REMARK    1  A    between atoms: C1_4  and  O1_6 
REMARK    2  A    between atoms: O1_6  and  C2_7 
REMARK    3  A    between atoms: C3_8  and  C4_9 
REMARK    4  A    between atoms: C4_9  and  O2_10 
REMARK    5  A    between atoms: C4_9  and  O3_12 
REMARK    6  A    between atoms: C5_15  and  O5_16 
REMARK    7  A    between atoms: O5_16  and  S1_17 
REMARK    8  A    between atoms: S1_17  and  N3_18 
REMARK    9  A    between atoms: C7_24  and  O8_25 
REMARK   10  A    between atoms: C7_24  and  C8_27 
ROOT
HETATM    1  C2  UNL     1      39.799 -20.727 114.968  1.00  0.00     0.210 C 
HETATM    2  C3  UNL     1      39.795 -19.474 115.727  1.00  0.00     0.212 C 
HETATM    3  O4  UNL     1      41.107 -19.081 116.026  1.00  0.00    -0.347 OA
HETATM    4  C5  UNL     1      41.903 -18.785 114.966  1.00  0.00     0.284 C 
HETATM    5  C6  UNL     1      41.972 -19.913 113.959  1.00  0.00     0.114 C 
HETATM    6  C7  UNL     1      40.674 -20.571 113.729  1.00  0.00     0.179 C 
ENDROOT
BRANCH   4   7
HETATM    7  O5  UNL     1      43.197 -18.593 115.447  1.00  0.00    -0.227 OA
BRANCH   7   8
HETATM    8  S1  UNL     1      43.957 -17.277 114.791  1.00  0.00     0.358 S 
HETATM    9  O6  UNL     1      42.912 -16.235 114.477  1.00  0.00    -0.176 OA
HETATM   10  O7  UNL     1      44.921 -16.633 115.761  1.00  0.00    -0.176 OA
BRANCH   8  11
HETATM   11  N3  UNL     1      44.760 -17.702 113.331  1.00  0.00    -0.306 N 
ATOM     12  H32 UNL     1      44.551 -18.543 112.792  1.00  0.00     0.171 HD
ATOM     13  H31 UNL     1      45.462 -17.003 113.088  1.00  0.00     0.171 HD
ENDBRANCH   8  11
ENDBRANCH   7   8
ENDBRANCH   4   7
BRANCH   2  14
HETATM   14  C4  UNL     1      39.088 -19.428 117.053  1.00  0.00     0.285 C 
BRANCH  14  15
HETATM   15  O2  UNL     1      39.301 -18.159 117.631  1.00  0.00    -0.369 OA
ATOM     16  H2  UNL     1      39.130 -18.220 118.563  1.00  0.00     0.212 HD
ENDBRANCH  14  15
BRANCH  14  17
HETATM   17  O3  UNL     1      37.699 -19.376 116.698  1.00  0.00    -0.369 OA
ATOM     18  H3  UNL     1      37.416 -18.527 117.016  1.00  0.00     0.212 HD
ENDBRANCH  14  17
ENDBRANCH   2  14
BRANCH   6  19
HETATM   19  O8  UNL     1      39.911 -19.806 112.824  1.00  0.00    -0.376 OA
ATOM     20  H8  UNL     1      40.364 -18.975 112.749  1.00  0.00     0.211 HD
ENDBRANCH   6  19
BRANCH   6  21
HETATM   21  C8  UNL     1      40.922 -21.893 113.098  1.00  0.00     0.212 C 
HETATM   22  O9  UNL     1      41.505 -22.813 113.720  1.00  0.00    -0.646 OA
HETATM   23  O10 UNL     1      40.522 -22.167 111.799  1.00  0.00    -0.646 OA
ENDBRANCH   6  21
BRANCH   1  24
HETATM   24  O1  UNL     1      38.534 -21.113 114.510  1.00  0.00    -0.313 OA
BRANCH  24  25
HETATM   25  C1  UNL     1      37.891 -22.286 114.800  1.00  0.00     0.225 C 
HETATM   26  N1  UNL     1      37.477 -22.402 116.042  1.00  0.00    -0.368 N 
ATOM     27  H12 UNL     1      36.998 -23.276 116.258  1.00  0.00     0.159 HD
ATOM     28  H11 UNL     1      37.625 -21.664 116.731  1.00  0.00     0.159 HD
HETATM   29  N2  UNL     1      37.686 -23.307 113.845  1.00  0.00    -0.057 NA
ENDBRANCH  24  25
ENDBRANCH   1  24
TORSDOF 10
ENDMDL
MODEL 2
REMARK VINA RESULT: -5.862729271      3.022      4.816
REMARK  10 active torsions:
REMARK  status: ('A' for Active; 'I' for Inactive)
REMARK    1  A    between atoms: C1_4  and  O1_6 
REMARK    2  A    between atoms: O1_6  and  C2_7 
REMARK    3  A    between atoms: C3_8  and  C4_9 
REMARK    4  A    between atoms: C4_9  and  O2_10 
REMARK    5  A    between atoms: C4_9  and  O3_12 
REMARK    6  A    between atoms: C5_15  and  O5_16 
REMARK    7  A    between atoms: O5_16  and  S1_17 
REMARK    8  A    between atoms: S1_17  and  N3_18 
REMARK    9  A    between atoms: C7_24  and  O8_25 
REMARK   10  A    between atoms: C7_24  and  C8_27 
ROOT
HETATM    1  C2  UNL     1      41.466 -19.718 116.549  1.00  0.00     0.210 C 
HETATM    2  C3  UNL     1      40.076 -20.019 116.192  1.00  0.00     0.212 C 
HETATM    3  O4  UNL     1      39.755 -19.443 114.955  1.00  0.00    -0.347 OA
HETATM    4  C5  UNL     1      40.446 -19.904 113.880  1.00  0.00     0.284 C 
HETATM    5  C6  UNL     1      41.944 -19.803 114.065  1.00  0.00     0.114 C 
HETATM    6  C7  UNL     1      42.390 -20.166 115.422  1.00  0.00     0.179 C 
ENDROOT
BRANCH   4   7
HETATM    7  O5  UNL     1      40.119 -19.099 112.789  1.00  0.00    -0.227 OA
BRANCH   7   8
HETATM    8  S1  UNL     1      39.618 -19.955 111.464  1.00  0.00     0.358 S 
HETATM    9  O6  UNL     1      40.740 -20.871 111.040  1.00  0.00    -0.176 OA
HETATM   10  O7  UNL     1      38.437 -20.846 111.773  1.00  0.00    -0.176 OA
BRANCH   8  11
HETATM   11  N3  UNL     1      39.254 -18.898 110.158  1.00  0.00    -0.306 N 
ATOM     12  H32 UNL     1      39.859 -18.134 109.860  1.00  0.00     0.171 HD
ATOM     13  H31 UNL     1      38.359 -19.143 109.733  1.00  0.00     0.171 HD
ENDBRANCH   8  11
ENDBRANCH   7   8
ENDBRANCH   4   7
BRANCH   2  14
HETATM   14  C4  UNL     1      38.975 -19.560 117.106  1.00  0.00     0.285 C 
BRANCH  14  15
HETATM   15  O2  UNL     1      39.315 -18.290 117.616  1.00  0.00    -0.369 OA
ATOM     16  H2  UNL     1      39.355 -18.345 118.563  1.00  0.00     0.212 HD
ENDBRANCH  14  15
BRANCH  14  17
HETATM   17  O3  UNL     1      37.895 -19.254 116.213  1.00  0.00    -0.369 OA
ATOM     18  H3  UNL     1      37.117 -19.418 116.734  1.00  0.00     0.212 HD
ENDBRANCH  14  17
ENDBRANCH   2  14
BRANCH   6  19
HETATM   19  O8  UNL     1      42.468 -21.568 115.534  1.00  0.00    -0.376 OA
ATOM     20  H8  UNL     1      43.030 -21.848 114.821  1.00  0.00     0.211 HD
ENDBRANCH   6  19
BRANCH   6  21
HETATM   21  C8  UNL     1      43.759 -19.625 115.627  1.00  0.00     0.212 C 
HETATM   22  O9  UNL     1      44.757 -20.382 115.688  1.00  0.00    -0.646 OA
HETATM   23  O10 UNL     1      43.993 -18.265 115.762  1.00  0.00    -0.646 OA
ENDBRANCH   6  21
BRANCH   1  24
HETATM   24  O1  UNL     1      41.907 -20.375 117.703  1.00  0.00    -0.313 OA
BRANCH  24  25
HETATM   25  C1  UNL     1      42.320 -19.779 118.865  1.00  0.00     0.225 C 
HETATM   26  N1  UNL     1      41.366 -19.527 119.732  1.00  0.00    -0.368 N 
ATOM     27  H12 UNL     1      41.674 -19.083 120.597  1.00  0.00     0.159 HD
ATOM     28  H11 UNL     1      40.391 -19.763 119.546  1.00  0.00     0.159 HD
HETATM   29  N2  UNL     1      43.671 -19.452 119.122  1.00  0.00    -0.057 NA
ENDBRANCH  24  25
ENDBRANCH   1  24
TORSDOF 10
ENDMDL
MODEL 3
REMARK VINA RESULT: -5.849857210      3.710      5.089
REMARK  10 active torsions:
REMARK  status: ('A' for Active; 'I' for Inactive)
REMARK    1  A    between atoms: C1_4  and  O1_6 
REMARK    2  A    between atoms: O1_6  and  C2_7 
REMARK    3  A    between atoms: C3_8  and  C4_9 
REMARK    4  A    between atoms: C4_9  and  O2_10 
REMARK    5  A    between atoms: C4_9  and  O3_12 
REMARK    6  A    between atoms: C5_15  and  O5_16 
REMARK    7  A    between atoms: O5_16  and  S1_17 
REMARK    8  A    between atoms: S1_17  and  N3_18 
REMARK    9  A    between atoms: C7_24  and  O8_25 
REMARK   10  A    between atoms: C7_24  and  C8_27 
ROOT
HETATM    1  C2  UNL     1      41.385 -19.419 116.031  1.00  0.00     0.210 C 
HETATM    2  C3  UNL     1      40.499 -19.499 117.195  1.00  0.00     0.212 C 
HETATM    3  O4  UNL     1      41.029 -20.377 118.151  1.00  0.00    -0.347 OA
HETATM    4  C5  UNL     1      42.216 -20.020 118.704  1.00  0.00     0.284 C 
HETATM    5  C6  UNL     1      43.286 -19.762 117.665  1.00  0.00     0.114 C 
HETATM    6  C7  UNL     1      42.790 -19.035 116.484  1.00  0.00     0.179 C 
ENDROOT
BRANCH   4   7
HETATM    7  O5  UNL     1      42.660 -21.087 119.484  1.00  0.00    -0.227 OA
BRANCH   7   8
HETATM    8  S1  UNL     1      42.342 -20.902 121.098  1.00  0.00     0.358 S 
HETATM    9  O6  UNL     1      41.788 -22.203 121.624  1.00  0.00    -0.176 OA
HETATM   10  O7  UNL     1      43.595 -20.620 121.897  1.00  0.00    -0.176 OA
BRANCH   8  11
HETATM   11  N3  UNL     1      41.172 -19.668 121.350  1.00  0.00    -0.306 N 
ATOM     12  H32 UNL     1      40.612 -19.256 120.605  1.00  0.00     0.171 HD
ATOM     13  H31 UNL     1      41.122 -19.414 122.337  1.00  0.00     0.171 HD
ENDBRANCH   8  11
ENDBRANCH   7   8
ENDBRANCH   4   7
BRANCH   2  14
HETATM   14  C4  UNL     1      39.086 -19.975 117.003  1.00  0.00     0.285 C 
BRANCH  14  15
HETATM   15  O2  UNL     1      38.342 -18.939 116.400  1.00  0.00    -0.369 OA
ATOM     16  H2  UNL     1      37.772 -19.320 115.743  1.00  0.00     0.212 HD
ENDBRANCH  14  15
BRANCH  14  17
HETATM   17  O3  UNL     1      39.191 -20.936 115.942  1.00  0.00    -0.369 OA
ATOM     18  H3  UNL     1      38.289 -21.178 115.767  1.00  0.00     0.212 HD
ENDBRANCH  14  17
ENDBRANCH   2  14
BRANCH   6  19
HETATM   19  O8  UNL     1      42.730 -17.656 116.768  1.00  0.00    -0.376 OA
ATOM     20  H8  UNL     1      43.155 -17.228 116.035  1.00  0.00     0.211 HD
ENDBRANCH   6  19
BRANCH   6  21
HETATM   21  C8  UNL     1      43.761 -19.220 115.375  1.00  0.00     0.212 C 
HETATM   22  O9  UNL     1      44.658 -18.374 115.146  1.00  0.00    -0.646 OA
HETATM   23  O10 UNL     1      43.719 -20.331 114.546  1.00  0.00    -0.646 OA
ENDBRANCH   6  21
BRANCH   1  24
HETATM   24  O1  UNL     1      40.998 -18.455 115.093  1.00  0.00    -0.313 OA
BRANCH  24  25
HETATM   25  C1  UNL     1      40.634 -18.690 113.794  1.00  0.00     0.225 C 
HETATM   26  N1  UNL     1      40.702 -19.947 113.416  1.00  0.00    -0.368 N 
ATOM     27  H12 UNL     1      40.431 -20.122 112.449  1.00  0.00     0.159 HD
ATOM     28  H11 UNL     1      41.001 -20.687 114.052  1.00  0.00     0.159 HD
HETATM   29  N2  UNL     1      40.219 -17.666 112.914  1.00  0.00    -0.057 NA
ENDBRANCH  24  25
ENDBRANCH   1  24
TORSDOF 10
ENDMDL
MODEL 4
REMARK VINA RESULT: -5.805643324      3.009      4.882
REMARK  10 active torsions:
REMARK  status: ('A' for Active; 'I' for Inactive)
REMARK    1  A    between atoms: C1_4  and  O1_6 
REMARK    2  A    between atoms: O1_6  and  C2_7 
REMARK    3  A    between atoms: C3_8  and  C4_9 
REMARK    4  A    between atoms: C4_9  and  O2_10 
REMARK    5  A    between atoms: C4_9  and  O3_12 
REMARK    6  A    between atoms: C5_15  and  O5_16 
REMARK    7  A    between atoms: O5_16  and  S1_17 
REMARK    8  A    between atoms: S1_17  and  N3_18 
REMARK    9  A    between atoms: C7_24  and  O8_25 
REMARK   10  A    between atoms: C7_24  and  C8_27 
ROOT
HETATM    1  C2  UNL     1      41.600 -18.510 116.319  1.00  0.00     0.210 C 
HETATM    2  C3  UNL     1      40.459 -19.388 116.042  1.00  0.00     0.212 C 
HETATM    3  O4  UNL     1      39.891 -19.072 114.800  1.00  0.00    -0.347 OA
HETATM    4  C5  UNL     1      40.682 -19.258 113.712  1.00  0.00     0.284 C 
HETATM    5  C6  UNL     1      42.002 -18.525 113.820  1.00  0.00     0.114 C 
HETATM    6  C7  UNL     1      42.596 -18.589 115.166  1.00  0.00     0.179 C 
ENDROOT
BRANCH   4   7
HETATM    7  O5  UNL     1      40.016 -18.729 112.607  1.00  0.00    -0.227 OA
BRANCH   7   8
HETATM    8  S1  UNL     1      39.721 -19.842 111.418  1.00  0.00     0.358 S 
HETATM    9  O6  UNL     1      40.974 -20.657 111.212  1.00  0.00    -0.176 OA
HETATM   10  O7  UNL     1      38.637 -20.821 111.809  1.00  0.00    -0.176 OA
BRANCH   8  11
HETATM   11  N3  UNL     1      39.327 -19.061 109.938  1.00  0.00    -0.306 N 
ATOM     12  H32 UNL     1      38.730 -18.237 109.872  1.00  0.00     0.171 HD
ATOM     13  H31 UNL     1      39.770 -19.535 109.150  1.00  0.00     0.171 HD
ENDBRANCH   8  11
ENDBRANCH   7   8
ENDBRANCH   4   7
BRANCH   2  14
HETATM   14  C4  UNL     1      39.293 -19.385 116.990  1.00  0.00     0.285 C 
BRANCH  14  15
HETATM   15  O2  UNL     1      39.274 -18.151 117.673  1.00  0.00    -0.369 OA
ATOM     16  H2  UNL     1      38.785 -18.261 118.481  1.00  0.00     0.212 HD
ENDBRANCH  14  15
BRANCH  14  17
HETATM   17  O3  UNL     1      38.152 -19.277 116.127  1.00  0.00    -0.369 OA
ATOM     18  H3  UNL     1      37.817 -18.406 116.303  1.00  0.00     0.212 HD
ENDBRANCH  14  17
ENDBRANCH   2  14
BRANCH   6  19
HETATM   19  O8  UNL     1      43.263 -19.820 115.330  1.00  0.00    -0.376 OA
ATOM     20  H8  UNL     1      42.584 -20.482 115.295  1.00  0.00     0.211 HD
ENDBRANCH   6  19
BRANCH   6  21
HETATM   21  C8  UNL     1      43.612 -17.512 115.284  1.00  0.00     0.212 C 
HETATM   22  O9  UNL     1      43.355 -16.333 114.941  1.00  0.00    -0.646 OA
HETATM   23  O10 UNL     1      44.885 -17.760 115.774  1.00  0.00    -0.646 OA
ENDBRANCH   6  21
BRANCH   1  24
HETATM   24  O1  UNL     1      42.309 -18.854 117.475  1.00  0.00    -0.313 OA
BRANCH  24  25
HETATM   25  C1  UNL     1      42.032 -19.903 118.311  1.00  0.00     0.225 C 
HETATM   26  N1  UNL     1      41.500 -19.569 119.465  1.00  0.00    -0.368 N 
ATOM     27  H12 UNL     1      41.294 -20.350 120.088  1.00  0.00     0.159 HD
ATOM     28  H11 UNL     1      41.308 -18.598 119.711  1.00  0.00     0.159 HD
HETATM   29  N2  UNL     1      42.298 -21.248 117.971  1.00  0.00    -0.057 NA
ENDBRANCH  24  25
ENDBRANCH   1  24
TORSDOF 10
ENDMDL
MODEL 5
REMARK VINA RESULT: -5.786534766      3.088      4.509
REMARK  10 active torsions:
REMARK  status: ('A' for Active; 'I' for Inactive)
REMARK    1  A    between atoms: C1_4  and  O1_6 
REMARK    2  A    between atoms: O1_6  and  C2_7 
REMARK    3  A    between atoms: C3_8  and  C4_9 
REMARK    4  A    between atoms: C4_9  and  O2_10 
REMARK    5  A    between atoms: C4_9  and  O3_12 
REMARK    6  A    between atoms: C5_15  and  O5_16 
REMARK    7  A    between atoms: O5_16  and  S1_17 
REMARK    8  A    between atoms: S1_17  and  N3_18 
REMARK    9  A    between atoms: C7_24  and  O8_25 
REMARK   10  A    between atoms: C7_24  and  C8_27 
ROOT
HETATM    1  C2  UNL     1      41.511 -19.948 117.556  1.00  0.00     0.210 C 
HETATM    2  C3  UNL     1      40.341 -19.866 116.678  1.00  0.00     0.212 C 
HETATM    3  O4  UNL     1      40.547 -18.903 115.680  1.00  0.00    -0.347 OA
HETATM    4  C5  UNL     1      41.558 -19.148 114.807  1.00  0.00     0.284 C 
HETATM    5  C6  UNL     1      42.881 -19.388 115.503  1.00  0.00     0.114 C 
HETATM    6  C7  UNL     1      42.760 -20.209 116.719  1.00  0.00     0.179 C 
ENDROOT
BRANCH   4   7
HETATM    7  O5  UNL     1      41.719 -18.012 114.014  1.00  0.00    -0.227 OA
BRANCH   7   8
HETATM    8  S1  UNL     1      40.850 -18.061 112.607  1.00  0.00     0.358 S 
HETATM    9  O6  UNL     1      40.105 -19.372 112.555  1.00  0.00    -0.176 OA
HETATM   10  O7  UNL     1      39.800 -16.974 112.546  1.00  0.00    -0.176 OA
BRANCH   8  11
HETATM   11  N3  UNL     1      41.893 -17.971 111.243  1.00  0.00    -0.306 N 
ATOM     12  H32 UNL     1      42.211 -18.785 110.717  1.00  0.00     0.171 HD
ATOM     13  H31 UNL     1      42.144 -17.003 111.042  1.00  0.00     0.171 HD
ENDBRANCH   8  11
ENDBRANCH   7   8
ENDBRANCH   4   7
BRANCH   2  14
HETATM   14  C4  UNL     1      39.010 -19.499 117.272  1.00  0.00     0.285 C 
BRANCH  14  15
HETATM   15  O2  UNL     1      39.036 -18.132 117.619  1.00  0.00    -0.369 OA
ATOM     16  H2  UNL     1      38.312 -17.697 117.186  1.00  0.00     0.212 HD
ENDBRANCH  14  15
BRANCH  14  17
HETATM   17  O3  UNL     1      38.118 -19.514 116.147  1.00  0.00    -0.369 OA
ATOM     18  H3  UNL     1      38.270 -18.676 115.728  1.00  0.00     0.212 HD
ENDBRANCH  14  17
ENDBRANCH   2  14
BRANCH   6  19
HETATM   19  O8  UNL     1      42.696 -21.572 116.365  1.00  0.00    -0.376 OA
ATOM     20  H8  UNL     1      43.380 -21.997 116.869  1.00  0.00     0.211 HD
ENDBRANCH   6  19
BRANCH   6  21
HETATM   21  C8  UNL     1      43.983 -20.018 117.540  1.00  0.00     0.212 C 
HETATM   22  O9  UNL     1      44.948 -20.816 117.467  1.00  0.00    -0.646 OA
HETATM   23  O10 UNL     1      44.112 -18.955 118.421  1.00  0.00    -0.646 OA
ENDBRANCH   6  21
BRANCH   1  24
HETATM   24  O1  UNL     1      41.442 -20.986 118.493  1.00  0.00    -0.313 OA
BRANCH  24  25
HETATM   25  C1  UNL     1      41.614 -20.866 119.846  1.00  0.00     0.225 C 
HETATM   26  N1  UNL     1      41.550 -19.639 120.309  1.00  0.00    -0.368 N 
ATOM     27  H12 UNL     1      41.678 -19.550 121.317  1.00  0.00     0.159 HD
ATOM     28  H11 UNL     1      41.382 -18.839 119.698  1.00  0.00     0.159 HD
HETATM   29  N2  UNL     1      41.846 -21.974 120.692  1.00  0.00    -0.057 NA
ENDBRANCH  24  25
ENDBRANCH   1  24
TORSDOF 10
ENDMDL
