MODEL 1
REMARK VINA RESULT: -7.547322812      0.000      0.000
REMARK  10 active torsions:
REMARK  status: ('A' for Active; 'I' for Inactive)
REMARK    1  A    between atoms: C6_6  and  C7_7 
REMARK    2  A    between atoms: C7_7  and  C8_8 
REMARK    3  A    between atoms: C10_13  and  C11_14 
REMARK    4  A    between atoms: C11_14  and  C12_15 
REMARK    5  A    between atoms: N2_20  and  C17_21 
REMARK    6  A    between atoms: C17_21  and  C18_22 
REMARK    7  A    between atoms: C18_22  and  C19_23 
REMARK    8  A    between atoms: C19_23  and  N3_24 
REMARK    9  A    between atoms: C23_28  and  C24_29 
REMARK       I    between atoms: C24_29  and  N4_31 
REMARK   10  A    between atoms: N4_31  and  C25_33 
ROOT
HETATM    1  C12 UNL     1       2.316  20.466  18.157  1.00  0.00     0.006 A 
HETATM    2  C13 UNL     1       3.281  21.413  17.760  1.00  0.00    -0.027 A 
HETATM    3  C14 UNL     1       3.409  21.969  16.390  1.00  0.00     0.051 C 
HETATM    4  C15 UNL     1       4.067  21.732  18.816  1.00  0.00     0.015 A 
HETATM    5  C16 UNL     1       5.220  22.694  18.859  1.00  0.00     0.069 C 
HETATM    6  N2  UNL     1       3.603  20.999  19.859  1.00  0.00    -0.345 N 
HETATM    7  C23 UNL     1       2.544  20.230  19.476  1.00  0.00     0.114 A 
ENDROOT
BRANCH   1   8
HETATM    8  C11 UNL     1       1.341  19.918  17.225  1.00  0.00     0.050 C 
BRANCH   8   9
HETATM    9  C10 UNL     1       0.144  19.525  17.629  1.00  0.00     0.103 A 
HETATM   10  C9  UNL     1      -0.846  20.257  18.241  1.00  0.00     0.273 A 
HETATM   11  N1  UNL     1      -1.908  19.464  18.482  1.00  0.00    -0.308 N 
HETATM   12  O1  UNL     1      -0.763  21.479  18.528  1.00  0.00    -0.266 OA
HETATM   13  C8  UNL     1      -1.598  18.235  18.028  1.00  0.00     0.110 A 
ATOM     14  H1  UNL     1      -2.783  19.743  18.927  1.00  0.00     0.170 HD
HETATM   15  N6  UNL     1      -0.367  18.265  17.513  1.00  0.00    -0.338 N 
ATOM     16  H6  UNL     1       0.117  17.469  17.096  1.00  0.00     0.167 HD
BRANCH  13  17
HETATM   17  C7  UNL     1      -2.397  17.164  18.084  1.00  0.00     0.078 C 
BRANCH  17  18
HETATM   18  C6  UNL     1      -2.051  15.944  17.381  1.00  0.00     0.042 A 
HETATM   19  C4  UNL     1      -1.385  14.867  17.924  1.00  0.00    -0.033 A 
HETATM   20  C3  UNL     1      -1.232  13.890  16.963  1.00  0.00     0.033 A 
HETATM   21  C5  UNL     1      -0.876  14.712  19.319  1.00  0.00     0.050 C 
HETATM   22  C2  UNL     1      -1.814  14.383  15.830  1.00  0.00     0.006 A 
HETATM   23  C1  UNL     1      -1.873  13.635  14.529  1.00  0.00     0.068 C 
HETATM   24  N7  UNL     1      -2.297  15.606  16.095  1.00  0.00    -0.359 N 
ATOM     25  H7  UNL     1      -2.781  16.199  15.420  1.00  0.00     0.166 HD
ENDBRANCH  17  18
ENDBRANCH  13  17
ENDBRANCH   8   9
ENDBRANCH   1   8
BRANCH   7  26
HETATM   26  C24 UNL     1       1.775  19.351  20.336  1.00  0.00     0.270 C 
HETATM   27  O2  UNL     1       1.793  18.079  20.146  1.00  0.00    -0.266 OA
HETATM   28  N4  UNL     1       0.982  19.820  21.410  1.00  0.00    -0.341 N 
ATOM     29  H4  UNL     1       0.935  20.819  21.611  1.00  0.00     0.163 HD
BRANCH  28  30
HETATM   30  C25 UNL     1       0.226  18.864  22.236  1.00  0.00     0.190 C 
HETATM   31  C26 UNL     1      -1.073  18.449  21.631  1.00  0.00     0.224 C 
HETATM   32  O3  UNL     1      -1.516  17.418  21.130  1.00  0.00    -0.277 OA
HETATM   33  N5  UNL     1      -1.500  19.795  21.924  1.00  0.00    -0.242 NA
HETATM   34  C27 UNL     1      -1.322  20.857  22.947  1.00  0.00     0.121 A 
HETATM   35  C28 UNL     1      -0.699  19.603  23.181  1.00  0.00     0.111 A 
ENDBRANCH  28  30
ENDBRANCH   7  26
BRANCH   6  36
HETATM   36  C17 UNL     1       4.160  21.054  21.183  1.00  0.00     0.131 C 
BRANCH  36  37
HETATM   37  C18 UNL     1       3.542  22.089  22.045  1.00  0.00     0.048 C 
BRANCH  37  38
HETATM   38  C19 UNL     1       3.532  21.728  23.497  1.00  0.00     0.237 C 
BRANCH  38  39
HETATM   39  N3  UNL     1       4.257  22.583  24.389  1.00  0.00    -0.079 N 
HETATM   40  C20 UNL     1       5.603  22.123  24.655  1.00  0.00     0.271 C 
HETATM   41  C21 UNL     1       4.199  23.997  24.050  1.00  0.00     0.271 C 
HETATM   42  C22 UNL     1       3.550  22.460  25.695  1.00  0.00     0.271 C 
ENDBRANCH  38  39
ENDBRANCH  37  38
ENDBRANCH  36  37
ENDBRANCH   6  36
TORSDOF 10
ENDMDL
MODEL 2
REMARK VINA RESULT: -7.542606963      2.724      7.620
REMARK  10 active torsions:
REMARK  status: ('A' for Active; 'I' for Inactive)
REMARK    1  A    between atoms: C6_6  and  C7_7 
REMARK    2  A    between atoms: C7_7  and  C8_8 
REMARK    3  A    between atoms: C10_13  and  C11_14 
REMARK    4  A    between atoms: C11_14  and  C12_15 
REMARK    5  A    between atoms: N2_20  and  C17_21 
REMARK    6  A    between atoms: C17_21  and  C18_22 
REMARK    7  A    between atoms: C18_22  and  C19_23 
REMARK    8  A    between atoms: C19_23  and  N3_24 
REMARK    9  A    between atoms: C23_28  and  C24_29 
REMARK       I    between atoms: C24_29  and  N4_31 
REMARK   10  A    between atoms: N4_31  and  C25_33 
ROOT
HETATM    1  C12 UNL     1       1.402  19.212  19.135  1.00  0.00     0.006 A 
HETATM    2  C13 UNL     1       2.578  19.985  19.215  1.00  0.00    -0.027 A 
HETATM    3  C14 UNL     1       3.596  19.871  20.289  1.00  0.00     0.051 C 
HETATM    4  C15 UNL     1       2.632  20.840  18.166  1.00  0.00     0.015 A 
HETATM    5  C16 UNL     1       3.699  21.847  17.843  1.00  0.00     0.069 C 
HETATM    6  N2  UNL     1       1.510  20.609  17.439  1.00  0.00    -0.345 N 
HETATM    7  C23 UNL     1       0.758  19.626  18.013  1.00  0.00     0.114 A 
ENDROOT
BRANCH   1   8
HETATM    8  C11 UNL     1       1.061  18.218  20.142  1.00  0.00     0.050 C 
BRANCH   8   9
HETATM    9  C10 UNL     1       0.334  18.530  21.203  1.00  0.00     0.103 A 
HETATM   10  C9  UNL     1      -0.892  18.041  21.586  1.00  0.00     0.273 A 
HETATM   11  N1  UNL     1      -1.274  18.632  22.735  1.00  0.00    -0.308 N 
HETATM   12  O1  UNL     1      -1.549  17.174  20.954  1.00  0.00    -0.266 OA
HETATM   13  C8  UNL     1      -0.300  19.493  23.082  1.00  0.00     0.110 A 
ATOM     14  H1  UNL     1      -2.141  18.460  23.245  1.00  0.00     0.170 HD
HETATM   15  N6  UNL     1       0.671  19.436  22.166  1.00  0.00    -0.338 N 
ATOM     16  H6  UNL     1       1.530  19.985  22.184  1.00  0.00     0.167 HD
BRANCH  13  17
HETATM   17  C7  UNL     1      -0.305  20.274  24.167  1.00  0.00     0.078 C 
BRANCH  17  18
HETATM   18  C6  UNL     1      -0.834  19.790  25.427  1.00  0.00     0.042 A 
HETATM   19  C4  UNL     1      -0.127  19.083  26.375  1.00  0.00    -0.033 A 
HETATM   20  C3  UNL     1      -0.953  18.790  27.440  1.00  0.00     0.033 A 
HETATM   21  C5  UNL     1       1.304  18.664  26.327  1.00  0.00     0.050 C 
HETATM   22  C2  UNL     1      -2.171  19.327  27.130  1.00  0.00     0.006 A 
HETATM   23  C1  UNL     1      -3.374  19.239  28.024  1.00  0.00     0.068 C 
HETATM   24  N7  UNL     1      -2.084  19.918  25.929  1.00  0.00    -0.359 N 
ATOM     25  H7  UNL     1      -2.852  20.397  25.460  1.00  0.00     0.166 HD
ENDBRANCH  17  18
ENDBRANCH  13  17
ENDBRANCH   8   9
ENDBRANCH   1   8
BRANCH   7  26
HETATM   26  C24 UNL     1      -0.487  19.093  17.491  1.00  0.00     0.270 C 
HETATM   27  O2  UNL     1      -1.504  19.862  17.327  1.00  0.00    -0.266 OA
HETATM   28  N4  UNL     1      -0.655  17.734  17.135  1.00  0.00    -0.341 N 
ATOM     29  H4  UNL     1       0.120  17.079  17.238  1.00  0.00     0.163 HD
BRANCH  28  30
HETATM   30  C25 UNL     1      -1.952  17.267  16.615  1.00  0.00     0.190 C 
HETATM   31  C26 UNL     1      -2.966  17.015  17.681  1.00  0.00     0.224 C 
HETATM   32  O3  UNL     1      -4.006  17.558  18.045  1.00  0.00    -0.277 OA
HETATM   33  N5  UNL     1      -2.141  15.884  18.028  1.00  0.00    -0.242 NA
HETATM   34  C27 UNL     1      -1.280  14.854  17.392  1.00  0.00     0.121 A 
HETATM   35  C28 UNL     1      -1.973  15.754  16.540  1.00  0.00     0.111 A 
ENDBRANCH  28  30
ENDBRANCH   7  26
BRANCH   6  36
HETATM   36  C17 UNL     1       1.188  21.307  16.225  1.00  0.00     0.131 C 
BRANCH  36  37
HETATM   37  C18 UNL     1       1.750  20.674  15.009  1.00  0.00     0.048 C 
BRANCH  37  38
HETATM   38  C19 UNL     1       1.213  21.246  13.735  1.00  0.00     0.237 C 
BRANCH  38  39
HETATM   39  N3  UNL     1       2.139  21.928  12.882  1.00  0.00    -0.079 N 
HETATM   40  C20 UNL     1       1.817  23.325  12.688  1.00  0.00     0.271 C 
HETATM   41  C21 UNL     1       3.539  21.711  13.215  1.00  0.00     0.271 C 
HETATM   42  C22 UNL     1       1.950  21.307  11.540  1.00  0.00     0.271 C 
ENDBRANCH  38  39
ENDBRANCH  37  38
ENDBRANCH  36  37
ENDBRANCH   6  36
TORSDOF 10
ENDMDL
MODEL 3
REMARK VINA RESULT: -7.527879475      2.836      7.446
REMARK  10 active torsions:
REMARK  status: ('A' for Active; 'I' for Inactive)
REMARK    1  A    between atoms: C6_6  and  C7_7 
REMARK    2  A    between atoms: C7_7  and  C8_8 
REMARK    3  A    between atoms: C10_13  and  C11_14 
REMARK    4  A    between atoms: C11_14  and  C12_15 
REMARK    5  A    between atoms: N2_20  and  C17_21 
REMARK    6  A    between atoms: C17_21  and  C18_22 
REMARK    7  A    between atoms: C18_22  and  C19_23 
REMARK    8  A    between atoms: C19_23  and  N3_24 
REMARK    9  A    between atoms: C23_28  and  C24_29 
REMARK       I    between atoms: C24_29  and  N4_31 
REMARK   10  A    between atoms: N4_31  and  C25_33 
ROOT
HETATM    1  C12 UNL     1       0.560  20.444  20.462  1.00  0.00     0.006 A 
HETATM    2  C13 UNL     1       1.792  21.009  20.849  1.00  0.00    -0.027 A 
HETATM    3  C14 UNL     1       2.088  21.556  22.196  1.00  0.00     0.051 C 
HETATM    4  C15 UNL     1       2.656  20.974  19.806  1.00  0.00     0.015 A 
HETATM    5  C16 UNL     1       4.075  21.463  19.759  1.00  0.00     0.069 C 
HETATM    6  N2  UNL     1       1.979  20.397  18.782  1.00  0.00    -0.345 N 
HETATM    7  C23 UNL     1       0.711  20.070  19.164  1.00  0.00     0.114 A 
ENDROOT
BRANCH   1   8
HETATM    8  C11 UNL     1      -0.573  20.364  21.372  1.00  0.00     0.050 C 
BRANCH   8   9
HETATM    9  C10 UNL     1      -0.617  19.466  22.343  1.00  0.00     0.103 A 
HETATM   10  C9  UNL     1      -0.979  18.141  22.280  1.00  0.00     0.273 A 
HETATM   11  N1  UNL     1      -0.880  17.589  23.505  1.00  0.00    -0.308 N 
HETATM   12  O1  UNL     1      -1.345  17.546  21.235  1.00  0.00    -0.266 OA
HETATM   13  C8  UNL     1      -0.458  18.554  24.343  1.00  0.00     0.110 A 
ATOM     14  H1  UNL     1      -1.087  16.620  23.751  1.00  0.00     0.170 HD
HETATM   15  N6  UNL     1      -0.297  19.684  23.651  1.00  0.00    -0.338 N 
ATOM     16  H6  UNL     1       0.018  20.573  24.041  1.00  0.00     0.167 HD
BRANCH  13  17
HETATM   17  C7  UNL     1      -0.237  18.400  25.653  1.00  0.00     0.078 C 
BRANCH  17  18
HETATM   18  C6  UNL     1      -1.256  18.750  26.624  1.00  0.00     0.042 A 
HETATM   19  C4  UNL     1      -1.090  19.614  27.684  1.00  0.00    -0.033 A 
HETATM   20  C3  UNL     1      -2.271  19.703  28.391  1.00  0.00     0.033 A 
HETATM   21  C5  UNL     1       0.139  20.368  28.070  1.00  0.00     0.050 C 
HETATM   22  C2  UNL     1      -3.157  18.885  27.750  1.00  0.00     0.006 A 
HETATM   23  C1  UNL     1      -4.577  18.683  28.191  1.00  0.00     0.068 C 
HETATM   24  N7  UNL     1      -2.537  18.324  26.700  1.00  0.00    -0.359 N 
ATOM     25  H7  UNL     1      -2.972  17.669  26.051  1.00  0.00     0.166 HD
ENDBRANCH  17  18
ENDBRANCH  13  17
ENDBRANCH   8   9
ENDBRANCH   1   8
BRANCH   7  26
HETATM   26  C24 UNL     1      -0.281  19.404  18.342  1.00  0.00     0.270 C 
HETATM   27  O2  UNL     1      -1.157  20.092  17.698  1.00  0.00    -0.266 OA
HETATM   28  N4  UNL     1      -0.346  17.999  18.196  1.00  0.00    -0.341 N 
ATOM     29  H4  UNL     1       0.327  17.403  18.679  1.00  0.00     0.163 HD
BRANCH  28  30
HETATM   30  C25 UNL     1      -1.387  17.397  17.345  1.00  0.00     0.190 C 
HETATM   31  C26 UNL     1      -2.655  17.098  18.074  1.00  0.00     0.224 C 
HETATM   32  O3  UNL     1      -3.793  17.559  18.076  1.00  0.00    -0.277 OA
HETATM   33  N5  UNL     1      -1.892  16.060  18.725  1.00  0.00    -0.242 NA
HETATM   34  C27 UNL     1      -0.806  15.087  18.443  1.00  0.00     0.121 A 
HETATM   35  C28 UNL     1      -1.273  15.886  17.366  1.00  0.00     0.111 A 
ENDBRANCH  28  30
ENDBRANCH   7  26
BRANCH   6  36
HETATM   36  C17 UNL     1       2.547  20.159  17.483  1.00  0.00     0.131 C 
BRANCH  36  37
HETATM   37  C18 UNL     1       2.333  21.273  16.529  1.00  0.00     0.048 C 
BRANCH  37  38
HETATM   38  C19 UNL     1       2.653  20.915  15.112  1.00  0.00     0.237 C 
BRANCH  38  39
HETATM   39  N3  UNL     1       3.766  21.580  14.504  1.00  0.00    -0.079 N 
HETATM   40  C20 UNL     1       5.032  20.927  14.757  1.00  0.00     0.271 C 
HETATM   41  C21 UNL     1       3.574  21.918  13.101  1.00  0.00     0.271 C 
HETATM   42  C22 UNL     1       3.865  22.886  15.215  1.00  0.00     0.271 C 
ENDBRANCH  38  39
ENDBRANCH  37  38
ENDBRANCH  36  37
ENDBRANCH   6  36
TORSDOF 10
ENDMDL
MODEL 4
REMARK VINA RESULT: -7.449371018      3.014      5.992
REMARK  10 active torsions:
REMARK  status: ('A' for Active; 'I' for Inactive)
REMARK    1  A    between atoms: C6_6  and  C7_7 
REMARK    2  A    between atoms: C7_7  and  C8_8 
REMARK    3  A    between atoms: C10_13  and  C11_14 
REMARK    4  A    between atoms: C11_14  and  C12_15 
REMARK    5  A    between atoms: N2_20  and  C17_21 
REMARK    6  A    between atoms: C17_21  and  C18_22 
REMARK    7  A    between atoms: C18_22  and  C19_23 
REMARK    8  A    between atoms: C19_23  and  N3_24 
REMARK    9  A    between atoms: C23_28  and  C24_29 
REMARK       I    between atoms: C24_29  and  N4_31 
REMARK   10  A    between atoms: N4_31  and  C25_33 
ROOT
HETATM    1  C12 UNL     1       2.335  21.401  18.640  1.00  0.00     0.006 A 
HETATM    2  C13 UNL     1       3.595  21.915  19.005  1.00  0.00    -0.027 A 
HETATM    3  C14 UNL     1       4.082  22.055  20.400  1.00  0.00     0.051 C 
HETATM    4  C15 UNL     1       4.285  22.258  17.891  1.00  0.00     0.015 A 
HETATM    5  C16 UNL     1       5.665  22.844  17.798  1.00  0.00     0.069 C 
HETATM    6  N2  UNL     1       3.474  21.964  16.845  1.00  0.00    -0.345 N 
HETATM    7  C23 UNL     1       2.291  21.444  17.283  1.00  0.00     0.114 A 
ENDROOT
BRANCH   1   8
HETATM    8  C11 UNL     1       1.360  20.967  19.632  1.00  0.00     0.050 C 
BRANCH   8   9
HETATM    9  C10 UNL     1       1.012  19.696  19.748  1.00  0.00     0.103 A 
HETATM   10  C9  UNL     1       1.806  18.599  19.987  1.00  0.00     0.273 A 
HETATM   11  N1  UNL     1       1.042  17.491  20.029  1.00  0.00    -0.308 N 
HETATM   12  O1  UNL     1       3.054  18.636  20.140  1.00  0.00    -0.266 OA
HETATM   13  C8  UNL     1      -0.231  17.877  19.819  1.00  0.00     0.110 A 
ATOM     14  H1  UNL     1       1.367  16.537  20.191  1.00  0.00     0.170 HD
HETATM   15  N6  UNL     1      -0.256  19.201  19.650  1.00  0.00    -0.338 N 
ATOM     16  H6  UNL     1      -1.093  19.756  19.475  1.00  0.00     0.167 HD
BRANCH  13  17
HETATM   17  C7  UNL     1      -1.292  17.064  19.787  1.00  0.00     0.078 C 
BRANCH  17  18
HETATM   18  C6  UNL     1      -1.620  16.319  18.586  1.00  0.00     0.042 A 
HETATM   19  C4  UNL     1      -2.525  16.709  17.623  1.00  0.00    -0.033 A 
HETATM   20  C3  UNL     1      -2.577  15.754  16.629  1.00  0.00     0.033 A 
HETATM   21  C5  UNL     1      -3.354  17.950  17.592  1.00  0.00     0.050 C 
HETATM   22  C2  UNL     1      -1.694  14.780  16.998  1.00  0.00     0.006 A 
HETATM   23  C1  UNL     1      -1.434  13.540  16.191  1.00  0.00     0.068 C 
HETATM   24  N7  UNL     1      -1.133  15.130  18.165  1.00  0.00    -0.359 N 
ATOM     25  H7  UNL     1      -0.436  14.578  18.664  1.00  0.00     0.166 HD
ENDBRANCH  17  18
ENDBRANCH  13  17
ENDBRANCH   8   9
ENDBRANCH   1   8
BRANCH   7  26
HETATM   26  C24 UNL     1       1.202  20.981  16.444  1.00  0.00     0.270 C 
HETATM   27  O2  UNL     1       1.020  19.722  16.253  1.00  0.00    -0.266 OA
HETATM   28  N4  UNL     1       0.294  21.857  15.804  1.00  0.00    -0.341 N 
ATOM     29  H4  UNL     1       0.386  22.866  15.924  1.00  0.00     0.163 HD
BRANCH  28  30
HETATM   30  C25 UNL     1      -0.785  21.310  14.963  1.00  0.00     0.190 C 
HETATM   31  C26 UNL     1      -1.091  22.147  13.766  1.00  0.00     0.224 C 
HETATM   32  O3  UNL     1      -0.929  22.033  12.554  1.00  0.00    -0.277 OA
HETATM   33  N5  UNL     1      -1.638  23.086  14.715  1.00  0.00    -0.242 NA
HETATM   34  C27 UNL     1      -2.374  23.117  16.004  1.00  0.00     0.121 A 
HETATM   35  C28 UNL     1      -2.127  21.849  15.414  1.00  0.00     0.111 A 
ENDBRANCH  28  30
ENDBRANCH   7  26
BRANCH   6  36
HETATM   36  C17 UNL     1       3.838  22.168  15.470  1.00  0.00     0.131 C 
BRANCH  36  37
HETATM   37  C18 UNL     1       4.538  21.011  14.863  1.00  0.00     0.048 C 
BRANCH  37  38
HETATM   38  C19 UNL     1       5.177  21.323  13.547  1.00  0.00     0.237 C 
BRANCH  38  39
HETATM   39  N3  UNL     1       6.594  21.532  13.540  1.00  0.00    -0.079 N 
HETATM   40  C20 UNL     1       7.303  20.623  12.667  1.00  0.00     0.271 C 
HETATM   41  C21 UNL     1       6.998  22.919  13.362  1.00  0.00     0.271 C 
HETATM   42  C22 UNL     1       7.040  21.164  14.913  1.00  0.00     0.271 C 
ENDBRANCH  38  39
ENDBRANCH  37  38
ENDBRANCH  36  37
ENDBRANCH   6  36
TORSDOF 10
ENDMDL
MODEL 5
REMARK VINA RESULT: -7.412781663      2.426      4.599
REMARK  10 active torsions:
REMARK  status: ('A' for Active; 'I' for Inactive)
REMARK    1  A    between atoms: C6_6  and  C7_7 
REMARK    2  A    between atoms: C7_7  and  C8_8 
REMARK    3  A    between atoms: C10_13  and  C11_14 
REMARK    4  A    between atoms: C11_14  and  C12_15 
REMARK    5  A    between atoms: N2_20  and  C17_21 
REMARK    6  A    between atoms: C17_21  and  C18_22 
REMARK    7  A    between atoms: C18_22  and  C19_23 
REMARK    8  A    between atoms: C19_23  and  N3_24 
REMARK    9  A    between atoms: C23_28  and  C24_29 
REMARK       I    between atoms: C24_29  and  N4_31 
REMARK   10  A    between atoms: N4_31  and  C25_33 
ROOT
HETATM    1  C12 UNL     1      -0.106  21.588  16.116  1.00  0.00     0.006 A 
HETATM    2  C13 UNL     1       0.085  22.498  15.057  1.00  0.00    -0.027 A 
HETATM    3  C14 UNL     1      -0.936  23.462  14.574  1.00  0.00     0.051 C 
HETATM    4  C15 UNL     1       1.335  22.357  14.555  1.00  0.00     0.015 A 
HETATM    5  C16 UNL     1       1.973  23.114  13.426  1.00  0.00     0.069 C 
HETATM    6  N2  UNL     1       1.920  21.376  15.286  1.00  0.00    -0.345 N 
HETATM    7  C23 UNL     1       1.061  20.902  16.234  1.00  0.00     0.114 A 
ENDROOT
BRANCH   1   8
HETATM    8  C11 UNL     1      -1.367  21.495  16.838  1.00  0.00     0.050 C 
BRANCH   8   9
HETATM    9  C10 UNL     1      -2.127  20.414  16.762  1.00  0.00     0.103 A 
HETATM   10  C9  UNL     1      -3.163  20.144  15.901  1.00  0.00     0.273 A 
HETATM   11  N1  UNL     1      -3.666  18.923  16.170  1.00  0.00    -0.308 N 
HETATM   12  O1  UNL     1      -3.573  20.923  15.002  1.00  0.00    -0.266 OA
HETATM   13  C8  UNL     1      -2.956  18.418  17.196  1.00  0.00     0.110 A 
ATOM     14  H1  UNL     1      -4.440  18.467  15.687  1.00  0.00     0.170 HD
HETATM   15  N6  UNL     1      -2.028  19.309  17.556  1.00  0.00    -0.338 N 
ATOM     16  H6  UNL     1      -1.351  19.182  18.308  1.00  0.00     0.167 HD
BRANCH  13  17
HETATM   17  C7  UNL     1      -3.150  17.220  17.758  1.00  0.00     0.078 C 
BRANCH  17  18
HETATM   18  C6  UNL     1      -2.426  16.055  17.289  1.00  0.00     0.042 A 
HETATM   19  C4  UNL     1      -1.337  15.483  17.909  1.00  0.00    -0.033 A 
HETATM   20  C3  UNL     1      -0.912  14.394  17.179  1.00  0.00     0.033 A 
HETATM   21  C5  UNL     1      -0.667  15.918  19.170  1.00  0.00     0.050 C 
HETATM   22  C2  UNL     1      -1.755  14.307  16.107  1.00  0.00     0.006 A 
HETATM   23  C1  UNL     1      -1.650  13.251  15.045  1.00  0.00     0.068 C 
HETATM   24  N7  UNL     1      -2.651  15.303  16.187  1.00  0.00    -0.359 N 
ATOM     25  H7  UNL     1      -3.396  15.470  15.511  1.00  0.00     0.166 HD
ENDBRANCH  17  18
ENDBRANCH  13  17
ENDBRANCH   8   9
ENDBRANCH   1   8
BRANCH   7  26
HETATM   26  C24 UNL     1       1.360  19.878  17.218  1.00  0.00     0.270 C 
HETATM   27  O2  UNL     1       0.947  18.673  17.045  1.00  0.00    -0.266 OA
HETATM   28  N4  UNL     1       2.106  20.131  18.393  1.00  0.00    -0.341 N 
ATOM     29  H4  UNL     1       2.464  21.068  18.579  1.00  0.00     0.163 HD
BRANCH  28  30
HETATM   30  C25 UNL     1       2.364  19.039  19.347  1.00  0.00     0.190 C 
HETATM   31  C26 UNL     1       1.557  19.136  20.598  1.00  0.00     0.224 C 
HETATM   32  O3  UNL     1       0.619  18.511  21.085  1.00  0.00    -0.277 OA
HETATM   33  N5  UNL     1       2.398  20.266  20.908  1.00  0.00    -0.242 NA
HETATM   34  C27 UNL     1       3.799  20.733  20.742  1.00  0.00     0.121 A 
HETATM   35  C28 UNL     1       3.481  19.423  20.295  1.00  0.00     0.111 A 
ENDBRANCH  28  30
ENDBRANCH   7  26
BRANCH   6  36
HETATM   36  C17 UNL     1       3.269  20.923  15.079  1.00  0.00     0.131 C 
BRANCH  36  37
HETATM   37  C18 UNL     1       4.253  21.557  15.989  1.00  0.00     0.048 C 
BRANCH  37  38
HETATM   38  C19 UNL     1       5.033  22.661  15.348  1.00  0.00     0.237 C 
BRANCH  38  39
HETATM   39  N3  UNL     1       5.078  23.916  16.037  1.00  0.00    -0.079 N 
HETATM   40  C20 UNL     1       5.850  24.923  15.343  1.00  0.00     0.271 C 
HETATM   41  C21 UNL     1       3.783  24.404  16.486  1.00  0.00     0.271 C 
HETATM   42  C22 UNL     1       5.850  23.639  17.282  1.00  0.00     0.271 C 
ENDBRANCH  38  39
ENDBRANCH  37  38
ENDBRANCH  36  37
ENDBRANCH   6  36
TORSDOF 10
ENDMDL
