MODEL 1
REMARK VINA RESULT: -7.623143221      0.000      0.000
REMARK  8 active torsions:
REMARK  status: ('A' for Active; 'I' for Inactive)
REMARK    1  A    between atoms: C5_5  and  C6_6 
REMARK    2  A    between atoms: C6_6  and  C7_7 
REMARK    3  A    between atoms: C9_12  and  C10_13 
REMARK    4  A    between atoms: C11_14  and  C12_15 
REMARK    5  A    between atoms: C12_15  and  N2_16 
REMARK    6  A    between atoms: N3_19  and  C15_20 
REMARK    7  A    between atoms: C15_20  and  C16_21 
REMARK    8  A    between atoms: C25_34  and  O4_35 
ROOT
HETATM    1  C1  UNL     1      -1.279   6.180  28.952  1.00  0.00     0.102 C 
HETATM    2  C2  UNL     1      -1.783   5.714  27.938  1.00  0.00    -0.154 C 
HETATM    3  C3  UNL     1      -2.365   5.165  26.749  1.00  0.00    -0.025 C 
HETATM    4  C4  UNL     1      -3.759   5.514  26.382  1.00  0.00     0.057 C 
HETATM    5  C5  UNL     1      -1.631   4.361  26.010  1.00  0.00    -0.010 C 
ENDROOT
BRANCH   5   6
HETATM    6  C6  UNL     1      -2.146   3.737  24.750  1.00  0.00     0.056 C 
BRANCH   6   7
HETATM    7  C7  UNL     1      -1.117   3.934  23.625  1.00  0.00     0.118 C 
HETATM    8  N1  UNL     1      -0.025   3.033  23.761  1.00  0.00    -0.353 N 
HETATM    9  C8  UNL     1       0.057   1.676  23.392  1.00  0.00     0.226 C 
ATOM     10  H1  UNL     1       0.816   3.424  24.185  1.00  0.00     0.163 HD
HETATM   11  O1  UNL     1       0.712   0.909  24.153  1.00  0.00    -0.273 OA
HETATM   12  C9  UNL     1      -0.517   1.002  22.228  1.00  0.00     0.115 C 
HETATM   13  C20 UNL     1      -1.435   1.873  21.402  1.00  0.00     0.126 C 
HETATM   14  C21 UNL     1      -2.795   2.003  21.986  1.00  0.00     0.228 C 
HETATM   15  C25 UNL     1      -0.916   3.267  21.275  1.00  0.00     0.162 C 
HETATM   16  O3  UNL     1      -3.549   1.019  22.206  1.00  0.00    -0.273 OA
HETATM   17  N5  UNL     1      -3.069   3.388  22.240  1.00  0.00    -0.342 N 
HETATM   18  C22 UNL     1      -4.394   3.950  22.398  1.00  0.00     0.153 C 
HETATM   19  C23 UNL     1      -1.762   4.008  22.288  1.00  0.00     0.078 C 
HETATM   20  C24 UNL     1      -1.933   5.429  21.794  1.00  0.00     0.043 C 
BRANCH  12  21
HETATM   21  C10 UNL     1       0.630   0.660  21.328  1.00  0.00    -0.014 C 
HETATM   22  C11 UNL     1       0.787  -0.428  20.645  1.00  0.00    -0.002 C 
BRANCH  22  23
HETATM   23  C12 UNL     1      -0.105  -1.578  20.585  1.00  0.00     0.266 C 
BRANCH  23  24
HETATM   24  N2  UNL     1       0.056  -2.223  19.322  1.00  0.00    -0.036 N 
HETATM   25  C13 UNL     1       1.252  -2.980  19.144  1.00  0.00     0.268 C 
HETATM   26  C14 UNL     1       1.560  -2.904  17.637  1.00  0.00     0.273 C 
HETATM   27  N3  UNL     1       0.401  -2.224  17.155  1.00  0.00    -0.015 N 
HETATM   28  C17 UNL     1      -0.771  -3.102  17.385  1.00  0.00     0.273 C 
HETATM   29  C19 UNL     1       0.161  -1.260  18.203  1.00  0.00     0.479 C 
HETATM   30  C18 UNL     1      -1.055  -2.995  18.865  1.00  0.00     0.268 C 
BRANCH  27  31
HETATM   31  C15 UNL     1       0.419  -1.743  15.832  1.00  0.00     0.275 C 
BRANCH  31  32
HETATM   32  C16 UNL     1      -0.875  -1.509  15.233  1.00  0.00     0.278 C 
HETATM   33  N4  UNL     1      -1.334  -2.444  14.236  1.00  0.00    -0.057 NA
HETATM   34  O2  UNL     1      -1.625  -0.570  15.507  1.00  0.00    -0.270 OA
ENDBRANCH  31  32
ENDBRANCH  27  31
ENDBRANCH  23  24
ENDBRANCH  22  23
ENDBRANCH  12  21
BRANCH  15  35
HETATM   35  O4  UNL     1      -1.250   3.761  20.007  1.00  0.00    -0.392 OA
ATOM     36  H4  UNL     1      -0.964   4.665  19.945  1.00  0.00     0.210 HD
ENDBRANCH  15  35
ENDBRANCH   6   7
ENDBRANCH   5   6
TORSDOF 8
ENDMDL
MODEL 2
REMARK VINA RESULT: -7.263553389      1.791      2.557
REMARK  8 active torsions:
REMARK  status: ('A' for Active; 'I' for Inactive)
REMARK    1  A    between atoms: C5_5  and  C6_6 
REMARK    2  A    between atoms: C6_6  and  C7_7 
REMARK    3  A    between atoms: C9_12  and  C10_13 
REMARK    4  A    between atoms: C11_14  and  C12_15 
REMARK    5  A    between atoms: C12_15  and  N2_16 
REMARK    6  A    between atoms: N3_19  and  C15_20 
REMARK    7  A    between atoms: C15_20  and  C16_21 
REMARK    8  A    between atoms: C25_34  and  O4_35 
ROOT
HETATM    1  C1  UNL     1      -1.125   7.302  29.756  1.00  0.00     0.102 C 
HETATM    2  C2  UNL     1      -1.261   6.258  29.130  1.00  0.00    -0.154 C 
HETATM    3  C3  UNL     1      -1.426   5.041  28.392  1.00  0.00    -0.025 C 
HETATM    4  C4  UNL     1      -0.916   3.766  28.951  1.00  0.00     0.057 C 
HETATM    5  C5  UNL     1      -2.035   5.096  27.227  1.00  0.00    -0.010 C 
ENDROOT
BRANCH   5   6
HETATM    6  C6  UNL     1      -2.256   3.882  26.380  1.00  0.00     0.056 C 
BRANCH   6   7
HETATM    7  C7  UNL     1      -2.572   4.316  24.940  1.00  0.00     0.118 C 
HETATM    8  N1  UNL     1      -1.385   4.433  24.165  1.00  0.00    -0.353 N 
HETATM    9  C8  UNL     1      -0.632   3.422  23.535  1.00  0.00     0.226 C 
ATOM     10  H1  UNL     1      -1.028   5.381  24.049  1.00  0.00     0.163 HD
HETATM   11  O1  UNL     1       0.624   3.554  23.532  1.00  0.00    -0.273 OA
HETATM   12  C9  UNL     1      -1.098   2.208  22.865  1.00  0.00     0.115 C 
HETATM   13  C20 UNL     1      -2.583   1.959  23.006  1.00  0.00     0.126 C 
HETATM   14  C21 UNL     1      -2.951   1.366  24.318  1.00  0.00     0.228 C 
HETATM   15  C25 UNL     1      -3.373   3.220  22.898  1.00  0.00     0.162 C 
HETATM   16  O3  UNL     1      -2.494   0.269  24.732  1.00  0.00    -0.273 OA
HETATM   17  N5  UNL     1      -3.875   2.236  24.986  1.00  0.00    -0.342 N 
HETATM   18  C22 UNL     1      -4.768   1.829  26.051  1.00  0.00     0.153 C 
HETATM   19  C23 UNL     1      -3.680   3.521  24.350  1.00  0.00     0.078 C 
HETATM   20  C24 UNL     1      -5.012   4.241  24.398  1.00  0.00     0.043 C 
BRANCH  12  21
HETATM   21  C10 UNL     1      -0.863   2.415  21.401  1.00  0.00    -0.014 C 
HETATM   22  C11 UNL     1      -0.174   1.659  20.609  1.00  0.00    -0.002 C 
BRANCH  22  23
HETATM   23  C12 UNL     1       0.536   0.432  20.943  1.00  0.00     0.266 C 
BRANCH  23  24
HETATM   24  N2  UNL     1       0.828  -0.277  19.739  1.00  0.00    -0.036 N 
HETATM   25  C13 UNL     1       1.414   0.481  18.682  1.00  0.00     0.268 C 
HETATM   26  C14 UNL     1       0.937  -0.195  17.384  1.00  0.00     0.273 C 
HETATM   27  N3  UNL     1       0.256  -1.336  17.904  1.00  0.00    -0.015 N 
HETATM   28  C17 UNL     1       1.258  -2.196  18.580  1.00  0.00     0.273 C 
HETATM   29  C19 UNL     1      -0.391  -0.793  19.076  1.00  0.00     0.479 C 
HETATM   30  C18 UNL     1       1.549  -1.500  19.889  1.00  0.00     0.268 C 
BRANCH  27  31
HETATM   31  C15 UNL     1      -0.542  -2.090  17.023  1.00  0.00     0.275 C 
BRANCH  31  32
HETATM   32  C16 UNL     1      -1.679  -1.399  16.460  1.00  0.00     0.278 C 
HETATM   33  N4  UNL     1      -2.983  -1.696  17.000  1.00  0.00    -0.057 NA
HETATM   34  O2  UNL     1      -1.625  -0.570  15.550  1.00  0.00    -0.270 OA
ENDBRANCH  31  32
ENDBRANCH  27  31
ENDBRANCH  23  24
ENDBRANCH  22  23
ENDBRANCH  12  21
BRANCH  15  35
HETATM   35  O4  UNL     1      -4.589   2.940  22.261  1.00  0.00    -0.392 OA
ATOM     36  H4  UNL     1      -4.856   3.702  21.759  1.00  0.00     0.210 HD
ENDBRANCH  15  35
ENDBRANCH   6   7
ENDBRANCH   5   6
TORSDOF 8
ENDMDL
MODEL 3
REMARK VINA RESULT: -7.227817839      1.435      2.713
REMARK  8 active torsions:
REMARK  status: ('A' for Active; 'I' for Inactive)
REMARK    1  A    between atoms: C5_5  and  C6_6 
REMARK    2  A    between atoms: C6_6  and  C7_7 
REMARK    3  A    between atoms: C9_12  and  C10_13 
REMARK    4  A    between atoms: C11_14  and  C12_15 
REMARK    5  A    between atoms: C12_15  and  N2_16 
REMARK    6  A    between atoms: N3_19  and  C15_20 
REMARK    7  A    between atoms: C15_20  and  C16_21 
REMARK    8  A    between atoms: C25_34  and  O4_35 
ROOT
HETATM    1  C1  UNL     1      -5.235   6.458  27.851  1.00  0.00     0.102 C 
HETATM    2  C2  UNL     1      -4.309   5.943  27.238  1.00  0.00    -0.154 C 
HETATM    3  C3  UNL     1      -3.229   5.339  26.515  1.00  0.00    -0.025 C 
HETATM    4  C4  UNL     1      -1.964   5.011  27.216  1.00  0.00     0.057 C 
HETATM    5  C5  UNL     1      -3.401   5.089  25.234  1.00  0.00    -0.010 C 
ENDROOT
BRANCH   5   6
HETATM    6  C6  UNL     1      -2.336   4.461  24.390  1.00  0.00     0.056 C 
BRANCH   6   7
HETATM    7  C7  UNL     1      -2.987   3.743  23.198  1.00  0.00     0.118 C 
HETATM    8  N1  UNL     1      -2.485   4.235  21.962  1.00  0.00    -0.353 N 
HETATM    9  C8  UNL     1      -1.282   3.916  21.302  1.00  0.00     0.226 C 
ATOM     10  H1  UNL     1      -3.079   4.914  21.487  1.00  0.00     0.163 HD
HETATM   11  O1  UNL     1      -0.691   4.853  20.695  1.00  0.00    -0.273 OA
HETATM   12  C9  UNL     1      -0.594   2.629  21.212  1.00  0.00     0.115 C 
HETATM   13  C20 UNL     1      -1.205   1.542  22.068  1.00  0.00     0.126 C 
HETATM   14  C21 UNL     1      -0.813   1.641  23.498  1.00  0.00     0.228 C 
HETATM   15  C25 UNL     1      -2.696   1.594  22.054  1.00  0.00     0.162 C 
HETATM   16  O3  UNL     1       0.382   1.599  23.891  1.00  0.00    -0.273 OA
HETATM   17  N5  UNL     1      -1.993   1.788  24.301  1.00  0.00    -0.342 N 
HETATM   18  C22 UNL     1      -2.067   1.495  25.717  1.00  0.00     0.153 C 
HETATM   19  C23 UNL     1      -2.997   2.267  23.376  1.00  0.00     0.078 C 
HETATM   20  C24 UNL     1      -4.330   1.742  23.866  1.00  0.00     0.043 C 
BRANCH  12  21
HETATM   21  C10 UNL     1      -0.753   2.162  19.798  1.00  0.00    -0.014 C 
HETATM   22  C11 UNL     1      -0.007   1.312  19.170  1.00  0.00    -0.002 C 
BRANCH  22  23
HETATM   23  C12 UNL     1       1.161   0.606  19.679  1.00  0.00     0.266 C 
BRANCH  23  24
HETATM   24  N2  UNL     1       1.120  -0.746  19.222  1.00  0.00    -0.036 N 
HETATM   25  C13 UNL     1       2.345  -1.476  19.289  1.00  0.00     0.268 C 
HETATM   26  C14 UNL     1       2.276  -2.491  18.135  1.00  0.00     0.273 C 
HETATM   27  N3  UNL     1       0.945  -2.281  17.665  1.00  0.00    -0.015 N 
HETATM   28  C17 UNL     1       0.011  -2.683  18.744  1.00  0.00     0.273 C 
HETATM   29  C19 UNL     1       0.808  -0.848  17.779  1.00  0.00     0.479 C 
HETATM   30  C18 UNL     1       0.068  -1.556  19.749  1.00  0.00     0.268 C 
BRANCH  27  31
HETATM   31  C15 UNL     1       0.576  -2.864  16.437  1.00  0.00     0.275 C 
BRANCH  31  32
HETATM   32  C16 UNL     1      -0.164  -2.012  15.536  1.00  0.00     0.278 C 
HETATM   33  N4  UNL     1      -1.600  -1.980  15.664  1.00  0.00    -0.057 NA
HETATM   34  O2  UNL     1       0.336  -1.303  14.659  1.00  0.00    -0.270 OA
ENDBRANCH  31  32
ENDBRANCH  27  31
ENDBRANCH  23  24
ENDBRANCH  22  23
ENDBRANCH  12  21
BRANCH  15  35
HETATM   35  O4  UNL     1      -3.195   0.287  22.125  1.00  0.00    -0.392 OA
ATOM     36  H4  UNL     1      -3.652   0.087  21.316  1.00  0.00     0.210 HD
ENDBRANCH  15  35
ENDBRANCH   6   7
ENDBRANCH   5   6
TORSDOF 8
ENDMDL
MODEL 4
REMARK VINA RESULT: -7.090878379      2.259      9.688
REMARK  8 active torsions:
REMARK  status: ('A' for Active; 'I' for Inactive)
REMARK    1  A    between atoms: C5_5  and  C6_6 
REMARK    2  A    between atoms: C6_6  and  C7_7 
REMARK    3  A    between atoms: C9_12  and  C10_13 
REMARK    4  A    between atoms: C11_14  and  C12_15 
REMARK    5  A    between atoms: C12_15  and  N2_16 
REMARK    6  A    between atoms: N3_19  and  C15_20 
REMARK    7  A    between atoms: C15_20  and  C16_21 
REMARK    8  A    between atoms: C25_34  and  O4_35 
ROOT
HETATM    1  C1  UNL     1      -1.839  -3.901  13.044  1.00  0.00     0.102 C 
HETATM    2  C2  UNL     1      -1.490  -3.860  14.218  1.00  0.00    -0.154 C 
HETATM    3  C3  UNL     1      -1.074  -3.814  15.588  1.00  0.00    -0.025 C 
HETATM    4  C4  UNL     1      -2.086  -3.652  16.660  1.00  0.00     0.057 C 
HETATM    5  C5  UNL     1       0.210  -3.922  15.853  1.00  0.00    -0.010 C 
ENDROOT
BRANCH   5   6
HETATM    6  C6  UNL     1       0.746  -3.887  17.251  1.00  0.00     0.056 C 
BRANCH   6   7
HETATM    7  C7  UNL     1       1.635  -2.645  17.424  1.00  0.00     0.118 C 
HETATM    8  N1  UNL     1       1.000  -1.480  16.913  1.00  0.00    -0.353 N 
HETATM    9  C8  UNL     1       0.014  -0.671  17.513  1.00  0.00     0.226 C 
ATOM     10  H1  UNL     1       1.300  -1.190  15.983  1.00  0.00     0.163 HD
HETATM   11  O1  UNL     1      -0.879  -0.194  16.757  1.00  0.00    -0.273 OA
HETATM   12  C9  UNL     1      -0.136  -0.289  18.916  1.00  0.00     0.115 C 
HETATM   13  C20 UNL     1       0.829  -0.984  19.850  1.00  0.00     0.126 C 
HETATM   14  C21 UNL     1       0.411  -2.369  20.192  1.00  0.00     0.228 C 
HETATM   15  C25 UNL     1       2.191  -1.109  19.253  1.00  0.00     0.162 C 
HETATM   16  O3  UNL     1      -0.684  -2.642  20.748  1.00  0.00    -0.273 OA
HETATM   17  N5  UNL     1       1.438  -3.284  19.787  1.00  0.00    -0.342 N 
HETATM   18  C22 UNL     1       1.600  -4.625  20.310  1.00  0.00     0.153 C 
HETATM   19  C23 UNL     1       2.199  -2.553  18.797  1.00  0.00     0.078 C 
HETATM   20  C24 UNL     1       3.626  -3.054  18.882  1.00  0.00     0.043 C 
BRANCH  12  21
HETATM   21  C10 UNL     1       0.206   1.167  18.997  1.00  0.00    -0.014 C 
HETATM   22  C11 UNL     1      -0.289   2.038  19.816  1.00  0.00    -0.002 C 
BRANCH  22  23
HETATM   23  C12 UNL     1      -1.290   1.819  20.851  1.00  0.00     0.266 C 
BRANCH  23  24
HETATM   24  N2  UNL     1      -1.358   2.977  21.683  1.00  0.00    -0.036 N 
HETATM   25  C13 UNL     1      -0.246   3.201  22.550  1.00  0.00     0.268 C 
HETATM   26  C14 UNL     1      -0.828   3.931  23.774  1.00  0.00     0.273 C 
HETATM   27  N3  UNL     1      -2.175   4.142  23.354  1.00  0.00    -0.015 N 
HETATM   28  C17 UNL     1      -2.150   5.057  22.187  1.00  0.00     0.273 C 
HETATM   29  C19 UNL     1      -2.469   2.910  22.659  1.00  0.00     0.479 C 
HETATM   30  C18 UNL     1      -1.692   4.202  21.030  1.00  0.00     0.268 C 
BRANCH  27  31
HETATM   31  C15 UNL     1      -3.109   4.575  24.314  1.00  0.00     0.275 C 
BRANCH  31  32
HETATM   32  C16 UNL     1      -2.882   4.109  25.663  1.00  0.00     0.278 C 
HETATM   33  N4  UNL     1      -2.375   5.055  26.625  1.00  0.00    -0.057 NA
HETATM   34  O2  UNL     1      -3.088   2.960  26.061  1.00  0.00    -0.270 OA
ENDBRANCH  31  32
ENDBRANCH  27  31
ENDBRANCH  23  24
ENDBRANCH  22  23
ENDBRANCH  12  21
BRANCH  15  35
HETATM   35  O4  UNL     1       3.145  -0.986  20.271  1.00  0.00    -0.392 OA
ATOM     36  H4  UNL     1       3.568  -1.827  20.400  1.00  0.00     0.210 HD
ENDBRANCH  15  35
ENDBRANCH   6   7
ENDBRANCH   5   6
TORSDOF 8
ENDMDL
MODEL 5
REMARK VINA RESULT: -7.079619758      1.690      2.612
REMARK  8 active torsions:
REMARK  status: ('A' for Active; 'I' for Inactive)
REMARK    1  A    between atoms: C5_5  and  C6_6 
REMARK    2  A    between atoms: C6_6  and  C7_7 
REMARK    3  A    between atoms: C9_12  and  C10_13 
REMARK    4  A    between atoms: C11_14  and  C12_15 
REMARK    5  A    between atoms: C12_15  and  N2_16 
REMARK    6  A    between atoms: N3_19  and  C15_20 
REMARK    7  A    between atoms: C15_20  and  C16_21 
REMARK    8  A    between atoms: C25_34  and  O4_35 
ROOT
HETATM    1  C1  UNL     1      -1.334   6.248  28.935  1.00  0.00     0.102 C 
HETATM    2  C2  UNL     1      -1.812   5.701  27.949  1.00  0.00    -0.154 C 
HETATM    3  C3  UNL     1      -2.363   5.056  26.793  1.00  0.00    -0.025 C 
HETATM    4  C4  UNL     1      -3.711   5.440  26.309  1.00  0.00     0.057 C 
HETATM    5  C5  UNL     1      -1.642   4.135  26.191  1.00  0.00    -0.010 C 
ENDROOT
BRANCH   5   6
HETATM    6  C6  UNL     1      -2.127   3.405  24.977  1.00  0.00     0.056 C 
BRANCH   6   7
HETATM    7  C7  UNL     1      -1.325   3.866  23.750  1.00  0.00     0.118 C 
HETATM    8  N1  UNL     1      -0.163   3.068  23.562  1.00  0.00    -0.353 N 
HETATM    9  C8  UNL     1      -0.047   1.795  22.971  1.00  0.00     0.226 C 
ATOM     10  H1  UNL     1       0.707   3.474  23.904  1.00  0.00     0.163 HD
HETATM   11  O1  UNL     1       0.784   0.994  23.484  1.00  0.00    -0.273 OA
HETATM   12  C9  UNL     1      -0.762   1.245  21.820  1.00  0.00     0.115 C 
HETATM   13  C20 UNL     1      -1.871   2.132  21.302  1.00  0.00     0.126 C 
HETATM   14  C21 UNL     1      -3.115   2.039  22.109  1.00  0.00     0.228 C 
HETATM   15  C25 UNL     1      -1.486   3.574  21.320  1.00  0.00     0.162 C 
HETATM   16  O3  UNL     1      -3.745   0.964  22.285  1.00  0.00    -0.273 OA
HETATM   17  N5  UNL     1      -3.442   3.337  22.624  1.00  0.00    -0.342 N 
HETATM   18  C22 UNL     1      -4.757   3.736  23.080  1.00  0.00     0.153 C 
HETATM   19  C23 UNL     1      -2.196   4.070  22.562  1.00  0.00     0.078 C 
HETATM   20  C24 UNL     1      -2.553   5.525  22.337  1.00  0.00     0.043 C 
BRANCH  12  21
HETATM   21  C10 UNL     1       0.234   1.155  20.706  1.00  0.00    -0.014 C 
HETATM   22  C11 UNL     1       0.276   0.263  19.769  1.00  0.00    -0.002 C 
BRANCH  22  23
HETATM   23  C12 UNL     1      -0.627  -0.863  19.570  1.00  0.00     0.266 C 
BRANCH  23  24
HETATM   24  N2  UNL     1       0.084  -1.919  18.924  1.00  0.00    -0.036 N 
HETATM   25  C13 UNL     1      -0.314  -3.248  19.255  1.00  0.00     0.268 C 
HETATM   26  C14 UNL     1       0.958  -4.102  19.105  1.00  0.00     0.273 C 
HETATM   27  N3  UNL     1       1.869  -3.144  18.566  1.00  0.00    -0.015 N 
HETATM   28  C17 UNL     1       1.371  -2.743  17.228  1.00  0.00     0.273 C 
HETATM   29  C19 UNL     1       1.516  -1.950  19.298  1.00  0.00     0.479 C 
HETATM   30  C18 UNL     1       0.214  -1.812  17.506  1.00  0.00     0.268 C 
BRANCH  27  31
HETATM   31  C15 UNL     1       3.234  -3.484  18.514  1.00  0.00     0.275 C 
BRANCH  31  32
HETATM   32  C16 UNL     1       4.031  -3.050  19.638  1.00  0.00     0.278 C 
HETATM   33  N4  UNL     1       3.967  -3.828  20.850  1.00  0.00    -0.057 NA
HETATM   34  O2  UNL     1       4.767  -2.061  19.646  1.00  0.00    -0.270 OA
ENDBRANCH  31  32
ENDBRANCH  27  31
ENDBRANCH  23  24
ENDBRANCH  22  23
ENDBRANCH  12  21
BRANCH  15  35
HETATM   35  O4  UNL     1      -2.070   4.213  20.219  1.00  0.00    -0.392 OA
ATOM     36  H4  UNL     1      -2.797   4.744  20.522  1.00  0.00     0.210 HD
ENDBRANCH  15  35
ENDBRANCH   6   7
ENDBRANCH   5   6
TORSDOF 8
ENDMDL
