MODEL 1
REMARK VINA RESULT: -5.648758992      0.000      0.000
REMARK  9 active torsions:
REMARK  status: ('A' for Active; 'I' for Inactive)
REMARK    1  A    between atoms: C3_3  and  C4_4 
REMARK    2  A    between atoms: C4_4  and  N1_5 
REMARK       I    between atoms: N1_5  and  C6_7 
REMARK    3  A    between atoms: C6_7  and  C7_9 
REMARK    4  A    between atoms: C7_9  and  N2_11 
REMARK    5  A    between atoms: C10_14  and  C11_15 
REMARK    6  A    between atoms: N3_17  and  C13_18 
REMARK    7  A    between atoms: C13_18  and  C14_19 
REMARK       I    between atoms: C14_19  and  N4_21 
REMARK    8  A    between atoms: N6_28  and  C17_29 
REMARK    9  A    between atoms: C20_32  and  N7_34 
ROOT
HETATM    1  C1  UNL     1      -1.251  -3.194  13.007  1.00  0.00     0.112 C 
HETATM    2  C2  UNL     1      -1.299  -3.100  14.450  1.00  0.00    -0.109 C 
HETATM    3  C3  UNL     1      -1.314  -3.013  15.633  1.00  0.00    -0.087 C 
ENDROOT
BRANCH   3   4
HETATM    4  C4  UNL     1      -1.297  -2.906  17.066  1.00  0.00     0.219 C 
BRANCH   4   5
HETATM    5  N1  UNL     1      -0.134  -2.094  17.539  1.00  0.00    -0.341 N 
HETATM    6  C5  UNL     1       1.139  -2.729  17.283  1.00  0.00     0.154 C 
HETATM    7  C6  UNL     1      -0.356  -0.880  18.171  1.00  0.00     0.266 C 
HETATM    8  O1  UNL     1      -1.600  -0.583  18.328  1.00  0.00    -0.266 OA
BRANCH   7   9
HETATM    9  C7  UNL     1       0.661   0.030  18.647  1.00  0.00     0.085 C 
HETATM   10  C8  UNL     1       1.375   0.964  17.757  1.00  0.00     0.075 C 
BRANCH   9  11
HETATM   11  N2  UNL     1       0.644   0.458  20.036  1.00  0.00    -0.262 N 
HETATM   12  C9  UNL     1      -0.114   1.624  20.352  1.00  0.00     0.253 C 
HETATM   13  O2  UNL     1      -0.144   2.431  19.343  1.00  0.00    -0.270 OA
HETATM   14  C10 UNL     1      -0.890   2.148  21.569  1.00  0.00     0.195 C 
HETATM   15  N3  UNL     1      -0.356   1.734  22.805  1.00  0.00    -0.196 N 
HETATM   16  C16 UNL     1       0.069   0.367  23.099  1.00  0.00     0.678 C 
HETATM   17  N5  UNL     1       0.001   0.074  24.356  1.00  0.00    -0.234 N 
HETATM   18  N6  UNL     1       0.527  -0.677  22.243  1.00  0.00    -0.166 N 
ATOM     19  H52 UNL     1      -0.327   0.821  24.968  1.00  0.00     0.174 HD
ATOM     20  H51 UNL     1       0.298  -0.879  24.561  1.00  0.00     0.174 HD
HETATM   21  C19 UNL     1       1.233  -0.450  20.946  1.00  0.00     0.157 C 
HETATM   22  C20 UNL     1       2.301  -1.069  20.800  1.00  0.00     0.066 C 
HETATM   23  C21 UNL     1       3.301  -1.126  19.742  1.00  0.00     0.074 C 
BRANCH  14  24
HETATM   24  C11 UNL     1      -1.051   3.595  21.247  1.00  0.00     0.031 C 
HETATM   25  C12 UNL     1      -2.372   4.233  21.223  1.00  0.00     0.007 C 
ENDBRANCH  14  24
BRANCH  15  26
HETATM   26  C13 UNL     1      -0.255   2.570  24.001  1.00  0.00     0.244 C 
BRANCH  26  27
HETATM   27  C14 UNL     1      -1.515   2.935  24.633  1.00  0.00     0.235 C 
HETATM   28  O3  UNL     1      -2.314   2.044  25.043  1.00  0.00    -0.272 OA
HETATM   29  N4  UNL     1      -1.832   4.305  24.782  1.00  0.00    -0.364 N 
HETATM   30  C15 UNL     1      -3.052   4.756  25.403  1.00  0.00     0.149 C 
ATOM     31  H4  UNL     1      -1.171   5.002  24.438  1.00  0.00     0.161 HD
ENDBRANCH  26  27
ENDBRANCH  15  26
BRANCH  18  32
HETATM   32  C17 UNL     1       0.329  -2.005  22.634  1.00  0.00     0.145 C 
HETATM   33  C18 UNL     1      -0.878  -2.628  21.827  1.00  0.00     0.027 C 
ENDBRANCH  18  32
BRANCH  22  34
HETATM   34  N7  UNL     1       2.840  -1.931  21.883  1.00  0.00    -0.308 N 
HETATM   35  N8  UNL     1       3.816  -2.700  21.726  1.00  0.00    -0.345 N 
ATOM     36  H82 UNL     1       4.250  -2.723  20.804  1.00  0.00     0.176 HD
ATOM     37  H81 UNL     1       4.187  -3.291  22.470  1.00  0.00     0.176 HD
ATOM     38  H7  UNL     1       2.394  -1.894  22.800  1.00  0.00     0.186 HD
ENDBRANCH  22  34
ENDBRANCH   9  11
ENDBRANCH   7   9
ENDBRANCH   4   5
ENDBRANCH   3   4
TORSDOF 9
ENDMDL
MODEL 2
REMARK VINA RESULT: -5.493839172      3.660      9.317
REMARK  9 active torsions:
REMARK  status: ('A' for Active; 'I' for Inactive)
REMARK    1  A    between atoms: C3_3  and  C4_4 
REMARK    2  A    between atoms: C4_4  and  N1_5 
REMARK       I    between atoms: N1_5  and  C6_7 
REMARK    3  A    between atoms: C6_7  and  C7_9 
REMARK    4  A    between atoms: C7_9  and  N2_11 
REMARK    5  A    between atoms: C10_14  and  C11_15 
REMARK    6  A    between atoms: N3_17  and  C13_18 
REMARK    7  A    between atoms: C13_18  and  C14_19 
REMARK       I    between atoms: C14_19  and  N4_21 
REMARK    8  A    between atoms: N6_28  and  C17_29 
REMARK    9  A    between atoms: C20_32  and  N7_34 
ROOT
HETATM    1  C1  UNL     1      -0.875   7.062  29.684  1.00  0.00     0.112 C 
HETATM    2  C2  UNL     1      -2.216   6.555  29.491  1.00  0.00    -0.109 C 
HETATM    3  C3  UNL     1      -3.307   6.115  29.334  1.00  0.00    -0.087 C 
ENDROOT
BRANCH   3   4
HETATM    4  C4  UNL     1      -4.614   5.553  29.132  1.00  0.00     0.219 C 
BRANCH   4   5
HETATM    5  N1  UNL     1      -4.555   4.331  28.272  1.00  0.00    -0.341 N 
HETATM    6  C5  UNL     1      -4.182   3.142  29.005  1.00  0.00     0.154 C 
HETATM    7  C6  UNL     1      -4.822   4.433  26.915  1.00  0.00     0.266 C 
HETATM    8  O1  UNL     1      -5.066   5.632  26.511  1.00  0.00    -0.266 OA
BRANCH   7   9
HETATM    9  C7  UNL     1      -4.842   3.342  25.968  1.00  0.00     0.085 C 
HETATM   10  C8  UNL     1      -6.092   2.770  25.435  1.00  0.00     0.075 C 
BRANCH   9  11
HETATM   11  N2  UNL     1      -3.696   3.130  25.098  1.00  0.00    -0.262 N 
HETATM   12  C9  UNL     1      -3.589   3.960  23.944  1.00  0.00     0.253 C 
HETATM   13  O2  UNL     1      -4.761   4.310  23.528  1.00  0.00    -0.270 OA
HETATM   14  C10 UNL     1      -2.449   4.533  23.089  1.00  0.00     0.195 C 
HETATM   15  N3  UNL     1      -1.312   3.702  23.028  1.00  0.00    -0.196 N 
HETATM   16  C16 UNL     1      -0.716   3.040  24.187  1.00  0.00     0.678 C 
HETATM   17  N5  UNL     1       0.546   2.806  24.043  1.00  0.00    -0.234 N 
HETATM   18  N6  UNL     1      -1.286   2.630  25.428  1.00  0.00    -0.166 N 
ATOM     19  H52 UNL     1       0.954   3.099  23.155  1.00  0.00     0.174 HD
ATOM     20  H51 UNL     1       0.962   2.343  24.851  1.00  0.00     0.174 HD
HETATM   21  C19 UNL     1      -2.718   2.246  25.608  1.00  0.00     0.157 C 
HETATM   22  C20 UNL     1      -2.915   1.157  26.173  1.00  0.00     0.066 C 
HETATM   23  C21 UNL     1      -4.111   0.399  26.520  1.00  0.00     0.074 C 
BRANCH  14  24
HETATM   24  C11 UNL     1      -3.159   4.955  21.848  1.00  0.00     0.031 C 
HETATM   25  C12 UNL     1      -2.788   6.180  21.132  1.00  0.00     0.007 C 
ENDBRANCH  14  24
BRANCH  15  26
HETATM   26  C13 UNL     1      -0.500   3.472  21.834  1.00  0.00     0.244 C 
BRANCH  26  27
HETATM   27  C14 UNL     1      -0.882   2.331  21.013  1.00  0.00     0.235 C 
HETATM   28  O3  UNL     1      -1.875   1.613  21.328  1.00  0.00    -0.272 OA
HETATM   29  N4  UNL     1      -0.125   2.039  19.855  1.00  0.00    -0.364 N 
HETATM   30  C15 UNL     1      -0.437   0.936  18.982  1.00  0.00     0.149 C 
ATOM     31  H4  UNL     1       0.673   2.633  19.628  1.00  0.00     0.161 HD
ENDBRANCH  26  27
ENDBRANCH  15  26
BRANCH  18  32
HETATM   32  C17 UNL     1      -0.462   2.556  26.556  1.00  0.00     0.145 C 
HETATM   33  C18 UNL     1      -0.921   3.624  27.626  1.00  0.00     0.027 C 
ENDBRANCH  18  32
BRANCH  22  34
HETATM   34  N7  UNL     1      -1.781   0.290  26.584  1.00  0.00    -0.308 N 
HETATM   35  N8  UNL     1      -1.636  -0.886  26.183  1.00  0.00    -0.345 N 
ATOM     36  H82 UNL     1      -2.340  -1.253  25.542  1.00  0.00     0.176 HD
ATOM     37  H81 UNL     1      -0.856  -1.482  26.464  1.00  0.00     0.176 HD
ATOM     38  H7  UNL     1      -1.085   0.673  27.224  1.00  0.00     0.186 HD
ENDBRANCH  22  34
ENDBRANCH   9  11
ENDBRANCH   7   9
ENDBRANCH   4   5
ENDBRANCH   3   4
TORSDOF 9
ENDMDL
MODEL 3
REMARK VINA RESULT: -5.491950245      4.459      8.111
REMARK  9 active torsions:
REMARK  status: ('A' for Active; 'I' for Inactive)
REMARK    1  A    between atoms: C3_3  and  C4_4 
REMARK    2  A    between atoms: C4_4  and  N1_5 
REMARK       I    between atoms: N1_5  and  C6_7 
REMARK    3  A    between atoms: C6_7  and  C7_9 
REMARK    4  A    between atoms: C7_9  and  N2_11 
REMARK    5  A    between atoms: C10_14  and  C11_15 
REMARK    6  A    between atoms: N3_17  and  C13_18 
REMARK    7  A    between atoms: C13_18  and  C14_19 
REMARK       I    between atoms: C14_19  and  N4_21 
REMARK    8  A    between atoms: N6_28  and  C17_29 
REMARK    9  A    between atoms: C20_32  and  N7_34 
ROOT
HETATM    1  C1  UNL     1      -1.691   5.019  28.219  1.00  0.00     0.112 C 
HETATM    2  C2  UNL     1      -1.249   3.784  27.609  1.00  0.00    -0.109 C 
HETATM    3  C3  UNL     1      -0.871   2.786  27.091  1.00  0.00    -0.087 C 
ENDROOT
BRANCH   3   4
HETATM    4  C4  UNL     1      -0.403   1.595  26.436  1.00  0.00     0.219 C 
BRANCH   4   5
HETATM    5  N1  UNL     1      -0.598   1.674  24.956  1.00  0.00    -0.341 N 
HETATM    6  C5  UNL     1       0.285   2.626  24.320  1.00  0.00     0.154 C 
HETATM    7  C6  UNL     1      -1.571   0.894  24.348  1.00  0.00     0.266 C 
HETATM    8  O1  UNL     1      -2.263   0.178  25.165  1.00  0.00    -0.266 OA
BRANCH   7   9
HETATM    9  C7  UNL     1      -1.849   0.833  22.932  1.00  0.00     0.085 C 
HETATM   10  C8  UNL     1      -1.509  -0.336  22.100  1.00  0.00     0.075 C 
BRANCH   9  11
HETATM   11  N2  UNL     1      -2.931   1.635  22.381  1.00  0.00    -0.262 N 
HETATM   12  C9  UNL     1      -4.256   1.125  22.515  1.00  0.00     0.253 C 
HETATM   13  O2  UNL     1      -4.244  -0.167  22.529  1.00  0.00    -0.270 OA
HETATM   14  C10 UNL     1      -5.666   1.719  22.646  1.00  0.00     0.195 C 
HETATM   15  N3  UNL     1      -5.831   2.946  21.975  1.00  0.00    -0.196 N 
HETATM   16  C16 UNL     1      -4.873   4.048  22.033  1.00  0.00     0.678 C 
HETATM   17  N5  UNL     1      -5.417   5.204  21.839  1.00  0.00    -0.234 N 
HETATM   18  N6  UNL     1      -3.468   4.058  22.273  1.00  0.00    -0.166 N 
ATOM     19  H52 UNL     1      -6.423   5.197  21.667  1.00  0.00     0.174 HD
ATOM     20  H51 UNL     1      -4.749   5.973  21.879  1.00  0.00     0.174 HD
HETATM   21  C19 UNL     1      -2.552   2.924  21.943  1.00  0.00     0.157 C 
HETATM   22  C20 UNL     1      -1.543   3.224  21.282  1.00  0.00     0.066 C 
HETATM   23  C21 UNL     1      -0.431   2.461  20.730  1.00  0.00     0.074 C 
BRANCH  14  24
HETATM   24  C11 UNL     1      -6.537   0.549  22.333  1.00  0.00     0.031 C 
HETATM   25  C12 UNL     1      -7.631   0.148  23.224  1.00  0.00     0.007 C 
ENDBRANCH  14  24
BRANCH  15  26
HETATM   26  C13 UNL     1      -7.021   3.342  21.222  1.00  0.00     0.244 C 
BRANCH  26  27
HETATM   27  C14 UNL     1      -8.240   3.513  22.001  1.00  0.00     0.235 C 
HETATM   28  O3  UNL     1      -8.198   3.993  23.170  1.00  0.00    -0.272 OA
HETATM   29  N4  UNL     1      -9.475   3.134  21.426  1.00  0.00    -0.364 N 
HETATM   30  C15 UNL     1     -10.730   3.276  22.120  1.00  0.00     0.149 C 
ATOM     31  H4  UNL     1      -9.479   2.746  20.482  1.00  0.00     0.161 HD
ENDBRANCH  26  27
ENDBRANCH  15  26
BRANCH  18  32
HETATM   32  C17 UNL     1      -2.888   5.199  22.836  1.00  0.00     0.145 C 
HETATM   33  C18 UNL     1      -2.703   4.996  24.393  1.00  0.00     0.027 C 
ENDBRANCH  18  32
BRANCH  22  34
HETATM   34  N7  UNL     1      -1.317   4.618  20.819  1.00  0.00    -0.308 N 
HETATM   35  N8  UNL     1      -1.178   4.926  19.614  1.00  0.00    -0.345 N 
ATOM     36  H82 UNL     1      -1.226   4.172  18.929  1.00  0.00     0.176 HD
ATOM     37  H81 UNL     1      -1.023   5.883  19.296  1.00  0.00     0.176 HD
ATOM     38  H7  UNL     1      -1.273   5.360  21.518  1.00  0.00     0.186 HD
ENDBRANCH  22  34
ENDBRANCH   9  11
ENDBRANCH   7   9
ENDBRANCH   4   5
ENDBRANCH   3   4
TORSDOF 9
ENDMDL
MODEL 4
REMARK VINA RESULT: -5.429864878      2.106      7.355
REMARK  9 active torsions:
REMARK  status: ('A' for Active; 'I' for Inactive)
REMARK    1  A    between atoms: C3_3  and  C4_4 
REMARK    2  A    between atoms: C4_4  and  N1_5 
REMARK       I    between atoms: N1_5  and  C6_7 
REMARK    3  A    between atoms: C6_7  and  C7_9 
REMARK    4  A    between atoms: C7_9  and  N2_11 
REMARK    5  A    between atoms: C10_14  and  C11_15 
REMARK    6  A    between atoms: N3_17  and  C13_18 
REMARK    7  A    between atoms: C13_18  and  C14_19 
REMARK       I    between atoms: C14_19  and  N4_21 
REMARK    8  A    between atoms: N6_28  and  C17_29 
REMARK    9  A    between atoms: C20_32  and  N7_34 
ROOT
HETATM    1  C1  UNL     1      -1.671   5.320  20.008  1.00  0.00     0.112 C 
HETATM    2  C2  UNL     1      -1.941   4.221  20.909  1.00  0.00    -0.109 C 
HETATM    3  C3  UNL     1      -2.171   3.338  21.667  1.00  0.00    -0.087 C 
ENDROOT
BRANCH   3   4
HETATM    4  C4  UNL     1      -2.449   2.290  22.611  1.00  0.00     0.219 C 
BRANCH   4   5
HETATM    5  N1  UNL     1      -1.465   1.171  22.489  1.00  0.00    -0.341 N 
HETATM    6  C5  UNL     1      -0.101   1.591  22.721  1.00  0.00     0.154 C 
HETATM    7  C6  UNL     1      -1.908  -0.100  22.157  1.00  0.00     0.266 C 
HETATM    8  O1  UNL     1      -3.176  -0.180  21.940  1.00  0.00    -0.266 OA
BRANCH   7   9
HETATM    9  C7  UNL     1      -1.088  -1.284  22.040  1.00  0.00     0.085 C 
HETATM   10  C8  UNL     1      -1.090  -2.359  23.049  1.00  0.00     0.075 C 
BRANCH   9  11
HETATM   11  N2  UNL     1      -0.661  -1.730  20.724  1.00  0.00    -0.262 N 
HETATM   12  C9  UNL     1      -1.606  -2.458  19.942  1.00  0.00     0.253 C 
HETATM   13  O2  UNL     1      -2.413  -3.117  20.707  1.00  0.00    -0.270 OA
HETATM   14  C10 UNL     1      -1.899  -2.647  18.447  1.00  0.00     0.195 C 
HETATM   15  N3  UNL     1      -0.754  -2.574  17.629  1.00  0.00    -0.196 N 
HETATM   16  C16 UNL     1       0.282  -1.550  17.758  1.00  0.00     0.678 C 
HETATM   17  N5  UNL     1       0.908  -1.321  16.651  1.00  0.00    -0.234 N 
HETATM   18  N6  UNL     1       0.698  -0.773  18.878  1.00  0.00    -0.166 N 
ATOM     19  H52 UNL     1       0.610  -1.878  15.849  1.00  0.00     0.174 HD
ATOM     20  H51 UNL     1       1.631  -0.607  16.740  1.00  0.00     0.174 HD
HETATM   21  C19 UNL     1       0.588  -1.222  20.299  1.00  0.00     0.157 C 
HETATM   22  C20 UNL     1       1.627  -1.129  20.973  1.00  0.00     0.066 C 
HETATM   23  C21 UNL     1       1.975  -1.465  22.348  1.00  0.00     0.074 C 
BRANCH  14  24
HETATM   24  C11 UNL     1      -2.770  -3.858  18.442  1.00  0.00     0.031 C 
HETATM   25  C12 UNL     1      -4.131  -3.821  17.898  1.00  0.00     0.007 C 
ENDBRANCH  14  24
BRANCH  15  26
HETATM   26  C13 UNL     1      -0.488  -3.428  16.473  1.00  0.00     0.244 C 
BRANCH  26  27
HETATM   27  C14 UNL     1      -1.364  -3.238  15.325  1.00  0.00     0.235 C 
HETATM   28  O3  UNL     1      -1.426  -2.119  14.738  1.00  0.00    -0.272 OA
HETATM   29  N4  UNL     1      -2.144  -4.327  14.873  1.00  0.00    -0.364 N 
HETATM   30  C15 UNL     1      -3.030  -4.231  13.741  1.00  0.00     0.149 C 
ATOM     31  H4  UNL     1      -2.076  -5.217  15.368  1.00  0.00     0.161 HD
ENDBRANCH  26  27
ENDBRANCH  15  26
BRANCH  18  32
HETATM   32  C17 UNL     1       1.266   0.485  18.652  1.00  0.00     0.145 C 
HETATM   33  C18 UNL     1       0.224   1.617  19.013  1.00  0.00     0.027 C 
ENDBRANCH  18  32
BRANCH  22  34
HETATM   34  N7  UNL     1       2.895  -0.648  20.365  1.00  0.00    -0.308 N 
HETATM   35  N8  UNL     1       3.875  -1.395  20.143  1.00  0.00    -0.345 N 
ATOM     36  H82 UNL     1       3.782  -2.378  20.397  1.00  0.00     0.176 HD
ATOM     37  H81 UNL     1       4.745  -1.065  19.725  1.00  0.00     0.176 HD
ATOM     38  H7  UNL     1       2.970   0.338  20.117  1.00  0.00     0.186 HD
ENDBRANCH  22  34
ENDBRANCH   9  11
ENDBRANCH   7   9
ENDBRANCH   4   5
ENDBRANCH   3   4
TORSDOF 9
ENDMDL
MODEL 5
REMARK VINA RESULT: -5.339858532      4.543      7.950
REMARK  9 active torsions:
REMARK  status: ('A' for Active; 'I' for Inactive)
REMARK    1  A    between atoms: C3_3  and  C4_4 
REMARK    2  A    between atoms: C4_4  and  N1_5 
REMARK       I    between atoms: N1_5  and  C6_7 
REMARK    3  A    between atoms: C6_7  and  C7_9 
REMARK    4  A    between atoms: C7_9  and  N2_11 
REMARK    5  A    between atoms: C10_14  and  C11_15 
REMARK    6  A    between atoms: N3_17  and  C13_18 
REMARK    7  A    between atoms: C13_18  and  C14_19 
REMARK       I    between atoms: C14_19  and  N4_21 
REMARK    8  A    between atoms: N6_28  and  C17_29 
REMARK    9  A    between atoms: C20_32  and  N7_34 
ROOT
HETATM    1  C1  UNL     1      -5.866  -2.160  23.513  1.00  0.00     0.112 C 
HETATM    2  C2  UNL     1      -4.843  -1.719  24.435  1.00  0.00    -0.109 C 
HETATM    3  C3  UNL     1      -4.009  -1.332  25.185  1.00  0.00    -0.087 C 
ENDROOT
BRANCH   3   4
HETATM    4  C4  UNL     1      -2.999  -0.833  26.078  1.00  0.00     0.219 C 
BRANCH   4   5
HETATM    5  N1  UNL     1      -2.219   0.279  25.452  1.00  0.00    -0.341 N 
HETATM    6  C5  UNL     1      -1.411  -0.157  24.335  1.00  0.00     0.154 C 
HETATM    7  C6  UNL     1      -2.307   1.559  25.976  1.00  0.00     0.266 C 
HETATM    8  O1  UNL     1      -3.055   1.655  27.021  1.00  0.00    -0.266 OA
BRANCH   7   9
HETATM    9  C7  UNL     1      -1.647   2.737  25.460  1.00  0.00     0.085 C 
HETATM   10  C8  UNL     1      -0.190   2.941  25.554  1.00  0.00     0.075 C 
BRANCH   9  11
HETATM   11  N2  UNL     1      -2.264   3.484  24.375  1.00  0.00    -0.262 N 
HETATM   12  C9  UNL     1      -1.805   3.214  23.052  1.00  0.00     0.253 C 
HETATM   13  O2  UNL     1      -0.566   2.848  23.069  1.00  0.00    -0.270 OA
HETATM   14  C10 UNL     1      -2.407   3.247  21.640  1.00  0.00     0.195 C 
HETATM   15  N3  UNL     1      -3.404   4.228  21.469  1.00  0.00    -0.196 N 
HETATM   16  C16 UNL     1      -4.483   4.475  22.423  1.00  0.00     0.678 C 
HETATM   17  N5  UNL     1      -5.540   4.976  21.874  1.00  0.00    -0.234 N 
HETATM   18  N6  UNL     1      -4.563   4.248  23.828  1.00  0.00    -0.166 N 
ATOM     19  H52 UNL     1      -5.483   5.139  20.868  1.00  0.00     0.174 HD
ATOM     20  H51 UNL     1      -6.294   5.149  22.539  1.00  0.00     0.174 HD
HETATM   21  C19 UNL     1      -3.386   4.258  24.749  1.00  0.00     0.157 C 
HETATM   22  C20 UNL     1      -3.498   4.977  25.756  1.00  0.00     0.066 C 
HETATM   23  C21 UNL     1      -2.617   5.301  26.871  1.00  0.00     0.074 C 
BRANCH  14  24
HETATM   24  C11 UNL     1      -1.193   3.228  20.774  1.00  0.00     0.031 C 
HETATM   25  C12 UNL     1      -0.870   2.071  19.932  1.00  0.00     0.007 C 
ENDBRANCH  14  24
BRANCH  15  26
HETATM   26  C13 UNL     1      -3.575   5.058  20.278  1.00  0.00     0.244 C 
BRANCH  26  27
HETATM   27  C14 UNL     1      -2.986   6.389  20.338  1.00  0.00     0.235 C 
HETATM   28  O3  UNL     1      -3.567   7.324  20.961  1.00  0.00    -0.272 OA
HETATM   29  N4  UNL     1      -1.751   6.620  19.689  1.00  0.00    -0.364 N 
HETATM   30  C15 UNL     1      -1.094   7.902  19.704  1.00  0.00     0.149 C 
ATOM     31  H4  UNL     1      -1.307   5.848  19.191  1.00  0.00     0.161 HD
ENDBRANCH  26  27
ENDBRANCH  15  26
BRANCH  18  32
HETATM   32  C17 UNL     1      -5.817   4.019  24.404  1.00  0.00     0.145 C 
HETATM   33  C18 UNL     1      -6.018   2.472  24.657  1.00  0.00     0.027 C 
ENDBRANCH  18  32
BRANCH  22  34
HETATM   34  N7  UNL     1      -4.713   5.803  25.976  1.00  0.00    -0.308 N 
HETATM   35  N8  UNL     1      -4.980   6.353  27.069  1.00  0.00    -0.345 N 
ATOM     36  H82 UNL     1      -4.320   6.218  27.835  1.00  0.00     0.176 HD
ATOM     37  H81 UNL     1      -5.814   6.921  27.220  1.00  0.00     0.176 HD
ATOM     38  H7  UNL     1      -5.362   5.929  25.199  1.00  0.00     0.186 HD
ENDBRANCH  22  34
ENDBRANCH   9  11
ENDBRANCH   7   9
ENDBRANCH   4   5
ENDBRANCH   3   4
TORSDOF 9
ENDMDL
