MODEL 1
REMARK VINA RESULT: -7.109842468      0.000      0.000
REMARK  8 active torsions:
REMARK  status: ('A' for Active; 'I' for Inactive)
REMARK    1  A    between atoms: C2_2  and  N1_3 
REMARK    2  A    between atoms: N1_3  and  N2_4 
REMARK       I    between atoms: N2_4  and  C3_6 
REMARK       I    between atoms: C3_6  and  N3_8 
REMARK    3  A    between atoms: N3_8  and  C4_10 
REMARK    4  A    between atoms: C4_10  and  C5_11 
REMARK    5  A    between atoms: C5_11  and  C7_13 
REMARK       I    between atoms: C7_13  and  N4_15 
REMARK    6  A    between atoms: C8_16  and  C9_17 
REMARK    7  A    between atoms: C9_17  and  C10_18 
REMARK    8  A    between atoms: C21_30  and  O4_31 
ROOT
HETATM    1  C7  UNL     1       0.268   1.810  26.294  1.00  0.00     0.226 C 
HETATM    2  O2  UNL     1       0.304   1.734  27.576  1.00  0.00    -0.273 OA
HETATM    3  N4  UNL     1      -0.848   2.466  25.646  1.00  0.00    -0.332 N 
HETATM    4  C8  UNL     1      -1.921   3.087  26.473  1.00  0.00     0.158 C 
HETATM    5  C13 UNL     1      -2.956   3.475  25.465  1.00  0.00     0.156 C 
HETATM    6  O3  UNL     1      -4.152   3.468  25.473  1.00  0.00    -0.295 OA
HETATM    7  C14 UNL     1      -2.075   3.905  24.359  1.00  0.00     0.087 C 
HETATM    8  C15 UNL     1      -2.596   3.891  22.983  1.00  0.00     0.006 C 
HETATM    9  C16 UNL     1      -2.759   5.306  22.492  1.00  0.00     0.011 C 
HETATM   10  C17 UNL     1      -1.898   5.493  21.286  1.00  0.00    -0.009 A 
HETATM   11  C18 UNL     1      -2.012   4.625  20.096  1.00  0.00     0.010 A 
HETATM   12  C19 UNL     1      -1.005   4.317  21.180  1.00  0.00    -0.003 A 
HETATM   13  C20 UNL     1      -1.434   3.307  22.178  1.00  0.00     0.026 C 
HETATM   14  C21 UNL     1      -0.321   3.070  23.243  1.00  0.00     0.146 C 
HETATM   15  C22 UNL     1      -1.228   2.629  24.330  1.00  0.00     0.129 C 
ENDROOT
BRANCH   1  16
HETATM   16  C5  UNL     1       1.409   1.203  25.585  1.00  0.00     0.092 C 
HETATM   17  C6  UNL     1       2.400   0.666  26.608  1.00  0.00     0.021 C 
BRANCH  16  18
HETATM   18  C4  UNL     1       0.863  -0.064  24.904  1.00  0.00     0.138 C 
BRANCH  18  19
HETATM   19  N3  UNL     1       1.402  -0.148  23.566  1.00  0.00    -0.341 N 
HETATM   20  C3  UNL     1       0.571  -0.390  22.437  1.00  0.00     0.340 C 
HETATM   21  N2  UNL     1       1.103  -0.466  21.137  1.00  0.00    -0.164 N 
HETATM   22  O1  UNL     1      -0.646  -0.533  22.654  1.00  0.00    -0.246 OA
ATOM     23  H2  UNL     1       2.109  -0.337  21.034  1.00  0.00     0.199 HD
ATOM     24  H3  UNL     1       2.406  -0.031  23.427  1.00  0.00     0.164 HD
BRANCH  21  25
HETATM   25  N1  UNL     1       0.370  -0.702  19.986  1.00  0.00     0.046 N 
HETATM   26  C23 UNL     1       1.028  -0.074  18.831  1.00  0.00     0.259 C 
HETATM   27  C24 UNL     1       0.080  -0.426  17.752  1.00  0.00     0.093 C 
HETATM   28  C26 UNL     1       0.381   1.219  19.338  1.00  0.00     0.098 C 
HETATM   29  N5  UNL     1      -1.062  -0.250  18.320  1.00  0.00    -0.371 N 
HETATM   30  C25 UNL     1      -0.708   0.180  19.649  1.00  0.00     0.317 C 
ATOM     31  H5  UNL     1      -1.993  -0.382  17.925  1.00  0.00     0.160 HD
BRANCH  25  32
HETATM   32  C2  UNL     1       0.088  -2.116  19.745  1.00  0.00     0.264 C 
HETATM   33  C1  UNL     1       1.299  -2.976  19.993  1.00  0.00     0.037 C 
ENDBRANCH  25  32
ENDBRANCH  21  25
ENDBRANCH  18  19
ENDBRANCH  16  18
ENDBRANCH   1  16
BRANCH   4  34
HETATM   34  C9  UNL     1      -1.381   4.228  27.261  1.00  0.00     0.037 C 
BRANCH  34  35
HETATM   35  C10 UNL     1      -2.356   4.966  28.112  1.00  0.00    -0.020 C 
HETATM   36  C11 UNL     1      -1.719   6.149  28.814  1.00  0.00     0.009 C 
HETATM   37  C12 UNL     1      -3.156   4.162  29.068  1.00  0.00     0.009 C 
ENDBRANCH  34  35
ENDBRANCH   4  34
BRANCH  14  38
HETATM   38  O4  UNL     1       0.158   4.369  23.478  1.00  0.00    -0.393 OA
ATOM     39  H4  UNL     1       1.071   4.301  23.225  1.00  0.00     0.210 HD
ENDBRANCH  14  38
TORSDOF 8
ENDMDL
MODEL 2
REMARK VINA RESULT: -6.835214980      2.707      7.260
REMARK  8 active torsions:
REMARK  status: ('A' for Active; 'I' for Inactive)
REMARK    1  A    between atoms: C2_2  and  N1_3 
REMARK    2  A    between atoms: N1_3  and  N2_4 
REMARK       I    between atoms: N2_4  and  C3_6 
REMARK       I    between atoms: C3_6  and  N3_8 
REMARK    3  A    between atoms: N3_8  and  C4_10 
REMARK    4  A    between atoms: C4_10  and  C5_11 
REMARK    5  A    between atoms: C5_11  and  C7_13 
REMARK       I    between atoms: C7_13  and  N4_15 
REMARK    6  A    between atoms: C8_16  and  C9_17 
REMARK    7  A    between atoms: C9_17  and  C10_18 
REMARK    8  A    between atoms: C21_30  and  O4_31 
ROOT
HETATM    1  C7  UNL     1      -4.153   2.365  22.257  1.00  0.00     0.226 C 
HETATM    2  O2  UNL     1      -3.914   1.117  22.448  1.00  0.00    -0.273 OA
HETATM    3  N4  UNL     1      -3.068   3.254  21.898  1.00  0.00    -0.332 N 
HETATM    4  C8  UNL     1      -1.696   2.707  21.708  1.00  0.00     0.158 C 
HETATM    5  C13 UNL     1      -0.853   3.931  21.544  1.00  0.00     0.156 C 
HETATM    6  O3  UNL     1       0.250   4.222  21.904  1.00  0.00    -0.295 OA
HETATM    7  C14 UNL     1      -1.786   4.771  20.764  1.00  0.00     0.087 C 
HETATM    8  C15 UNL     1      -1.625   6.234  20.793  1.00  0.00     0.006 C 
HETATM    9  C16 UNL     1      -1.147   6.714  19.447  1.00  0.00     0.011 C 
HETATM   10  C17 UNL     1      -2.160   7.662  18.894  1.00  0.00    -0.009 A 
HETATM   11  C18 UNL     1      -2.599   8.864  19.632  1.00  0.00     0.010 A 
HETATM   12  C19 UNL     1      -3.375   7.570  19.736  1.00  0.00    -0.003 A 
HETATM   13  C20 UNL     1      -3.063   6.737  20.923  1.00  0.00     0.026 C 
HETATM   14  C21 UNL     1      -3.919   5.434  20.926  1.00  0.00     0.146 C 
HETATM   15  C22 UNL     1      -2.969   4.619  21.723  1.00  0.00     0.129 C 
ENDROOT
BRANCH   1  16
HETATM   16  C5  UNL     1      -5.556   2.782  22.426  1.00  0.00     0.092 C 
HETATM   17  C6  UNL     1      -6.434   1.542  22.525  1.00  0.00     0.021 C 
BRANCH  16  18
HETATM   18  C4  UNL     1      -5.650   3.411  23.827  1.00  0.00     0.138 C 
BRANCH  18  19
HETATM   19  N3  UNL     1      -4.853   2.631  24.746  1.00  0.00    -0.341 N 
HETATM   20  C3  UNL     1      -3.767   3.203  25.466  1.00  0.00     0.340 C 
HETATM   21  N2  UNL     1      -2.998   2.439  26.363  1.00  0.00    -0.164 N 
HETATM   22  O1  UNL     1      -3.529   4.407  25.264  1.00  0.00    -0.246 OA
ATOM     23  H2  UNL     1      -3.252   1.458  26.481  1.00  0.00     0.199 HD
ATOM     24  H3  UNL     1      -5.074   1.645  24.882  1.00  0.00     0.164 HD
BRANCH  21  25
HETATM   25  N1  UNL     1      -1.925   2.910  27.100  1.00  0.00     0.046 N 
HETATM   26  C23 UNL     1      -1.637   1.997  28.215  1.00  0.00     0.259 C 
HETATM   27  C24 UNL     1      -0.504   2.698  28.857  1.00  0.00     0.093 C 
HETATM   28  C26 UNL     1      -2.809   2.696  28.912  1.00  0.00     0.098 C 
HETATM   29  N5  UNL     1      -0.875   3.930  28.799  1.00  0.00    -0.371 N 
HETATM   30  C25 UNL     1      -2.159   3.860  28.148  1.00  0.00     0.317 C 
ATOM     31  H5  UNL     1      -0.379   4.757  29.134  1.00  0.00     0.160 HD
BRANCH  25  32
HETATM   32  C2  UNL     1      -0.732   3.180  26.299  1.00  0.00     0.264 C 
HETATM   33  C1  UNL     1      -0.462   2.075  25.313  1.00  0.00     0.037 C 
ENDBRANCH  25  32
ENDBRANCH  21  25
ENDBRANCH  18  19
ENDBRANCH  16  18
ENDBRANCH   1  16
BRANCH   4  34
HETATM   34  C9  UNL     1      -1.658   1.781  20.544  1.00  0.00     0.037 C 
BRANCH  34  35
HETATM   35  C10 UNL     1      -0.322   1.234  20.175  1.00  0.00    -0.020 C 
HETATM   36  C11 UNL     1      -0.338   0.556  18.819  1.00  0.00     0.009 C 
HETATM   37  C12 UNL     1       0.353   0.376  21.179  1.00  0.00     0.009 C 
ENDBRANCH  34  35
ENDBRANCH   4  34
BRANCH  14  38
HETATM   38  O4  UNL     1      -3.903   5.055  19.575  1.00  0.00    -0.393 OA
ATOM     39  H4  UNL     1      -4.158   4.141  19.614  1.00  0.00     0.210 HD
ENDBRANCH  14  38
TORSDOF 8
ENDMDL
MODEL 3
REMARK VINA RESULT: -6.829868307      3.161      7.906
REMARK  8 active torsions:
REMARK  status: ('A' for Active; 'I' for Inactive)
REMARK    1  A    between atoms: C2_2  and  N1_3 
REMARK    2  A    between atoms: N1_3  and  N2_4 
REMARK       I    between atoms: N2_4  and  C3_6 
REMARK       I    between atoms: C3_6  and  N3_8 
REMARK    3  A    between atoms: N3_8  and  C4_10 
REMARK    4  A    between atoms: C4_10  and  C5_11 
REMARK    5  A    between atoms: C5_11  and  C7_13 
REMARK       I    between atoms: C7_13  and  N4_15 
REMARK    6  A    between atoms: C8_16  and  C9_17 
REMARK    7  A    between atoms: C9_17  and  C10_18 
REMARK    8  A    between atoms: C21_30  and  O4_31 
ROOT
HETATM    1  C7  UNL     1      -4.590   2.513  22.360  1.00  0.00     0.226 C 
HETATM    2  O2  UNL     1      -4.453   1.265  22.632  1.00  0.00    -0.273 OA
HETATM    3  N4  UNL     1      -3.420   3.313  22.062  1.00  0.00    -0.332 N 
HETATM    4  C8  UNL     1      -2.076   2.672  22.027  1.00  0.00     0.158 C 
HETATM    5  C13 UNL     1      -1.141   3.830  21.885  1.00  0.00     0.156 C 
HETATM    6  O3  UNL     1      -0.059   4.072  22.331  1.00  0.00    -0.295 OA
HETATM    7  C14 UNL     1      -1.942   4.684  20.982  1.00  0.00     0.087 C 
HETATM    8  C15 UNL     1      -1.687   6.134  20.956  1.00  0.00     0.006 C 
HETATM    9  C16 UNL     1      -1.059   6.510  19.639  1.00  0.00     0.011 C 
HETATM   10  C17 UNL     1      -1.953   7.489  18.950  1.00  0.00    -0.009 A 
HETATM   11  C18 UNL     1      -2.375   8.753  19.586  1.00  0.00     0.010 A 
HETATM   12  C19 UNL     1      -3.241   7.518  19.679  1.00  0.00    -0.003 A 
HETATM   13  C20 UNL     1      -3.095   6.732  20.928  1.00  0.00     0.026 C 
HETATM   14  C21 UNL     1      -4.032   5.487  20.913  1.00  0.00     0.146 C 
HETATM   15  C22 UNL     1      -3.215   4.658  21.833  1.00  0.00     0.129 C 
ENDROOT
BRANCH   1  16
HETATM   16  C5  UNL     1      -5.972   3.026  22.377  1.00  0.00     0.092 C 
HETATM   17  C6  UNL     1      -6.908   1.942  21.862  1.00  0.00     0.021 C 
BRANCH  16  18
HETATM   18  C4  UNL     1      -6.356   3.168  23.860  1.00  0.00     0.138 C 
BRANCH  18  19
HETATM   19  N3  UNL     1      -5.528   4.185  24.466  1.00  0.00    -0.341 N 
HETATM   20  C3  UNL     1      -4.907   3.991  25.731  1.00  0.00     0.340 C 
HETATM   21  N2  UNL     1      -4.097   4.984  26.311  1.00  0.00    -0.164 N 
HETATM   22  O1  UNL     1      -5.114   2.904  26.298  1.00  0.00    -0.246 OA
ATOM     23  H2  UNL     1      -3.969   5.850  25.788  1.00  0.00     0.199 HD
ATOM     24  H3  UNL     1      -5.384   5.067  23.972  1.00  0.00     0.164 HD
BRANCH  21  25
HETATM   25  N1  UNL     1      -3.460   4.881  27.537  1.00  0.00     0.046 N 
HETATM   26  C23 UNL     1      -2.176   5.595  27.499  1.00  0.00     0.259 C 
HETATM   27  C24 UNL     1      -1.677   5.332  28.867  1.00  0.00     0.093 C 
HETATM   28  C26 UNL     1      -1.656   4.342  26.785  1.00  0.00     0.098 C 
HETATM   29  N5  UNL     1      -1.996   4.097  29.044  1.00  0.00    -0.371 N 
HETATM   30  C25 UNL     1      -2.636   3.739  27.803  1.00  0.00     0.317 C 
ATOM     31  H5  UNL     1      -1.833   3.513  29.864  1.00  0.00     0.160 HD
BRANCH  25  32
HETATM   32  C2  UNL     1      -4.283   5.306  28.667  1.00  0.00     0.264 C 
HETATM   33  C1  UNL     1      -5.039   6.572  28.361  1.00  0.00     0.037 C 
ENDBRANCH  25  32
ENDBRANCH  21  25
ENDBRANCH  18  19
ENDBRANCH  16  18
ENDBRANCH   1  16
BRANCH   4  34
HETATM   34  C9  UNL     1      -1.995   1.684  20.917  1.00  0.00     0.037 C 
BRANCH  34  35
HETATM   35  C10 UNL     1      -0.658   1.079  20.664  1.00  0.00    -0.020 C 
HETATM   36  C11 UNL     1      -0.136   1.407  19.280  1.00  0.00     0.009 C 
HETATM   37  C12 UNL     1      -0.514  -0.371  20.945  1.00  0.00     0.009 C 
ENDBRANCH  34  35
ENDBRANCH   4  34
BRANCH  14  38
HETATM   38  O4  UNL     1      -3.920   5.036  19.589  1.00  0.00    -0.393 OA
ATOM     39  H4  UNL     1      -4.795   4.714  19.405  1.00  0.00     0.210 HD
ENDBRANCH  14  38
TORSDOF 8
ENDMDL
MODEL 4
REMARK VINA RESULT: -6.815288494      2.920      7.624
REMARK  8 active torsions:
REMARK  status: ('A' for Active; 'I' for Inactive)
REMARK    1  A    between atoms: C2_2  and  N1_3 
REMARK    2  A    between atoms: N1_3  and  N2_4 
REMARK       I    between atoms: N2_4  and  C3_6 
REMARK       I    between atoms: C3_6  and  N3_8 
REMARK    3  A    between atoms: N3_8  and  C4_10 
REMARK    4  A    between atoms: C4_10  and  C5_11 
REMARK    5  A    between atoms: C5_11  and  C7_13 
REMARK       I    between atoms: C7_13  and  N4_15 
REMARK    6  A    between atoms: C8_16  and  C9_17 
REMARK    7  A    between atoms: C9_17  and  C10_18 
REMARK    8  A    between atoms: C21_30  and  O4_31 
ROOT
HETATM    1  C7  UNL     1      -4.533   2.503  22.288  1.00  0.00     0.226 C 
HETATM    2  O2  UNL     1      -4.395   1.249  22.530  1.00  0.00    -0.273 OA
HETATM    3  N4  UNL     1      -3.367   3.304  21.978  1.00  0.00    -0.332 N 
HETATM    4  C8  UNL     1      -2.027   2.658  21.898  1.00  0.00     0.158 C 
HETATM    5  C13 UNL     1      -1.090   3.815  21.756  1.00  0.00     0.156 C 
HETATM    6  O3  UNL     1       0.004   4.042  22.182  1.00  0.00    -0.295 OA
HETATM    7  C14 UNL     1      -1.909   4.691  20.891  1.00  0.00     0.087 C 
HETATM    8  C15 UNL     1      -1.648   6.139  20.889  1.00  0.00     0.006 C 
HETATM    9  C16 UNL     1      -1.050   6.541  19.565  1.00  0.00     0.011 C 
HETATM   10  C17 UNL     1      -1.955   7.538  18.919  1.00  0.00    -0.009 A 
HETATM   11  C18 UNL     1      -2.356   8.790  19.591  1.00  0.00     0.010 A 
HETATM   12  C19 UNL     1      -3.226   7.557  19.679  1.00  0.00    -0.003 A 
HETATM   13  C20 UNL     1      -3.053   6.744  20.908  1.00  0.00     0.026 C 
HETATM   14  C21 UNL     1      -3.996   5.504  20.890  1.00  0.00     0.146 C 
HETATM   15  C22 UNL     1      -3.160   4.653  21.772  1.00  0.00     0.129 C 
ENDROOT
BRANCH   1  16
HETATM   16  C5  UNL     1      -5.911   3.021  22.350  1.00  0.00     0.092 C 
HETATM   17  C6  UNL     1      -6.868   1.943  21.860  1.00  0.00     0.021 C 
BRANCH  16  18
HETATM   18  C4  UNL     1      -6.249   3.160  23.844  1.00  0.00     0.138 C 
BRANCH  18  19
HETATM   19  N3  UNL     1      -5.367   4.138  24.437  1.00  0.00    -0.341 N 
HETATM   20  C3  UNL     1      -4.455   3.794  25.474  1.00  0.00     0.340 C 
HETATM   21  N2  UNL     1      -3.595   4.752  26.042  1.00  0.00    -0.164 N 
HETATM   22  O1  UNL     1      -4.455   2.610  25.853  1.00  0.00    -0.246 OA
ATOM     23  H2  UNL     1      -3.648   5.704  25.680  1.00  0.00     0.199 HD
ATOM     24  H3  UNL     1      -5.399   5.102  24.103  1.00  0.00     0.164 HD
BRANCH  21  25
HETATM   25  N1  UNL     1      -2.683   4.506  27.055  1.00  0.00     0.046 N 
HETATM   26  C23 UNL     1      -3.380   4.381  28.343  1.00  0.00     0.259 C 
HETATM   27  C24 UNL     1      -2.236   4.155  29.252  1.00  0.00     0.093 C 
HETATM   28  C26 UNL     1      -3.403   5.913  28.325  1.00  0.00     0.098 C 
HETATM   29  N5  UNL     1      -1.358   4.982  28.800  1.00  0.00    -0.371 N 
HETATM   30  C25 UNL     1      -2.034   5.612  27.695  1.00  0.00     0.317 C 
ATOM     31  H5  UNL     1      -0.412   5.150  29.143  1.00  0.00     0.160 HD
BRANCH  25  32
HETATM   32  C2  UNL     1      -1.810   3.362  26.798  1.00  0.00     0.264 C 
HETATM   33  C1  UNL     1      -1.053   3.519  25.506  1.00  0.00     0.037 C 
ENDBRANCH  25  32
ENDBRANCH  21  25
ENDBRANCH  18  19
ENDBRANCH  16  18
ENDBRANCH   1  16
BRANCH   4  34
HETATM   34  C9  UNL     1      -1.978   1.693  20.766  1.00  0.00     0.037 C 
BRANCH  34  35
HETATM   35  C10 UNL     1      -0.687   0.978  20.559  1.00  0.00    -0.020 C 
HETATM   36  C11 UNL     1      -0.055   1.317  19.223  1.00  0.00     0.009 C 
HETATM   37  C12 UNL     1      -0.691  -0.489  20.776  1.00  0.00     0.009 C 
ENDBRANCH  34  35
ENDBRANCH   4  34
BRANCH  14  38
HETATM   38  O4  UNL     1      -3.918   5.080  19.554  1.00  0.00    -0.393 OA
ATOM     39  H4  UNL     1      -4.179   5.858  19.075  1.00  0.00     0.210 HD
ENDBRANCH  14  38
TORSDOF 8
ENDMDL
MODEL 5
REMARK VINA RESULT: -6.801406852      0.632      1.380
REMARK  8 active torsions:
REMARK  status: ('A' for Active; 'I' for Inactive)
REMARK    1  A    between atoms: C2_2  and  N1_3 
REMARK    2  A    between atoms: N1_3  and  N2_4 
REMARK       I    between atoms: N2_4  and  C3_6 
REMARK       I    between atoms: C3_6  and  N3_8 
REMARK    3  A    between atoms: N3_8  and  C4_10 
REMARK    4  A    between atoms: C4_10  and  C5_11 
REMARK    5  A    between atoms: C5_11  and  C7_13 
REMARK       I    between atoms: C7_13  and  N4_15 
REMARK    6  A    between atoms: C8_16  and  C9_17 
REMARK    7  A    between atoms: C9_17  and  C10_18 
REMARK    8  A    between atoms: C21_30  and  O4_31 
ROOT
HETATM    1  C7  UNL     1       0.237   1.784  26.189  1.00  0.00     0.226 C 
HETATM    2  O2  UNL     1       0.270   1.676  27.469  1.00  0.00    -0.273 OA
HETATM    3  N4  UNL     1      -0.885   2.445  25.555  1.00  0.00    -0.332 N 
HETATM    4  C8  UNL     1      -1.965   3.034  26.395  1.00  0.00     0.158 C 
HETATM    5  C13 UNL     1      -3.003   3.436  25.396  1.00  0.00     0.156 C 
HETATM    6  O3  UNL     1      -4.198   3.418  25.400  1.00  0.00    -0.295 OA
HETATM    7  C14 UNL     1      -2.124   3.903  24.302  1.00  0.00     0.087 C 
HETATM    8  C15 UNL     1      -2.643   3.918  22.925  1.00  0.00     0.006 C 
HETATM    9  C16 UNL     1      -2.820   5.344  22.470  1.00  0.00     0.011 C 
HETATM   10  C17 UNL     1      -1.958   5.569  21.270  1.00  0.00    -0.009 A 
HETATM   11  C18 UNL     1      -2.061   4.730  20.059  1.00  0.00     0.010 A 
HETATM   12  C19 UNL     1      -1.053   4.405  21.137  1.00  0.00    -0.003 A 
HETATM   13  C20 UNL     1      -1.474   3.366  22.108  1.00  0.00     0.026 C 
HETATM   14  C21 UNL     1      -0.360   3.114  23.169  1.00  0.00     0.146 C 
HETATM   15  C22 UNL     1      -1.265   2.636  24.243  1.00  0.00     0.129 C 
ENDROOT
BRANCH   1  16
HETATM   16  C5  UNL     1       1.384   1.206  25.467  1.00  0.00     0.092 C 
HETATM   17  C6  UNL     1       2.372   0.641  26.477  1.00  0.00     0.021 C 
BRANCH  16  18
HETATM   18  C4  UNL     1       0.849  -0.041  24.742  1.00  0.00     0.138 C 
BRANCH  18  19
HETATM   19  N3  UNL     1       1.560  -0.201  23.494  1.00  0.00    -0.341 N 
HETATM   20  C3  UNL     1       0.879  -0.447  22.269  1.00  0.00     0.340 C 
HETATM   21  N2  UNL     1       1.578  -0.596  21.058  1.00  0.00    -0.164 N 
HETATM   22  O1  UNL     1      -0.362  -0.523  22.321  1.00  0.00    -0.246 OA
ATOM     23  H2  UNL     1       2.595  -0.519  21.090  1.00  0.00     0.199 HD
ATOM     24  H3  UNL     1       2.578  -0.137  23.492  1.00  0.00     0.164 HD
BRANCH  21  25
HETATM   25  N1  UNL     1       0.998  -0.841  19.825  1.00  0.00     0.046 N 
HETATM   26  C23 UNL     1       0.776  -2.283  19.649  1.00  0.00     0.259 C 
HETATM   27  C24 UNL     1       0.190  -2.306  18.291  1.00  0.00     0.093 C 
HETATM   28  C26 UNL     1       2.266  -2.332  19.294  1.00  0.00     0.098 C 
HETATM   29  N5  UNL     1       0.912  -1.441  17.666  1.00  0.00    -0.371 N 
HETATM   30  C25 UNL     1       1.839  -0.992  18.674  1.00  0.00     0.317 C 
ATOM     31  H5  UNL     1       0.844  -1.146  16.692  1.00  0.00     0.160 HD
BRANCH  25  32
HETATM   32  C2  UNL     1      -0.221  -0.071  19.582  1.00  0.00     0.264 C 
HETATM   33  C1  UNL     1       0.084   1.366  19.252  1.00  0.00     0.037 C 
ENDBRANCH  25  32
ENDBRANCH  21  25
ENDBRANCH  18  19
ENDBRANCH  16  18
ENDBRANCH   1  16
BRANCH   4  34
HETATM   34  C9  UNL     1      -1.439   4.160  27.212  1.00  0.00     0.037 C 
BRANCH  34  35
HETATM   35  C10 UNL     1      -2.434   4.908  28.031  1.00  0.00    -0.020 C 
HETATM   36  C11 UNL     1      -1.823   6.123  28.701  1.00  0.00     0.009 C 
HETATM   37  C12 UNL     1      -3.230   4.121  29.003  1.00  0.00     0.009 C 
ENDBRANCH  34  35
ENDBRANCH   4  34
BRANCH  14  38
HETATM   38  O4  UNL     1       0.105   4.411  23.437  1.00  0.00    -0.393 OA
ATOM     39  H4  UNL     1       0.141   4.425  24.386  1.00  0.00     0.210 HD
ENDBRANCH  14  38
TORSDOF 8
ENDMDL
