MODEL 1
REMARK VINA RESULT: -6.833761438      0.000      0.000
REMARK  11 active torsions:
REMARK  status: ('A' for Active; 'I' for Inactive)
REMARK    1  A    between atoms: C2_2  and  N1_3 
REMARK       I    between atoms: N1_3  and  C3_4 
REMARK    2  A    between atoms: N1_3  and  C5_14 
REMARK    3  A    between atoms: C3_4  and  C4_6 
REMARK    4  A    between atoms: C4_6  and  N2_7 
REMARK    5  A    between atoms: N2_7  and  N3_9 
REMARK    6  A    between atoms: C5_14  and  C7_16 
REMARK       I    between atoms: C7_16  and  N5_18 
REMARK    7  A    between atoms: N5_18  and  C8_20 
REMARK    8  A    between atoms: N6_22  and  C10_23 
REMARK    9  A    between atoms: C10_23  and  C11_24 
REMARK   10  A    between atoms: C11_24  and  C12_25 
REMARK   11  A    between atoms: C18_38  and  C19_39 
ROOT
HETATM    1  C8  UNL     1      41.000  24.990  52.587  1.00  0.00     0.141 C 
HETATM    2  C9  UNL     1      41.941  24.056  51.944  1.00  0.00     0.156 C 
HETATM    3  N6  UNL     1      43.016  23.794  52.881  1.00  0.00    -0.346 N 
HETATM    4  C16 UNL     1      42.737  24.555  54.082  1.00  0.00     0.251 C 
HETATM    5  O3  UNL     1      43.550  24.903  54.949  1.00  0.00    -0.268 OA
HETATM    6  C17 UNL     1      41.306  24.822  54.058  1.00  0.00     0.031 C 
HETATM    7  C18 UNL     1      40.459  24.889  55.051  1.00  0.00    -0.007 C 
ENDROOT
BRANCH   1   8
HETATM    8  N5  UNL     1      41.143  26.378  52.211  1.00  0.00    -0.349 N 
HETATM    9  C7  UNL     1      40.032  27.257  52.191  1.00  0.00     0.240 C 
HETATM   10  O2  UNL     1      38.885  26.847  52.503  1.00  0.00    -0.271 OA
ATOM     11  H5  UNL     1      42.065  26.733  51.953  1.00  0.00     0.163 HD
BRANCH   9  12
HETATM   12  C5  UNL     1      40.289  28.691  51.788  1.00  0.00     0.175 C 
HETATM   13  C6  UNL     1      41.502  28.754  50.944  1.00  0.00     0.042 C 
BRANCH  12  14
HETATM   14  N1  UNL     1      39.114  29.290  51.202  1.00  0.00    -0.338 N 
HETATM   15  C3  UNL     1      38.096  29.959  51.910  1.00  0.00     0.239 C 
HETATM   16  O1  UNL     1      37.174  30.556  51.247  1.00  0.00    -0.271 OA
BRANCH  14  17
HETATM   17  C2  UNL     1      38.979  29.257  49.737  1.00  0.00     0.122 C 
HETATM   18  C1  UNL     1      38.156  28.045  49.319  1.00  0.00     0.026 C 
ENDBRANCH  14  17
BRANCH  15  19
HETATM   19  C4  UNL     1      37.995  30.032  53.382  1.00  0.00     0.243 C 
BRANCH  19  20
HETATM   20  N2  UNL     1      37.201  28.922  53.907  1.00  0.00    -0.314 N 
ATOM     21  H2  UNL     1      36.272  28.753  53.522  1.00  0.00     0.182 HD
BRANCH  20  22
HETATM   22  N3  UNL     1      37.675  28.088  54.919  1.00  0.00    -0.253 N 
HETATM   23  N4  UNL     1      37.351  26.863  54.884  1.00  0.00    -0.331 N 
ATOM     24  H42 UNL     1      36.760  26.512  54.129  1.00  0.00     0.178 HD
ATOM     25  H41 UNL     1      37.698  26.252  55.625  1.00  0.00     0.178 HD
ATOM     26  H3  UNL     1      38.265  28.454  55.666  1.00  0.00     0.207 HD
ENDBRANCH  20  22
ENDBRANCH  19  20
ENDBRANCH  15  19
ENDBRANCH  12  14
ENDBRANCH   9  12
ENDBRANCH   1   8
BRANCH   3  27
HETATM   27  C10 UNL     1      44.121  22.922  52.644  1.00  0.00     0.132 C 
BRANCH  27  28
HETATM   28  C11 UNL     1      44.179  22.325  51.256  1.00  0.00     0.079 C 
BRANCH  28  29
HETATM   29  C12 UNL     1      44.718  20.941  51.314  1.00  0.00     0.044 A 
HETATM   30  C13 UNL     1      45.027  20.149  50.247  1.00  0.00     0.131 A 
HETATM   31  N7  UNL     1      45.487  18.955  50.708  1.00  0.00    -0.200 N 
HETATM   32  C14 UNL     1      45.462  19.007  52.070  1.00  0.00     0.677 A 
ATOM     33  H7  UNL     1      45.794  18.165  50.140  1.00  0.00     0.183 HD
HETATM   34  N8  UNL     1      45.827  18.039  52.867  1.00  0.00    -0.230 N 
HETATM   35  N9  UNL     1      44.992  20.223  52.405  1.00  0.00    -0.194 N 
HETATM   36  C15 UNL     1      45.736  18.261  54.295  1.00  0.00     0.165 C 
ATOM     37  H8  UNL     1      46.165  17.152  52.495  1.00  0.00     0.177 HD
ATOM     38  H9  UNL     1      44.862  20.551  53.362  1.00  0.00     0.184 HD
ENDBRANCH  28  29
ENDBRANCH  27  28
ENDBRANCH   3  27
BRANCH   7  39
HETATM   39  C19 UNL     1      40.790  24.722  56.483  1.00  0.00     0.009 A 
HETATM   40  C20 UNL     1      39.795  24.800  57.553  1.00  0.00     0.009 A 
HETATM   41  C21 UNL     1      40.676  26.009  57.280  1.00  0.00     0.009 A 
ENDBRANCH   7  39
TORSDOF 11
ENDMDL
MODEL 2
REMARK VINA RESULT: -6.825506666      1.806      2.139
REMARK  11 active torsions:
REMARK  status: ('A' for Active; 'I' for Inactive)
REMARK    1  A    between atoms: C2_2  and  N1_3 
REMARK       I    between atoms: N1_3  and  C3_4 
REMARK    2  A    between atoms: N1_3  and  C5_14 
REMARK    3  A    between atoms: C3_4  and  C4_6 
REMARK    4  A    between atoms: C4_6  and  N2_7 
REMARK    5  A    between atoms: N2_7  and  N3_9 
REMARK    6  A    between atoms: C5_14  and  C7_16 
REMARK       I    between atoms: C7_16  and  N5_18 
REMARK    7  A    between atoms: N5_18  and  C8_20 
REMARK    8  A    between atoms: N6_22  and  C10_23 
REMARK    9  A    between atoms: C10_23  and  C11_24 
REMARK   10  A    between atoms: C11_24  and  C12_25 
REMARK   11  A    between atoms: C18_38  and  C19_39 
ROOT
HETATM    1  C8  UNL     1      41.132  25.029  52.042  1.00  0.00     0.141 C 
HETATM    2  C9  UNL     1      42.055  23.990  51.553  1.00  0.00     0.156 C 
HETATM    3  N6  UNL     1      42.980  23.677  52.626  1.00  0.00    -0.346 N 
HETATM    4  C16 UNL     1      42.627  24.511  53.757  1.00  0.00     0.251 C 
HETATM    5  O3  UNL     1      43.358  24.826  54.707  1.00  0.00    -0.268 OA
HETATM    6  C17 UNL     1      41.240  24.900  53.545  1.00  0.00     0.031 C 
HETATM    7  C18 UNL     1      40.289  25.084  54.421  1.00  0.00    -0.007 C 
ENDROOT
BRANCH   1   8
HETATM    8  N5  UNL     1      41.447  26.381  51.641  1.00  0.00    -0.349 N 
HETATM    9  C7  UNL     1      40.429  27.307  51.305  1.00  0.00     0.240 C 
HETATM   10  O2  UNL     1      39.217  26.972  51.347  1.00  0.00    -0.271 OA
ATOM     11  H5  UNL     1      42.423  26.675  51.599  1.00  0.00     0.163 HD
BRANCH   9  12
HETATM   12  C5  UNL     1      40.862  28.699  50.903  1.00  0.00     0.175 C 
HETATM   13  C6  UNL     1      42.321  28.835  51.103  1.00  0.00     0.042 C 
BRANCH  12  14
HETATM   14  N1  UNL     1      40.401  29.029  49.576  1.00  0.00    -0.338 N 
HETATM   15  C3  UNL     1      39.231  29.753  49.271  1.00  0.00     0.239 C 
HETATM   16  O1  UNL     1      39.012  30.086  48.051  1.00  0.00    -0.271 OA
BRANCH  14  17
HETATM   17  C2  UNL     1      41.240  28.633  48.434  1.00  0.00     0.122 C 
HETATM   18  C1  UNL     1      40.766  27.295  47.881  1.00  0.00     0.026 C 
ENDBRANCH  14  17
BRANCH  15  19
HETATM   19  C4  UNL     1      38.212  30.168  50.256  1.00  0.00     0.243 C 
BRANCH  19  20
HETATM   20  N2  UNL     1      37.095  29.226  50.282  1.00  0.00    -0.314 N 
ATOM     21  H2  UNL     1      36.308  29.409  50.905  1.00  0.00     0.182 HD
BRANCH  20  22
HETATM   22  N3  UNL     1      37.071  28.085  49.481  1.00  0.00    -0.253 N 
HETATM   23  N4  UNL     1      36.587  28.184  48.313  1.00  0.00    -0.331 N 
ATOM     24  H42 UNL     1      36.230  29.081  47.984  1.00  0.00     0.178 HD
ATOM     25  H41 UNL     1      36.570  27.349  47.727  1.00  0.00     0.178 HD
ATOM     26  H3  UNL     1      37.433  27.196  49.826  1.00  0.00     0.207 HD
ENDBRANCH  20  22
ENDBRANCH  19  20
ENDBRANCH  15  19
ENDBRANCH  12  14
ENDBRANCH   9  12
ENDBRANCH   1   8
BRANCH   3  27
HETATM   27  C10 UNL     1      44.021  22.703  52.558  1.00  0.00     0.132 C 
BRANCH  27  28
HETATM   28  C11 UNL     1      44.195  22.045  51.208  1.00  0.00     0.079 C 
BRANCH  28  29
HETATM   29  C12 UNL     1      44.736  20.671  51.371  1.00  0.00     0.044 A 
HETATM   30  C13 UNL     1      45.053  19.802  50.367  1.00  0.00     0.131 A 
HETATM   31  N7  UNL     1      45.512  18.647  50.919  1.00  0.00    -0.200 N 
HETATM   32  C14 UNL     1      45.479  18.800  52.273  1.00  0.00     0.677 A 
ATOM     33  H7  UNL     1      45.824  17.818  50.413  1.00  0.00     0.183 HD
HETATM   34  N8  UNL     1      45.841  17.894  53.142  1.00  0.00    -0.230 N 
HETATM   35  N9  UNL     1      45.005  20.036  52.514  1.00  0.00    -0.194 N 
HETATM   36  C15 UNL     1      45.742  18.222  54.549  1.00  0.00     0.165 C 
ATOM     37  H8  UNL     1      46.183  16.983  52.838  1.00  0.00     0.177 HD
ATOM     38  H9  UNL     1      44.869  20.434  53.443  1.00  0.00     0.184 HD
ENDBRANCH  28  29
ENDBRANCH  27  28
ENDBRANCH   3  27
BRANCH   7  39
HETATM   39  C19 UNL     1      40.426  24.952  55.889  1.00  0.00     0.009 A 
HETATM   40  C20 UNL     1      39.287  24.797  56.793  1.00  0.00     0.009 A 
HETATM   41  C21 UNL     1      39.928  26.168  56.649  1.00  0.00     0.009 A 
ENDBRANCH   7  39
TORSDOF 11
ENDMDL
MODEL 3
REMARK VINA RESULT: -6.757226376      2.275      4.210
REMARK  11 active torsions:
REMARK  status: ('A' for Active; 'I' for Inactive)
REMARK    1  A    between atoms: C2_2  and  N1_3 
REMARK       I    between atoms: N1_3  and  C3_4 
REMARK    2  A    between atoms: N1_3  and  C5_14 
REMARK    3  A    between atoms: C3_4  and  C4_6 
REMARK    4  A    between atoms: C4_6  and  N2_7 
REMARK    5  A    between atoms: N2_7  and  N3_9 
REMARK    6  A    between atoms: C5_14  and  C7_16 
REMARK       I    between atoms: C7_16  and  N5_18 
REMARK    7  A    between atoms: N5_18  and  C8_20 
REMARK    8  A    between atoms: N6_22  and  C10_23 
REMARK    9  A    between atoms: C10_23  and  C11_24 
REMARK   10  A    between atoms: C11_24  and  C12_25 
REMARK   11  A    between atoms: C18_38  and  C19_39 
ROOT
HETATM    1  C8  UNL     1      42.592  26.204  53.545  1.00  0.00     0.141 C 
HETATM    2  C9  UNL     1      43.587  25.142  53.775  1.00  0.00     0.156 C 
HETATM    3  N6  UNL     1      43.260  24.032  52.902  1.00  0.00    -0.346 N 
HETATM    4  C16 UNL     1      42.083  24.409  52.145  1.00  0.00     0.251 C 
HETATM    5  O3  UNL     1      41.281  23.648  51.586  1.00  0.00    -0.268 OA
HETATM    6  C17 UNL     1      42.040  25.864  52.179  1.00  0.00     0.031 C 
HETATM    7  C18 UNL     1      41.643  26.702  51.260  1.00  0.00    -0.007 C 
ENDROOT
BRANCH   1   8
HETATM    8  N5  UNL     1      41.516  26.270  54.508  1.00  0.00    -0.349 N 
HETATM    9  C7  UNL     1      41.073  27.508  55.036  1.00  0.00     0.240 C 
HETATM   10  O2  UNL     1      41.610  28.587  54.679  1.00  0.00    -0.271 OA
ATOM     11  H5  UNL     1      41.065  25.407  54.813  1.00  0.00     0.163 HD
BRANCH   9  12
HETATM   12  C5  UNL     1      39.937  27.469  56.033  1.00  0.00     0.175 C 
HETATM   13  C6  UNL     1      39.798  28.796  56.671  1.00  0.00     0.042 C 
BRANCH  12  14
HETATM   14  N1  UNL     1      38.728  26.958  55.432  1.00  0.00    -0.338 N 
HETATM   15  C3  UNL     1      38.157  25.695  55.685  1.00  0.00     0.239 C 
HETATM   16  O1  UNL     1      37.010  25.424  55.178  1.00  0.00    -0.271 OA
BRANCH  14  17
HETATM   17  C2  UNL     1      37.986  27.839  54.517  1.00  0.00     0.122 C 
HETATM   18  C1  UNL     1      38.480  27.641  53.090  1.00  0.00     0.026 C 
ENDBRANCH  14  17
BRANCH  15  19
HETATM   19  C4  UNL     1      38.781  24.632  56.499  1.00  0.00     0.243 C 
BRANCH  19  20
HETATM   20  N2  UNL     1      37.936  24.283  57.640  1.00  0.00    -0.314 N 
ATOM     21  H2  UNL     1      38.213  24.592  58.572  1.00  0.00     0.182 HD
BRANCH  20  22
HETATM   22  N3  UNL     1      36.765  23.542  57.495  1.00  0.00    -0.253 N 
HETATM   23  N4  UNL     1      35.664  24.103  57.776  1.00  0.00    -0.331 N 
ATOM     24  H42 UNL     1      35.652  25.071  58.099  1.00  0.00     0.178 HD
ATOM     25  H41 UNL     1      34.806  23.560  57.669  1.00  0.00     0.178 HD
ATOM     26  H3  UNL     1      36.794  22.576  57.170  1.00  0.00     0.207 HD
ENDBRANCH  20  22
ENDBRANCH  19  20
ENDBRANCH  15  19
ENDBRANCH  12  14
ENDBRANCH   9  12
ENDBRANCH   1   8
BRANCH   3  27
HETATM   27  C10 UNL     1      43.996  22.812  52.808  1.00  0.00     0.132 C 
BRANCH  27  28
HETATM   28  C11 UNL     1      44.260  22.330  51.399  1.00  0.00     0.079 C 
BRANCH  28  29
HETATM   29  C12 UNL     1      44.766  20.934  51.420  1.00  0.00     0.044 A 
HETATM   30  C13 UNL     1      45.032  20.155  50.331  1.00  0.00     0.131 A 
HETATM   31  N7  UNL     1      45.474  18.942  50.760  1.00  0.00    -0.200 N 
HETATM   32  C14 UNL     1      45.481  18.969  52.122  1.00  0.00     0.677 A 
ATOM     33  H7  UNL     1      45.749  18.156  50.171  1.00  0.00     0.183 HD
HETATM   34  N8  UNL     1      45.840  17.978  52.893  1.00  0.00    -0.230 N 
HETATM   35  N9  UNL     1      45.047  20.189  52.490  1.00  0.00    -0.194 N 
HETATM   36  C15 UNL     1      45.787  18.176  54.327  1.00  0.00     0.165 C 
ATOM     37  H8  UNL     1      46.149  17.091  52.498  1.00  0.00     0.177 HD
ATOM     38  H9  UNL     1      44.947  20.502  53.456  1.00  0.00     0.184 HD
ENDBRANCH  28  29
ENDBRANCH  27  28
ENDBRANCH   3  27
BRANCH   7  39
HETATM   39  C19 UNL     1      41.104  26.338  49.930  1.00  0.00     0.009 A 
HETATM   40  C20 UNL     1      40.416  27.285  49.054  1.00  0.00     0.009 A 
HETATM   41  C21 UNL     1      39.587  26.317  49.883  1.00  0.00     0.009 A 
ENDBRANCH   7  39
TORSDOF 11
ENDMDL
MODEL 4
REMARK VINA RESULT: -6.750038979      2.186      8.440
REMARK  11 active torsions:
REMARK  status: ('A' for Active; 'I' for Inactive)
REMARK    1  A    between atoms: C2_2  and  N1_3 
REMARK       I    between atoms: N1_3  and  C3_4 
REMARK    2  A    between atoms: N1_3  and  C5_14 
REMARK    3  A    between atoms: C3_4  and  C4_6 
REMARK    4  A    between atoms: C4_6  and  N2_7 
REMARK    5  A    between atoms: N2_7  and  N3_9 
REMARK    6  A    between atoms: C5_14  and  C7_16 
REMARK       I    between atoms: C7_16  and  N5_18 
REMARK    7  A    between atoms: N5_18  and  C8_20 
REMARK    8  A    between atoms: N6_22  and  C10_23 
REMARK    9  A    between atoms: C10_23  and  C11_24 
REMARK   10  A    between atoms: C11_24  and  C12_25 
REMARK   11  A    between atoms: C18_38  and  C19_39 
ROOT
HETATM    1  C8  UNL     1      41.100  25.547  54.190  1.00  0.00     0.141 C 
HETATM    2  C9  UNL     1      41.475  26.962  54.354  1.00  0.00     0.156 C 
HETATM    3  N6  UNL     1      40.255  27.746  54.360  1.00  0.00    -0.346 N 
HETATM    4  C16 UNL     1      39.148  26.824  54.204  1.00  0.00     0.251 C 
HETATM    5  O3  UNL     1      38.009  27.090  53.796  1.00  0.00    -0.268 OA
HETATM    6  C17 UNL     1      39.652  25.525  54.626  1.00  0.00     0.031 C 
HETATM    7  C18 UNL     1      39.032  24.559  55.249  1.00  0.00    -0.007 C 
ENDROOT
BRANCH   1   8
HETATM    8  N5  UNL     1      41.217  25.022  52.848  1.00  0.00    -0.349 N 
HETATM    9  C7  UNL     1      42.181  24.036  52.522  1.00  0.00     0.240 C 
HETATM   10  O2  UNL     1      42.964  23.590  53.399  1.00  0.00    -0.271 OA
ATOM     11  H5  UNL     1      40.592  25.369  52.120  1.00  0.00     0.163 HD
BRANCH   9  12
HETATM   12  C5  UNL     1      42.218  23.549  51.091  1.00  0.00     0.175 C 
HETATM   13  C6  UNL     1      41.265  24.337  50.280  1.00  0.00     0.042 C 
BRANCH  12  14
HETATM   14  N1  UNL     1      43.568  23.523  50.581  1.00  0.00    -0.338 N 
HETATM   15  C3  UNL     1      44.423  22.402  50.582  1.00  0.00     0.239 C 
HETATM   16  O1  UNL     1      45.552  22.487  49.978  1.00  0.00    -0.271 OA
BRANCH  14  17
HETATM   17  C2  UNL     1      44.094  24.745  49.953  1.00  0.00     0.122 C 
HETATM   18  C1  UNL     1      44.907  25.541  50.966  1.00  0.00     0.026 C 
ENDBRANCH  14  17
BRANCH  15  19
HETATM   19  C4  UNL     1      44.125  21.112  51.235  1.00  0.00     0.243 C 
BRANCH  19  20
HETATM   20  N2  UNL     1      44.909  20.951  52.459  1.00  0.00    -0.314 N 
ATOM     21  H2  UNL     1      45.181  20.013  52.752  1.00  0.00     0.182 HD
BRANCH  20  22
HETATM   22  N3  UNL     1      45.296  22.041  53.237  1.00  0.00    -0.253 N 
HETATM   23  N4  UNL     1      46.001  21.819  54.268  1.00  0.00    -0.331 N 
ATOM     24  H42 UNL     1      46.269  20.864  54.506  1.00  0.00     0.178 HD
ATOM     25  H41 UNL     1      46.284  22.617  54.837  1.00  0.00     0.178 HD
ATOM     26  H3  UNL     1      45.021  22.990  52.984  1.00  0.00     0.207 HD
ENDBRANCH  20  22
ENDBRANCH  19  20
ENDBRANCH  15  19
ENDBRANCH  12  14
ENDBRANCH   9  12
ENDBRANCH   1   8
BRANCH   3  27
HETATM   27  C10 UNL     1      40.187  29.163  54.518  1.00  0.00     0.132 C 
BRANCH  27  28
HETATM   28  C11 UNL     1      40.401  29.959  53.249  1.00  0.00     0.079 C 
BRANCH  28  29
HETATM   29  C12 UNL     1      39.175  29.932  52.412  1.00  0.00     0.044 A 
HETATM   30  C13 UNL     1      38.067  30.711  52.576  1.00  0.00     0.131 A 
HETATM   31  N7  UNL     1      37.159  30.387  51.615  1.00  0.00    -0.200 N 
HETATM   32  C14 UNL     1      37.708  29.401  50.852  1.00  0.00     0.677 A 
ATOM     33  H7  UNL     1      36.237  30.805  51.489  1.00  0.00     0.183 HD
HETATM   34  N8  UNL     1      37.128  28.827  49.832  1.00  0.00    -0.230 N 
HETATM   35  N9  UNL     1      38.929  29.148  51.361  1.00  0.00    -0.194 N 
HETATM   36  C15 UNL     1      37.855  27.791  49.129  1.00  0.00     0.165 C 
ATOM     37  H8  UNL     1      36.190  29.101  49.540  1.00  0.00     0.177 HD
ATOM     38  H9  UNL     1      39.577  28.452  50.992  1.00  0.00     0.184 HD
ENDBRANCH  28  29
ENDBRANCH  27  28
ENDBRANCH   3  27
BRANCH   7  39
HETATM   39  C19 UNL     1      37.611  24.566  55.662  1.00  0.00     0.009 A 
HETATM   40  C20 UNL     1      37.103  25.354  56.784  1.00  0.00     0.009 A 
HETATM   41  C21 UNL     1      37.369  23.871  56.989  1.00  0.00     0.009 A 
ENDBRANCH   7  39
TORSDOF 11
ENDMDL
MODEL 5
REMARK VINA RESULT: -6.640268165      2.689      5.327
REMARK  11 active torsions:
REMARK  status: ('A' for Active; 'I' for Inactive)
REMARK    1  A    between atoms: C2_2  and  N1_3 
REMARK       I    between atoms: N1_3  and  C3_4 
REMARK    2  A    between atoms: N1_3  and  C5_14 
REMARK    3  A    between atoms: C3_4  and  C4_6 
REMARK    4  A    between atoms: C4_6  and  N2_7 
REMARK    5  A    between atoms: N2_7  and  N3_9 
REMARK    6  A    between atoms: C5_14  and  C7_16 
REMARK       I    between atoms: C7_16  and  N5_18 
REMARK    7  A    between atoms: N5_18  and  C8_20 
REMARK    8  A    between atoms: N6_22  and  C10_23 
REMARK    9  A    between atoms: C10_23  and  C11_24 
REMARK   10  A    between atoms: C11_24  and  C12_25 
REMARK   11  A    between atoms: C18_38  and  C19_39 
ROOT
HETATM    1  C8  UNL     1      40.753  27.008  53.022  1.00  0.00     0.141 C 
HETATM    2  C9  UNL     1      42.193  26.703  52.956  1.00  0.00     0.156 C 
HETATM    3  N6  UNL     1      42.410  25.825  51.822  1.00  0.00    -0.346 N 
HETATM    4  C16 UNL     1      41.121  25.597  51.201  1.00  0.00     0.251 C 
HETATM    5  O3  UNL     1      40.806  24.651  50.466  1.00  0.00    -0.268 OA
HETATM    6  C17 UNL     1      40.277  26.708  51.618  1.00  0.00     0.031 C 
HETATM    7  C18 UNL     1      39.339  27.329  50.956  1.00  0.00    -0.007 C 
ENDROOT
BRANCH   1   8
HETATM    8  N5  UNL     1      39.994  26.231  53.975  1.00  0.00    -0.349 N 
HETATM    9  C7  UNL     1      38.785  26.718  54.529  1.00  0.00     0.240 C 
HETATM   10  O2  UNL     1      38.339  27.848  54.203  1.00  0.00    -0.271 OA
ATOM     11  H5  UNL     1      40.337  25.311  54.255  1.00  0.00     0.163 HD
BRANCH   9  12
HETATM   12  C5  UNL     1      38.064  25.825  55.514  1.00  0.00     0.175 C 
HETATM   13  C6  UNL     1      38.583  24.445  55.397  1.00  0.00     0.042 C 
BRANCH  12  14
HETATM   14  N1  UNL     1      38.105  26.375  56.848  1.00  0.00    -0.338 N 
HETATM   15  C3  UNL     1      37.199  26.077  57.885  1.00  0.00     0.239 C 
HETATM   16  O1  UNL     1      37.432  26.540  59.059  1.00  0.00    -0.271 OA
BRANCH  14  17
HETATM   17  C2  UNL     1      39.213  27.282  57.188  1.00  0.00     0.122 C 
HETATM   18  C1  UNL     1      40.383  26.484  57.747  1.00  0.00     0.026 C 
ENDBRANCH  14  17
BRANCH  15  19
HETATM   19  C4  UNL     1      35.976  25.264  57.733  1.00  0.00     0.243 C 
BRANCH  19  20
HETATM   20  N2  UNL     1      36.246  23.854  58.015  1.00  0.00    -0.314 N 
ATOM     21  H2  UNL     1      37.204  23.564  58.209  1.00  0.00     0.182 HD
BRANCH  20  22
HETATM   22  N3  UNL     1      35.235  22.896  58.027  1.00  0.00    -0.253 N 
HETATM   23  N4  UNL     1      34.060  23.269  58.326  1.00  0.00    -0.331 N 
ATOM     24  H42 UNL     1      33.878  24.248  58.549  1.00  0.00     0.178 HD
ATOM     25  H41 UNL     1      33.320  22.567  58.334  1.00  0.00     0.178 HD
ATOM     26  H3  UNL     1      35.434  21.921  57.801  1.00  0.00     0.207 HD
ENDBRANCH  20  22
ENDBRANCH  19  20
ENDBRANCH  15  19
ENDBRANCH  12  14
ENDBRANCH   9  12
ENDBRANCH   1   8
BRANCH   3  27
HETATM   27  C10 UNL     1      43.676  25.315  51.405  1.00  0.00     0.132 C 
BRANCH  27  28
HETATM   28  C11 UNL     1      44.276  24.268  52.316  1.00  0.00     0.079 C 
BRANCH  28  29
HETATM   29  C12 UNL     1      44.189  22.926  51.684  1.00  0.00     0.044 A 
HETATM   30  C13 UNL     1      43.626  22.637  50.475  1.00  0.00     0.131 A 
HETATM   31  N7  UNL     1      43.740  21.300  50.250  1.00  0.00    -0.200 N 
HETATM   32  C14 UNL     1      44.377  20.758  51.325  1.00  0.00     0.677 A 
ATOM     33  H7  UNL     1      43.409  20.796  49.427  1.00  0.00     0.183 HD
HETATM   34  N8  UNL     1      44.660  19.491  51.472  1.00  0.00    -0.230 N 
HETATM   35  N9  UNL     1      44.635  21.769  52.175  1.00  0.00    -0.194 N 
HETATM   36  C15 UNL     1      45.343  19.082  52.682  1.00  0.00     0.165 C 
ATOM     37  H8  UNL     1      44.408  18.811  50.756  1.00  0.00     0.177 HD
ATOM     38  H9  UNL     1      45.108  21.664  53.073  1.00  0.00     0.184 HD
ENDBRANCH  28  29
ENDBRANCH  27  28
ENDBRANCH   3  27
BRANCH   7  39
HETATM   39  C19 UNL     1      38.893  27.010  49.581  1.00  0.00     0.009 A 
HETATM   40  C20 UNL     1      39.175  27.862  48.426  1.00  0.00     0.009 A 
HETATM   41  C21 UNL     1      37.801  27.936  49.075  1.00  0.00     0.009 A 
ENDBRANCH   7  39
TORSDOF 11
ENDMDL
