MODEL 1
REMARK VINA RESULT: -7.055057646      0.000      0.000
REMARK  13 active torsions:
REMARK  status: ('A' for Active; 'I' for Inactive)
REMARK    1  A    between atoms: C4_5  and  N2_6 
REMARK    2  A    between atoms: N2_6  and  C5_8 
REMARK    3  A    between atoms: C5_8  and  N3_10 
REMARK    4  A    between atoms: C7_17  and  C8_18 
REMARK       I    between atoms: C8_18  and  N7_20 
REMARK    5  A    between atoms: N7_20  and  C9_22 
REMARK    6  A    between atoms: C11_24  and  C12_25 
REMARK    7  A    between atoms: C12_25  and  C13_26 
REMARK    8  A    between atoms: C13_26  and  C14_27 
REMARK    9  A    between atoms: C14_27  and  N8_28 
REMARK   10  A    between atoms: N8_28  and  C15_31 
REMARK   11  A    between atoms: C15_31  and  C16_32 
REMARK   12  A    between atoms: C16_32  and  C17_33 
REMARK   13  A    between atoms: C17_33  and  N9_34 
ROOT
HETATM    1  C1  UNL     1      17.664 -11.455  20.612  1.00  0.00     0.124 C 
HETATM    2  C2  UNL     1      16.474 -11.718  20.774  1.00  0.00    -0.068 C 
HETATM    3  N1  UNL     1      15.112 -11.986  20.965  1.00  0.00    -0.290 N 
HETATM    4  C3  UNL     1      14.290 -11.009  21.395  1.00  0.00     0.154 A 
HETATM    5  C4  UNL     1      12.955 -11.285  21.574  1.00  0.00     0.124 A 
HETATM    6  N6  UNL     1      12.500 -12.516  21.319  1.00  0.00    -0.335 N 
ATOM      7  H6  UNL     1      11.507 -12.699  21.458  1.00  0.00     0.168 HD
HETATM    8  C7  UNL     1      13.288 -13.545  20.884  1.00  0.00     0.126 A 
HETATM    9  C11 UNL     1      14.618 -13.241  20.711  1.00  0.00     0.056 A 
ENDROOT
BRANCH   9  10
HETATM   10  C12 UNL     1      15.570 -14.227  20.205  1.00  0.00     0.062 C 
BRANCH  10  11
HETATM   11  C13 UNL     1      16.083 -15.086  21.339  1.00  0.00     0.033 C 
BRANCH  11  12
HETATM   12  C14 UNL     1      17.423 -15.724  20.974  1.00  0.00     0.232 C 
BRANCH  12  13
HETATM   13  N8  UNL     1      18.448 -14.918  21.555  1.00  0.00    -0.075 N 
ATOM     14  H82 UNL     1      19.329 -15.431  21.600  1.00  0.00     0.277 HD
ATOM     15  H81 UNL     1      18.721 -14.168  20.919  1.00  0.00     0.277 HD
BRANCH  13  16
HETATM   16  C15 UNL     1      18.104 -14.385  22.851  1.00  0.00     0.233 C 
BRANCH  16  17
HETATM   17  C16 UNL     1      19.209 -13.556  23.455  1.00  0.00     0.055 C 
BRANCH  17  18
HETATM   18  C17 UNL     1      19.417 -13.934  24.918  1.00  0.00     0.237 C 
BRANCH  18  19
HETATM   19  N9  UNL     1      20.739 -13.642  25.374  1.00  0.00    -0.079 N 
HETATM   20  C18 UNL     1      20.896 -12.210  25.467  1.00  0.00     0.271 C 
HETATM   21  C19 UNL     1      21.747 -14.142  24.444  1.00  0.00     0.271 C 
HETATM   22  C20 UNL     1      20.996 -14.206  26.685  1.00  0.00     0.271 C 
ENDBRANCH  18  19
ENDBRANCH  17  18
ENDBRANCH  16  17
ENDBRANCH  13  16
ENDBRANCH  12  13
ENDBRANCH  11  12
ENDBRANCH  10  11
ENDBRANCH   9  10
BRANCH   5  23
HETATM   23  N2  UNL     1      12.180 -10.338  21.987  1.00  0.00    -0.318 N 
ATOM     24  H2  UNL     1      11.919  -9.592  21.341  1.00  0.00     0.170 HD
BRANCH  23  25
HETATM   25  C5  UNL     1      11.682 -10.311  23.313  1.00  0.00     0.179 C 
HETATM   26  S1  UNL     1      11.304 -11.722  24.033  1.00  0.00    -0.040 SA
BRANCH  25  27
HETATM   27  N3  UNL     1      11.497  -9.112  24.046  1.00  0.00    -0.310 N 
HETATM   28  C6  UNL     1      12.248  -8.082  23.971  1.00  0.00     0.203 C 
HETATM   29  N4  UNL     1      13.362  -8.082  23.108  1.00  0.00    -0.066 NA
HETATM   30  N5  UNL     1      11.964  -6.943  24.751  1.00  0.00    -0.066 NA
ATOM     31  H3  UNL     1      10.701  -9.069  24.683  1.00  0.00     0.170 HD
ENDBRANCH  25  27
ENDBRANCH  23  25
ENDBRANCH   5  23
BRANCH   8  32
HETATM   32  C8  UNL     1      12.735 -14.858  20.634  1.00  0.00     0.270 C 
HETATM   33  O1  UNL     1      12.670 -15.775  21.481  1.00  0.00    -0.266 OA
HETATM   34  N7  UNL     1      12.217 -15.185  19.363  1.00  0.00    -0.356 N 
ATOM     35  H7  UNL     1      12.231 -14.496  18.611  1.00  0.00     0.162 HD
BRANCH  34  36
HETATM   36  C9  UNL     1      11.667 -16.501  19.130  1.00  0.00     0.118 C 
HETATM   37  C10 UNL     1      11.527 -16.789  17.645  1.00  0.00     0.026 C 
ENDBRANCH  34  36
ENDBRANCH   8  32
TORSDOF 13
ENDMDL
MODEL 2
REMARK VINA RESULT: -6.924800001      2.405      5.701
REMARK  13 active torsions:
REMARK  status: ('A' for Active; 'I' for Inactive)
REMARK    1  A    between atoms: C4_5  and  N2_6 
REMARK    2  A    between atoms: N2_6  and  C5_8 
REMARK    3  A    between atoms: C5_8  and  N3_10 
REMARK    4  A    between atoms: C7_17  and  C8_18 
REMARK       I    between atoms: C8_18  and  N7_20 
REMARK    5  A    between atoms: N7_20  and  C9_22 
REMARK    6  A    between atoms: C11_24  and  C12_25 
REMARK    7  A    between atoms: C12_25  and  C13_26 
REMARK    8  A    between atoms: C13_26  and  C14_27 
REMARK    9  A    between atoms: C14_27  and  N8_28 
REMARK   10  A    between atoms: N8_28  and  C15_31 
REMARK   11  A    between atoms: C15_31  and  C16_32 
REMARK   12  A    between atoms: C16_32  and  C17_33 
REMARK   13  A    between atoms: C17_33  and  N9_34 
ROOT
HETATM    1  C1  UNL     1      17.574 -15.947  21.962  1.00  0.00     0.124 C 
HETATM    2  C2  UNL     1      16.430 -15.559  21.733  1.00  0.00    -0.068 C 
HETATM    3  N1  UNL     1      15.116 -15.147  21.475  1.00  0.00    -0.290 N 
HETATM    4  C3  UNL     1      14.147 -16.067  21.301  1.00  0.00     0.154 A 
HETATM    5  C4  UNL     1      12.861 -15.649  21.052  1.00  0.00     0.124 A 
HETATM    6  N6  UNL     1      12.599 -14.339  20.986  1.00  0.00    -0.335 N 
ATOM      7  H6  UNL     1      11.638 -14.051  20.802  1.00  0.00     0.168 HD
HETATM    8  C7  UNL     1      13.542 -13.364  21.152  1.00  0.00     0.126 A 
HETATM    9  C11 UNL     1      14.819 -13.810  21.402  1.00  0.00     0.056 A 
ENDROOT
BRANCH   9  10
HETATM   10  C12 UNL     1      15.920 -12.881  21.648  1.00  0.00     0.062 C 
BRANCH  10  11
HETATM   11  C13 UNL     1      16.536 -12.445  20.338  1.00  0.00     0.033 C 
BRANCH  11  12
HETATM   12  C14 UNL     1      17.864 -11.726  20.574  1.00  0.00     0.232 C 
BRANCH  12  13
HETATM   13  N8  UNL     1      18.517 -12.390  21.657  1.00  0.00    -0.075 N 
ATOM     14  H82 UNL     1      18.678 -11.744  22.431  1.00  0.00     0.277 HD
ATOM     15  H81 UNL     1      17.883 -13.046  22.113  1.00  0.00     0.277 HD
BRANCH  13  16
HETATM   16  C15 UNL     1      19.745 -13.048  21.279  1.00  0.00     0.233 C 
BRANCH  16  17
HETATM   17  C16 UNL     1      20.472 -13.650  22.456  1.00  0.00     0.055 C 
BRANCH  17  18
HETATM   18  C17 UNL     1      19.724 -13.351  23.751  1.00  0.00     0.237 C 
BRANCH  18  19
HETATM   19  N9  UNL     1      20.546 -13.523  24.906  1.00  0.00    -0.079 N 
HETATM   20  C18 UNL     1      21.774 -14.171  24.513  1.00  0.00     0.271 C 
HETATM   21  C19 UNL     1      19.895 -14.367  25.904  1.00  0.00     0.271 C 
HETATM   22  C20 UNL     1      20.886 -12.254  25.522  1.00  0.00     0.271 C 
ENDBRANCH  18  19
ENDBRANCH  17  18
ENDBRANCH  16  17
ENDBRANCH  13  16
ENDBRANCH  12  13
ENDBRANCH  11  12
ENDBRANCH  10  11
ENDBRANCH   9  10
BRANCH   5  23
HETATM   23  N2  UNL     1      11.943 -16.542  20.888  1.00  0.00    -0.318 N 
ATOM     24  H2  UNL     1      11.052 -16.435  21.372  1.00  0.00     0.170 HD
BRANCH  23  25
HETATM   25  C5  UNL     1      12.145 -17.668  20.051  1.00  0.00     0.179 C 
HETATM   26  S1  UNL     1      12.041 -19.155  20.708  1.00  0.00    -0.040 SA
BRANCH  25  27
HETATM   27  N3  UNL     1      12.434 -17.563  18.668  1.00  0.00    -0.310 N 
HETATM   28  C6  UNL     1      11.766 -16.869  17.830  1.00  0.00     0.203 C 
HETATM   29  N4  UNL     1      10.647 -16.128  18.258  1.00  0.00    -0.066 NA
HETATM   30  N5  UNL     1      12.149 -16.841  16.474  1.00  0.00    -0.066 NA
ATOM     31  H3  UNL     1      13.237 -18.084  18.315  1.00  0.00     0.170 HD
ENDBRANCH  25  27
ENDBRANCH  23  25
ENDBRANCH   5  23
BRANCH   8  32
HETATM   32  C8  UNL     1      13.194 -11.963  21.061  1.00  0.00     0.270 C 
HETATM   33  O1  UNL     1      13.272 -11.277  20.019  1.00  0.00    -0.266 OA
HETATM   34  N7  UNL     1      12.727 -11.267  22.196  1.00  0.00    -0.356 N 
ATOM     35  H7  UNL     1      12.633 -11.749  23.090  1.00  0.00     0.162 HD
BRANCH  34  36
HETATM   36  C9  UNL     1      12.383  -9.867  22.088  1.00  0.00     0.118 C 
HETATM   37  C10 UNL     1      11.837  -9.327  23.398  1.00  0.00     0.026 C 
ENDBRANCH  34  36
ENDBRANCH   8  32
TORSDOF 13
ENDMDL
MODEL 3
REMARK VINA RESULT: -6.837814860      1.671      3.625
REMARK  13 active torsions:
REMARK  status: ('A' for Active; 'I' for Inactive)
REMARK    1  A    between atoms: C4_5  and  N2_6 
REMARK    2  A    between atoms: N2_6  and  C5_8 
REMARK    3  A    between atoms: C5_8  and  N3_10 
REMARK    4  A    between atoms: C7_17  and  C8_18 
REMARK       I    between atoms: C8_18  and  N7_20 
REMARK    5  A    between atoms: N7_20  and  C9_22 
REMARK    6  A    between atoms: C11_24  and  C12_25 
REMARK    7  A    between atoms: C12_25  and  C13_26 
REMARK    8  A    between atoms: C13_26  and  C14_27 
REMARK    9  A    between atoms: C14_27  and  N8_28 
REMARK   10  A    between atoms: N8_28  and  C15_31 
REMARK   11  A    between atoms: C15_31  and  C16_32 
REMARK   12  A    between atoms: C16_32  and  C17_33 
REMARK   13  A    between atoms: C17_33  and  N9_34 
ROOT
HETATM    1  C1  UNL     1      12.285 -15.838  20.632  1.00  0.00     0.124 C 
HETATM    2  C2  UNL     1      12.708 -14.688  20.739  1.00  0.00    -0.068 C 
HETATM    3  N1  UNL     1      13.162 -13.370  20.876  1.00  0.00    -0.290 N 
HETATM    4  C3  UNL     1      12.339 -12.426  21.374  1.00  0.00     0.154 A 
HETATM    5  C4  UNL     1      12.798 -11.137  21.507  1.00  0.00     0.124 A 
HETATM    6  N6  UNL     1      14.050 -10.846  21.139  1.00  0.00    -0.335 N 
ATOM      7  H6  UNL     1      14.371  -9.884  21.247  1.00  0.00     0.168 HD
HETATM    8  C7  UNL     1      14.927 -11.762  20.626  1.00  0.00     0.126 A 
HETATM    9  C11 UNL     1      14.442 -13.043  20.506  1.00  0.00     0.056 A 
ENDROOT
BRANCH   9  10
HETATM   10  C12 UNL     1      15.279 -14.137  20.019  1.00  0.00     0.062 C 
BRANCH  10  11
HETATM   11  C13 UNL     1      15.862 -14.906  21.184  1.00  0.00     0.033 C 
BRANCH  11  12
HETATM   12  C14 UNL     1      17.346 -15.192  20.959  1.00  0.00     0.232 C 
BRANCH  12  13
HETATM   13  N8  UNL     1      17.961 -15.274  22.245  1.00  0.00    -0.075 N 
ATOM     14  H82 UNL     1      18.214 -14.345  22.583  1.00  0.00     0.277 HD
ATOM     15  H81 UNL     1      17.276 -15.532  22.956  1.00  0.00     0.277 HD
BRANCH  13  16
HETATM   16  C15 UNL     1      19.100 -16.159  22.290  1.00  0.00     0.233 C 
BRANCH  16  17
HETATM   17  C16 UNL     1      20.338 -15.493  22.836  1.00  0.00     0.055 C 
BRANCH  17  18
HETATM   18  C17 UNL     1      20.258 -15.390  24.356  1.00  0.00     0.237 C 
BRANCH  18  19
HETATM   19  N9  UNL     1      20.909 -14.221  24.857  1.00  0.00    -0.079 N 
HETATM   20  C18 UNL     1      20.983 -14.308  26.295  1.00  0.00     0.271 C 
HETATM   21  C19 UNL     1      20.167 -13.010  24.519  1.00  0.00     0.271 C 
HETATM   22  C20 UNL     1      22.261 -14.095  24.346  1.00  0.00     0.271 C 
ENDBRANCH  18  19
ENDBRANCH  17  18
ENDBRANCH  16  17
ENDBRANCH  13  16
ENDBRANCH  12  13
ENDBRANCH  11  12
ENDBRANCH  10  11
ENDBRANCH   9  10
BRANCH   5  23
HETATM   23  N2  UNL     1      11.998 -10.244  21.986  1.00  0.00    -0.318 N 
ATOM     24  H2  UNL     1      11.611  -9.536  21.362  1.00  0.00     0.170 HD
BRANCH  23  25
HETATM   25  C5  UNL     1      11.645 -10.224  23.358  1.00  0.00     0.179 C 
HETATM   26  S1  UNL     1      11.323 -11.637  24.101  1.00  0.00    -0.040 SA
BRANCH  25  27
HETATM   27  N3  UNL     1      11.557  -9.031  24.118  1.00  0.00    -0.310 N 
HETATM   28  C6  UNL     1      12.324  -8.019  23.987  1.00  0.00     0.203 C 
HETATM   29  N4  UNL     1      13.355  -8.034  23.026  1.00  0.00    -0.066 NA
HETATM   30  N5  UNL     1      12.141  -6.884  24.801  1.00  0.00    -0.066 NA
ATOM     31  H3  UNL     1      10.823  -8.977  24.825  1.00  0.00     0.170 HD
ENDBRANCH  25  27
ENDBRANCH  23  25
ENDBRANCH   5  23
BRANCH   8  32
HETATM   32  C8  UNL     1      16.267 -11.381  20.239  1.00  0.00     0.270 C 
HETATM   33  O1  UNL     1      16.569 -10.861  19.143  1.00  0.00    -0.266 OA
HETATM   34  N7  UNL     1      17.351 -11.586  21.119  1.00  0.00    -0.356 N 
ATOM     35  H7  UNL     1      17.194 -12.005  22.035  1.00  0.00     0.162 HD
BRANCH  34  36
HETATM   36  C9  UNL     1      18.684 -11.198  20.717  1.00  0.00     0.118 C 
HETATM   37  C10 UNL     1      19.527 -12.407  20.353  1.00  0.00     0.026 C 
ENDBRANCH  34  36
ENDBRANCH   8  32
TORSDOF 13
ENDMDL
MODEL 4
REMARK VINA RESULT: -6.751676598      3.654      6.839
REMARK  13 active torsions:
REMARK  status: ('A' for Active; 'I' for Inactive)
REMARK    1  A    between atoms: C4_5  and  N2_6 
REMARK    2  A    between atoms: N2_6  and  C5_8 
REMARK    3  A    between atoms: C5_8  and  N3_10 
REMARK    4  A    between atoms: C7_17  and  C8_18 
REMARK       I    between atoms: C8_18  and  N7_20 
REMARK    5  A    between atoms: N7_20  and  C9_22 
REMARK    6  A    between atoms: C11_24  and  C12_25 
REMARK    7  A    between atoms: C12_25  and  C13_26 
REMARK    8  A    between atoms: C13_26  and  C14_27 
REMARK    9  A    between atoms: C14_27  and  N8_28 
REMARK   10  A    between atoms: N8_28  and  C15_31 
REMARK   11  A    between atoms: C15_31  and  C16_32 
REMARK   12  A    between atoms: C16_32  and  C17_33 
REMARK   13  A    between atoms: C17_33  and  N9_34 
ROOT
HETATM    1  C1  UNL     1      17.887 -18.562  20.412  1.00  0.00     0.124 C 
HETATM    2  C2  UNL     1      17.803 -17.419  20.859  1.00  0.00    -0.068 C 
HETATM    3  N1  UNL     1      17.676 -16.117  21.361  1.00  0.00    -0.290 N 
HETATM    4  C3  UNL     1      16.511 -15.455  21.218  1.00  0.00     0.154 A 
HETATM    5  C4  UNL     1      16.398 -14.179  21.718  1.00  0.00     0.124 A 
HETATM    6  N6  UNL     1      17.445 -13.622  22.335  1.00  0.00    -0.335 N 
ATOM      7  H6  UNL     1      17.339 -12.676  22.700  1.00  0.00     0.168 HD
HETATM    8  C7  UNL     1      18.650 -14.246  22.507  1.00  0.00     0.126 A 
HETATM    9  C11 UNL     1      18.734 -15.522  21.999  1.00  0.00     0.056 A 
ENDROOT
BRANCH   9  10
HETATM   10  C12 UNL     1      19.943 -16.328  22.150  1.00  0.00     0.062 C 
BRANCH  10  11
HETATM   11  C13 UNL     1      19.996 -16.932  23.535  1.00  0.00     0.033 C 
BRANCH  11  12
HETATM   12  C14 UNL     1      21.433 -16.975  24.055  1.00  0.00     0.232 C 
BRANCH  12  13
HETATM   13  N8  UNL     1      22.152 -15.930  23.399  1.00  0.00    -0.075 N 
ATOM     14  H82 UNL     1      22.520 -16.252  22.504  1.00  0.00     0.277 HD
ATOM     15  H81 UNL     1      21.513 -15.206  23.069  1.00  0.00     0.277 HD
BRANCH  13  16
HETATM   16  C15 UNL     1      23.202 -15.353  24.203  1.00  0.00     0.233 C 
BRANCH  16  17
HETATM   17  C16 UNL     1      24.430 -16.227  24.275  1.00  0.00     0.055 C 
BRANCH  17  18
HETATM   18  C17 UNL     1      25.112 -16.297  22.912  1.00  0.00     0.237 C 
BRANCH  18  19
HETATM   19  N9  UNL     1      25.279 -17.640  22.455  1.00  0.00    -0.079 N 
HETATM   20  C18 UNL     1      25.011 -18.542  23.549  1.00  0.00     0.271 C 
HETATM   21  C19 UNL     1      26.644 -17.883  21.999  1.00  0.00     0.271 C 
HETATM   22  C20 UNL     1      24.364 -17.961  21.376  1.00  0.00     0.271 C 
ENDBRANCH  18  19
ENDBRANCH  17  18
ENDBRANCH  16  17
ENDBRANCH  13  16
ENDBRANCH  12  13
ENDBRANCH  11  12
ENDBRANCH  10  11
ENDBRANCH   9  10
BRANCH   5  23
HETATM   23  N2  UNL     1      15.276 -13.558  21.574  1.00  0.00    -0.318 N 
ATOM     24  H2  UNL     1      14.798 -13.194  22.399  1.00  0.00     0.170 HD
BRANCH  23  25
HETATM   25  C5  UNL     1      14.692 -13.368  20.297  1.00  0.00     0.179 C 
HETATM   26  S1  UNL     1      13.154 -13.852  20.063  1.00  0.00    -0.040 SA
BRANCH  25  27
HETATM   27  N3  UNL     1      15.382 -12.775  19.210  1.00  0.00    -0.310 N 
HETATM   28  C6  UNL     1      15.806 -11.571  19.179  1.00  0.00     0.203 C 
HETATM   29  N4  UNL     1      15.601 -10.721  20.284  1.00  0.00    -0.066 NA
HETATM   30  N5  UNL     1      16.482 -11.090  18.040  1.00  0.00    -0.066 NA
ATOM     31  H3  UNL     1      15.552 -13.356  18.389  1.00  0.00     0.170 HD
ENDBRANCH  25  27
ENDBRANCH  23  25
ENDBRANCH   5  23
BRANCH   8  32
HETATM   32  C8  UNL     1      19.747 -13.585  23.177  1.00  0.00     0.270 C 
HETATM   33  O1  UNL     1      20.817 -13.247  22.626  1.00  0.00    -0.266 OA
HETATM   34  N7  UNL     1      19.662 -13.273  24.551  1.00  0.00    -0.356 N 
ATOM     35  H7  UNL     1      18.825 -13.514  25.080  1.00  0.00     0.162 HD
BRANCH  34  36
HETATM   36  C9  UNL     1      20.767 -12.611  25.205  1.00  0.00     0.118 C 
HETATM   37  C10 UNL     1      20.863 -13.005  26.669  1.00  0.00     0.026 C 
ENDBRANCH  34  36
ENDBRANCH   8  32
TORSDOF 13
ENDMDL
MODEL 5
REMARK VINA RESULT: -6.743452582      2.481      5.988
REMARK  13 active torsions:
REMARK  status: ('A' for Active; 'I' for Inactive)
REMARK    1  A    between atoms: C4_5  and  N2_6 
REMARK    2  A    between atoms: N2_6  and  C5_8 
REMARK    3  A    between atoms: C5_8  and  N3_10 
REMARK    4  A    between atoms: C7_17  and  C8_18 
REMARK       I    between atoms: C8_18  and  N7_20 
REMARK    5  A    between atoms: N7_20  and  C9_22 
REMARK    6  A    between atoms: C11_24  and  C12_25 
REMARK    7  A    between atoms: C12_25  and  C13_26 
REMARK    8  A    between atoms: C13_26  and  C14_27 
REMARK    9  A    between atoms: C14_27  and  N8_28 
REMARK   10  A    between atoms: N8_28  and  C15_31 
REMARK   11  A    between atoms: C15_31  and  C16_32 
REMARK   12  A    between atoms: C16_32  and  C17_33 
REMARK   13  A    between atoms: C17_33  and  N9_34 
ROOT
HETATM    1  C1  UNL     1      17.658 -15.866  21.640  1.00  0.00     0.124 C 
HETATM    2  C2  UNL     1      16.502 -15.480  21.475  1.00  0.00    -0.068 C 
HETATM    3  N1  UNL     1      15.175 -15.071  21.287  1.00  0.00    -0.290 N 
HETATM    4  C3  UNL     1      14.211 -15.992  21.092  1.00  0.00     0.154 A 
HETATM    5  C4  UNL     1      12.913 -15.577  20.912  1.00  0.00     0.124 A 
HETATM    6  N6  UNL     1      12.634 -14.270  20.934  1.00  0.00    -0.335 N 
ATOM      7  H6  UNL     1      11.664 -13.984  20.800  1.00  0.00     0.168 HD
HETATM    8  C7  UNL     1      13.571 -13.293  21.125  1.00  0.00     0.126 A 
HETATM    9  C11 UNL     1      14.861 -13.736  21.304  1.00  0.00     0.056 A 
ENDROOT
BRANCH   9  10
HETATM   10  C12 UNL     1      15.959 -12.809  21.567  1.00  0.00     0.062 C 
BRANCH  10  11
HETATM   11  C13 UNL     1      16.582 -12.357  20.265  1.00  0.00     0.033 C 
BRANCH  11  12
HETATM   12  C14 UNL     1      17.927 -11.676  20.514  1.00  0.00     0.232 C 
BRANCH  12  13
HETATM   13  N8  UNL     1      18.547 -12.351  21.610  1.00  0.00    -0.075 N 
ATOM     14  H82 UNL     1      18.589 -11.744  22.429  1.00  0.00     0.277 HD
ATOM     15  H81 UNL     1      17.937 -13.084  21.972  1.00  0.00     0.277 HD
BRANCH  13  16
HETATM   16  C15 UNL     1      19.853 -12.881  21.302  1.00  0.00     0.233 C 
BRANCH  16  17
HETATM   17  C16 UNL     1      20.461 -13.643  22.453  1.00  0.00     0.055 C 
BRANCH  17  18
HETATM   18  C17 UNL     1      19.736 -13.308  23.753  1.00  0.00     0.237 C 
BRANCH  18  19
HETATM   19  N9  UNL     1      20.549 -13.537  24.904  1.00  0.00    -0.079 N 
HETATM   20  C18 UNL     1      21.759 -14.210  24.496  1.00  0.00     0.271 C 
HETATM   21  C19 UNL     1      19.871 -14.388  25.877  1.00  0.00     0.271 C 
HETATM   22  C20 UNL     1      20.926 -12.296  25.555  1.00  0.00     0.271 C 
ENDBRANCH  18  19
ENDBRANCH  17  18
ENDBRANCH  16  17
ENDBRANCH  13  16
ENDBRANCH  12  13
ENDBRANCH  11  12
ENDBRANCH  10  11
ENDBRANCH   9  10
BRANCH   5  23
HETATM   23  N2  UNL     1      12.000 -16.472  20.727  1.00  0.00    -0.318 N 
ATOM     24  H2  UNL     1      11.424 -16.766  21.516  1.00  0.00     0.170 HD
BRANCH  23  25
HETATM   25  C5  UNL     1      11.779 -17.054  19.454  1.00  0.00     0.179 C 
HETATM   26  S1  UNL     1      10.755 -16.314  18.426  1.00  0.00    -0.040 SA
BRANCH  25  27
HETATM   27  N3  UNL     1      12.406 -18.252  19.031  1.00  0.00    -0.310 N 
HETATM   28  C6  UNL     1      12.512 -19.313  19.734  1.00  0.00     0.203 C 
HETATM   29  N4  UNL     1      11.981 -19.352  21.039  1.00  0.00    -0.066 NA
HETATM   30  N5  UNL     1      13.159 -20.447  19.206  1.00  0.00    -0.066 NA
ATOM     31  H3  UNL     1      12.804 -18.268  18.092  1.00  0.00     0.170 HD
ENDBRANCH  25  27
ENDBRANCH  23  25
ENDBRANCH   5  23
BRANCH   8  32
HETATM   32  C8  UNL     1      13.204 -11.894  21.129  1.00  0.00     0.270 C 
HETATM   33  O1  UNL     1      13.289 -11.134  20.141  1.00  0.00    -0.266 OA
HETATM   34  N7  UNL     1      12.709 -11.288  22.304  1.00  0.00    -0.356 N 
ATOM     35  H7  UNL     1      12.608 -11.835  23.158  1.00  0.00     0.162 HD
BRANCH  34  36
HETATM   36  C9  UNL     1      12.346  -9.889  22.291  1.00  0.00     0.118 C 
HETATM   37  C10 UNL     1      11.673  -9.479  23.589  1.00  0.00     0.026 C 
ENDBRANCH  34  36
ENDBRANCH   8  32
TORSDOF 13
ENDMDL
