MODEL 1
REMARK VINA RESULT: -7.786181574      0.000      0.000
REMARK  7 active torsions:
REMARK  status: ('A' for Active; 'I' for Inactive)
REMARK    1  A    between atoms: N1_1  and  C1_5 
REMARK    2  A    between atoms: N2_7  and  S1_8 
REMARK    3  A    between atoms: S1_8  and  N3_11 
REMARK    4  A    between atoms: C8_17  and  N4_18 
REMARK    5  A    between atoms: C8_17  and  C9_22 
REMARK    6  A    between atoms: C9_22  and  O3_23 
REMARK    7  A    between atoms: N5_25  and  O4_27 
ROOT
HETATM    1  C1  UNL     1      60.749  18.196  29.059  1.00  0.00     0.258 C 
HETATM    2  C2  UNL     1      59.478  17.515  29.579  1.00  0.00     0.149 C 
HETATM    3  N2  UNL     1      60.127  16.257  29.395  1.00  0.00    -0.151 NA
HETATM    4  C8  UNL     1      61.156  16.826  28.562  1.00  0.00     0.287 C 
ENDROOT
BRANCH   4   5
HETATM    5  N4  UNL     1      62.507  16.522  28.918  1.00  0.00    -0.046 N 
ATOM      6  H43 UNL     1      63.142  17.271  28.648  1.00  0.00     0.277 HD
ATOM      7  H42 UNL     1      62.643  16.556  29.929  1.00  0.00     0.277 HD
ATOM      8  H41 UNL     1      62.800  15.624  28.532  1.00  0.00     0.277 HD
ENDBRANCH   4   5
BRANCH   4   9
HETATM    9  C9  UNL     1      60.877  16.579  27.137  1.00  0.00     0.191 C 
HETATM   10  N5  UNL     1      60.749  15.416  26.597  1.00  0.00    -0.248 N 
ATOM     11  H5  UNL     1      60.554  15.349  25.598  1.00  0.00     0.196 HD
BRANCH   9  12
HETATM   12  O3  UNL     1      60.736  17.673  26.295  1.00  0.00    -0.345 OA
ATOM     13  H3  UNL     1      61.251  17.696  25.497  1.00  0.00     0.219 HD
ENDBRANCH   9  12
BRANCH  10  14
HETATM   14  O4  UNL     1      60.869  14.263  27.335  1.00  0.00    -0.288 OA
ATOM     15  H4  UNL     1      61.591  13.662  27.203  1.00  0.00     0.244 HD
ENDBRANCH  10  14
ENDBRANCH   4   9
BRANCH   1  16
HETATM   16  N1  UNL     1      60.420  19.141  28.009  1.00  0.00    -0.070 N 
ATOM     17  H13 UNL     1      59.607  18.843  27.469  1.00  0.00     0.274 HD
ATOM     18  H12 UNL     1      60.041  20.010  28.384  1.00  0.00     0.274 HD
ATOM     19  H11 UNL     1      61.231  19.305  27.413  1.00  0.00     0.274 HD
ENDBRANCH   1  16
BRANCH   3  20
HETATM   20  S1  UNL     1      60.677  15.479  30.826  1.00  0.00     0.285 S 
HETATM   21  O1  UNL     1      61.559  16.486  31.553  1.00  0.00    -0.194 OA
HETATM   22  O2  UNL     1      61.530  14.296  30.538  1.00  0.00    -0.194 OA
BRANCH  20  23
HETATM   23  N3  UNL     1      59.342  15.156  31.831  1.00  0.00    -0.197 NA
HETATM   24  C3  UNL     1      58.085  15.143  31.159  1.00  0.00     0.108 C 
HETATM   25  C4  UNL     1      57.742  13.802  30.554  1.00  0.00     0.015 C 
HETATM   26  C5  UNL     1      57.959  12.670  31.536  1.00  0.00     0.002 C 
HETATM   27  C6  UNL     1      59.346  12.724  32.132  1.00  0.00     0.015 C 
HETATM   28  C7  UNL     1      59.533  14.086  32.751  1.00  0.00     0.108 C 
ENDBRANCH  20  23
ENDBRANCH   3  20
TORSDOF 7
ENDMDL
MODEL 2
REMARK VINA RESULT: -7.626168020      2.998      5.092
REMARK  7 active torsions:
REMARK  status: ('A' for Active; 'I' for Inactive)
REMARK    1  A    between atoms: N1_1  and  C1_5 
REMARK    2  A    between atoms: N2_7  and  S1_8 
REMARK    3  A    between atoms: S1_8  and  N3_11 
REMARK    4  A    between atoms: C8_17  and  N4_18 
REMARK    5  A    between atoms: C8_17  and  C9_22 
REMARK    6  A    between atoms: C9_22  and  O3_23 
REMARK    7  A    between atoms: N5_25  and  O4_27 
ROOT
HETATM    1  C1  UNL     1      61.817  16.101  31.983  1.00  0.00     0.258 C 
HETATM    2  C2  UNL     1      60.943  17.347  31.802  1.00  0.00     0.149 C 
HETATM    3  N2  UNL     1      61.402  17.421  30.452  1.00  0.00    -0.151 NA
HETATM    4  C8  UNL     1      62.496  16.516  30.696  1.00  0.00     0.287 C 
ENDROOT
BRANCH   4   5
HETATM    5  N4  UNL     1      62.625  15.413  29.796  1.00  0.00    -0.046 N 
ATOM      6  H43 UNL     1      62.325  14.540  30.228  1.00  0.00     0.277 HD
ATOM      7  H42 UNL     1      61.936  15.462  29.045  1.00  0.00     0.277 HD
ATOM      8  H41 UNL     1      63.574  15.341  29.429  1.00  0.00     0.277 HD
ENDBRANCH   4   5
BRANCH   4   9
HETATM    9  C9  UNL     1      63.759  17.252  30.875  1.00  0.00     0.191 C 
HETATM   10  N5  UNL     1      64.936  16.732  30.809  1.00  0.00    -0.248 N 
ATOM     11  H5  UNL     1      65.752  17.328  30.947  1.00  0.00     0.196 HD
BRANCH   9  12
HETATM   12  O3  UNL     1      63.696  18.614  31.136  1.00  0.00    -0.345 OA
ATOM     13  H3  UNL     1      64.495  19.122  31.073  1.00  0.00     0.219 HD
ENDBRANCH   9  12
BRANCH  10  14
HETATM   14  O4  UNL     1      65.118  15.394  30.557  1.00  0.00    -0.288 OA
ATOM     15  H4  UNL     1      65.772  15.089  29.940  1.00  0.00     0.244 HD
ENDBRANCH  10  14
ENDBRANCH   4   9
BRANCH   1  16
HETATM   16  N1  UNL     1      62.644  16.234  33.168  1.00  0.00    -0.070 N 
ATOM     17  H13 UNL     1      63.079  17.154  33.227  1.00  0.00     0.274 HD
ATOM     18  H12 UNL     1      62.085  16.276  34.020  1.00  0.00     0.274 HD
ATOM     19  H11 UNL     1      63.335  15.484  33.203  1.00  0.00     0.274 HD
ENDBRANCH   1  16
BRANCH   3  20
HETATM   20  S1  UNL     1      60.280  16.921  29.249  1.00  0.00     0.285 S 
HETATM   21  O1  UNL     1      59.036  17.779  29.437  1.00  0.00    -0.194 OA
HETATM   22  O2  UNL     1      59.853  15.507  29.423  1.00  0.00    -0.194 OA
BRANCH  20  23
HETATM   23  N3  UNL     1      60.916  17.280  27.713  1.00  0.00    -0.197 NA
HETATM   24  C3  UNL     1      60.408  16.468  26.657  1.00  0.00     0.108 C 
HETATM   25  C4  UNL     1      59.123  16.994  26.062  1.00  0.00     0.015 C 
HETATM   26  C5  UNL     1      59.209  18.473  25.753  1.00  0.00     0.002 C 
HETATM   27  C6  UNL     1      59.679  19.256  26.957  1.00  0.00     0.015 C 
HETATM   28  C7  UNL     1      60.992  18.670  27.408  1.00  0.00     0.108 C 
ENDBRANCH  20  23
ENDBRANCH   3  20
TORSDOF 7
ENDMDL
MODEL 3
REMARK VINA RESULT: -7.173507329      2.807      5.074
REMARK  7 active torsions:
REMARK  status: ('A' for Active; 'I' for Inactive)
REMARK    1  A    between atoms: N1_1  and  C1_5 
REMARK    2  A    between atoms: N2_7  and  S1_8 
REMARK    3  A    between atoms: S1_8  and  N3_11 
REMARK    4  A    between atoms: C8_17  and  N4_18 
REMARK    5  A    between atoms: C8_17  and  C9_22 
REMARK    6  A    between atoms: C9_22  and  O3_23 
REMARK    7  A    between atoms: N5_25  and  O4_27 
ROOT
HETATM    1  C1  UNL     1      61.129  15.875  32.639  1.00  0.00     0.258 C 
HETATM    2  C2  UNL     1      60.607  17.251  32.209  1.00  0.00     0.149 C 
HETATM    3  N2  UNL     1      61.194  17.025  30.927  1.00  0.00    -0.151 NA
HETATM    4  C8  UNL     1      62.007  15.936  31.408  1.00  0.00     0.287 C 
ENDROOT
BRANCH   4   5
HETATM    5  N4  UNL     1      61.946  14.718  30.663  1.00  0.00    -0.046 N 
ATOM      6  H43 UNL     1      62.158  14.871  29.678  1.00  0.00     0.277 HD
ATOM      7  H42 UNL     1      62.722  14.098  30.896  1.00  0.00     0.277 HD
ATOM      8  H41 UNL     1      61.046  14.252  30.784  1.00  0.00     0.277 HD
ENDBRANCH   4   5
BRANCH   4   9
HETATM    9  C9  UNL     1      63.389  16.379  31.658  1.00  0.00     0.191 C 
HETATM   10  N5  UNL     1      63.926  17.444  31.170  1.00  0.00    -0.248 N 
ATOM     11  H5  UNL     1      64.893  17.666  31.404  1.00  0.00     0.196 HD
BRANCH   9  12
HETATM   12  O3  UNL     1      64.190  15.602  32.483  1.00  0.00    -0.345 OA
ATOM     13  H3  UNL     1      63.780  15.139  33.203  1.00  0.00     0.219 HD
ENDBRANCH   9  12
BRANCH  10  14
HETATM   14  O4  UNL     1      63.226  18.287  30.341  1.00  0.00    -0.288 OA
ATOM     15  H4  UNL     1      62.960  18.020  29.470  1.00  0.00     0.244 HD
ENDBRANCH  10  14
ENDBRANCH   4   9
BRANCH   1  16
HETATM   16  N1  UNL     1      61.849  15.979  33.894  1.00  0.00    -0.070 N 
ATOM     17  H13 UNL     1      62.702  16.531  33.799  1.00  0.00     0.274 HD
ATOM     18  H12 UNL     1      61.360  16.573  34.565  1.00  0.00     0.274 HD
ATOM     19  H11 UNL     1      62.036  15.051  34.273  1.00  0.00     0.274 HD
ENDBRANCH   1  16
BRANCH   3  20
HETATM   20  S1  UNL     1      60.102  16.632  29.659  1.00  0.00     0.285 S 
HETATM   21  O1  UNL     1      59.096  17.773  29.587  1.00  0.00    -0.194 OA
HETATM   22  O2  UNL     1      59.326  15.396  29.940  1.00  0.00    -0.194 OA
BRANCH  20  23
HETATM   23  N3  UNL     1      60.949  16.610  28.184  1.00  0.00    -0.197 NA
HETATM   24  C3  UNL     1      60.500  15.625  27.257  1.00  0.00     0.108 C 
HETATM   25  C4  UNL     1      59.349  16.091  26.397  1.00  0.00     0.015 C 
HETATM   26  C5  UNL     1      59.607  17.460  25.805  1.00  0.00     0.002 C 
HETATM   27  C6  UNL     1      59.998  18.452  26.876  1.00  0.00     0.015 C 
HETATM   28  C7  UNL     1      61.188  17.894  27.614  1.00  0.00     0.108 C 
ENDBRANCH  20  23
ENDBRANCH   3  20
TORSDOF 7
ENDMDL
MODEL 4
REMARK VINA RESULT: -7.048141595      2.867      5.187
REMARK  7 active torsions:
REMARK  status: ('A' for Active; 'I' for Inactive)
REMARK    1  A    between atoms: N1_1  and  C1_5 
REMARK    2  A    between atoms: N2_7  and  S1_8 
REMARK    3  A    between atoms: S1_8  and  N3_11 
REMARK    4  A    between atoms: C8_17  and  N4_18 
REMARK    5  A    between atoms: C8_17  and  C9_22 
REMARK    6  A    between atoms: C9_22  and  O3_23 
REMARK    7  A    between atoms: N5_25  and  O4_27 
ROOT
HETATM    1  C1  UNL     1      63.096  15.903  30.455  1.00  0.00     0.258 C 
HETATM    2  C2  UNL     1      62.087  14.756  30.325  1.00  0.00     0.149 C 
HETATM    3  N2  UNL     1      61.068  15.663  30.746  1.00  0.00    -0.151 NA
HETATM    4  C8  UNL     1      62.022  16.624  31.239  1.00  0.00     0.287 C 
ENDROOT
BRANCH   4   5
HETATM    5  N4  UNL     1      61.862  17.971  30.788  1.00  0.00    -0.046 N 
ATOM      6  H43 UNL     1      62.461  18.612  31.307  1.00  0.00     0.277 HD
ATOM      7  H42 UNL     1      62.260  18.103  29.858  1.00  0.00     0.277 HD
ATOM      8  H41 UNL     1      60.885  18.261  30.822  1.00  0.00     0.277 HD
ENDBRANCH   4   5
BRANCH   4   9
HETATM    9  C9  UNL     1      62.158  16.529  32.703  1.00  0.00     0.191 C 
HETATM   10  N5  UNL     1      61.366  15.876  33.480  1.00  0.00    -0.248 N 
ATOM     11  H5  UNL     1      61.546  15.870  34.484  1.00  0.00     0.196 HD
BRANCH   9  12
HETATM   12  O3  UNL     1      63.219  17.188  33.309  1.00  0.00    -0.345 OA
ATOM     13  H3  UNL     1      63.573  17.959  32.882  1.00  0.00     0.219 HD
ENDBRANCH   9  12
BRANCH  10  14
HETATM   14  O4  UNL     1      60.283  15.187  32.990  1.00  0.00    -0.288 OA
ATOM     15  H4  UNL     1      60.301  14.243  32.885  1.00  0.00     0.244 HD
ENDBRANCH  10  14
ENDBRANCH   4   9
BRANCH   1  16
HETATM   16  N1  UNL     1      64.237  15.482  31.247  1.00  0.00    -0.070 N 
ATOM     17  H13 UNL     1      64.042  14.629  31.772  1.00  0.00     0.274 HD
ATOM     18  H12 UNL     1      64.996  15.130  30.664  1.00  0.00     0.274 HD
ATOM     19  H11 UNL     1      64.544  16.240  31.856  1.00  0.00     0.274 HD
ENDBRANCH   1  16
BRANCH   3  20
HETATM   20  S1  UNL     1      60.012  16.231  29.515  1.00  0.00     0.285 S 
HETATM   21  O1  UNL     1      59.206  17.369  30.128  1.00  0.00    -0.194 OA
HETATM   22  O2  UNL     1      59.032  15.198  29.085  1.00  0.00    -0.194 OA
BRANCH  20  23
HETATM   23  N3  UNL     1      60.938  16.891  28.250  1.00  0.00    -0.197 NA
HETATM   24  C3  UNL     1      60.793  16.223  26.999  1.00  0.00     0.108 C 
HETATM   25  C4  UNL     1      59.627  16.726  26.181  1.00  0.00     0.015 C 
HETATM   26  C5  UNL     1      59.599  18.237  26.111  1.00  0.00     0.002 C 
HETATM   27  C6  UNL     1      59.676  18.849  27.490  1.00  0.00     0.015 C 
HETATM   28  C7  UNL     1      60.910  18.313  28.168  1.00  0.00     0.108 C 
ENDBRANCH  20  23
ENDBRANCH   3  20
TORSDOF 7
ENDMDL
MODEL 5
REMARK VINA RESULT: -6.944778866      1.457      1.562
REMARK  7 active torsions:
REMARK  status: ('A' for Active; 'I' for Inactive)
REMARK    1  A    between atoms: N1_1  and  C1_5 
REMARK    2  A    between atoms: N2_7  and  S1_8 
REMARK    3  A    between atoms: S1_8  and  N3_11 
REMARK    4  A    between atoms: C8_17  and  N4_18 
REMARK    5  A    between atoms: C8_17  and  C9_22 
REMARK    6  A    between atoms: C9_22  and  O3_23 
REMARK    7  A    between atoms: N5_25  and  O4_27 
ROOT
HETATM    1  C1  UNL     1      60.566  19.081  27.674  1.00  0.00     0.258 C 
HETATM    2  C2  UNL     1      59.511  18.589  28.671  1.00  0.00     0.149 C 
HETATM    3  N2  UNL     1      60.149  17.312  28.651  1.00  0.00    -0.151 NA
HETATM    4  C8  UNL     1      60.893  17.619  27.456  1.00  0.00     0.287 C 
ENDROOT
BRANCH   4   5
HETATM    5  N4  UNL     1      62.303  17.388  27.506  1.00  0.00    -0.046 N 
ATOM      6  H43 UNL     1      62.825  18.176  27.125  1.00  0.00     0.277 HD
ATOM      7  H42 UNL     1      62.653  17.417  28.464  1.00  0.00     0.277 HD
ATOM      8  H41 UNL     1      62.553  16.514  27.043  1.00  0.00     0.277 HD
ENDBRANCH   4   5
BRANCH   4   9
HETATM    9  C9  UNL     1      60.261  17.015  26.271  1.00  0.00     0.191 C 
HETATM   10  N5  UNL     1      60.098  15.752  26.081  1.00  0.00    -0.248 N 
ATOM     11  H5  UNL     1      59.646  15.431  25.225  1.00  0.00     0.196 HD
BRANCH   9  12
HETATM   12  O3  UNL     1      59.799  17.859  25.271  1.00  0.00    -0.345 OA
ATOM     13  H3  UNL     1      60.029  17.659  24.371  1.00  0.00     0.219 HD
ENDBRANCH   9  12
BRANCH  10  14
HETATM   14  O4  UNL     1      60.517  14.825  27.005  1.00  0.00    -0.288 OA
ATOM     15  H4  UNL     1      61.439  14.674  27.173  1.00  0.00     0.244 HD
ENDBRANCH  10  14
ENDBRANCH   4   9
BRANCH   1  16
HETATM   16  N1  UNL     1      59.927  19.726  26.542  1.00  0.00    -0.070 N 
ATOM     17  H13 UNL     1      60.608  20.057  25.859  1.00  0.00     0.274 HD
ATOM     18  H12 UNL     1      59.433  19.057  25.951  1.00  0.00     0.274 HD
ATOM     19  H11 UNL     1      59.315  20.476  26.862  1.00  0.00     0.274 HD
ENDBRANCH   1  16
BRANCH   3  20
HETATM   20  S1  UNL     1      61.092  16.923  30.034  1.00  0.00     0.285 S 
HETATM   21  O1  UNL     1      61.931  18.155  30.346  1.00  0.00    -0.194 OA
HETATM   22  O2  UNL     1      62.047  15.812  29.777  1.00  0.00    -0.194 OA
BRANCH  20  23
HETATM   23  N3  UNL     1      60.056  16.666  31.359  1.00  0.00    -0.197 NA
HETATM   24  C3  UNL     1      58.685  16.485  31.013  1.00  0.00     0.108 C 
HETATM   25  C4  UNL     1      58.335  15.055  30.676  1.00  0.00     0.015 C 
HETATM   26  C5  UNL     1      58.871  14.086  31.709  1.00  0.00     0.002 C 
HETATM   27  C6  UNL     1      60.347  14.304  31.947  1.00  0.00     0.015 C 
HETATM   28  C7  UNL     1      60.547  15.748  32.331  1.00  0.00     0.108 C 
ENDBRANCH  20  23
ENDBRANCH   3  20
TORSDOF 7
ENDMDL
