MODEL 1
REMARK VINA RESULT: -7.420917377      0.000      0.000
REMARK  6 active torsions:
REMARK  status: ('A' for Active; 'I' for Inactive)
REMARK    1  A    between atoms: C2_5  and  C3_6 
REMARK    2  A    between atoms: C3_6  and  O1_7 
REMARK    3  A    between atoms: O1_7  and  N2_8 
REMARK    4  A    between atoms: C11_17  and  C12_18 
REMARK    5  A    between atoms: C12_18  and  O3_19 
REMARK    6  A    between atoms: N3_21  and  O4_23 
ROOT
HETATM    1  N1  UNL     1      16.403  17.085  21.545  1.00  0.00    -0.399 N 
ATOM      2  H11 UNL     1      16.859  17.535  22.340  1.00  0.00     0.156 HD
ATOM      3  H12 UNL     1      15.553  16.544  21.704  1.00  0.00     0.156 HD
HETATM    4  C1  UNL     1      16.892  17.199  20.350  1.00  0.00     0.048 C 
HETATM    5  C2  UNL     1      16.245  16.561  19.223  1.00  0.00    -0.009 C 
HETATM    6  C9  UNL     1      16.447  17.042  18.014  1.00  0.00     0.010 C 
HETATM    7  C10 UNL     1      17.351  18.232  17.936  1.00  0.00     0.197 C 
HETATM    8  O2  UNL     1      18.439  18.079  18.790  1.00  0.00    -0.368 OA
HETATM    9  C11 UNL     1      18.127  17.987  20.120  1.00  0.00     0.247 C 
ENDROOT
BRANCH   5  10
HETATM   10  C3  UNL     1      15.376  15.386  19.464  1.00  0.00     0.242 C 
BRANCH  10  11
HETATM   11  O1  UNL     1      14.141  15.763  20.000  1.00  0.00    -0.274 OA
BRANCH  11  12
HETATM   12  N2  UNL     1      13.278  15.934  19.044  1.00  0.00    -0.273 N 
HETATM   13  C4  UNL     1      12.906  14.858  18.235  1.00  0.00     0.155 C 
HETATM   14  C5  UNL     1      12.903  15.317  16.773  1.00  0.00     0.023 C 
HETATM   15  C6  UNL     1      12.036  16.537  16.678  1.00  0.00     0.007 C 
HETATM   16  C7  UNL     1      12.528  17.650  17.571  1.00  0.00     0.047 C 
HETATM   17  C8  UNL     1      12.527  17.118  18.997  1.00  0.00     0.090 C 
ENDBRANCH  11  12
ENDBRANCH  10  11
ENDBRANCH   5  10
BRANCH   9  18
HETATM   18  C12 UNL     1      19.222  17.236  20.788  1.00  0.00     0.171 C 
HETATM   19  N3  UNL     1      20.164  16.743  20.098  1.00  0.00    -0.249 N 
ATOM     20  H3  UNL     1      20.128  16.887  19.089  1.00  0.00     0.196 HD
BRANCH  18  21
HETATM   21  O3  UNL     1      19.186  17.092  22.156  1.00  0.00    -0.346 OA
ATOM     22  H3  UNL     1      19.939  17.370  22.663  1.00  0.00     0.219 HD
ENDBRANCH  18  21
BRANCH  19  23
HETATM   23  O4  UNL     1      21.220  16.038  20.589  1.00  0.00    -0.288 OA
ATOM     24  H4  UNL     1      21.355  15.103  20.488  1.00  0.00     0.244 HD
ENDBRANCH  19  23
ENDBRANCH   9  18
TORSDOF 6
ENDMDL
MODEL 2
REMARK VINA RESULT: -6.907726888      1.276      1.615
REMARK  6 active torsions:
REMARK  status: ('A' for Active; 'I' for Inactive)
REMARK    1  A    between atoms: C2_5  and  C3_6 
REMARK    2  A    between atoms: C3_6  and  O1_7 
REMARK    3  A    between atoms: O1_7  and  N2_8 
REMARK    4  A    between atoms: C11_17  and  C12_18 
REMARK    5  A    between atoms: C12_18  and  O3_19 
REMARK    6  A    between atoms: N3_21  and  O4_23 
ROOT
HETATM    1  N1  UNL     1      16.533  17.440  21.157  1.00  0.00    -0.399 N 
ATOM      2  H11 UNL     1      16.943  17.757  22.036  1.00  0.00     0.156 HD
ATOM      3  H12 UNL     1      15.608  17.011  21.169  1.00  0.00     0.156 HD
HETATM    4  C1  UNL     1      17.175  17.581  20.040  1.00  0.00     0.048 C 
HETATM    5  C2  UNL     1      16.594  17.132  18.792  1.00  0.00    -0.009 C 
HETATM    6  C9  UNL     1      17.003  17.674  17.665  1.00  0.00     0.010 C 
HETATM    7  C10 UNL     1      18.055  18.730  17.801  1.00  0.00     0.197 C 
HETATM    8  O2  UNL     1      19.002  18.359  18.751  1.00  0.00    -0.368 OA
HETATM    9  C11 UNL     1      18.521  18.205  20.023  1.00  0.00     0.247 C 
ENDROOT
BRANCH   5  10
HETATM   10  C3  UNL     1      15.558  16.074  18.822  1.00  0.00     0.242 C 
BRANCH  10  11
HETATM   11  O1  UNL     1      15.502  15.376  17.612  1.00  0.00    -0.274 OA
BRANCH  11  12
HETATM   12  N2  UNL     1      14.362  15.595  17.028  1.00  0.00    -0.273 N 
HETATM   13  C4  UNL     1      13.173  15.508  17.757  1.00  0.00     0.155 C 
HETATM   14  C5  UNL     1      12.146  14.724  16.934  1.00  0.00     0.023 C 
HETATM   15  C6  UNL     1      12.042  15.377  15.589  1.00  0.00     0.007 C 
HETATM   16  C7  UNL     1      13.369  15.406  14.870  1.00  0.00     0.047 C 
HETATM   17  C8  UNL     1      14.342  16.177  15.752  1.00  0.00     0.090 C 
ENDBRANCH  11  12
ENDBRANCH  10  11
ENDBRANCH   5  10
BRANCH   9  18
HETATM   18  C12 UNL     1      19.420  17.258  20.732  1.00  0.00     0.171 C 
HETATM   19  N3  UNL     1      20.379  16.711  20.112  1.00  0.00    -0.249 N 
ATOM     20  H3  UNL     1      20.495  16.950  19.128  1.00  0.00     0.196 HD
BRANCH  18  21
HETATM   21  O3  UNL     1      19.185  16.994  22.063  1.00  0.00    -0.346 OA
ATOM     22  H3  UNL     1      19.003  16.100  22.325  1.00  0.00     0.219 HD
ENDBRANCH  18  21
BRANCH  19  23
HETATM   23  O4  UNL     1      21.269  15.831  20.647  1.00  0.00    -0.288 OA
ATOM     24  H4  UNL     1      21.599  15.851  21.539  1.00  0.00     0.244 HD
ENDBRANCH  19  23
ENDBRANCH   9  18
TORSDOF 6
ENDMDL
MODEL 3
REMARK VINA RESULT: -6.651058481      3.319      4.460
REMARK  6 active torsions:
REMARK  status: ('A' for Active; 'I' for Inactive)
REMARK    1  A    between atoms: C2_5  and  C3_6 
REMARK    2  A    between atoms: C3_6  and  O1_7 
REMARK    3  A    between atoms: O1_7  and  N2_8 
REMARK    4  A    between atoms: C11_17  and  C12_18 
REMARK    5  A    between atoms: C12_18  and  O3_19 
REMARK    6  A    between atoms: N3_21  and  O4_23 
ROOT
HETATM    1  N1  UNL     1      12.427  16.892  20.700  1.00  0.00    -0.399 N 
ATOM      2  H11 UNL     1      11.732  17.409  21.238  1.00  0.00     0.156 HD
ATOM      3  H12 UNL     1      12.173  16.531  19.781  1.00  0.00     0.156 HD
HETATM    4  C1  UNL     1      13.618  16.695  21.173  1.00  0.00     0.048 C 
HETATM    5  C2  UNL     1      14.605  15.961  20.409  1.00  0.00    -0.009 C 
HETATM    6  C9  UNL     1      15.882  16.161  20.656  1.00  0.00     0.010 C 
HETATM    7  C10 UNL     1      16.183  17.158  21.731  1.00  0.00     0.197 C 
HETATM    8  O2  UNL     1      15.308  17.003  22.802  1.00  0.00    -0.368 OA
HETATM    9  C11 UNL     1      13.988  17.220  22.510  1.00  0.00     0.247 C 
ENDROOT
BRANCH   5  10
HETATM   10  C3  UNL     1      14.147  15.006  19.374  1.00  0.00     0.242 C 
BRANCH  10  11
HETATM   11  O1  UNL     1      14.532  15.412  18.094  1.00  0.00    -0.274 OA
BRANCH  11  12
HETATM   12  N2  UNL     1      13.487  15.769  17.410  1.00  0.00    -0.273 N 
HETATM   13  C4  UNL     1      12.428  14.875  17.232  1.00  0.00     0.155 C 
HETATM   14  C5  UNL     1      11.987  14.918  15.766  1.00  0.00     0.023 C 
HETATM   15  C6  UNL     1      11.702  16.347  15.414  1.00  0.00     0.007 C 
HETATM   16  C7  UNL     1      12.908  17.230  15.618  1.00  0.00     0.047 C 
HETATM   17  C8  UNL     1      13.303  17.122  17.085  1.00  0.00     0.090 C 
ENDBRANCH  11  12
ENDBRANCH  10  11
ENDBRANCH   5  10
BRANCH   9  18
HETATM   18  C12 UNL     1      13.179  16.450  23.490  1.00  0.00     0.171 C 
HETATM   19  N3  UNL     1      13.707  15.498  24.139  1.00  0.00    -0.249 N 
ATOM     20  H3  UNL     1      14.689  15.297  23.955  1.00  0.00     0.196 HD
BRANCH  18  21
HETATM   21  O3  UNL     1      11.858  16.794  23.672  1.00  0.00    -0.346 OA
ATOM     22  H3  UNL     1      11.333  17.003  22.909  1.00  0.00     0.219 HD
ENDBRANCH  18  21
BRANCH  19  23
HETATM   23  O4  UNL     1      13.075  14.722  25.061  1.00  0.00    -0.288 OA
ATOM     24  H4  UNL     1      12.557  15.041  25.791  1.00  0.00     0.244 HD
ENDBRANCH  19  23
ENDBRANCH   9  18
TORSDOF 6
ENDMDL
MODEL 4
REMARK VINA RESULT: -6.635695199      2.756      6.375
REMARK  6 active torsions:
REMARK  status: ('A' for Active; 'I' for Inactive)
REMARK    1  A    between atoms: C2_5  and  C3_6 
REMARK    2  A    between atoms: C3_6  and  O1_7 
REMARK    3  A    between atoms: O1_7  and  N2_8 
REMARK    4  A    between atoms: C11_17  and  C12_18 
REMARK    5  A    between atoms: C12_18  and  O3_19 
REMARK    6  A    between atoms: N3_21  and  O4_23 
ROOT
HETATM    1  N1  UNL     1      14.258  14.453  18.335  1.00  0.00    -0.399 N 
ATOM      2  H11 UNL     1      13.887  13.662  17.809  1.00  0.00     0.156 HD
ATOM      3  H12 UNL     1      14.460  14.335  19.328  1.00  0.00     0.156 HD
HETATM    4  C1  UNL     1      14.475  15.591  17.754  1.00  0.00     0.048 C 
HETATM    5  C2  UNL     1      15.002  16.714  18.501  1.00  0.00    -0.009 C 
HETATM    6  C9  UNL     1      15.640  17.667  17.856  1.00  0.00     0.010 C 
HETATM    7  C10 UNL     1      15.754  17.480  16.375  1.00  0.00     0.197 C 
HETATM    8  O2  UNL     1      14.562  16.993  15.849  1.00  0.00    -0.368 OA
HETATM    9  C11 UNL     1      14.181  15.762  16.311  1.00  0.00     0.247 C 
ENDROOT
BRANCH   5  10
HETATM   10  C3  UNL     1      14.807  16.755  19.969  1.00  0.00     0.242 C 
BRANCH  10  11
HETATM   11  O1  UNL     1      15.837  16.093  20.642  1.00  0.00    -0.274 OA
BRANCH  11  12
HETATM   12  N2  UNL     1      16.276  16.833  21.616  1.00  0.00    -0.273 N 
HETATM   13  C4  UNL     1      17.453  17.569  21.460  1.00  0.00     0.155 C 
HETATM   14  C5  UNL     1      18.310  17.404  22.719  1.00  0.00     0.023 C 
HETATM   15  C6  UNL     1      17.463  17.768  23.900  1.00  0.00     0.007 C 
HETATM   16  C7  UNL     1      16.228  16.907  23.997  1.00  0.00     0.047 C 
HETATM   17  C8  UNL     1      15.440  17.103  22.709  1.00  0.00     0.090 C 
ENDBRANCH  11  12
ENDBRANCH  10  11
ENDBRANCH   5  10
BRANCH   9  18
HETATM   18  C12 UNL     1      12.704  15.669  16.179  1.00  0.00     0.171 C 
HETATM   19  N3  UNL     1      12.035  16.684  15.821  1.00  0.00    -0.249 N 
ATOM     20  H3  UNL     1      12.553  17.542  15.633  1.00  0.00     0.196 HD
BRANCH  18  21
HETATM   21  O3  UNL     1      12.090  14.468  16.454  1.00  0.00    -0.346 OA
ATOM     22  H3  UNL     1      12.207  13.747  15.847  1.00  0.00     0.219 HD
ENDBRANCH  18  21
BRANCH  19  23
HETATM   23  O4  UNL     1      10.684  16.726  15.664  1.00  0.00    -0.288 OA
ATOM     24  H4  UNL     1      10.122  17.453  15.906  1.00  0.00     0.244 HD
ENDBRANCH  19  23
ENDBRANCH   9  18
TORSDOF 6
ENDMDL
MODEL 5
REMARK VINA RESULT: -6.592724033      2.807      5.775
REMARK  6 active torsions:
REMARK  status: ('A' for Active; 'I' for Inactive)
REMARK    1  A    between atoms: C2_5  and  C3_6 
REMARK    2  A    between atoms: C3_6  and  O1_7 
REMARK    3  A    between atoms: O1_7  and  N2_8 
REMARK    4  A    between atoms: C11_17  and  C12_18 
REMARK    5  A    between atoms: C12_18  and  O3_19 
REMARK    6  A    between atoms: N3_21  and  O4_23 
ROOT
HETATM    1  N1  UNL     1      15.096  14.373  18.310  1.00  0.00    -0.399 N 
ATOM      2  H11 UNL     1      14.560  13.634  17.856  1.00  0.00     0.156 HD
ATOM      3  H12 UNL     1      15.640  14.148  19.143  1.00  0.00     0.156 HD
HETATM    4  C1  UNL     1      15.091  15.580  17.838  1.00  0.00     0.048 C 
HETATM    5  C2  UNL     1      15.853  16.629  18.483  1.00  0.00    -0.009 C 
HETATM    6  C9  UNL     1      16.218  17.679  17.778  1.00  0.00     0.010 C 
HETATM    7  C10 UNL     1      15.793  17.672  16.342  1.00  0.00     0.197 C 
HETATM    8  O2  UNL     1      14.491  17.199  16.219  1.00  0.00    -0.368 OA
HETATM    9  C11 UNL     1      14.300  15.906  16.627  1.00  0.00     0.247 C 
ENDROOT
BRANCH   5  10
HETATM   10  C3  UNL     1      16.197  16.490  19.917  1.00  0.00     0.242 C 
BRANCH  10  11
HETATM   11  O1  UNL     1      15.201  15.805  20.619  1.00  0.00    -0.274 OA
BRANCH  11  12
HETATM   12  N2  UNL     1      14.905  16.451  21.707  1.00  0.00    -0.273 N 
HETATM   13  C4  UNL     1      15.872  17.230  22.345  1.00  0.00     0.155 C 
HETATM   14  C5  UNL     1      15.813  16.956  23.851  1.00  0.00     0.023 C 
HETATM   15  C6  UNL     1      14.400  17.172  24.300  1.00  0.00     0.007 C 
HETATM   16  C7  UNL     1      13.431  16.274  23.571  1.00  0.00     0.047 C 
HETATM   17  C8  UNL     1      13.560  16.583  22.086  1.00  0.00     0.090 C 
ENDBRANCH  11  12
ENDBRANCH  10  11
ENDBRANCH   5  10
BRANCH   9  18
HETATM   18  C12 UNL     1      12.874  15.764  17.018  1.00  0.00     0.171 C 
HETATM   19  N3  UNL     1      12.269  16.733  17.568  1.00  0.00    -0.249 N 
ATOM     20  H3  UNL     1      12.801  17.589  17.721  1.00  0.00     0.196 HD
BRANCH  18  21
HETATM   21  O3  UNL     1      12.236  14.570  16.773  1.00  0.00    -0.346 OA
ATOM     22  H3  UNL     1      11.315  14.491  16.991  1.00  0.00     0.219 HD
ENDBRANCH  18  21
BRANCH  19  23
HETATM   23  O4  UNL     1      10.969  16.728  17.971  1.00  0.00    -0.288 OA
ATOM     24  H4  UNL     1      10.393  15.971  17.973  1.00  0.00     0.244 HD
ENDBRANCH  19  23
ENDBRANCH   9  18
TORSDOF 6
ENDMDL
