MODEL 1
REMARK VINA RESULT: -7.056687504      0.000      0.000
REMARK  6 active torsions:
REMARK  status: ('A' for Active; 'I' for Inactive)
REMARK    1  A    between atoms: N1_2  and  C2_3 
REMARK    2  A    between atoms: N1_2  and  C6_16 
REMARK    3  A    between atoms: C2_3  and  N2_5 
REMARK    4  A    between atoms: N2_5  and  N3_7 
REMARK    5  A    between atoms: N3_7  and  N4_8 
REMARK    6  A    between atoms: N4_8  and  C3_10 
ROOT
HETATM    1  N2  UNL     1      16.557  17.774  22.549  1.00  0.00    -0.260 N 
ATOM      2  H2  UNL     1      15.839  18.481  22.391  1.00  0.00     0.186 HD
ENDROOT
BRANCH   1   3
HETATM    3  C2  UNL     1      17.230  17.204  21.443  1.00  0.00     0.187 C 
HETATM    4  S1  UNL     1      18.881  17.027  21.527  1.00  0.00    -0.040 SA
BRANCH   3   5
HETATM    5  N1  UNL     1      16.601  16.766  20.251  1.00  0.00    -0.357 N 
HETATM    6  C1  UNL     1      17.314  16.994  18.984  1.00  0.00     0.152 C 
BRANCH   5   7
HETATM    7  C6  UNL     1      15.302  16.109  20.227  1.00  0.00     0.086 C 
HETATM    8  C7  UNL     1      15.395  14.804  19.486  1.00  0.00     0.025 C 
HETATM    9  C8  UNL     1      14.068  14.259  19.059  1.00  0.00     0.002 C 
HETATM   10  C9  UNL     1      13.135  15.272  18.490  1.00  0.00     0.000 C 
HETATM   11  C10 UNL     1      12.951  16.370  19.547  1.00  0.00     0.002 C 
HETATM   12  C11 UNL     1      14.320  17.067  19.601  1.00  0.00     0.025 C 
ENDBRANCH   5   7
ENDBRANCH   3   5
ENDBRANCH   1   3
BRANCH   1  13
HETATM   13  N3  UNL     1      16.859  17.387  23.842  1.00  0.00    -0.019 NA
BRANCH  13  14
HETATM   14  N4  UNL     1      15.853  16.681  24.460  1.00  0.00    -0.268 N 
ATOM     15  H4  UNL     1      16.105  15.940  25.115  1.00  0.00     0.186 HD
BRANCH  14  16
HETATM   16  C3  UNL     1      14.475  16.942  24.222  1.00  0.00     0.140 A 
HETATM   17  C4  UNL     1      13.655  16.324  23.291  1.00  0.00     0.078 A 
HETATM   18  C5  UNL     1      12.411  16.891  23.413  1.00  0.00     0.171 A 
HETATM   19  O1  UNL     1      12.487  17.789  24.357  1.00  0.00    -0.248 OA
HETATM   20  N5  UNL     1      13.690  17.835  24.846  1.00  0.00    -0.244 N 
ATOM     21  H5  UNL     1      13.994  18.459  25.594  1.00  0.00     0.196 HD
ENDBRANCH  14  16
ENDBRANCH  13  14
ENDBRANCH   1  13
TORSDOF 6
ENDMDL
MODEL 2
REMARK VINA RESULT: -6.495730629      3.478      5.675
REMARK  6 active torsions:
REMARK  status: ('A' for Active; 'I' for Inactive)
REMARK    1  A    between atoms: N1_2  and  C2_3 
REMARK    2  A    between atoms: N1_2  and  C6_16 
REMARK    3  A    between atoms: C2_3  and  N2_5 
REMARK    4  A    between atoms: N2_5  and  N3_7 
REMARK    5  A    between atoms: N3_7  and  N4_8 
REMARK    6  A    between atoms: N4_8  and  C3_10 
ROOT
HETATM    1  N2  UNL     1      15.493  15.114  18.999  1.00  0.00    -0.260 N 
ATOM      2  H2  UNL     1      16.092  14.301  18.853  1.00  0.00     0.186 HD
ENDROOT
BRANCH   1   3
HETATM    3  C2  UNL     1      16.034  16.413  18.862  1.00  0.00     0.187 C 
HETATM    4  S1  UNL     1      15.531  17.348  17.582  1.00  0.00    -0.040 SA
BRANCH   3   5
HETATM    5  N1  UNL     1      16.986  16.991  19.738  1.00  0.00    -0.357 N 
HETATM    6  C1  UNL     1      17.984  17.899  19.153  1.00  0.00     0.152 C 
BRANCH   5   7
HETATM    7  C6  UNL     1      17.016  16.729  21.170  1.00  0.00     0.086 C 
HETATM    8  C7  UNL     1      15.682  17.052  21.784  1.00  0.00     0.025 C 
HETATM    9  C8  UNL     1      15.726  17.206  23.273  1.00  0.00     0.002 C 
HETATM   10  C9  UNL     1      16.889  17.984  23.782  1.00  0.00     0.000 C 
HETATM   11  C10 UNL     1      18.162  17.292  23.274  1.00  0.00     0.002 C 
HETATM   12  C11 UNL     1      18.141  17.543  21.757  1.00  0.00     0.025 C 
ENDBRANCH   5   7
ENDBRANCH   3   5
ENDBRANCH   1   3
BRANCH   1  13
HETATM   13  N3  UNL     1      14.162  14.928  19.329  1.00  0.00    -0.019 NA
BRANCH  13  14
HETATM   14  N4  UNL     1      13.402  14.417  18.302  1.00  0.00    -0.268 N 
ATOM     15  H4  UNL     1      13.402  13.408  18.148  1.00  0.00     0.186 HD
BRANCH  14  16
HETATM   16  C3  UNL     1      12.615  15.239  17.449  1.00  0.00     0.140 A 
HETATM   17  C4  UNL     1      12.422  15.085  16.085  1.00  0.00     0.078 A 
HETATM   18  C5  UNL     1      11.595  16.103  15.680  1.00  0.00     0.171 A 
HETATM   19  O1  UNL     1      11.314  16.815  16.736  1.00  0.00    -0.248 OA
HETATM   20  N5  UNL     1      11.903  16.326  17.786  1.00  0.00    -0.244 N 
ATOM     21  H5  UNL     1      11.834  16.711  18.728  1.00  0.00     0.196 HD
ENDBRANCH  14  16
ENDBRANCH  13  14
ENDBRANCH   1  13
TORSDOF 6
ENDMDL
MODEL 3
REMARK VINA RESULT: -6.493119807      1.403      2.867
REMARK  6 active torsions:
REMARK  status: ('A' for Active; 'I' for Inactive)
REMARK    1  A    between atoms: N1_2  and  C2_3 
REMARK    2  A    between atoms: N1_2  and  C6_16 
REMARK    3  A    between atoms: C2_3  and  N2_5 
REMARK    4  A    between atoms: N2_5  and  N3_7 
REMARK    5  A    between atoms: N3_7  and  N4_8 
REMARK    6  A    between atoms: N4_8  and  C3_10 
ROOT
HETATM    1  N2  UNL     1      16.621  18.040  22.698  1.00  0.00    -0.260 N 
ATOM      2  H2  UNL     1      16.053  18.867  22.511  1.00  0.00     0.186 HD
ENDROOT
BRANCH   1   3
HETATM    3  C2  UNL     1      17.279  17.390  21.628  1.00  0.00     0.187 C 
HETATM    4  S1  UNL     1      18.830  16.842  21.870  1.00  0.00    -0.040 SA
BRANCH   3   5
HETATM    5  N1  UNL     1      16.716  17.166  20.348  1.00  0.00    -0.357 N 
HETATM    6  C1  UNL     1      15.848  15.989  20.184  1.00  0.00     0.152 C 
BRANCH   5   7
HETATM    7  C6  UNL     1      16.953  18.038  19.206  1.00  0.00     0.086 C 
HETATM    8  C7  UNL     1      16.139  17.581  18.027  1.00  0.00     0.025 C 
HETATM    9  C8  UNL     1      16.605  18.144  16.720  1.00  0.00     0.002 C 
HETATM   10  C9  UNL     1      18.083  18.144  16.536  1.00  0.00     0.000 C 
HETATM   11  C10 UNL     1      18.690  18.929  17.708  1.00  0.00     0.002 C 
HETATM   12  C11 UNL     1      18.435  18.031  18.929  1.00  0.00     0.025 C 
ENDBRANCH   5   7
ENDBRANCH   3   5
ENDBRANCH   1   3
BRANCH   1  13
HETATM   13  N3  UNL     1      16.735  17.572  23.995  1.00  0.00    -0.019 NA
BRANCH  13  14
HETATM   14  N4  UNL     1      15.743  16.689  24.356  1.00  0.00    -0.268 N 
ATOM     15  H4  UNL     1      16.008  15.819  24.820  1.00  0.00     0.186 HD
BRANCH  14  16
HETATM   16  C3  UNL     1      14.366  16.940  24.109  1.00  0.00     0.140 A 
HETATM   17  C4  UNL     1      13.590  16.416  23.087  1.00  0.00     0.078 A 
HETATM   18  C5  UNL     1      12.327  16.932  23.237  1.00  0.00     0.171 A 
HETATM   19  O1  UNL     1      12.350  17.712  24.282  1.00  0.00    -0.248 OA
HETATM   20  N5  UNL     1      13.538  17.732  24.810  1.00  0.00    -0.244 N 
ATOM     21  H5  UNL     1      13.803  18.270  25.635  1.00  0.00     0.196 HD
ENDBRANCH  14  16
ENDBRANCH  13  14
ENDBRANCH   1  13
TORSDOF 6
ENDMDL
MODEL 4
REMARK VINA RESULT: -6.436000124      3.335      5.898
REMARK  6 active torsions:
REMARK  status: ('A' for Active; 'I' for Inactive)
REMARK    1  A    between atoms: N1_2  and  C2_3 
REMARK    2  A    between atoms: N1_2  and  C6_16 
REMARK    3  A    between atoms: C2_3  and  N2_5 
REMARK    4  A    between atoms: N2_5  and  N3_7 
REMARK    5  A    between atoms: N3_7  and  N4_8 
REMARK    6  A    between atoms: N4_8  and  C3_10 
ROOT
HETATM    1  N2  UNL     1      14.901  14.715  19.448  1.00  0.00    -0.260 N 
ATOM      2  H2  UNL     1      15.709  14.103  19.332  1.00  0.00     0.186 HD
ENDROOT
BRANCH   1   3
HETATM    3  C2  UNL     1      15.098  16.066  19.820  1.00  0.00     0.187 C 
HETATM    4  S1  UNL     1      15.488  17.164  18.634  1.00  0.00    -0.040 SA
BRANCH   3   5
HETATM    5  N1  UNL     1      14.990  16.565  21.142  1.00  0.00    -0.357 N 
HETATM    6  C1  UNL     1      13.752  16.269  21.880  1.00  0.00     0.152 C 
BRANCH   5   7
HETATM    7  C6  UNL     1      16.036  17.344  21.790  1.00  0.00     0.086 C 
HETATM    8  C7  UNL     1      17.390  16.828  21.389  1.00  0.00     0.025 C 
HETATM    9  C8  UNL     1      18.497  17.279  22.291  1.00  0.00     0.002 C 
HETATM   10  C9  UNL     1      18.176  17.219  23.744  1.00  0.00     0.000 C 
HETATM   11  C10 UNL     1      16.917  18.068  23.970  1.00  0.00     0.002 C 
HETATM   12  C11 UNL     1      15.801  17.270  23.278  1.00  0.00     0.025 C 
ENDBRANCH   5   7
ENDBRANCH   3   5
ENDBRANCH   1   3
BRANCH   1  13
HETATM   13  N3  UNL     1      13.630  14.213  19.238  1.00  0.00    -0.019 NA
BRANCH  13  14
HETATM   14  N4  UNL     1      13.278  14.130  17.910  1.00  0.00    -0.268 N 
ATOM     15  H4  UNL     1      13.558  13.304  17.380  1.00  0.00     0.186 HD
BRANCH  14  16
HETATM   16  C3  UNL     1      12.540  15.149  17.248  1.00  0.00     0.140 A 
HETATM   17  C4  UNL     1      12.263  15.235  15.892  1.00  0.00     0.078 A 
HETATM   18  C5  UNL     1      11.527  16.379  15.705  1.00  0.00     0.171 A 
HETATM   19  O1  UNL     1      11.377  16.937  16.874  1.00  0.00    -0.248 OA
HETATM   20  N5  UNL     1      11.963  16.231  17.795  1.00  0.00    -0.244 N 
ATOM     21  H5  UNL     1      11.983  16.465  18.788  1.00  0.00     0.196 HD
ENDBRANCH  14  16
ENDBRANCH  13  14
ENDBRANCH   1  13
TORSDOF 6
ENDMDL
MODEL 5
REMARK VINA RESULT: -6.414884852      3.483      5.946
REMARK  6 active torsions:
REMARK  status: ('A' for Active; 'I' for Inactive)
REMARK    1  A    between atoms: N1_2  and  C2_3 
REMARK    2  A    between atoms: N1_2  and  C6_16 
REMARK    3  A    between atoms: C2_3  and  N2_5 
REMARK    4  A    between atoms: N2_5  and  N3_7 
REMARK    5  A    between atoms: N3_7  and  N4_8 
REMARK    6  A    between atoms: N4_8  and  C3_10 
ROOT
HETATM    1  N2  UNL     1      14.758  14.812  19.649  1.00  0.00    -0.260 N 
ATOM      2  H2  UNL     1      14.935  13.911  20.093  1.00  0.00     0.186 HD
ENDROOT
BRANCH   1   3
HETATM    3  C2  UNL     1      14.694  15.980  20.444  1.00  0.00     0.187 C 
HETATM    4  S1  UNL     1      13.204  16.656  20.738  1.00  0.00    -0.040 SA
BRANCH   3   5
HETATM    5  N1  UNL     1      15.814  16.631  21.018  1.00  0.00    -0.357 N 
HETATM    6  C1  UNL     1      15.697  17.081  22.414  1.00  0.00     0.152 C 
BRANCH   5   7
HETATM    7  C6  UNL     1      17.057  16.868  20.297  1.00  0.00     0.086 C 
HETATM    8  C7  UNL     1      18.048  17.566  21.188  1.00  0.00     0.025 C 
HETATM    9  C8  UNL     1      19.178  18.206  20.445  1.00  0.00     0.002 C 
HETATM   10  C9  UNL     1      18.776  18.937  19.211  1.00  0.00     0.000 C 
HETATM   11  C10 UNL     1      18.033  17.941  18.310  1.00  0.00     0.002 C 
HETATM   12  C11 UNL     1      16.722  17.664  19.062  1.00  0.00     0.025 C 
ENDBRANCH   5   7
ENDBRANCH   3   5
ENDBRANCH   1   3
BRANCH   1  13
HETATM   13  N3  UNL     1      14.583  14.874  18.278  1.00  0.00    -0.019 NA
BRANCH  13  14
HETATM   14  N4  UNL     1      13.338  14.466  17.858  1.00  0.00    -0.268 N 
ATOM     15  H4  UNL     1      13.001  13.548  18.147  1.00  0.00     0.186 HD
BRANCH  14  16
HETATM   16  C3  UNL     1      12.504  15.274  17.038  1.00  0.00     0.140 A 
HETATM   17  C4  UNL     1      12.260  15.119  15.682  1.00  0.00     0.078 A 
HETATM   18  C5  UNL     1      11.398  16.121  15.312  1.00  0.00     0.171 A 
HETATM   19  O1  UNL     1      11.146  16.827  16.379  1.00  0.00    -0.248 OA
HETATM   20  N5  UNL     1      11.785  16.347  17.405  1.00  0.00    -0.244 N 
ATOM     21  H5  UNL     1      11.746  16.730  18.349  1.00  0.00     0.196 HD
ENDBRANCH  14  16
ENDBRANCH  13  14
ENDBRANCH   1  13
TORSDOF 6
ENDMDL
