MODEL 1
REMARK VINA RESULT: -7.880671349      0.000      0.000
REMARK  13 active torsions:
REMARK  status: ('A' for Active; 'I' for Inactive)
REMARK    1  A    between atoms: C2_2  and  C4_4 
REMARK    2  A    between atoms: C4_4  and  C5_5 
REMARK    3  A    between atoms: C7_10  and  C8_11 
REMARK    4  A    between atoms: C8_11  and  C9_12 
REMARK    5  A    between atoms: C13_19  and  C14_20 
REMARK    6  A    between atoms: C14_20  and  C15_21 
REMARK    7  A    between atoms: C19_30  and  O3_31 
REMARK    8  A    between atoms: C22_37  and  O4_38 
REMARK    9  A    between atoms: C23_40  and  C24_41 
REMARK   10  A    between atoms: C24_41  and  C25_42 
REMARK   11  A    between atoms: C25_42  and  C26_43 
REMARK   12  A    between atoms: C26_43  and  C27_44 
REMARK   13  A    between atoms: C27_44  and  N7_45 
ROOT
HETATM    1  C5  UNL     1       4.776  -4.669  16.921  1.00  0.00     0.177 C 
HETATM    2  N1  UNL     1       5.403  -3.371  16.892  1.00  0.00    -0.346 N 
ATOM      3  H1  UNL     1       6.356  -3.273  17.245  1.00  0.00     0.163 HD
HETATM    4  C6  UNL     1       4.733  -2.222  16.387  1.00  0.00     0.241 C 
HETATM    5  O1  UNL     1       4.894  -1.124  17.027  1.00  0.00    -0.271 OA
HETATM    6  C7  UNL     1       3.866  -2.280  15.152  1.00  0.00     0.177 C 
HETATM    7  N2  UNL     1       4.516  -2.853  14.036  1.00  0.00    -0.346 N 
ATOM      8  H2  UNL     1       4.397  -3.866  14.008  1.00  0.00     0.163 HD
HETATM    9  C12 UNL     1       5.277  -2.392  12.966  1.00  0.00     0.241 C 
HETATM   10  O2  UNL     1       4.773  -2.544  11.779  1.00  0.00    -0.271 OA
HETATM   11  C13 UNL     1       6.599  -1.744  12.903  1.00  0.00     0.182 C 
HETATM   12  N5  UNL     1       7.091  -1.282  14.167  1.00  0.00    -0.359 N 
ATOM     13  H5  UNL     1       6.494  -0.579  14.602  1.00  0.00     0.162 HD
HETATM   14  C19 UNL     1       8.209  -1.596  14.917  1.00  0.00     0.135 C 
HETATM   15  C20 UNL     1       8.870  -2.789  15.356  1.00  0.00     0.154 C 
HETATM   16  C21 UNL     1      10.390  -2.519  15.178  1.00  0.00     0.041 C 
HETATM   17  N6  UNL     1       8.562  -4.071  14.839  1.00  0.00    -0.358 N 
ATOM     18  H6  UNL     1       8.169  -4.098  13.898  1.00  0.00     0.162 HD
HETATM   19  C22 UNL     1       8.742  -5.335  15.489  1.00  0.00     0.159 C 
HETATM   20  C23 UNL     1       8.099  -5.830  16.702  1.00  0.00     0.062 C 
HETATM   21  N10 UNL     1       6.872  -5.947  16.938  1.00  0.00    -0.325 N 
ATOM     22  H10 UNL     1       6.752  -6.322  17.879  1.00  0.00     0.169 HD
HETATM   23  C29 UNL     1       5.642  -5.751  16.380  1.00  0.00     0.244 C 
HETATM   24  O5  UNL     1       5.076  -6.381  15.416  1.00  0.00    -0.271 OA
ENDROOT
BRANCH  20  25
HETATM   25  C24 UNL     1       9.045  -6.293  17.800  1.00  0.00     0.062 C 
BRANCH  25  26
HETATM   26  C25 UNL     1       8.632  -7.647  18.353  1.00  0.00     0.011 C 
BRANCH  26  27
HETATM   27  C26 UNL     1       9.176  -8.730  17.415  1.00  0.00     0.045 C 
BRANCH  27  28
HETATM   28  C27 UNL     1       8.227  -9.884  17.416  1.00  0.00     0.063 C 
BRANCH  28  29
HETATM   29  N7  UNL     1       6.941  -9.685  16.889  1.00  0.00    -0.347 N 
HETATM   30  C28 UNL     1       5.797  -9.796  17.378  1.00  0.00     0.200 C 
HETATM   31  N8  UNL     1       5.601 -10.196  18.725  1.00  0.00    -0.067 NA
HETATM   32  N9  UNL     1       4.612  -9.528  16.614  1.00  0.00    -0.067 NA
ATOM     33  H7  UNL     1       6.941  -9.392  15.912  1.00  0.00     0.167 HD
ENDBRANCH  28  29
ENDBRANCH  27  28
ENDBRANCH  26  27
ENDBRANCH  25  26
ENDBRANCH  20  25
BRANCH  19  34
HETATM   34  O4  UNL     1       9.575  -6.199  14.973  1.00  0.00    -0.345 OA
ATOM     35  H4  UNL     1      10.267  -6.552  15.520  1.00  0.00     0.219 HD
ENDBRANCH  19  34
BRANCH   1  36
HETATM   36  C4  UNL     1       4.407  -4.941  18.369  1.00  0.00     0.038 C 
BRANCH  36  37
HETATM   37  C2  UNL     1       2.976  -5.406  18.501  1.00  0.00    -0.020 C 
HETATM   38  C1  UNL     1       2.182  -4.718  17.412  1.00  0.00     0.009 C 
HETATM   39  C3  UNL     1       2.835  -6.896  18.326  1.00  0.00     0.009 C 
ENDBRANCH  36  37
ENDBRANCH   1  36
BRANCH  14  40
HETATM   40  O3  UNL     1       8.831  -0.508  15.341  1.00  0.00    -0.348 OA
ATOM     41  H3  UNL     1       9.473  -0.206  14.710  1.00  0.00     0.219 HD
ENDBRANCH  14  40
BRANCH  11  42
HETATM   42  C14 UNL     1       6.761  -0.716  11.808  1.00  0.00     0.111 C 
BRANCH  42  43
HETATM   43  C15 UNL     1       7.246   0.601  12.123  1.00  0.00     0.085 A 
HETATM   44  N3  UNL     1       8.320   0.951  12.819  1.00  0.00    -0.354 N 
HETATM   45  C16 UNL     1       8.445   2.290  12.928  1.00  0.00     0.106 A 
ATOM     46  H3  UNL     1       8.977   0.283  13.225  1.00  0.00     0.166 HD
HETATM   47  C17 UNL     1       7.386   2.822  12.263  1.00  0.00     0.108 A 
HETATM   48  N4  UNL     1       6.658   1.776  11.773  1.00  0.00    -0.350 N 
HETATM   49  C18 UNL     1       5.428   1.961  11.017  1.00  0.00     0.156 C 
ENDBRANCH  42  43
ENDBRANCH  11  42
BRANCH   6  50
HETATM   50  C8  UNL     1       3.238  -0.940  14.996  1.00  0.00     0.038 C 
BRANCH  50  51
HETATM   51  C9  UNL     1       2.403  -0.743  13.782  1.00  0.00    -0.020 C 
HETATM   52  C10 UNL     1       0.956  -0.461  14.161  1.00  0.00     0.009 C 
HETATM   53  C11 UNL     1       2.901   0.542  13.113  1.00  0.00     0.009 C 
ENDBRANCH  50  51
ENDBRANCH   6  50
TORSDOF 13
ENDMDL
MODEL 2
REMARK VINA RESULT: -7.873375302      3.809     10.504
REMARK  13 active torsions:
REMARK  status: ('A' for Active; 'I' for Inactive)
REMARK    1  A    between atoms: C2_2  and  C4_4 
REMARK    2  A    between atoms: C4_4  and  C5_5 
REMARK    3  A    between atoms: C7_10  and  C8_11 
REMARK    4  A    between atoms: C8_11  and  C9_12 
REMARK    5  A    between atoms: C13_19  and  C14_20 
REMARK    6  A    between atoms: C14_20  and  C15_21 
REMARK    7  A    between atoms: C19_30  and  O3_31 
REMARK    8  A    between atoms: C22_37  and  O4_38 
REMARK    9  A    between atoms: C23_40  and  C24_41 
REMARK   10  A    between atoms: C24_41  and  C25_42 
REMARK   11  A    between atoms: C25_42  and  C26_43 
REMARK   12  A    between atoms: C26_43  and  C27_44 
REMARK   13  A    between atoms: C27_44  and  N7_45 
ROOT
HETATM    1  C5  UNL     1       4.168 -10.176  16.007  1.00  0.00     0.177 C 
HETATM    2  N1  UNL     1       5.608 -10.245  16.062  1.00  0.00    -0.346 N 
ATOM      3  H1  UNL     1       6.152  -9.407  15.855  1.00  0.00     0.163 HD
HETATM    4  C6  UNL     1       6.290 -11.447  16.396  1.00  0.00     0.241 C 
HETATM    5  O1  UNL     1       7.351 -11.720  15.731  1.00  0.00    -0.271 OA
HETATM    6  C7  UNL     1       5.799 -12.371  17.485  1.00  0.00     0.177 C 
HETATM    7  N2  UNL     1       5.572 -11.716  18.716  1.00  0.00    -0.346 N 
ATOM      8  H2  UNL     1       4.623 -11.348  18.781  1.00  0.00     0.163 HD
HETATM    9  C12 UNL     1       6.310 -11.444  19.864  1.00  0.00     0.241 C 
HETATM   10  O2  UNL     1       5.908 -12.000  20.966  1.00  0.00    -0.271 OA
HETATM   11  C13 UNL     1       7.503 -10.609  20.095  1.00  0.00     0.182 C 
HETATM   12  N5  UNL     1       8.175 -10.197  18.898  1.00  0.00    -0.359 N 
ATOM     13  H5  UNL     1       8.524 -10.976  18.340  1.00  0.00     0.162 HD
HETATM   14  C19 UNL     1       8.444  -8.958  18.346  1.00  0.00     0.135 C 
HETATM   15  C20 UNL     1       7.716  -7.754  18.079  1.00  0.00     0.154 C 
HETATM   16  C21 UNL     1       8.667  -6.590  18.472  1.00  0.00     0.041 C 
HETATM   17  N6  UNL     1       6.428  -7.502  18.610  1.00  0.00    -0.358 N 
ATOM     18  H6  UNL     1       6.195  -7.982  19.479  1.00  0.00     0.162 HD
HETATM   19  C22 UNL     1       5.415  -6.649  18.063  1.00  0.00     0.159 C 
HETATM   20  C23 UNL     1       4.707  -6.781  16.795  1.00  0.00     0.062 C 
HETATM   21  N10 UNL     1       4.031  -7.753  16.380  1.00  0.00    -0.325 N 
ATOM     22  H10 UNL     1       3.667  -7.531  15.453  1.00  0.00     0.169 HD
HETATM   23  C29 UNL     1       3.609  -9.003  16.732  1.00  0.00     0.244 C 
HETATM   24  O5  UNL     1       2.762  -9.354  17.630  1.00  0.00    -0.271 OA
ENDROOT
BRANCH  20  25
HETATM   25  C24 UNL     1       4.773  -5.566  15.881  1.00  0.00     0.062 C 
BRANCH  25  26
HETATM   26  C25 UNL     1       3.466  -5.363  15.131  1.00  0.00     0.011 C 
BRANCH  26  27
HETATM   27  C26 UNL     1       2.880  -4.012  15.554  1.00  0.00     0.045 C 
BRANCH  27  28
HETATM   28  C27 UNL     1       3.868  -2.939  15.226  1.00  0.00     0.063 C 
BRANCH  28  29
HETATM   29  N7  UNL     1       4.226  -2.756  13.882  1.00  0.00    -0.347 N 
HETATM   30  C28 UNL     1       5.326  -2.766  13.289  1.00  0.00     0.200 C 
HETATM   31  N8  UNL     1       6.543  -2.994  13.981  1.00  0.00    -0.067 NA
HETATM   32  N9  UNL     1       5.429  -2.548  11.873  1.00  0.00    -0.067 NA
ATOM     33  H7  UNL     1       3.432  -2.580  13.267  1.00  0.00     0.167 HD
ENDBRANCH  28  29
ENDBRANCH  27  28
ENDBRANCH  26  27
ENDBRANCH  25  26
ENDBRANCH  20  25
BRANCH  19  34
HETATM   34  O4  UNL     1       5.034  -5.603  18.746  1.00  0.00    -0.345 OA
ATOM     35  H4  UNL     1       5.394  -4.753  18.523  1.00  0.00     0.219 HD
ENDBRANCH  19  34
BRANCH   1  36
HETATM   36  C4  UNL     1       3.791 -10.137  14.536  1.00  0.00     0.038 C 
BRANCH  36  37
HETATM   37  C2  UNL     1       3.420 -11.507  14.019  1.00  0.00    -0.020 C 
HETATM   38  C1  UNL     1       2.413 -12.089  14.986  1.00  0.00     0.009 C 
HETATM   39  C3  UNL     1       2.793 -11.456  12.650  1.00  0.00     0.009 C 
ENDBRANCH  36  37
ENDBRANCH   1  36
BRANCH  14  40
HETATM   40  O3  UNL     1       9.708  -8.861  17.965  1.00  0.00    -0.348 OA
ATOM     41  H3  UNL     1      10.299  -8.885  18.708  1.00  0.00     0.219 HD
ENDBRANCH  14  40
BRANCH  11  42
HETATM   42  C14 UNL     1       8.458 -11.128  21.145  1.00  0.00     0.111 C 
BRANCH  42  43
HETATM   43  C15 UNL     1       8.417 -10.597  22.481  1.00  0.00     0.085 A 
HETATM   44  N3  UNL     1       7.362 -10.331  23.241  1.00  0.00    -0.354 N 
HETATM   45  C16 UNL     1       7.712  -9.817  24.439  1.00  0.00     0.106 A 
ATOM     46  H3  UNL     1       6.397 -10.496  22.953  1.00  0.00     0.166 HD
HETATM   47  C17 UNL     1       9.069  -9.752  24.439  1.00  0.00     0.108 A 
HETATM   48  N4  UNL     1       9.490 -10.234  23.232  1.00  0.00    -0.350 N 
HETATM   49  C18 UNL     1      10.895 -10.298  22.859  1.00  0.00     0.156 C 
ENDBRANCH  42  43
ENDBRANCH  11  42
BRANCH   6  50
HETATM   50  C8  UNL     1       6.680 -13.570  17.471  1.00  0.00     0.038 C 
BRANCH  50  51
HETATM   51  C9  UNL     1       6.022 -14.866  17.160  1.00  0.00    -0.020 C 
HETATM   52  C10 UNL     1       4.762 -14.649  16.335  1.00  0.00     0.009 C 
HETATM   53  C11 UNL     1       6.978 -15.632  16.241  1.00  0.00     0.009 C 
ENDBRANCH  50  51
ENDBRANCH   6  50
TORSDOF 13
ENDMDL
MODEL 3
REMARK VINA RESULT: -7.705535492      3.743     10.369
REMARK  13 active torsions:
REMARK  status: ('A' for Active; 'I' for Inactive)
REMARK    1  A    between atoms: C2_2  and  C4_4 
REMARK    2  A    between atoms: C4_4  and  C5_5 
REMARK    3  A    between atoms: C7_10  and  C8_11 
REMARK    4  A    between atoms: C8_11  and  C9_12 
REMARK    5  A    between atoms: C13_19  and  C14_20 
REMARK    6  A    between atoms: C14_20  and  C15_21 
REMARK    7  A    between atoms: C19_30  and  O3_31 
REMARK    8  A    between atoms: C22_37  and  O4_38 
REMARK    9  A    between atoms: C23_40  and  C24_41 
REMARK   10  A    between atoms: C24_41  and  C25_42 
REMARK   11  A    between atoms: C25_42  and  C26_43 
REMARK   12  A    between atoms: C26_43  and  C27_44 
REMARK   13  A    between atoms: C27_44  and  N7_45 
ROOT
HETATM    1  C5  UNL     1       4.230  -9.595  16.405  1.00  0.00     0.177 C 
HETATM    2  N1  UNL     1       5.638  -9.893  16.309  1.00  0.00    -0.346 N 
ATOM      3  H1  UNL     1       6.283  -9.153  16.031  1.00  0.00     0.163 HD
HETATM    4  C6  UNL     1       6.153 -11.188  16.591  1.00  0.00     0.241 C 
HETATM    5  O1  UNL     1       7.080 -11.627  15.822  1.00  0.00    -0.271 OA
HETATM    6  C7  UNL     1       5.641 -12.021  17.741  1.00  0.00     0.177 C 
HETATM    7  N2  UNL     1       5.653 -11.337  18.978  1.00  0.00    -0.346 N 
ATOM      8  H2  UNL     1       4.786 -10.823  19.135  1.00  0.00     0.163 HD
HETATM    9  C12 UNL     1       6.543 -11.185  20.037  1.00  0.00     0.241 C 
HETATM   10  O2  UNL     1       6.177 -11.669  21.185  1.00  0.00    -0.271 OA
HETATM   11  C13 UNL     1       7.871 -10.551  20.126  1.00  0.00     0.182 C 
HETATM   12  N5  UNL     1       8.468 -10.252  18.858  1.00  0.00    -0.359 N 
ATOM     13  H5  UNL     1       8.628 -11.077  18.280  1.00  0.00     0.162 HD
HETATM   14  C19 UNL     1       8.870  -9.073  18.259  1.00  0.00     0.135 C 
HETATM   15  C20 UNL     1       8.316  -7.768  18.048  1.00  0.00     0.154 C 
HETATM   16  C21 UNL     1       9.476  -6.770  18.318  1.00  0.00     0.041 C 
HETATM   17  N6  UNL     1       7.149  -7.314  18.707  1.00  0.00    -0.358 N 
ATOM     18  H6  UNL     1       6.937  -7.749  19.604  1.00  0.00     0.162 HD
HETATM   19  C22 UNL     1       6.231  -6.311  18.255  1.00  0.00     0.159 C 
HETATM   20  C23 UNL     1       5.380  -6.329  17.070  1.00  0.00     0.062 C 
HETATM   21  N10 UNL     1       4.518  -7.181  16.747  1.00  0.00    -0.325 N 
ATOM     22  H10 UNL     1       4.098  -6.905  15.859  1.00  0.00     0.169 HD
HETATM   23  C29 UNL     1       3.944  -8.348  17.163  1.00  0.00     0.244 C 
HETATM   24  O5  UNL     1       3.153  -8.558  18.151  1.00  0.00    -0.271 OA
ENDROOT
BRANCH  20  25
HETATM   25  C24 UNL     1       5.540  -5.140  16.133  1.00  0.00     0.062 C 
BRANCH  25  26
HETATM   26  C25 UNL     1       6.996  -4.920  15.759  1.00  0.00     0.011 C 
BRANCH  26  27
HETATM   27  C26 UNL     1       7.355  -3.466  16.083  1.00  0.00     0.045 C 
BRANCH  27  28
HETATM   28  C27 UNL     1       6.124  -2.763  16.555  1.00  0.00     0.063 C 
BRANCH  28  29
HETATM   29  N7  UNL     1       5.900  -1.449  16.116  1.00  0.00    -0.347 N 
HETATM   30  C28 UNL     1       5.047  -0.942  15.358  1.00  0.00     0.200 C 
HETATM   31  N8  UNL     1       4.038  -1.727  14.743  1.00  0.00    -0.067 NA
HETATM   32  N9  UNL     1       5.030   0.463  15.061  1.00  0.00    -0.067 NA
ATOM     33  H7  UNL     1       6.567  -0.774  16.490  1.00  0.00     0.167 HD
ENDBRANCH  28  29
ENDBRANCH  27  28
ENDBRANCH  26  27
ENDBRANCH  25  26
ENDBRANCH  20  25
BRANCH  19  34
HETATM   34  O4  UNL     1       6.096  -5.216  18.955  1.00  0.00    -0.345 OA
ATOM     35  H4  UNL     1       5.252  -4.779  18.966  1.00  0.00     0.219 HD
ENDBRANCH  19  34
BRANCH   1  36
HETATM   36  C4  UNL     1       3.709  -9.498  14.981  1.00  0.00     0.038 C 
BRANCH  36  37
HETATM   37  C2  UNL     1       3.864 -10.805  14.240  1.00  0.00    -0.020 C 
HETATM   38  C1  UNL     1       2.832 -11.759  14.799  1.00  0.00     0.009 C 
HETATM   39  C3  UNL     1       3.628 -10.660  12.759  1.00  0.00     0.009 C 
ENDBRANCH  36  37
ENDBRANCH   1  36
BRANCH  14  40
HETATM   40  O3  UNL     1      10.085  -9.179  17.745  1.00  0.00    -0.348 OA
ATOM     41  H3  UNL     1      10.670  -8.517  18.094  1.00  0.00     0.219 HD
ENDBRANCH  14  40
BRANCH  11  42
HETATM   42  C14 UNL     1       8.838 -11.214  21.079  1.00  0.00     0.111 C 
BRANCH  42  43
HETATM   43  C15 UNL     1       9.031 -10.678  22.399  1.00  0.00     0.085 A 
HETATM   44  N3  UNL     1       8.131 -10.174  23.235  1.00  0.00    -0.354 N 
HETATM   45  C16 UNL     1       8.688  -9.743  24.386  1.00  0.00     0.106 A 
ATOM     46  H3  UNL     1       7.133 -10.118  23.030  1.00  0.00     0.166 HD
HETATM   47  C17 UNL     1      10.020  -9.987  24.274  1.00  0.00     0.108 A 
HETATM   48  N4  UNL     1      10.217 -10.561  23.051  1.00  0.00    -0.350 N 
HETATM   49  C18 UNL     1      11.536 -10.944  22.568  1.00  0.00     0.156 C 
ENDBRANCH  42  43
ENDBRANCH  11  42
BRANCH   6  50
HETATM   50  C8  UNL     1       6.314 -13.345  17.657  1.00  0.00     0.038 C 
BRANCH  50  51
HETATM   51  C9  UNL     1       5.423 -14.534  17.607  1.00  0.00    -0.020 C 
HETATM   52  C10 UNL     1       3.970 -14.114  17.441  1.00  0.00     0.009 C 
HETATM   53  C11 UNL     1       5.774 -15.289  16.322  1.00  0.00     0.009 C 
ENDBRANCH  50  51
ENDBRANCH   6  50
TORSDOF 13
ENDMDL
MODEL 4
REMARK VINA RESULT: -7.602479432      3.346      9.961
REMARK  13 active torsions:
REMARK  status: ('A' for Active; 'I' for Inactive)
REMARK    1  A    between atoms: C2_2  and  C4_4 
REMARK    2  A    between atoms: C4_4  and  C5_5 
REMARK    3  A    between atoms: C7_10  and  C8_11 
REMARK    4  A    between atoms: C8_11  and  C9_12 
REMARK    5  A    between atoms: C13_19  and  C14_20 
REMARK    6  A    between atoms: C14_20  and  C15_21 
REMARK    7  A    between atoms: C19_30  and  O3_31 
REMARK    8  A    between atoms: C22_37  and  O4_38 
REMARK    9  A    between atoms: C23_40  and  C24_41 
REMARK   10  A    between atoms: C24_41  and  C25_42 
REMARK   11  A    between atoms: C25_42  and  C26_43 
REMARK   12  A    between atoms: C26_43  and  C27_44 
REMARK   13  A    between atoms: C27_44  and  N7_45 
ROOT
HETATM    1  C5  UNL     1       3.448  -7.205  16.294  1.00  0.00     0.177 C 
HETATM    2  N1  UNL     1       4.195  -8.335  15.800  1.00  0.00    -0.346 N 
ATOM      3  H1  UNL     1       5.165  -8.201  15.513  1.00  0.00     0.163 HD
HETATM    4  C6  UNL     1       3.620  -9.632  15.703  1.00  0.00     0.241 C 
HETATM    5  O1  UNL     1       3.909 -10.322  14.662  1.00  0.00    -0.271 OA
HETATM    6  C7  UNL     1       2.707 -10.186  16.771  1.00  0.00     0.177 C 
HETATM    7  N2  UNL     1       3.259 -10.119  18.070  1.00  0.00    -0.346 N 
ATOM      8  H2  UNL     1       3.043  -9.234  18.528  1.00  0.00     0.163 HD
HETATM    9  C12 UNL     1       4.021 -10.950  18.886  1.00  0.00     0.241 C 
HETATM   10  O2  UNL     1       3.462 -11.372  19.979  1.00  0.00    -0.271 OA
HETATM   11  C13 UNL     1       5.397 -11.465  18.759  1.00  0.00     0.182 C 
HETATM   12  N5  UNL     1       5.976 -11.286  17.460  1.00  0.00    -0.359 N 
ATOM     13  H5  UNL     1       5.465 -11.766  16.719  1.00  0.00     0.162 HD
HETATM   14  C19 UNL     1       7.085 -10.596  17.008  1.00  0.00     0.135 C 
HETATM   15  C20 UNL     1       7.643  -9.289  17.183  1.00  0.00     0.154 C 
HETATM   16  C21 UNL     1       9.175  -9.503  17.338  1.00  0.00     0.041 C 
HETATM   17  N6  UNL     1       7.196  -8.391  18.183  1.00  0.00    -0.358 N 
ATOM     18  H6  UNL     1       6.769  -8.809  19.009  1.00  0.00     0.162 HD
HETATM   19  C22 UNL     1       7.277  -6.961  18.164  1.00  0.00     0.159 C 
HETATM   20  C23 UNL     1       6.634  -6.029  17.243  1.00  0.00     0.062 C 
HETATM   21  N10 UNL     1       5.411  -5.906  16.992  1.00  0.00    -0.325 N 
ATOM     22  H10 UNL     1       5.289  -5.164  16.302  1.00  0.00     0.169 HD
HETATM   23  C29 UNL     1       4.186  -6.414  17.315  1.00  0.00     0.244 C 
HETATM   24  O5  UNL     1       3.527  -6.315  18.412  1.00  0.00    -0.271 OA
ENDROOT
BRANCH  20  25
HETATM   25  C24 UNL     1       7.570  -5.064  16.531  1.00  0.00     0.062 C 
BRANCH  25  26
HETATM   26  C25 UNL     1       6.887  -4.400  15.347  1.00  0.00     0.011 C 
BRANCH  26  27
HETATM   27  C26 UNL     1       6.761  -2.902  15.650  1.00  0.00     0.045 C 
BRANCH  27  28
HETATM   28  C27 UNL     1       7.033  -2.137  14.395  1.00  0.00     0.063 C 
BRANCH  28  29
HETATM   29  N7  UNL     1       5.975  -1.425  13.810  1.00  0.00    -0.347 N 
HETATM   30  C28 UNL     1       5.273  -1.630  12.797  1.00  0.00     0.200 C 
HETATM   31  N8  UNL     1       5.468  -2.769  11.974  1.00  0.00    -0.067 NA
HETATM   32  N9  UNL     1       4.226  -0.730  12.402  1.00  0.00    -0.067 NA
ATOM     33  H7  UNL     1       5.731  -0.571  14.311  1.00  0.00     0.167 HD
ENDBRANCH  28  29
ENDBRANCH  27  28
ENDBRANCH  26  27
ENDBRANCH  25  26
ENDBRANCH  20  25
BRANCH  19  34
HETATM   34  O4  UNL     1       8.005  -6.357  19.065  1.00  0.00    -0.345 OA
ATOM     35  H4  UNL     1       8.525  -5.605  18.806  1.00  0.00     0.219 HD
ENDBRANCH  19  34
BRANCH   1  36
HETATM   36  C4  UNL     1       3.106  -6.349  15.086  1.00  0.00     0.038 C 
BRANCH  36  37
HETATM   37  C2  UNL     1       2.534  -5.012  15.494  1.00  0.00    -0.020 C 
HETATM   38  C1  UNL     1       3.286  -3.951  14.722  1.00  0.00     0.009 C 
HETATM   39  C3  UNL     1       1.068  -4.890  15.169  1.00  0.00     0.009 C 
ENDBRANCH  36  37
ENDBRANCH   1  36
BRANCH  14  40
HETATM   40  O3  UNL     1       7.823 -11.340  16.200  1.00  0.00    -0.348 OA
ATOM     41  H3  UNL     1       8.326 -11.985  16.682  1.00  0.00     0.219 HD
ENDBRANCH  14  40
BRANCH  11  42
HETATM   42  C14 UNL     1       5.616 -12.856  19.305  1.00  0.00     0.111 C 
BRANCH  42  43
HETATM   43  C15 UNL     1       6.662 -13.685  18.766  1.00  0.00     0.085 A 
HETATM   44  N3  UNL     1       6.563 -14.729  17.953  1.00  0.00    -0.354 N 
HETATM   45  C16 UNL     1       7.766 -15.276  17.676  1.00  0.00     0.106 A 
ATOM     46  H3  UNL     1       5.680 -15.078  17.580  1.00  0.00     0.166 HD
HETATM   47  C17 UNL     1       8.681 -14.536  18.355  1.00  0.00     0.108 A 
HETATM   48  N4  UNL     1       7.991 -13.562  19.019  1.00  0.00    -0.350 N 
HETATM   49  C18 UNL     1       8.644 -12.584  19.877  1.00  0.00     0.156 C 
ENDBRANCH  42  43
ENDBRANCH  11  42
BRANCH   6  50
HETATM   50  C8  UNL     1       2.206 -11.498  16.281  1.00  0.00     0.038 C 
BRANCH  50  51
HETATM   51  C9  UNL     1       0.906 -11.955  16.838  1.00  0.00    -0.020 C 
HETATM   52  C10 UNL     1      -0.009 -12.463  15.731  1.00  0.00     0.009 C 
HETATM   53  C11 UNL     1       1.208 -13.181  17.704  1.00  0.00     0.009 C 
ENDBRANCH  50  51
ENDBRANCH   6  50
TORSDOF 13
ENDMDL
MODEL 5
REMARK VINA RESULT: -7.588165779      3.719     10.386
REMARK  13 active torsions:
REMARK  status: ('A' for Active; 'I' for Inactive)
REMARK    1  A    between atoms: C2_2  and  C4_4 
REMARK    2  A    between atoms: C4_4  and  C5_5 
REMARK    3  A    between atoms: C7_10  and  C8_11 
REMARK    4  A    between atoms: C8_11  and  C9_12 
REMARK    5  A    between atoms: C13_19  and  C14_20 
REMARK    6  A    between atoms: C14_20  and  C15_21 
REMARK    7  A    between atoms: C19_30  and  O3_31 
REMARK    8  A    between atoms: C22_37  and  O4_38 
REMARK    9  A    between atoms: C23_40  and  C24_41 
REMARK   10  A    between atoms: C24_41  and  C25_42 
REMARK   11  A    between atoms: C25_42  and  C26_43 
REMARK   12  A    between atoms: C26_43  and  C27_44 
REMARK   13  A    between atoms: C27_44  and  N7_45 
ROOT
HETATM    1  C5  UNL     1       4.197  -9.750  16.289  1.00  0.00     0.177 C 
HETATM    2  N1  UNL     1       5.614 -10.009  16.221  1.00  0.00    -0.346 N 
ATOM      3  H1  UNL     1       6.245  -9.247  15.972  1.00  0.00     0.163 HD
HETATM    4  C6  UNL     1       6.157 -11.295  16.491  1.00  0.00     0.241 C 
HETATM    5  O1  UNL     1       7.112 -11.695  15.736  1.00  0.00    -0.271 OA
HETATM    6  C7  UNL     1       5.641 -12.163  17.614  1.00  0.00     0.177 C 
HETATM    7  N2  UNL     1       5.606 -11.503  18.862  1.00  0.00    -0.346 N 
ATOM      8  H2  UNL     1       4.723 -11.014  19.009  1.00  0.00     0.163 HD
HETATM    9  C12 UNL     1       6.467 -11.348  19.944  1.00  0.00     0.241 C 
HETATM   10  O2  UNL     1       6.089 -11.863  21.074  1.00  0.00    -0.271 OA
HETATM   11  C13 UNL     1       7.776 -10.682  20.076  1.00  0.00     0.182 C 
HETATM   12  N5  UNL     1       8.393 -10.343  18.828  1.00  0.00    -0.359 N 
ATOM     13  H5  UNL     1       8.588 -11.152  18.239  1.00  0.00     0.162 HD
HETATM   14  C19 UNL     1       8.778  -9.142  18.260  1.00  0.00     0.135 C 
HETATM   15  C20 UNL     1       8.195  -7.849  18.061  1.00  0.00     0.154 C 
HETATM   16  C21 UNL     1       9.322  -6.826  18.376  1.00  0.00     0.041 C 
HETATM   17  N6  UNL     1       7.001  -7.437  18.701  1.00  0.00    -0.358 N 
ATOM     18  H6  UNL     1       6.780  -7.895  19.585  1.00  0.00     0.162 HD
HETATM   19  C22 UNL     1       6.068  -6.450  18.246  1.00  0.00     0.159 C 
HETATM   20  C23 UNL     1       5.245  -6.468  17.042  1.00  0.00     0.062 C 
HETATM   21  N10 UNL     1       4.414  -7.336  16.682  1.00  0.00    -0.325 N 
ATOM     22  H10 UNL     1       4.006  -7.053  15.791  1.00  0.00     0.169 HD
HETATM   23  C29 UNL     1       3.861  -8.524  17.063  1.00  0.00     0.244 C 
HETATM   24  O5  UNL     1       3.054  -8.774  18.029  1.00  0.00    -0.271 OA
ENDROOT
BRANCH  20  25
HETATM   25  C24 UNL     1       5.395  -5.258  16.131  1.00  0.00     0.062 C 
BRANCH  25  26
HETATM   26  C25 UNL     1       4.092  -4.934  15.419  1.00  0.00     0.011 C 
BRANCH  26  27
HETATM   27  C26 UNL     1       3.486  -3.689  16.078  1.00  0.00     0.045 C 
BRANCH  27  28
HETATM   28  C27 UNL     1       3.828  -2.495  15.247  1.00  0.00     0.063 C 
BRANCH  28  29
HETATM   29  N7  UNL     1       4.209  -2.703  13.913  1.00  0.00    -0.347 N 
HETATM   30  C28 UNL     1       5.257  -2.454  13.281  1.00  0.00     0.200 C 
HETATM   31  N8  UNL     1       6.373  -1.839  13.906  1.00  0.00    -0.067 NA
HETATM   32  N9  UNL     1       5.402  -2.773  11.889  1.00  0.00    -0.067 NA
ATOM     33  H7  UNL     1       3.485  -3.145  13.345  1.00  0.00     0.167 HD
ENDBRANCH  28  29
ENDBRANCH  27  28
ENDBRANCH  26  27
ENDBRANCH  25  26
ENDBRANCH  20  25
BRANCH  19  34
HETATM   34  O4  UNL     1       5.888  -5.373  18.963  1.00  0.00    -0.345 OA
ATOM     35  H4  UNL     1       5.655  -4.563  18.525  1.00  0.00     0.219 HD
ENDBRANCH  19  34
BRANCH   1  36
HETATM   36  C4  UNL     1       3.706  -9.638  14.856  1.00  0.00     0.038 C 
BRANCH  36  37
HETATM   37  C2  UNL     1       3.907 -10.929  14.096  1.00  0.00    -0.020 C 
HETATM   38  C1  UNL     1       2.921 -11.931  14.653  1.00  0.00     0.009 C 
HETATM   39  C3  UNL     1       3.649 -10.775  12.620  1.00  0.00     0.009 C 
ENDBRANCH  36  37
ENDBRANCH   1  36
BRANCH  14  40
HETATM   40  O3  UNL     1      10.006  -9.207  17.774  1.00  0.00    -0.348 OA
ATOM     41  H3  UNL     1      10.544  -8.489  18.087  1.00  0.00     0.219 HD
ENDBRANCH  14  40
BRANCH  11  42
HETATM   42  C14 UNL     1       8.738 -11.337  21.039  1.00  0.00     0.111 C 
BRANCH  42  43
HETATM   43  C15 UNL     1       9.349 -10.563  22.086  1.00  0.00     0.085 A 
HETATM   44  N3  UNL     1      10.522  -9.942  22.088  1.00  0.00    -0.354 N 
HETATM   45  C16 UNL     1      10.774  -9.330  23.265  1.00  0.00     0.106 A 
ATOM     46  H3  UNL     1      11.160  -9.928  21.292  1.00  0.00     0.166 HD
HETATM   47  C17 UNL     1       9.698  -9.580  24.057  1.00  0.00     0.108 A 
HETATM   48  N4  UNL     1       8.831 -10.337  23.321  1.00  0.00    -0.350 N 
HETATM   49  C18 UNL     1       7.565 -10.819  23.853  1.00  0.00     0.156 C 
ENDBRANCH  42  43
ENDBRANCH  11  42
BRANCH   6  50
HETATM   50  C8  UNL     1       6.350 -13.467  17.520  1.00  0.00     0.038 C 
BRANCH  50  51
HETATM   51  C9  UNL     1       5.682 -14.524  16.716  1.00  0.00    -0.020 C 
HETATM   52  C10 UNL     1       6.203 -15.903  17.094  1.00  0.00     0.009 C 
HETATM   53  C11 UNL     1       4.208 -14.522  17.131  1.00  0.00     0.009 C 
ENDBRANCH  50  51
ENDBRANCH   6  50
TORSDOF 13
ENDMDL
