MODEL 1
REMARK VINA RESULT: -5.259973516      0.000      0.000
REMARK  15 active torsions:
REMARK  status: ('A' for Active; 'I' for Inactive)
REMARK    1  A    between atoms: C2_2  and  C3_3 
REMARK    2  A    between atoms: C3_3  and  C4_4 
REMARK    3  A    between atoms: C4_4  and  C5_5 
REMARK    4  A    between atoms: C7_10  and  C8_11 
REMARK    5  A    between atoms: C14_23  and  C15_24 
REMARK    6  A    between atoms: C15_24  and  C17_26 
REMARK    7  A    between atoms: C19_30  and  O4_31 
REMARK    8  A    between atoms: C20_33  and  C21_34 
REMARK    9  A    between atoms: C27_41  and  O5_42 
REMARK   10  A    between atoms: C28_44  and  C29_45 
REMARK   11  A    between atoms: C29_45  and  C30_46 
REMARK   12  A    between atoms: C30_46  and  C31_47 
REMARK   13  A    between atoms: C31_47  and  C32_48 
REMARK   14  A    between atoms: C32_48  and  N6_49 
REMARK   15  A    between atoms: C34_54  and  O6_55 
ROOT
HETATM    1  C5  UNL     1       8.244  -8.702  17.711  1.00  0.00     0.063 C 
HETATM    2  N1  UNL     1       6.889  -8.526  17.323  1.00  0.00    -0.325 N 
ATOM      3  H1  UNL     1       6.768  -7.752  16.669  1.00  0.00     0.169 HD
HETATM    4  C6  UNL     1       5.686  -9.161  17.625  1.00  0.00     0.245 C 
HETATM    5  O1  UNL     1       4.793  -8.525  18.317  1.00  0.00    -0.271 OA
HETATM    6  C7  UNL     1       5.192 -10.518  17.285  1.00  0.00     0.180 C 
HETATM    7  N2  UNL     1       4.572 -11.152  18.448  1.00  0.00    -0.346 N 
ATOM      8  H2  UNL     1       4.046 -10.556  19.088  1.00  0.00     0.163 HD
HETATM    9  C11 UNL     1       4.647 -12.532  18.751  1.00  0.00     0.236 C 
HETATM   10  O2  UNL     1       4.876 -12.862  19.972  1.00  0.00    -0.272 OA
HETATM   11  C12 UNL     1       4.476 -13.610  17.747  1.00  0.00     0.225 C 
HETATM   12  N3  UNL     1       5.580 -13.770  16.843  1.00  0.00    -0.351 N 
ATOM     13  H3  UNL     1       5.481 -13.333  15.927  1.00  0.00     0.163 HD
HETATM   14  C13 UNL     1       6.768 -14.453  17.076  1.00  0.00     0.241 C 
HETATM   15  O3  UNL     1       7.893 -13.874  16.841  1.00  0.00    -0.271 OA
HETATM   16  C14 UNL     1       6.877 -15.835  17.585  1.00  0.00     0.179 C 
HETATM   17  N4  UNL     1       8.195 -16.206  17.996  1.00  0.00    -0.360 N 
ATOM     18  H4  UNL     1       8.452 -17.132  17.655  1.00  0.00     0.162 HD
HETATM   19  C19 UNL     1       9.201 -15.637  18.729  1.00  0.00     0.118 C 
HETATM   20  C20 UNL     1       9.307 -15.178  20.151  1.00  0.00     0.086 C 
HETATM   21  C24 UNL     1      10.477 -14.341  20.401  1.00  0.00     0.100 C 
HETATM   22  C25 UNL     1      11.356 -14.723  21.586  1.00  0.00     0.046 C 
HETATM   23  C26 UNL     1      10.415 -13.838  22.352  1.00  0.00     0.127 C 
HETATM   24  N5  UNL     1      10.440 -13.089  21.067  1.00  0.00    -0.354 N 
HETATM   25  C27 UNL     1      10.490 -11.751  20.618  1.00  0.00     0.166 C 
HETATM   26  C28 UNL     1       9.436 -10.994  19.946  1.00  0.00     0.087 C 
HETATM   27  N7  UNL     1       9.600 -10.821  18.507  1.00  0.00    -0.327 N 
HETATM   28  C33 UNL     1      10.706 -11.614  17.925  1.00  0.00     0.159 C 
HETATM   29  C34 UNL     1       8.845 -10.015  17.656  1.00  0.00     0.165 C 
ENDROOT
BRANCH  26  30
HETATM   30  C29 UNL     1       8.054 -11.130  20.391  1.00  0.00     0.034 C 
BRANCH  30  31
HETATM   31  C30 UNL     1       7.478 -11.508  21.648  1.00  0.00     0.004 C 
BRANCH  31  32
HETATM   32  C31 UNL     1       7.826 -11.386  23.029  1.00  0.00     0.017 C 
BRANCH  32  33
HETATM   33  C32 UNL     1       8.658 -10.347  23.644  1.00  0.00     0.080 C 
BRANCH  33  34
HETATM   34  N6  UNL     1      10.028 -10.225  23.528  1.00  0.00    -0.408 N 
ATOM     35  H62 UNL     1      10.405 -10.335  22.587  1.00  0.00     0.155 HD
ATOM     36  H61 UNL     1      10.683 -10.037  24.288  1.00  0.00     0.155 HD
ENDBRANCH  33  34
ENDBRANCH  32  33
ENDBRANCH  31  32
ENDBRANCH  30  31
ENDBRANCH  26  30
BRANCH  25  37
HETATM   37  O5  UNL     1      11.589 -11.054  20.799  1.00  0.00    -0.344 OA
ATOM     38  H5  UNL     1      11.886 -10.877  21.683  1.00  0.00     0.219 HD
ENDBRANCH  25  37
BRANCH  29  39
HETATM   39  O6  UNL     1       8.618 -10.589  16.503  1.00  0.00    -0.344 OA
ATOM     40  H6  UNL     1       7.687 -10.651  16.328  1.00  0.00     0.219 HD
ENDBRANCH  29  39
BRANCH   1  41
HETATM   41  C4  UNL     1       8.522  -7.841  18.913  1.00  0.00     0.062 C 
BRANCH  41  42
HETATM   42  C3  UNL     1       8.502  -6.392  18.371  1.00  0.00     0.006 C 
BRANCH  42  43
HETATM   43  C2  UNL     1       9.784  -6.258  17.540  1.00  0.00    -0.004 C 
HETATM   44  C1  UNL     1      10.359  -4.884  17.630  1.00  0.00     0.005 C 
ENDBRANCH  42  43
ENDBRANCH  41  42
ENDBRANCH   1  41
BRANCH  20  45
HETATM   45  C21 UNL     1       9.213 -16.440  20.981  1.00  0.00    -0.009 C 
HETATM   46  C22 UNL     1       7.735 -16.727  21.291  1.00  0.00     0.010 C 
HETATM   47  C23 UNL     1       9.648 -17.661  20.135  1.00  0.00     0.010 C 
ENDBRANCH  20  45
BRANCH  19  48
HETATM   48  O4  UNL     1      10.325 -15.444  18.082  1.00  0.00    -0.349 OA
ATOM     49  H4  UNL     1      10.452 -14.566  17.741  1.00  0.00     0.219 HD
ENDBRANCH  19  48
BRANCH   6  50
HETATM   50  C8  UNL     1       4.130 -10.386  16.167  1.00  0.00     0.009 C 
HETATM   51  C9  UNL     1       4.490 -11.249  14.988  1.00  0.00     0.012 C 
HETATM   52  C10 UNL     1       2.836 -10.853  16.760  1.00  0.00     0.012 C 
ENDBRANCH   6  50
BRANCH  16  53
HETATM   53  C15 UNL     1       6.352 -16.829  16.532  1.00  0.00     0.013 C 
HETATM   54  C16 UNL     1       7.247 -17.049  15.383  1.00  0.00     0.012 C 
BRANCH  53  55
HETATM   55  C17 UNL     1       5.922 -18.119  17.200  1.00  0.00     0.002 C 
HETATM   56  C18 UNL     1       5.011 -17.839  18.374  1.00  0.00     0.005 C 
ENDBRANCH  53  55
ENDBRANCH  16  53
TORSDOF 15
ENDMDL
MODEL 2
REMARK VINA RESULT: -5.163446940      0.816      1.011
REMARK  15 active torsions:
REMARK  status: ('A' for Active; 'I' for Inactive)
REMARK    1  A    between atoms: C2_2  and  C3_3 
REMARK    2  A    between atoms: C3_3  and  C4_4 
REMARK    3  A    between atoms: C4_4  and  C5_5 
REMARK    4  A    between atoms: C7_10  and  C8_11 
REMARK    5  A    between atoms: C14_23  and  C15_24 
REMARK    6  A    between atoms: C15_24  and  C17_26 
REMARK    7  A    between atoms: C19_30  and  O4_31 
REMARK    8  A    between atoms: C20_33  and  C21_34 
REMARK    9  A    between atoms: C27_41  and  O5_42 
REMARK   10  A    between atoms: C28_44  and  C29_45 
REMARK   11  A    between atoms: C29_45  and  C30_46 
REMARK   12  A    between atoms: C30_46  and  C31_47 
REMARK   13  A    between atoms: C31_47  and  C32_48 
REMARK   14  A    between atoms: C32_48  and  N6_49 
REMARK   15  A    between atoms: C34_54  and  O6_55 
ROOT
HETATM    1  C5  UNL     1       8.263  -8.709  17.618  1.00  0.00     0.063 C 
HETATM    2  N1  UNL     1       6.910  -8.517  17.233  1.00  0.00    -0.325 N 
ATOM      3  H1  UNL     1       6.803  -7.773  16.543  1.00  0.00     0.169 HD
HETATM    4  C6  UNL     1       5.694  -9.105  17.575  1.00  0.00     0.245 C 
HETATM    5  O1  UNL     1       4.824  -8.414  18.242  1.00  0.00    -0.271 OA
HETATM    6  C7  UNL     1       5.162 -10.465  17.305  1.00  0.00     0.180 C 
HETATM    7  N2  UNL     1       4.536 -11.025  18.503  1.00  0.00    -0.346 N 
ATOM      8  H2  UNL     1       4.032 -10.385  19.117  1.00  0.00     0.163 HD
HETATM    9  C11 UNL     1       4.579 -12.390  18.871  1.00  0.00     0.236 C 
HETATM   10  O2  UNL     1       4.811 -12.666  20.106  1.00  0.00    -0.272 OA
HETATM   11  C12 UNL     1       4.372 -13.510  17.923  1.00  0.00     0.225 C 
HETATM   12  N3  UNL     1       5.463 -13.743  17.019  1.00  0.00    -0.351 N 
ATOM     13  H3  UNL     1       5.368 -13.349  16.083  1.00  0.00     0.163 HD
HETATM   14  C13 UNL     1       6.635 -14.444  17.276  1.00  0.00     0.241 C 
HETATM   15  O3  UNL     1       7.773 -13.907  17.005  1.00  0.00    -0.271 OA
HETATM   16  C14 UNL     1       6.714 -15.802  17.851  1.00  0.00     0.179 C 
HETATM   17  N4  UNL     1       8.026 -16.187  18.270  1.00  0.00    -0.360 N 
ATOM     18  H4  UNL     1       8.256 -17.135  17.973  1.00  0.00     0.162 HD
HETATM   19  C19 UNL     1       9.052 -15.609  18.966  1.00  0.00     0.118 C 
HETATM   20  C20 UNL     1       9.182 -15.085  20.363  1.00  0.00     0.086 C 
HETATM   21  C24 UNL     1      10.376 -14.267  20.563  1.00  0.00     0.100 C 
HETATM   22  C25 UNL     1      11.254 -14.614  21.759  1.00  0.00     0.046 C 
HETATM   23  C26 UNL     1      10.344 -13.669  22.488  1.00  0.00     0.127 C 
HETATM   24  N5  UNL     1      10.376 -12.984  21.168  1.00  0.00    -0.354 N 
HETATM   25  C27 UNL     1      10.456 -11.671  20.654  1.00  0.00     0.166 C 
HETATM   26  C28 UNL     1       9.416 -10.920  19.954  1.00  0.00     0.087 C 
HETATM   27  N7  UNL     1       9.572 -10.822  18.507  1.00  0.00    -0.327 N 
HETATM   28  C33 UNL     1      10.652 -11.671  17.956  1.00  0.00     0.159 C 
HETATM   29  C34 UNL     1       8.830 -10.039  17.623  1.00  0.00     0.165 C 
ENDROOT
BRANCH  26  30
HETATM   30  C29 UNL     1       8.035 -10.999  20.415  1.00  0.00     0.034 C 
BRANCH  30  31
HETATM   31  C30 UNL     1       7.424 -11.680  21.519  1.00  0.00     0.004 C 
BRANCH  31  32
HETATM   32  C31 UNL     1       7.130 -11.387  22.887  1.00  0.00     0.017 C 
BRANCH  32  33
HETATM   33  C32 UNL     1       5.809 -11.143  23.475  1.00  0.00     0.080 C 
BRANCH  33  34
HETATM   34  N6  UNL     1       4.596 -11.532  22.945  1.00  0.00    -0.408 N 
ATOM     35  H62 UNL     1       4.486 -11.394  21.940  1.00  0.00     0.155 HD
ATOM     36  H61 UNL     1       3.815 -11.938  23.460  1.00  0.00     0.155 HD
ENDBRANCH  33  34
ENDBRANCH  32  33
ENDBRANCH  31  32
ENDBRANCH  30  31
ENDBRANCH  26  30
BRANCH  25  37
HETATM   37  O5  UNL     1      11.574 -10.995  20.792  1.00  0.00    -0.344 OA
ATOM     38  H5  UNL     1      11.545 -10.045  20.794  1.00  0.00     0.219 HD
ENDBRANCH  25  37
BRANCH  29  39
HETATM   39  O6  UNL     1       8.578 -10.662  16.501  1.00  0.00    -0.344 OA
ATOM     40  H6  UNL     1       9.065 -11.475  16.445  1.00  0.00     0.219 HD
ENDBRANCH  29  39
BRANCH   1  41
HETATM   41  C4  UNL     1       8.574  -7.799  18.776  1.00  0.00     0.062 C 
BRANCH  41  42
HETATM   42  C3  UNL     1       8.839  -6.418  18.128  1.00  0.00     0.006 C 
BRANCH  42  43
HETATM   43  C2  UNL     1      10.098  -6.613  17.274  1.00  0.00    -0.004 C 
HETATM   44  C1  UNL     1      10.015  -5.859  15.989  1.00  0.00     0.005 C 
ENDBRANCH  42  43
ENDBRANCH  41  42
ENDBRANCH   1  41
BRANCH  20  45
HETATM   45  C21 UNL     1       9.064 -16.303  21.254  1.00  0.00    -0.009 C 
HETATM   46  C22 UNL     1       7.583 -16.526  21.602  1.00  0.00     0.010 C 
HETATM   47  C23 UNL     1       9.446 -17.575  20.462  1.00  0.00     0.010 C 
ENDBRANCH  20  45
BRANCH  19  48
HETATM   48  O4  UNL     1      10.175 -15.477  18.302  1.00  0.00    -0.349 OA
ATOM     49  H4  UNL     1      10.966 -15.581  18.818  1.00  0.00     0.219 HD
ENDBRANCH  19  48
BRANCH   6  50
HETATM   50  C8  UNL     1       4.094 -10.359  16.190  1.00  0.00     0.009 C 
HETATM   51  C9  UNL     1       4.446 -11.252  15.031  1.00  0.00     0.012 C 
HETATM   52  C10 UNL     1       2.803 -10.809  16.802  1.00  0.00     0.012 C 
ENDBRANCH   6  50
BRANCH  16  53
HETATM   53  C15 UNL     1       6.154 -16.832  16.852  1.00  0.00     0.013 C 
HETATM   54  C16 UNL     1       7.134 -17.357  15.885  1.00  0.00     0.012 C 
BRANCH  53  55
HETATM   55  C17 UNL     1       5.411 -17.926  17.590  1.00  0.00     0.002 C 
HETATM   56  C18 UNL     1       4.635 -17.355  18.757  1.00  0.00     0.005 C 
ENDBRANCH  53  55
ENDBRANCH  16  53
TORSDOF 15
ENDMDL
MODEL 3
REMARK VINA RESULT: -4.921443183      1.137      1.548
REMARK  15 active torsions:
REMARK  status: ('A' for Active; 'I' for Inactive)
REMARK    1  A    between atoms: C2_2  and  C3_3 
REMARK    2  A    between atoms: C3_3  and  C4_4 
REMARK    3  A    between atoms: C4_4  and  C5_5 
REMARK    4  A    between atoms: C7_10  and  C8_11 
REMARK    5  A    between atoms: C14_23  and  C15_24 
REMARK    6  A    between atoms: C15_24  and  C17_26 
REMARK    7  A    between atoms: C19_30  and  O4_31 
REMARK    8  A    between atoms: C20_33  and  C21_34 
REMARK    9  A    between atoms: C27_41  and  O5_42 
REMARK   10  A    between atoms: C28_44  and  C29_45 
REMARK   11  A    between atoms: C29_45  and  C30_46 
REMARK   12  A    between atoms: C30_46  and  C31_47 
REMARK   13  A    between atoms: C31_47  and  C32_48 
REMARK   14  A    between atoms: C32_48  and  N6_49 
REMARK   15  A    between atoms: C34_54  and  O6_55 
ROOT
HETATM    1  C5  UNL     1       7.285  -9.188  17.525  1.00  0.00     0.063 C 
HETATM    2  N1  UNL     1       6.010  -9.403  16.939  1.00  0.00    -0.325 N 
ATOM      3  H1  UNL     1       5.770  -8.688  16.252  1.00  0.00     0.169 HD
HETATM    4  C6  UNL     1       5.008 -10.361  17.081  1.00  0.00     0.245 C 
HETATM    5  O1  UNL     1       3.878 -10.018  17.617  1.00  0.00    -0.271 OA
HETATM    6  C7  UNL     1       4.978 -11.798  16.711  1.00  0.00     0.180 C 
HETATM    7  N2  UNL     1       4.400 -12.600  17.790  1.00  0.00    -0.346 N 
ATOM      8  H2  UNL     1       3.637 -12.189  18.329  1.00  0.00     0.163 HD
HETATM    9  C11 UNL     1       4.821 -13.905  18.140  1.00  0.00     0.236 C 
HETATM   10  O2  UNL     1       4.952 -14.173  19.391  1.00  0.00    -0.272 OA
HETATM   11  C12 UNL     1       5.116 -14.971  17.154  1.00  0.00     0.225 C 
HETATM   12  N3  UNL     1       6.340 -14.795  16.425  1.00  0.00    -0.351 N 
ATOM     13  H3  UNL     1       6.258 -14.392  15.492  1.00  0.00     0.163 HD
HETATM   14  C13 UNL     1       7.626 -15.112  16.848  1.00  0.00     0.241 C 
HETATM   15  O3  UNL     1       8.560 -14.231  16.763  1.00  0.00    -0.271 OA
HETATM   16  C14 UNL     1       8.049 -16.412  17.407  1.00  0.00     0.179 C 
HETATM   17  N4  UNL     1       9.342 -16.394  18.017  1.00  0.00    -0.360 N 
ATOM     18  H4  UNL     1       9.901 -17.203  17.744  1.00  0.00     0.162 HD
HETATM   19  C19 UNL     1      10.023 -15.572  18.871  1.00  0.00     0.118 C 
HETATM   20  C20 UNL     1       9.783 -15.122  20.279  1.00  0.00     0.086 C 
HETATM   21  C24 UNL     1      10.614 -13.988  20.673  1.00  0.00     0.100 C 
HETATM   22  C25 UNL     1      11.380 -14.119  21.984  1.00  0.00     0.046 C 
HETATM   23  C26 UNL     1      10.123 -13.552  22.579  1.00  0.00     0.127 C 
HETATM   24  N5  UNL     1      10.122 -12.809  21.291  1.00  0.00    -0.354 N 
HETATM   25  C27 UNL     1       9.854 -11.507  20.815  1.00  0.00     0.166 C 
HETATM   26  C28 UNL     1       8.739 -11.074  19.975  1.00  0.00     0.087 C 
HETATM   27  N7  UNL     1       9.058 -10.841  18.571  1.00  0.00    -0.327 N 
HETATM   28  C33 UNL     1      10.418 -11.275  18.179  1.00  0.00     0.159 C 
HETATM   29  C34 UNL     1       8.238 -10.274  17.596  1.00  0.00     0.165 C 
ENDROOT
BRANCH  26  30
HETATM   30  C29 UNL     1       7.403 -11.608  20.217  1.00  0.00     0.034 C 
BRANCH  30  31
HETATM   31  C30 UNL     1       6.568 -11.624  21.383  1.00  0.00     0.004 C 
BRANCH  31  32
HETATM   32  C31 UNL     1       6.723 -11.935  22.769  1.00  0.00     0.017 C 
BRANCH  32  33
HETATM   33  C32 UNL     1       7.415 -11.132  23.784  1.00  0.00     0.080 C 
BRANCH  33  34
HETATM   34  N6  UNL     1       8.453 -10.252  23.559  1.00  0.00    -0.408 N 
ATOM     35  H62 UNL     1       8.496  -9.847  22.623  1.00  0.00     0.155 HD
ATOM     36  H61 UNL     1       9.167  -9.976  24.233  1.00  0.00     0.155 HD
ENDBRANCH  33  34
ENDBRANCH  32  33
ENDBRANCH  31  32
ENDBRANCH  30  31
ENDBRANCH  26  30
BRANCH  25  37
HETATM   37  O5  UNL     1      10.669 -10.526  21.134  1.00  0.00    -0.344 OA
ATOM     38  H5  UNL     1      11.603 -10.641  21.011  1.00  0.00     0.219 HD
ENDBRANCH  25  37
BRANCH  29  39
HETATM   39  O6  UNL     1       8.358 -10.872  16.439  1.00  0.00    -0.344 OA
ATOM     40  H6  UNL     1       7.581 -11.377  16.233  1.00  0.00     0.219 HD
ENDBRANCH  29  39
BRANCH   1  41
HETATM   41  C4  UNL     1       7.125  -8.302  18.730  1.00  0.00     0.062 C 
BRANCH  41  42
HETATM   42  C3  UNL     1       8.374  -7.388  18.713  1.00  0.00     0.006 C 
BRANCH  42  43
HETATM   43  C2  UNL     1       7.918  -6.099  18.019  1.00  0.00    -0.004 C 
HETATM   44  C1  UNL     1       9.073  -5.221  17.673  1.00  0.00     0.005 C 
ENDBRANCH  42  43
ENDBRANCH  41  42
ENDBRANCH   1  41
BRANCH  20  45
HETATM   45  C21 UNL     1       9.932 -16.370  21.123  1.00  0.00    -0.009 C 
HETATM   46  C22 UNL     1       8.573 -17.084  21.205  1.00  0.00     0.010 C 
HETATM   47  C23 UNL     1      10.836 -17.393  20.395  1.00  0.00     0.010 C 
ENDBRANCH  20  45
BRANCH  19  48
HETATM   48  O4  UNL     1      11.128 -15.055  18.390  1.00  0.00    -0.349 OA
ATOM     49  H4  UNL     1      11.454 -14.290  18.851  1.00  0.00     0.219 HD
ENDBRANCH  19  48
BRANCH   6  50
HETATM   50  C8  UNL     1       4.100 -11.960  15.447  1.00  0.00     0.009 C 
HETATM   51  C9  UNL     1       2.651 -12.116  15.824  1.00  0.00     0.012 C 
HETATM   52  C10 UNL     1       4.284 -10.709  14.646  1.00  0.00     0.012 C 
ENDBRANCH   6  50
BRANCH  16  53
HETATM   53  C15 UNL     1       7.991 -17.499  16.318  1.00  0.00     0.013 C 
HETATM   54  C16 UNL     1       6.694 -18.187  16.193  1.00  0.00     0.012 C 
BRANCH  53  55
HETATM   55  C17 UNL     1       8.494 -16.946  15.001  1.00  0.00     0.002 C 
HETATM   56  C18 UNL     1       7.556 -17.311  13.871  1.00  0.00     0.005 C 
ENDBRANCH  53  55
ENDBRANCH  16  53
TORSDOF 15
ENDMDL
MODEL 4
REMARK VINA RESULT: -4.719159427      1.415      1.599
REMARK  15 active torsions:
REMARK  status: ('A' for Active; 'I' for Inactive)
REMARK    1  A    between atoms: C2_2  and  C3_3 
REMARK    2  A    between atoms: C3_3  and  C4_4 
REMARK    3  A    between atoms: C4_4  and  C5_5 
REMARK    4  A    between atoms: C7_10  and  C8_11 
REMARK    5  A    between atoms: C14_23  and  C15_24 
REMARK    6  A    between atoms: C15_24  and  C17_26 
REMARK    7  A    between atoms: C19_30  and  O4_31 
REMARK    8  A    between atoms: C20_33  and  C21_34 
REMARK    9  A    between atoms: C27_41  and  O5_42 
REMARK   10  A    between atoms: C28_44  and  C29_45 
REMARK   11  A    between atoms: C29_45  and  C30_46 
REMARK   12  A    between atoms: C30_46  and  C31_47 
REMARK   13  A    between atoms: C31_47  and  C32_48 
REMARK   14  A    between atoms: C32_48  and  N6_49 
REMARK   15  A    between atoms: C34_54  and  O6_55 
ROOT
HETATM    1  C5  UNL     1       7.851  -8.765  17.596  1.00  0.00     0.063 C 
HETATM    2  N1  UNL     1       6.549  -8.293  17.278  1.00  0.00    -0.325 N 
ATOM      3  H1  UNL     1       6.570  -7.459  16.692  1.00  0.00     0.169 HD
HETATM    4  C6  UNL     1       5.251  -8.701  17.579  1.00  0.00     0.245 C 
HETATM    5  O1  UNL     1       4.521  -7.962  18.353  1.00  0.00    -0.271 OA
HETATM    6  C7  UNL     1       4.487  -9.901  17.154  1.00  0.00     0.180 C 
HETATM    7  N2  UNL     1       3.780 -10.495  18.289  1.00  0.00    -0.346 N 
ATOM      8  H2  UNL     1       3.401  -9.863  18.994  1.00  0.00     0.163 HD
HETATM    9  C11 UNL     1       3.586 -11.883  18.480  1.00  0.00     0.236 C 
HETATM   10  O2  UNL     1       3.773 -12.354  19.662  1.00  0.00    -0.272 OA
HETATM   11  C12 UNL     1       3.178 -12.817  17.404  1.00  0.00     0.225 C 
HETATM   12  N3  UNL     1       4.205 -13.116  16.446  1.00  0.00    -0.351 N 
ATOM     13  H3  UNL     1       4.174 -12.593  15.571  1.00  0.00     0.163 HD
HETATM   14  C13 UNL     1       5.237 -14.037  16.577  1.00  0.00     0.241 C 
HETATM   15  O3  UNL     1       6.450 -13.675  16.342  1.00  0.00    -0.271 OA
HETATM   16  C14 UNL     1       5.080 -15.452  16.972  1.00  0.00     0.179 C 
HETATM   17  N4  UNL     1       6.307 -16.109  17.300  1.00  0.00    -0.360 N 
ATOM     18  H4  UNL     1       6.365 -17.036  16.878  1.00  0.00     0.162 HD
HETATM   19  C19 UNL     1       7.423 -15.814  18.033  1.00  0.00     0.118 C 
HETATM   20  C20 UNL     1       7.653 -15.506  19.481  1.00  0.00     0.086 C 
HETATM   21  C24 UNL     1       8.973 -14.941  19.748  1.00  0.00     0.100 C 
HETATM   22  C25 UNL     1       9.785 -15.588  20.864  1.00  0.00     0.046 C 
HETATM   23  C26 UNL     1       9.060 -14.601  21.733  1.00  0.00     0.127 C 
HETATM   24  N5  UNL     1       9.203 -13.767  20.510  1.00  0.00    -0.354 N 
HETATM   25  C27 UNL     1       9.509 -12.432  20.165  1.00  0.00     0.166 C 
HETATM   26  C28 UNL     1       8.613 -11.428  19.597  1.00  0.00     0.087 C 
HETATM   27  N7  UNL     1       8.773 -11.171  18.170  1.00  0.00    -0.327 N 
HETATM   28  C33 UNL     1       9.684 -12.115  17.484  1.00  0.00     0.159 C 
HETATM   29  C34 UNL     1       8.174 -10.163  17.415  1.00  0.00     0.165 C 
ENDROOT
BRANCH  26  30
HETATM   30  C29 UNL     1       7.242 -11.325  20.085  1.00  0.00     0.034 C 
BRANCH  30  31
HETATM   31  C30 UNL     1       6.657 -11.563  21.372  1.00  0.00     0.004 C 
BRANCH  31  32
HETATM   32  C31 UNL     1       7.119 -11.681  22.719  1.00  0.00     0.017 C 
BRANCH  32  33
HETATM   33  C32 UNL     1       8.421 -11.260  23.247  1.00  0.00     0.080 C 
BRANCH  33  34
HETATM   34  N6  UNL     1       9.093 -10.098  22.928  1.00  0.00    -0.408 N 
ATOM     35  H62 UNL     1       8.521  -9.344  22.549  1.00  0.00     0.155 HD
ATOM     36  H61 UNL     1      10.094  -9.932  23.034  1.00  0.00     0.155 HD
ENDBRANCH  33  34
ENDBRANCH  32  33
ENDBRANCH  31  32
ENDBRANCH  30  31
ENDBRANCH  26  30
BRANCH  25  37
HETATM   37  O5  UNL     1      10.730 -11.984  20.355  1.00  0.00    -0.344 OA
ATOM     38  H5  UNL     1      10.877 -11.047  20.405  1.00  0.00     0.219 HD
ENDBRANCH  25  37
BRANCH  29  39
HETATM   39  O6  UNL     1       7.810 -10.581  16.231  1.00  0.00    -0.344 OA
ATOM     40  H6  UNL     1       8.416 -11.230  15.896  1.00  0.00     0.219 HD
ENDBRANCH  29  39
BRANCH   1  41
HETATM   41  C4  UNL     1       8.324  -8.081  18.850  1.00  0.00     0.062 C 
BRANCH  41  42
HETATM   42  C3  UNL     1       8.771  -6.675  18.383  1.00  0.00     0.006 C 
BRANCH  42  43
HETATM   43  C2  UNL     1       9.875  -6.929  17.349  1.00  0.00    -0.004 C 
HETATM   44  C1  UNL     1       9.864  -5.900  16.268  1.00  0.00     0.005 C 
ENDBRANCH  42  43
ENDBRANCH  41  42
ENDBRANCH   1  41
BRANCH  20  45
HETATM   45  C21 UNL     1       7.329 -16.790  20.214  1.00  0.00    -0.009 C 
HETATM   46  C22 UNL     1       5.832 -16.800  20.567  1.00  0.00     0.010 C 
HETATM   47  C23 UNL     1       7.483 -17.996  19.257  1.00  0.00     0.010 C 
ENDBRANCH  20  45
BRANCH  19  48
HETATM   48  O4  UNL     1       8.547 -15.793  17.358  1.00  0.00    -0.349 OA
ATOM     49  H4  UNL     1       9.294 -15.436  17.825  1.00  0.00     0.219 HD
ENDBRANCH  19  48
BRANCH   6  50
HETATM   50  C8  UNL     1       3.446  -9.468  16.093  1.00  0.00     0.009 C 
HETATM   51  C9  UNL     1       3.463  -7.974  15.912  1.00  0.00     0.012 C 
HETATM   52  C10 UNL     1       3.846 -10.138  14.815  1.00  0.00     0.012 C 
ENDBRANCH   6  50
BRANCH  16  53
HETATM   53  C15 UNL     1       4.341 -16.230  15.867  1.00  0.00     0.013 C 
HETATM   54  C16 UNL     1       5.211 -16.827  14.839  1.00  0.00     0.012 C 
BRANCH  53  55
HETATM   55  C17 UNL     1       3.384 -17.230  16.483  1.00  0.00     0.002 C 
HETATM   56  C18 UNL     1       2.808 -16.696  17.776  1.00  0.00     0.005 C 
ENDBRANCH  53  55
ENDBRANCH  16  53
TORSDOF 15
ENDMDL
MODEL 5
REMARK VINA RESULT: -4.669909829      2.648      6.662
REMARK  15 active torsions:
REMARK  status: ('A' for Active; 'I' for Inactive)
REMARK    1  A    between atoms: C2_2  and  C3_3 
REMARK    2  A    between atoms: C3_3  and  C4_4 
REMARK    3  A    between atoms: C4_4  and  C5_5 
REMARK    4  A    between atoms: C7_10  and  C8_11 
REMARK    5  A    between atoms: C14_23  and  C15_24 
REMARK    6  A    between atoms: C15_24  and  C17_26 
REMARK    7  A    between atoms: C19_30  and  O4_31 
REMARK    8  A    between atoms: C20_33  and  C21_34 
REMARK    9  A    between atoms: C27_41  and  O5_42 
REMARK   10  A    between atoms: C28_44  and  C29_45 
REMARK   11  A    between atoms: C29_45  and  C30_46 
REMARK   12  A    between atoms: C30_46  and  C31_47 
REMARK   13  A    between atoms: C31_47  and  C32_48 
REMARK   14  A    between atoms: C32_48  and  N6_49 
REMARK   15  A    between atoms: C34_54  and  O6_55 
ROOT
HETATM    1  C5  UNL     1       7.903  -8.950  18.218  1.00  0.00     0.063 C 
HETATM    2  N1  UNL     1       8.779  -9.420  19.234  1.00  0.00    -0.325 N 
ATOM      3  H1  UNL     1       9.368  -8.679  19.613  1.00  0.00     0.169 HD
HETATM    4  C6  UNL     1       9.022 -10.654  19.833  1.00  0.00     0.245 C 
HETATM    5  O1  UNL     1      10.155 -11.247  19.620  1.00  0.00    -0.271 OA
HETATM    6  C7  UNL     1       8.178 -11.480  20.733  1.00  0.00     0.180 C 
HETATM    7  N2  UNL     1       8.211 -12.886  20.328  1.00  0.00    -0.346 N 
ATOM      8  H2  UNL     1       9.089 -13.253  19.961  1.00  0.00     0.163 HD
HETATM    9  C11 UNL     1       7.112 -13.774  20.410  1.00  0.00     0.236 C 
HETATM   10  O2  UNL     1       6.897 -14.549  19.406  1.00  0.00    -0.272 OA
HETATM   11  C12 UNL     1       6.203 -13.861  21.578  1.00  0.00     0.225 C 
HETATM   12  N3  UNL     1       5.294 -12.758  21.716  1.00  0.00    -0.351 N 
ATOM     13  H3  UNL     1       5.563 -12.030  22.378  1.00  0.00     0.163 HD
HETATM   14  C13 UNL     1       4.089 -12.570  21.049  1.00  0.00     0.241 C 
HETATM   15  O3  UNL     1       3.857 -11.453  20.454  1.00  0.00    -0.271 OA
HETATM   16  C14 UNL     1       3.000 -13.563  20.949  1.00  0.00     0.179 C 
HETATM   17  N4  UNL     1       1.995 -13.235  19.987  1.00  0.00    -0.360 N 
ATOM     18  H4  UNL     1       1.055 -13.384  20.355  1.00  0.00     0.162 HD
HETATM   19  C19 UNL     1       1.969 -12.772  18.700  1.00  0.00     0.118 C 
HETATM   20  C20 UNL     1       2.485 -13.310  17.401  1.00  0.00     0.086 C 
HETATM   21  C24 UNL     1       2.505 -12.315  16.332  1.00  0.00     0.100 C 
HETATM   22  C25 UNL     1       1.863 -12.715  15.009  1.00  0.00     0.046 C 
HETATM   23  C26 UNL     1       3.233 -13.244  14.699  1.00  0.00     0.127 C 
HETATM   24  N5  UNL     1       3.624 -12.054  15.500  1.00  0.00    -0.354 N 
HETATM   25  C27 UNL     1       4.593 -11.028  15.475  1.00  0.00     0.166 C 
HETATM   26  C28 UNL     1       5.713 -10.833  16.394  1.00  0.00     0.087 C 
HETATM   27  N7  UNL     1       5.540  -9.783  17.391  1.00  0.00    -0.327 N 
HETATM   28  C33 UNL     1       4.173  -9.215  17.440  1.00  0.00     0.159 C 
HETATM   29  C34 UNL     1       6.497  -9.280  18.271  1.00  0.00     0.165 C 
ENDROOT
BRANCH  26  30
HETATM   30  C29 UNL     1       6.480 -11.987  16.851  1.00  0.00     0.034 C 
BRANCH  30  31
HETATM   31  C30 UNL     1       7.780 -12.481  16.500  1.00  0.00     0.004 C 
BRANCH  31  32
HETATM   32  C31 UNL     1       8.442 -13.748  16.489  1.00  0.00     0.017 C 
BRANCH  32  33
HETATM   33  C32 UNL     1       9.640 -14.126  17.246  1.00  0.00     0.080 C 
BRANCH  33  34
HETATM   34  N6  UNL     1      10.665 -13.284  17.624  1.00  0.00    -0.408 N 
ATOM     35  H62 UNL     1      11.597 -13.699  17.638  1.00  0.00     0.155 HD
ATOM     36  H61 UNL     1      10.574 -12.302  17.886  1.00  0.00     0.155 HD
ENDBRANCH  33  34
ENDBRANCH  32  33
ENDBRANCH  31  32
ENDBRANCH  30  31
ENDBRANCH  26  30
BRANCH  25  37
HETATM   37  O5  UNL     1       4.533 -10.109  14.537  1.00  0.00    -0.344 OA
ATOM     38  H5  UNL     1       5.247 -10.033  13.916  1.00  0.00     0.219 HD
ENDBRANCH  25  37
BRANCH  29  39
HETATM   39  O6  UNL     1       6.000  -9.036  19.456  1.00  0.00    -0.344 OA
ATOM     40  H6  UNL     1       5.497  -9.775  19.775  1.00  0.00     0.219 HD
ENDBRANCH  29  39
BRANCH   1  41
HETATM   41  C4  UNL     1       8.606  -9.038  16.891  1.00  0.00     0.062 C 
BRANCH  41  42
HETATM   42  C3  UNL     1       9.679  -7.923  16.942  1.00  0.00     0.006 C 
BRANCH  42  43
HETATM   43  C2  UNL     1       8.965  -6.658  16.450  1.00  0.00    -0.004 C 
HETATM   44  C1  UNL     1       9.689  -6.026  15.308  1.00  0.00     0.005 C 
ENDBRANCH  42  43
ENDBRANCH  41  42
ENDBRANCH   1  41
BRANCH  20  45
HETATM   45  C21 UNL     1       1.658 -14.548  17.130  1.00  0.00    -0.009 C 
HETATM   46  C22 UNL     1       2.340 -15.759  17.788  1.00  0.00     0.010 C 
HETATM   47  C23 UNL     1       0.303 -14.450  17.871  1.00  0.00     0.010 C 
ENDBRANCH  20  45
BRANCH  19  48
HETATM   48  O4  UNL     1       1.368 -11.618  18.532  1.00  0.00    -0.349 OA
ATOM     49  H4  UNL     1       1.900 -10.937  18.137  1.00  0.00     0.219 HD
ENDBRANCH  19  48
BRANCH   6  50
HETATM   50  C8  UNL     1       8.739 -11.365  22.171  1.00  0.00     0.009 C 
HETATM   51  C9  UNL     1       7.632 -11.078  23.150  1.00  0.00     0.012 C 
HETATM   52  C10 UNL     1       9.363 -12.690  22.485  1.00  0.00     0.012 C 
ENDBRANCH   6  50
BRANCH  16  53
HETATM   53  C15 UNL     1       2.358 -13.783  22.332  1.00  0.00     0.013 C 
HETATM   54  C16 UNL     1       1.160 -12.969  22.598  1.00  0.00     0.012 C 
BRANCH  53  55
HETATM   55  C17 UNL     1       2.131 -15.261  22.573  1.00  0.00     0.002 C 
HETATM   56  C18 UNL     1       3.129 -16.092  21.796  1.00  0.00     0.005 C 
ENDBRANCH  53  55
ENDBRANCH  16  53
TORSDOF 15
ENDMDL
