MODEL 1
REMARK VINA RESULT: -9.732699450      0.000      0.000
REMARK  13 active torsions:
REMARK  status: ('A' for Active; 'I' for Inactive)
REMARK    1  A    between atoms: C4_4  and  C5_5 
REMARK    2  A    between atoms: C6_6  and  C7_7 
REMARK       I    between atoms: C7_7  and  N1_9 
REMARK    3  A    between atoms: C8_11  and  C9_13 
REMARK    4  A    between atoms: C12_16  and  C13_17 
REMARK    5  A    between atoms: C13_17  and  C14_18 
REMARK    6  A    between atoms: C14_18  and  N3_19 
REMARK       I    between atoms: N3_19  and  C15_21 
REMARK       I    between atoms: C15_21  and  N4_23 
REMARK    7  A    between atoms: N4_23  and  C16_25 
REMARK    8  A    between atoms: C22_31  and  O3_32 
REMARK    9  A    between atoms: C22_31  and  N5_34 
REMARK   10  A    between atoms: C28_43  and  C29_44 
REMARK   11  A    between atoms: C29_44  and  O5_45 
REMARK   12  A    between atoms: C29_44  and  N7_47 
REMARK   13  A    between atoms: C33_51  and  C34_52 
ROOT
HETATM    1  C1  UNL     1       8.056   4.562   5.805  1.00  0.00     0.102 C 
HETATM    2  C2  UNL     1       8.685   4.543   6.883  1.00  0.00    -0.160 C 
HETATM    3  C3  UNL     1       9.478   4.552   8.045  1.00  0.00     0.050 C 
HETATM    4  C4  UNL     1       8.839   4.181   9.232  1.00  0.00     0.008 C 
ENDROOT
BRANCH   4   5
HETATM    5  C5  UNL     1       7.435   3.826   9.123  1.00  0.00     0.006 C 
HETATM    6  C6  UNL     1       6.614   3.723  10.115  1.00  0.00     0.074 C 
BRANCH   6   7
HETATM    7  C7  UNL     1       6.916   3.924  11.504  1.00  0.00     0.246 C 
HETATM    8  O1  UNL     1       7.137   4.955  12.083  1.00  0.00    -0.268 OA
HETATM    9  N1  UNL     1       6.942   2.707  12.277  1.00  0.00    -0.310 N 
HETATM   10  C8  UNL     1       7.504   1.687  12.233  1.00  0.00     0.146 C 
ATOM     11  H1  UNL     1       6.302   2.751  13.069  1.00  0.00     0.170 HD
HETATM   12  N2  UNL     1       8.497   1.254  11.276  1.00  0.00    -0.080 NA
BRANCH  10  13
HETATM   13  C9  UNL     1       7.121   0.602  13.188  1.00  0.00     0.074 A 
HETATM   14  C10 UNL     1       7.534  -0.686  12.983  1.00  0.00     0.035 A 
HETATM   15  C11 UNL     1       7.019  -1.481  13.985  1.00  0.00     0.027 A 
HETATM   16  C12 UNL     1       6.261  -0.577  14.806  1.00  0.00     0.015 A 
HETATM   17  N8  UNL     1       6.384   0.613  14.267  1.00  0.00    -0.357 N 
ATOM     18  H8  UNL     1       5.951   1.455  14.649  1.00  0.00     0.166 HD
BRANCH  16  19
HETATM   19  C13 UNL     1       5.424  -1.063  15.937  1.00  0.00     0.118 C 
BRANCH  19  20
HETATM   20  C14 UNL     1       4.072  -1.568  15.649  1.00  0.00     0.070 C 
HETATM   21  C22 UNL     1       3.680  -2.887  16.075  1.00  0.00     0.163 C 
BRANCH  20  22
HETATM   22  N3  UNL     1       3.160  -0.746  14.914  1.00  0.00    -0.308 N 
HETATM   23  C15 UNL     1       3.140  -0.428  13.533  1.00  0.00     0.320 C 
HETATM   24  O2  UNL     1       3.859  -0.639  12.607  1.00  0.00    -0.247 OA
HETATM   25  N4  UNL     1       1.935   0.367  13.145  1.00  0.00    -0.338 N 
ATOM     26  H4  UNL     1       1.234   0.670  13.821  1.00  0.00     0.164 HD
ATOM     27  H3  UNL     1       2.412  -0.326  15.467  1.00  0.00     0.170 HD
BRANCH  25  28
HETATM   28  C16 UNL     1       1.840   0.676  11.714  1.00  0.00     0.086 C 
HETATM   29  C17 UNL     1       0.509   0.285  11.161  1.00  0.00     0.025 C 
HETATM   30  C18 UNL     1      -0.579   1.258  11.591  1.00  0.00     0.002 C 
HETATM   31  C19 UNL     1      -0.298   2.655  11.160  1.00  0.00     0.000 C 
HETATM   32  C20 UNL     1       1.116   2.822  10.630  1.00  0.00     0.002 C 
HETATM   33  C21 UNL     1       2.133   2.139  11.475  1.00  0.00     0.025 C 
ENDBRANCH  25  28
ENDBRANCH  20  22
BRANCH  21  34
HETATM   34  O3  UNL     1       2.414  -3.204  15.802  1.00  0.00    -0.345 OA
ATOM     35  H3  UNL     1       2.174  -4.096  16.024  1.00  0.00     0.219 HD
ENDBRANCH  21  34
BRANCH  21  36
HETATM   36  N5  UNL     1       4.262  -3.970  16.740  1.00  0.00    -0.337 N 
HETATM   37  C23 UNL     1       4.084  -4.305  18.124  1.00  0.00     0.228 C 
HETATM   38  C24 UNL     1       2.997  -5.370  18.168  1.00  0.00     0.236 C 
HETATM   39  O4  UNL     1       2.325  -5.564  19.160  1.00  0.00    -0.272 OA
HETATM   40  N6  UNL     1       2.900  -6.076  16.912  1.00  0.00    -0.349 N 
HETATM   41  C25 UNL     1       4.120  -6.319  16.176  1.00  0.00     0.053 C 
ATOM     42  H6  UNL     1       1.998  -6.392  16.555  1.00  0.00     0.163 HD
HETATM   43  C26 UNL     1       3.707  -6.875  14.803  1.00  0.00     0.041 C 
HETATM   44  C27 UNL     1       4.840  -7.393  16.911  1.00  0.00     0.041 C 
HETATM   45  C28 UNL     1       4.963  -5.034  15.992  1.00  0.00     0.188 C 
BRANCH  45  46
HETATM   46  C29 UNL     1       6.364  -5.201  16.111  1.00  0.00     0.140 C 
BRANCH  46  47
HETATM   47  O5  UNL     1       6.966  -5.315  14.931  1.00  0.00    -0.348 OA
ATOM     48  H5  UNL     1       7.115  -4.474  14.515  1.00  0.00     0.219 HD
ENDBRANCH  46  47
BRANCH  46  49
HETATM   49  N7  UNL     1       7.293  -5.284  17.167  1.00  0.00    -0.349 N 
HETATM   50  C30 UNL     1       7.145  -5.987  18.446  1.00  0.00     0.126 C 
HETATM   51  C31 UNL     1       8.361  -6.879  18.437  1.00  0.00     0.022 C 
HETATM   52  C32 UNL     1       9.398  -5.952  17.898  1.00  0.00     0.038 C 
HETATM   53  C33 UNL     1       8.615  -4.740  17.307  1.00  0.00     0.187 C 
BRANCH  53  54
HETATM   54  C34 UNL     1       9.348  -4.295  16.112  1.00  0.00     0.196 C 
HETATM   55  O6  UNL     1       9.499  -3.046  16.004  1.00  0.00    -0.646 OA
HETATM   56  O7  UNL     1       9.892  -5.063  15.117  1.00  0.00    -0.646 OA
ENDBRANCH  53  54
ENDBRANCH  46  49
ENDBRANCH  45  46
ENDBRANCH  21  36
ENDBRANCH  19  20
ENDBRANCH  16  19
ENDBRANCH  10  13
ENDBRANCH   6   7
ENDBRANCH   4   5
TORSDOF 13
ENDMDL
MODEL 2
REMARK VINA RESULT: -9.665163897      0.920      1.280
REMARK  13 active torsions:
REMARK  status: ('A' for Active; 'I' for Inactive)
REMARK    1  A    between atoms: C4_4  and  C5_5 
REMARK    2  A    between atoms: C6_6  and  C7_7 
REMARK       I    between atoms: C7_7  and  N1_9 
REMARK    3  A    between atoms: C8_11  and  C9_13 
REMARK    4  A    between atoms: C12_16  and  C13_17 
REMARK    5  A    between atoms: C13_17  and  C14_18 
REMARK    6  A    between atoms: C14_18  and  N3_19 
REMARK       I    between atoms: N3_19  and  C15_21 
REMARK       I    between atoms: C15_21  and  N4_23 
REMARK    7  A    between atoms: N4_23  and  C16_25 
REMARK    8  A    between atoms: C22_31  and  O3_32 
REMARK    9  A    between atoms: C22_31  and  N5_34 
REMARK   10  A    between atoms: C28_43  and  C29_44 
REMARK   11  A    between atoms: C29_44  and  O5_45 
REMARK   12  A    between atoms: C29_44  and  N7_47 
REMARK   13  A    between atoms: C33_51  and  C34_52 
ROOT
HETATM    1  C1  UNL     1       4.917   4.748   6.358  1.00  0.00     0.102 C 
HETATM    2  C2  UNL     1       4.487   4.504   7.504  1.00  0.00    -0.160 C 
HETATM    3  C3  UNL     1       3.910   4.266   8.765  1.00  0.00     0.050 C 
HETATM    4  C4  UNL     1       4.759   3.736   9.743  1.00  0.00     0.008 C 
ENDROOT
BRANCH   4   5
HETATM    5  C5  UNL     1       6.135   3.500   9.341  1.00  0.00     0.006 C 
HETATM    6  C6  UNL     1       7.155   3.521  10.133  1.00  0.00     0.074 C 
BRANCH   6   7
HETATM    7  C7  UNL     1       7.142   3.786  11.543  1.00  0.00     0.246 C 
HETATM    8  O1  UNL     1       7.175   4.847  12.109  1.00  0.00    -0.268 OA
HETATM    9  N1  UNL     1       7.075   2.599  12.359  1.00  0.00    -0.310 N 
HETATM   10  C8  UNL     1       7.692   1.617  12.480  1.00  0.00     0.146 C 
ATOM     11  H1  UNL     1       6.279   2.625  12.996  1.00  0.00     0.170 HD
HETATM   12  N2  UNL     1       8.889   1.221  11.773  1.00  0.00    -0.080 NA
BRANCH  10  13
HETATM   13  C9  UNL     1       7.179   0.540  13.381  1.00  0.00     0.074 A 
HETATM   14  C10 UNL     1       7.476  -0.773  13.139  1.00  0.00     0.035 A 
HETATM   15  C11 UNL     1       6.858  -1.551  14.094  1.00  0.00     0.027 A 
HETATM   16  C12 UNL     1       6.160  -0.609  14.927  1.00  0.00     0.015 A 
HETATM   17  N8  UNL     1       6.410   0.583  14.438  1.00  0.00    -0.357 N 
ATOM     18  H8  UNL     1       6.045   1.447  14.838  1.00  0.00     0.166 HD
BRANCH  16  19
HETATM   19  C13 UNL     1       5.245  -1.054  16.013  1.00  0.00     0.118 C 
BRANCH  19  20
HETATM   20  C14 UNL     1       3.934  -1.616  15.647  1.00  0.00     0.070 C 
HETATM   21  C22 UNL     1       3.586  -2.959  16.029  1.00  0.00     0.163 C 
BRANCH  20  22
HETATM   22  N3  UNL     1       3.022  -0.822  14.882  1.00  0.00    -0.308 N 
HETATM   23  C15 UNL     1       3.094  -0.416  13.526  1.00  0.00     0.320 C 
HETATM   24  O2  UNL     1       3.905  -0.508  12.658  1.00  0.00    -0.247 OA
HETATM   25  N4  UNL     1       1.863   0.304  13.077  1.00  0.00    -0.338 N 
ATOM     26  H4  UNL     1       1.084   0.505  13.704  1.00  0.00     0.164 HD
ATOM     27  H3  UNL     1       2.197  -0.500  15.389  1.00  0.00     0.170 HD
BRANCH  25  28
HETATM   28  C16 UNL     1       1.866   0.699  11.664  1.00  0.00     0.086 C 
HETATM   29  C17 UNL     1       0.610   0.269  10.979  1.00  0.00     0.025 C 
HETATM   30  C18 UNL     1      -0.567   1.149  11.372  1.00  0.00     0.002 C 
HETATM   31  C19 UNL     1      -0.339   2.585  11.050  1.00  0.00     0.000 C 
HETATM   32  C20 UNL     1       1.100   2.866  10.652  1.00  0.00     0.002 C 
HETATM   33  C21 UNL     1       2.086   2.188  11.538  1.00  0.00     0.025 C 
ENDBRANCH  25  28
ENDBRANCH  20  22
BRANCH  21  34
HETATM   34  O3  UNL     1       2.351  -3.330  15.686  1.00  0.00    -0.345 OA
ATOM     35  H3  UNL     1       2.144  -4.237  15.877  1.00  0.00     0.219 HD
ENDBRANCH  21  34
BRANCH  21  36
HETATM   36  N5  UNL     1       4.185  -4.028  16.703  1.00  0.00    -0.337 N 
HETATM   37  C23 UNL     1       4.012  -4.354  18.089  1.00  0.00     0.228 C 
HETATM   38  C24 UNL     1       2.942  -5.435  18.144  1.00  0.00     0.236 C 
HETATM   39  O4  UNL     1       2.274  -5.630  19.139  1.00  0.00    -0.272 OA
HETATM   40  N6  UNL     1       2.854  -6.152  16.895  1.00  0.00    -0.349 N 
HETATM   41  C25 UNL     1       4.077  -6.384  16.159  1.00  0.00     0.053 C 
ATOM     42  H6  UNL     1       1.957  -6.486  16.541  1.00  0.00     0.163 HD
HETATM   43  C26 UNL     1       3.671  -6.959  14.792  1.00  0.00     0.041 C 
HETATM   44  C27 UNL     1       4.815  -7.440  16.903  1.00  0.00     0.041 C 
HETATM   45  C28 UNL     1       4.901  -5.088  15.963  1.00  0.00     0.188 C 
BRANCH  45  46
HETATM   46  C29 UNL     1       6.304  -5.232  16.082  1.00  0.00     0.140 C 
BRANCH  46  47
HETATM   47  O5  UNL     1       6.911  -5.312  14.901  1.00  0.00    -0.348 OA
ATOM     48  H5  UNL     1       7.754  -5.745  14.954  1.00  0.00     0.219 HD
ENDBRANCH  46  47
BRANCH  46  49
HETATM   49  N7  UNL     1       7.232  -5.320  17.138  1.00  0.00    -0.349 N 
HETATM   50  C30 UNL     1       7.079  -6.018  18.420  1.00  0.00     0.126 C 
HETATM   51  C31 UNL     1       8.287  -6.920  18.413  1.00  0.00     0.022 C 
HETATM   52  C32 UNL     1       9.332  -6.003  17.871  1.00  0.00     0.038 C 
HETATM   53  C33 UNL     1       8.559  -4.786  17.276  1.00  0.00     0.187 C 
BRANCH  53  54
HETATM   54  C34 UNL     1       9.296  -4.351  16.080  1.00  0.00     0.196 C 
HETATM   55  O6  UNL     1       9.427  -3.102  15.950  1.00  0.00    -0.646 OA
HETATM   56  O7  UNL     1       9.862  -5.129  15.105  1.00  0.00    -0.646 OA
ENDBRANCH  53  54
ENDBRANCH  46  49
ENDBRANCH  45  46
ENDBRANCH  21  36
ENDBRANCH  19  20
ENDBRANCH  16  19
ENDBRANCH  10  13
ENDBRANCH   6   7
ENDBRANCH   4   5
TORSDOF 13
ENDMDL
MODEL 3
REMARK VINA RESULT: -9.578837547      2.146     10.762
REMARK  13 active torsions:
REMARK  status: ('A' for Active; 'I' for Inactive)
REMARK    1  A    between atoms: C4_4  and  C5_5 
REMARK    2  A    between atoms: C6_6  and  C7_7 
REMARK       I    between atoms: C7_7  and  N1_9 
REMARK    3  A    between atoms: C8_11  and  C9_13 
REMARK    4  A    between atoms: C12_16  and  C13_17 
REMARK    5  A    between atoms: C13_17  and  C14_18 
REMARK    6  A    between atoms: C14_18  and  N3_19 
REMARK       I    between atoms: N3_19  and  C15_21 
REMARK       I    between atoms: C15_21  and  N4_23 
REMARK    7  A    between atoms: N4_23  and  C16_25 
REMARK    8  A    between atoms: C22_31  and  O3_32 
REMARK    9  A    between atoms: C22_31  and  N5_34 
REMARK   10  A    between atoms: C28_43  and  C29_44 
REMARK   11  A    between atoms: C29_44  and  O5_45 
REMARK   12  A    between atoms: C29_44  and  N7_47 
REMARK   13  A    between atoms: C33_51  and  C34_52 
ROOT
HETATM    1  C1  UNL     1       8.237  -9.168  17.283  1.00  0.00     0.102 C 
HETATM    2  C2  UNL     1       7.937  -8.108  17.870  1.00  0.00    -0.160 C 
HETATM    3  C3  UNL     1       7.696  -6.911  18.569  1.00  0.00     0.050 C 
HETATM    4  C4  UNL     1       6.402  -6.390  18.473  1.00  0.00     0.008 C 
ENDROOT
BRANCH   4   5
HETATM    5  C5  UNL     1       5.460  -7.150  17.669  1.00  0.00     0.006 C 
HETATM    6  C6  UNL     1       4.301  -6.729  17.287  1.00  0.00     0.074 C 
BRANCH   6   7
HETATM    7  C7  UNL     1       3.710  -5.454  17.577  1.00  0.00     0.246 C 
HETATM    8  O1  UNL     1       3.051  -5.130  18.530  1.00  0.00    -0.268 OA
HETATM    9  N1  UNL     1       3.967  -4.450  16.575  1.00  0.00    -0.310 N 
HETATM   10  C8  UNL     1       3.806  -4.339  15.426  1.00  0.00     0.146 C 
ATOM     11  H1  UNL     1       4.405  -3.621  16.976  1.00  0.00     0.170 HD
HETATM   12  N2  UNL     1       3.206  -5.283  14.512  1.00  0.00    -0.080 NA
BRANCH  10  13
HETATM   13  C9  UNL     1       4.365  -3.142  14.724  1.00  0.00     0.074 A 
HETATM   14  C10 UNL     1       4.805  -3.233  13.432  1.00  0.00     0.035 A 
HETATM   15  C11 UNL     1       5.294  -2.004  13.043  1.00  0.00     0.027 A 
HETATM   16  C12 UNL     1       5.121  -1.167  14.199  1.00  0.00     0.015 A 
HETATM   17  N8  UNL     1       4.568  -1.915  15.125  1.00  0.00    -0.357 N 
ATOM     18  H8  UNL     1       4.324  -1.575  16.055  1.00  0.00     0.166 HD
BRANCH  16  19
HETATM   19  C13 UNL     1       5.651   0.223  14.244  1.00  0.00     0.118 C 
BRANCH  19  20
HETATM   20  C14 UNL     1       7.053   0.458  13.863  1.00  0.00     0.070 C 
HETATM   21  C22 UNL     1       7.399   1.551  12.994  1.00  0.00     0.163 C 
BRANCH  20  22
HETATM   22  N3  UNL     1       8.066  -0.432  14.343  1.00  0.00    -0.308 N 
HETATM   23  C15 UNL     1       8.006  -1.396  15.381  1.00  0.00     0.320 C 
HETATM   24  O2  UNL     1       7.198  -1.708  16.198  1.00  0.00    -0.247 OA
HETATM   25  N4  UNL     1       9.255  -2.211  15.479  1.00  0.00    -0.338 N 
ATOM     26  H4  UNL     1      10.066  -2.051  14.880  1.00  0.00     0.164 HD
ATOM     27  H3  UNL     1       8.966  -0.362  13.867  1.00  0.00     0.170 HD
BRANCH  25  28
HETATM   28  C16 UNL     1       9.223  -3.260  16.504  1.00  0.00     0.086 C 
HETATM   29  C17 UNL     1       8.107  -4.222  16.261  1.00  0.00     0.025 C 
HETATM   30  C18 UNL     1       8.423  -5.160  15.105  1.00  0.00     0.002 C 
HETATM   31  C19 UNL     1       9.665  -5.949  15.333  1.00  0.00     0.000 C 
HETATM   32  C20 UNL     1      10.455  -5.449  16.530  1.00  0.00     0.002 C 
HETATM   33  C21 UNL     1      10.558  -3.964  16.573  1.00  0.00     0.025 C 
ENDBRANCH  25  28
ENDBRANCH  20  22
BRANCH  21  34
HETATM   34  O3  UNL     1       8.707   1.689  12.769  1.00  0.00    -0.345 OA
ATOM     35  H3  UNL     1       8.924   2.151  11.968  1.00  0.00     0.219 HD
ENDBRANCH  21  34
BRANCH  21  36
HETATM   36  N5  UNL     1       6.734   2.569  12.303  1.00  0.00    -0.337 N 
HETATM   37  C23 UNL     1       6.955   3.978  12.459  1.00  0.00     0.228 C 
HETATM   38  C24 UNL     1       7.909   4.386  11.344  1.00  0.00     0.236 C 
HETATM   39  O4  UNL     1       8.612   5.373  11.428  1.00  0.00    -0.272 OA
HETATM   40  N6  UNL     1       7.846   3.466  10.234  1.00  0.00    -0.349 N 
HETATM   41  C25 UNL     1       6.563   2.883   9.909  1.00  0.00     0.053 C 
ATOM     42  H6  UNL     1       8.681   3.234   9.696  1.00  0.00     0.163 HD
HETATM   43  C26 UNL     1       6.824   1.796   8.854  1.00  0.00     0.041 C 
HETATM   44  C27 UNL     1       5.767   3.965   9.271  1.00  0.00     0.041 C 
HETATM   45  C28 UNL     1       5.869   2.262  11.145  1.00  0.00     0.188 C 
BRANCH  45  46
HETATM   46  C29 UNL     1       4.467   2.453  11.218  1.00  0.00     0.140 C 
BRANCH  46  47
HETATM   47  O5  UNL     1       4.140   3.652  11.689  1.00  0.00    -0.348 OA
ATOM     48  H5  UNL     1       4.332   4.350  11.074  1.00  0.00     0.219 HD
ENDBRANCH  46  47
BRANCH  46  49
HETATM   49  N7  UNL     1       3.320   1.690  10.924  1.00  0.00    -0.349 N 
HETATM   50  C30 UNL     1       3.078   0.273  11.217  1.00  0.00     0.126 C 
HETATM   51  C31 UNL     1       1.790   0.345  11.997  1.00  0.00     0.022 C 
HETATM   52  C32 UNL     1       1.035   1.368  11.215  1.00  0.00     0.038 C 
HETATM   53  C33 UNL     1       2.085   2.050  10.286  1.00  0.00     0.187 C 
BRANCH  53  54
HETATM   54  C34 UNL     1       1.708   3.468  10.179  1.00  0.00     0.196 C 
HETATM   55  O6  UNL     1       2.294   4.115   9.267  1.00  0.00    -0.646 OA
HETATM   56  O7  UNL     1       0.800   4.162  10.933  1.00  0.00    -0.646 OA
ENDBRANCH  53  54
ENDBRANCH  46  49
ENDBRANCH  45  46
ENDBRANCH  21  36
ENDBRANCH  19  20
ENDBRANCH  16  19
ENDBRANCH  10  13
ENDBRANCH   6   7
ENDBRANCH   4   5
TORSDOF 13
ENDMDL
MODEL 4
REMARK VINA RESULT: -9.558599057      2.186     10.617
REMARK  13 active torsions:
REMARK  status: ('A' for Active; 'I' for Inactive)
REMARK    1  A    between atoms: C4_4  and  C5_5 
REMARK    2  A    between atoms: C6_6  and  C7_7 
REMARK       I    between atoms: C7_7  and  N1_9 
REMARK    3  A    between atoms: C8_11  and  C9_13 
REMARK    4  A    between atoms: C12_16  and  C13_17 
REMARK    5  A    between atoms: C13_17  and  C14_18 
REMARK    6  A    between atoms: C14_18  and  N3_19 
REMARK       I    between atoms: N3_19  and  C15_21 
REMARK       I    between atoms: C15_21  and  N4_23 
REMARK    7  A    between atoms: N4_23  and  C16_25 
REMARK    8  A    between atoms: C22_31  and  O3_32 
REMARK    9  A    between atoms: C22_31  and  N5_34 
REMARK   10  A    between atoms: C28_43  and  C29_44 
REMARK   11  A    between atoms: C29_44  and  O5_45 
REMARK   12  A    between atoms: C29_44  and  N7_47 
REMARK   13  A    between atoms: C33_51  and  C34_52 
ROOT
HETATM    1  C1  UNL     1       0.763  -5.217  15.374  1.00  0.00     0.102 C 
HETATM    2  C2  UNL     1       1.831  -5.780  15.060  1.00  0.00    -0.160 C 
HETATM    3  C3  UNL     1       3.023  -6.378  14.610  1.00  0.00     0.050 C 
HETATM    4  C4  UNL     1       3.732  -7.129  15.554  1.00  0.00     0.008 C 
ENDROOT
BRANCH   4   5
HETATM    5  C5  UNL     1       3.151  -7.206  16.883  1.00  0.00     0.006 C 
HETATM    6  C6  UNL     1       3.597  -6.591  17.927  1.00  0.00     0.074 C 
BRANCH   6   7
HETATM    7  C7  UNL     1       4.742  -5.728  17.991  1.00  0.00     0.246 C 
HETATM    8  O1  UNL     1       5.778  -5.896  18.581  1.00  0.00    -0.268 OA
HETATM    9  N1  UNL     1       4.599  -4.511  17.232  1.00  0.00    -0.310 N 
HETATM   10  C8  UNL     1       3.846  -3.621  17.190  1.00  0.00     0.146 C 
ATOM     11  H1  UNL     1       5.352  -4.399  16.554  1.00  0.00     0.170 HD
HETATM   12  N2  UNL     1       2.667  -3.410  17.998  1.00  0.00    -0.080 NA
BRANCH  10  13
HETATM   13  C9  UNL     1       3.996  -2.590  16.118  1.00  0.00     0.074 A 
HETATM   14  C10 UNL     1       3.619  -2.861  14.831  1.00  0.00     0.035 A 
HETATM   15  C11 UNL     1       3.891  -1.758  14.049  1.00  0.00     0.027 A 
HETATM   16  C12 UNL     1       4.467  -0.806  14.958  1.00  0.00     0.015 A 
HETATM   17  N8  UNL     1       4.482  -1.376  16.140  1.00  0.00    -0.357 N 
ATOM     18  H8  UNL     1       4.834  -0.922  16.983  1.00  0.00     0.166 HD
BRANCH  16  19
HETATM   19  C13 UNL     1       5.031   0.487  14.483  1.00  0.00     0.118 C 
BRANCH  19  20
HETATM   20  C14 UNL     1       6.474   0.569  14.207  1.00  0.00     0.070 C 
HETATM   21  C22 UNL     1       6.983   1.539  13.273  1.00  0.00     0.163 C 
BRANCH  20  22
HETATM   22  N3  UNL     1       7.363  -0.346  14.854  1.00  0.00    -0.308 N 
HETATM   23  C15 UNL     1       7.586  -1.723  14.599  1.00  0.00     0.320 C 
HETATM   24  O2  UNL     1       7.093  -2.542  13.889  1.00  0.00    -0.247 OA
HETATM   25  N4  UNL     1       8.700  -2.284  15.423  1.00  0.00    -0.338 N 
ATOM     26  H4  UNL     1       9.207  -1.731  16.114  1.00  0.00     0.164 HD
ATOM     27  H3  UNL     1       7.919   0.051  15.611  1.00  0.00     0.170 HD
BRANCH  25  28
HETATM   28  C16 UNL     1       9.007  -3.695  15.158  1.00  0.00     0.086 C 
HETATM   29  C17 UNL     1      10.393  -4.039  15.595  1.00  0.00     0.025 C 
HETATM   30  C18 UNL     1      10.487  -4.154  17.109  1.00  0.00     0.002 C 
HETATM   31  C19 UNL     1       9.565  -5.183  17.662  1.00  0.00     0.000 C 
HETATM   32  C20 UNL     1       8.572  -5.684  16.627  1.00  0.00     0.002 C 
HETATM   33  C21 UNL     1       7.979  -4.585  15.817  1.00  0.00     0.025 C 
ENDBRANCH  25  28
ENDBRANCH  20  22
BRANCH  21  34
HETATM   34  O3  UNL     1       8.311   1.549  13.152  1.00  0.00    -0.345 OA
ATOM     35  H3  UNL     1       8.640   2.101  12.452  1.00  0.00     0.219 HD
ENDBRANCH  21  34
BRANCH  21  36
HETATM   36  N5  UNL     1       6.467   2.533  12.434  1.00  0.00    -0.337 N 
HETATM   37  C23 UNL     1       6.773   3.933  12.498  1.00  0.00     0.228 C 
HETATM   38  C24 UNL     1       7.862   4.179  11.462  1.00  0.00     0.236 C 
HETATM   39  O4  UNL     1       8.623   5.121  11.540  1.00  0.00    -0.272 OA
HETATM   40  N6  UNL     1       7.843   3.170  10.430  1.00  0.00    -0.349 N 
HETATM   41  C25 UNL     1       6.561   2.645  10.019  1.00  0.00     0.053 C 
ATOM     42  H6  UNL     1       8.708   2.838  10.004  1.00  0.00     0.163 HD
HETATM   43  C26 UNL     1       6.846   1.454   9.089  1.00  0.00     0.041 C 
HETATM   44  C27 UNL     1       5.913   3.715   9.214  1.00  0.00     0.041 C 
HETATM   45  C28 UNL     1       5.701   2.181  11.221  1.00  0.00     0.188 C 
BRANCH  45  46
HETATM   46  C29 UNL     1       4.318   2.467  11.129  1.00  0.00     0.140 C 
BRANCH  46  47
HETATM   47  O5  UNL     1       4.036   3.729  11.438  1.00  0.00    -0.348 OA
ATOM     48  H5  UNL     1       3.647   4.204  10.713  1.00  0.00     0.219 HD
ENDBRANCH  46  47
BRANCH  46  49
HETATM   49  N7  UNL     1       3.151   1.751  10.797  1.00  0.00    -0.349 N 
HETATM   50  C30 UNL     1       2.855   0.337  11.054  1.00  0.00     0.126 C 
HETATM   51  C31 UNL     1       1.555   0.439  11.812  1.00  0.00     0.022 C 
HETATM   52  C32 UNL     1       0.850   1.503  11.039  1.00  0.00     0.038 C 
HETATM   53  C33 UNL     1       1.941   2.168  10.145  1.00  0.00     0.187 C 
BRANCH  53  54
HETATM   54  C34 UNL     1       1.616   3.600  10.062  1.00  0.00     0.196 C 
HETATM   55  O6  UNL     1       0.870   4.040  10.981  1.00  0.00    -0.646 OA
HETATM   56  O7  UNL     1       2.028   4.509   9.124  1.00  0.00    -0.646 OA
ENDBRANCH  53  54
ENDBRANCH  46  49
ENDBRANCH  45  46
ENDBRANCH  21  36
ENDBRANCH  19  20
ENDBRANCH  16  19
ENDBRANCH  10  13
ENDBRANCH   6   7
ENDBRANCH   4   5
TORSDOF 13
ENDMDL
MODEL 5
REMARK VINA RESULT: -9.344577055      1.286      1.593
REMARK  13 active torsions:
REMARK  status: ('A' for Active; 'I' for Inactive)
REMARK    1  A    between atoms: C4_4  and  C5_5 
REMARK    2  A    between atoms: C6_6  and  C7_7 
REMARK       I    between atoms: C7_7  and  N1_9 
REMARK    3  A    between atoms: C8_11  and  C9_13 
REMARK    4  A    between atoms: C12_16  and  C13_17 
REMARK    5  A    between atoms: C13_17  and  C14_18 
REMARK    6  A    between atoms: C14_18  and  N3_19 
REMARK       I    between atoms: N3_19  and  C15_21 
REMARK       I    between atoms: C15_21  and  N4_23 
REMARK    7  A    between atoms: N4_23  and  C16_25 
REMARK    8  A    between atoms: C22_31  and  O3_32 
REMARK    9  A    between atoms: C22_31  and  N5_34 
REMARK   10  A    between atoms: C28_43  and  C29_44 
REMARK   11  A    between atoms: C29_44  and  O5_45 
REMARK   12  A    between atoms: C29_44  and  N7_47 
REMARK   13  A    between atoms: C33_51  and  C34_52 
ROOT
HETATM    1  C1  UNL     1       7.160   1.553   6.697  1.00  0.00     0.102 C 
HETATM    2  C2  UNL     1       7.705   2.501   7.298  1.00  0.00    -0.160 C 
HETATM    3  C3  UNL     1       8.406   3.550   7.921  1.00  0.00     0.050 C 
HETATM    4  C4  UNL     1       7.704   4.270   8.893  1.00  0.00     0.008 C 
ENDROOT
BRANCH   4   5
HETATM    5  C5  UNL     1       6.339   3.846   9.147  1.00  0.00     0.006 C 
HETATM    6  C6  UNL     1       5.806   3.714  10.316  1.00  0.00     0.074 C 
BRANCH   6   7
HETATM    7  C7  UNL     1       6.443   3.946  11.581  1.00  0.00     0.246 C 
HETATM    8  O1  UNL     1       6.802   4.988  12.062  1.00  0.00    -0.268 OA
HETATM    9  N1  UNL     1       6.659   2.747  12.353  1.00  0.00    -0.310 N 
HETATM   10  C8  UNL     1       7.191   1.722  12.197  1.00  0.00     0.146 C 
ATOM     11  H1  UNL     1       6.235   2.814  13.278  1.00  0.00     0.170 HD
HETATM   12  N2  UNL     1       7.914   1.259  11.035  1.00  0.00    -0.080 NA
BRANCH  10  13
HETATM   13  C9  UNL     1       7.055   0.662  13.243  1.00  0.00     0.074 A 
HETATM   14  C10 UNL     1       7.882  -0.428  13.244  1.00  0.00     0.035 A 
HETATM   15  C11 UNL     1       7.524  -1.254  14.288  1.00  0.00     0.027 A 
HETATM   16  C12 UNL     1       6.415  -0.585  14.912  1.00  0.00     0.015 A 
HETATM   17  N8  UNL     1       6.219   0.524  14.238  1.00  0.00    -0.357 N 
ATOM     18  H8  UNL     1       5.493   1.204  14.466  1.00  0.00     0.166 HD
BRANCH  16  19
HETATM   19  C13 UNL     1       5.638  -1.218  16.012  1.00  0.00     0.118 C 
BRANCH  19  20
HETATM   20  C14 UNL     1       4.253  -1.638  15.748  1.00  0.00     0.070 C 
HETATM   21  C22 UNL     1       3.757  -2.884  16.271  1.00  0.00     0.163 C 
BRANCH  20  22
HETATM   22  N3  UNL     1       3.413  -0.809  14.939  1.00  0.00    -0.308 N 
HETATM   23  C15 UNL     1       3.396  -0.637  13.532  1.00  0.00     0.320 C 
HETATM   24  O2  UNL     1       4.070  -1.016  12.627  1.00  0.00    -0.247 OA
HETATM   25  N4  UNL     1       2.268   0.231  13.075  1.00  0.00    -0.338 N 
ATOM     26  H4  UNL     1       1.616   0.674  13.722  1.00  0.00     0.164 HD
ATOM     27  H3  UNL     1       2.723  -0.259  15.452  1.00  0.00     0.170 HD
BRANCH  25  28
HETATM   28  C16 UNL     1       2.175   0.397  11.620  1.00  0.00     0.086 C 
HETATM   29  C17 UNL     1       0.782   0.157  11.135  1.00  0.00     0.025 C 
HETATM   30  C18 UNL     1      -0.132   1.325  11.471  1.00  0.00     0.002 C 
HETATM   31  C19 UNL     1       0.341   2.609  10.885  1.00  0.00     0.000 C 
HETATM   32  C20 UNL     1       1.746   2.501  10.317  1.00  0.00     0.002 C 
HETATM   33  C21 UNL     1       2.676   1.764  11.216  1.00  0.00     0.025 C 
ENDBRANCH  25  28
ENDBRANCH  20  22
BRANCH  21  34
HETATM   34  O3  UNL     1       2.471  -3.124  16.009  1.00  0.00    -0.345 OA
ATOM     35  H3  UNL     1       2.284  -4.014  15.735  1.00  0.00     0.219 HD
ENDBRANCH  21  34
BRANCH  21  36
HETATM   36  N5  UNL     1       4.248  -3.954  17.027  1.00  0.00    -0.337 N 
HETATM   37  C23 UNL     1       3.826  -4.316  18.349  1.00  0.00     0.228 C 
HETATM   38  C24 UNL     1       2.797  -5.425  18.178  1.00  0.00     0.236 C 
HETATM   39  O4  UNL     1       1.958  -5.661  19.024  1.00  0.00    -0.272 OA
HETATM   40  N6  UNL     1       2.969  -6.115  16.922  1.00  0.00    -0.349 N 
HETATM   41  C25 UNL     1       4.316  -6.298  16.429  1.00  0.00     0.053 C 
ATOM     42  H6  UNL     1       2.166  -6.462  16.398  1.00  0.00     0.163 HD
HETATM   43  C26 UNL     1       4.194  -6.849  14.999  1.00  0.00     0.041 C 
HETATM   44  C27 UNL     1       4.929  -7.352  17.280  1.00  0.00     0.041 C 
HETATM   45  C28 UNL     1       5.123  -4.976  16.418  1.00  0.00     0.188 C 
BRANCH  45  46
HETATM   46  C29 UNL     1       6.482  -5.088  16.799  1.00  0.00     0.140 C 
BRANCH  46  47
HETATM   47  O5  UNL     1       6.671  -4.840  18.092  1.00  0.00    -0.348 OA
ATOM     48  H5  UNL     1       5.977  -5.193  18.636  1.00  0.00     0.219 HD
ENDBRANCH  46  47
BRANCH  46  49
HETATM   49  N7  UNL     1       7.698  -5.390  16.155  1.00  0.00    -0.349 N 
HETATM   50  C30 UNL     1       8.197  -4.871  14.877  1.00  0.00     0.126 C 
HETATM   51  C31 UNL     1       9.534  -4.307  15.286  1.00  0.00     0.022 C 
HETATM   52  C32 UNL     1      10.024  -5.367  16.216  1.00  0.00     0.038 C 
HETATM   53  C33 UNL     1       8.781  -6.252  16.540  1.00  0.00     0.187 C 
BRANCH  53  54
HETATM   54  C34 UNL     1       8.909  -6.677  17.942  1.00  0.00     0.196 C 
HETATM   55  O6  UNL     1       9.531  -5.878  18.695  1.00  0.00    -0.646 OA
HETATM   56  O7  UNL     1       8.431  -7.820  18.527  1.00  0.00    -0.646 OA
ENDBRANCH  53  54
ENDBRANCH  46  49
ENDBRANCH  45  46
ENDBRANCH  21  36
ENDBRANCH  19  20
ENDBRANCH  16  19
ENDBRANCH  10  13
ENDBRANCH   6   7
ENDBRANCH   4   5
TORSDOF 13
ENDMDL
