MODEL 1
REMARK VINA RESULT: -7.166573918      0.000      0.000
REMARK  14 active torsions:
REMARK  status: ('A' for Active; 'I' for Inactive)
REMARK    1  A    between atoms: C2_2  and  C4_4 
REMARK    2  A    between atoms: C4_4  and  C5_5 
REMARK    3  A    between atoms: C9_15  and  C10_16 
REMARK    4  A    between atoms: C10_16  and  C11_17 
REMARK    5  A    between atoms: C15_24  and  C16_25 
REMARK    6  A    between atoms: C16_25  and  C17_26 
REMARK    7  A    between atoms: C20_31  and  O4_32 
REMARK    8  A    between atoms: C21_34  and  O5_35 
REMARK    9  A    between atoms: C22_37  and  C23_38 
REMARK   10  A    between atoms: C23_38  and  C24_39 
REMARK   11  A    between atoms: C24_39  and  C25_40 
REMARK   12  A    between atoms: C25_40  and  N5_41 
REMARK   13  A    between atoms: C29_47  and  O6_48 
REMARK   14  A    between atoms: C30_50  and  C31_51 
ROOT
HETATM    1  C5  UNL     1       1.269   4.999   7.459  1.00  0.00     0.177 C 
HETATM    2  N1  UNL     1       1.165   4.858   6.040  1.00  0.00    -0.346 N 
ATOM      3  H1  UNL     1       0.212   4.755   5.693  1.00  0.00     0.163 HD
HETATM    4  C6  UNL     1       2.153   4.837   5.046  1.00  0.00     0.236 C 
HETATM    5  O1  UNL     1       2.191   5.774   4.204  1.00  0.00    -0.272 OA
HETATM    6  C7  UNL     1       3.217   3.791   4.851  1.00  0.00     0.225 C 
HETATM    7  N2  UNL     1       4.362   4.377   4.232  1.00  0.00    -0.351 N 
ATOM      8  H2  UNL     1       4.181   4.773   3.310  1.00  0.00     0.163 HD
HETATM    9  C8  UNL     1       5.677   4.505   4.657  1.00  0.00     0.240 C 
HETATM   10  O2  UNL     1       6.227   5.648   4.447  1.00  0.00    -0.271 OA
HETATM   11  C9  UNL     1       6.528   3.487   5.326  1.00  0.00     0.177 C 
HETATM   12  N3  UNL     1       6.274   3.450   6.751  1.00  0.00    -0.346 N 
ATOM     13  H3  UNL     1       5.385   3.036   7.033  1.00  0.00     0.163 HD
HETATM   14  C14 UNL     1       7.093   3.908   7.794  1.00  0.00     0.241 C 
HETATM   15  O3  UNL     1       6.634   4.876   8.503  1.00  0.00    -0.271 OA
HETATM   16  C15 UNL     1       8.432   3.402   8.179  1.00  0.00     0.176 C 
HETATM   17  N4  UNL     1       8.226   2.151   8.860  1.00  0.00    -0.356 N 
ATOM     18  H4  UNL     1       8.112   1.359   8.228  1.00  0.00     0.162 HD
HETATM   19  C20 UNL     1       8.152   1.804  10.199  1.00  0.00     0.169 C 
HETATM   20  C21 UNL     1       7.189   2.035  11.227  1.00  0.00     0.120 C 
HETATM   21  C22 UNL     1       5.727   1.942  11.277  1.00  0.00     0.167 C 
HETATM   22  N6  UNL     1       5.105   3.274  11.220  1.00  0.00    -0.359 N 
ATOM     23  H6  UNL     1       5.782   4.033  11.154  1.00  0.00     0.162 HD
HETATM   24  C29 UNL     1       3.803   3.705  11.237  1.00  0.00     0.136 C 
HETATM   25  C30 UNL     1       2.664   3.514  10.299  1.00  0.00     0.162 C 
HETATM   26  N7  UNL     1       2.979   3.658   8.914  1.00  0.00    -0.347 N 
ATOM     27  H7  UNL     1       3.561   2.914   8.529  1.00  0.00     0.163 HD
HETATM   28  C34 UNL     1       2.617   4.656   7.995  1.00  0.00     0.241 C 
HETATM   29  O7  UNL     1       3.526   5.431   7.498  1.00  0.00    -0.271 OA
ENDROOT
BRANCH  21  30
HETATM   30  C23 UNL     1       5.308   1.193  12.495  1.00  0.00     0.003 C 
BRANCH  30  31
HETATM   31  C24 UNL     1       4.458   0.021  12.480  1.00  0.00    -0.001 C 
BRANCH  31  32
HETATM   32  C25 UNL     1       3.655  -0.384  13.643  1.00  0.00     0.263 C 
BRANCH  32  33
HETATM   33  N5  UNL     1       4.307  -1.496  14.377  1.00  0.00    -0.075 N 
HETATM   34  C26 UNL     1       3.246  -2.250  15.016  1.00  0.00     0.272 C 
HETATM   35  C27 UNL     1       5.015  -2.368  13.489  1.00  0.00     0.272 C 
HETATM   36  C28 UNL     1       5.185  -1.001  15.404  1.00  0.00     0.272 C 
ENDBRANCH  32  33
ENDBRANCH  31  32
ENDBRANCH  30  31
ENDBRANCH  21  30
BRANCH  20  37
HETATM   37  O5  UNL     1       7.707   2.407  12.366  1.00  0.00    -0.359 OA
ATOM     38  H5  UNL     1       7.372   1.931  13.117  1.00  0.00     0.217 HD
ENDBRANCH  20  37
BRANCH  19  39
HETATM   39  O4  UNL     1       9.195   1.111  10.615  1.00  0.00    -0.344 OA
ATOM     40  H4  UNL     1       9.179   0.205  10.331  1.00  0.00     0.219 HD
ENDBRANCH  19  39
BRANCH  24  41
HETATM   41  O6  UNL     1       3.471   4.435  12.270  1.00  0.00    -0.348 OA
ATOM     42  H6  UNL     1       2.545   4.438  12.483  1.00  0.00     0.219 HD
ENDBRANCH  24  41
BRANCH  25  43
HETATM   43  C31 UNL     1       1.935   2.257  10.692  1.00  0.00     0.008 C 
HETATM   44  C32 UNL     1       0.806   2.659  11.660  1.00  0.00     0.012 C 
HETATM   45  C33 UNL     1       1.210   1.576   9.558  1.00  0.00     0.012 C 
ENDBRANCH  25  43
BRANCH  16  46
HETATM   46  C16 UNL     1       9.232   4.429   8.920  1.00  0.00     0.038 C 
BRANCH  46  47
HETATM   47  C17 UNL     1      10.407   4.963   8.191  1.00  0.00    -0.020 C 
HETATM   48  C18 UNL     1      10.079   5.067   6.691  1.00  0.00     0.009 C 
HETATM   49  C19 UNL     1      10.885   6.308   8.596  1.00  0.00     0.009 C 
ENDBRANCH  46  47
ENDBRANCH  16  46
BRANCH   1  50
HETATM   50  C4  UNL     1       0.932   6.384   7.909  1.00  0.00     0.038 C 
BRANCH  50  51
HETATM   51  C2  UNL     1       0.643   7.396   6.853  1.00  0.00    -0.020 C 
HETATM   52  C1  UNL     1      -0.568   8.268   7.326  1.00  0.00     0.009 C 
HETATM   53  C3  UNL     1       1.726   8.391   6.597  1.00  0.00     0.009 C 
ENDBRANCH  50  51
ENDBRANCH   1  50
BRANCH  11  54
HETATM   54  C10 UNL     1       6.325   2.106   4.767  1.00  0.00     0.038 C 
BRANCH  54  55
HETATM   55  C11 UNL     1       7.604   1.395   4.441  1.00  0.00    -0.020 C 
HETATM   56  C12 UNL     1       7.925   0.462   5.590  1.00  0.00     0.009 C 
HETATM   57  C13 UNL     1       8.775   2.376   4.332  1.00  0.00     0.009 C 
ENDBRANCH  54  55
ENDBRANCH  11  54
TORSDOF 14
ENDMDL
MODEL 2
REMARK VINA RESULT: -6.950135056     10.637     17.526
REMARK  14 active torsions:
REMARK  status: ('A' for Active; 'I' for Inactive)
REMARK    1  A    between atoms: C2_2  and  C4_4 
REMARK    2  A    between atoms: C4_4  and  C5_5 
REMARK    3  A    between atoms: C9_15  and  C10_16 
REMARK    4  A    between atoms: C10_16  and  C11_17 
REMARK    5  A    between atoms: C15_24  and  C16_25 
REMARK    6  A    between atoms: C16_25  and  C17_26 
REMARK    7  A    between atoms: C20_31  and  O4_32 
REMARK    8  A    between atoms: C21_34  and  O5_35 
REMARK    9  A    between atoms: C22_37  and  C23_38 
REMARK   10  A    between atoms: C23_38  and  C24_39 
REMARK   11  A    between atoms: C24_39  and  C25_40 
REMARK   12  A    between atoms: C25_40  and  N5_41 
REMARK   13  A    between atoms: C29_47  and  O6_48 
REMARK   14  A    between atoms: C30_50  and  C31_51 
ROOT
HETATM    1  C5  UNL     1       4.365 -14.110  17.318  1.00  0.00     0.177 C 
HETATM    2  N1  UNL     1       4.859 -14.912  18.395  1.00  0.00    -0.346 N 
ATOM      3  H1  UNL     1       4.249 -15.685  18.662  1.00  0.00     0.163 HD
HETATM    4  C6  UNL     1       6.038 -14.812  19.145  1.00  0.00     0.236 C 
HETATM    5  O1  UNL     1       6.899 -15.729  19.053  1.00  0.00    -0.272 OA
HETATM    6  C7  UNL     1       6.421 -13.703  20.087  1.00  0.00     0.225 C 
HETATM    7  N2  UNL     1       7.842 -13.589  20.148  1.00  0.00    -0.351 N 
ATOM      8  H2  UNL     1       8.312 -14.427  20.490  1.00  0.00     0.163 HD
HETATM    9  C8  UNL     1       8.699 -12.547  19.826  1.00  0.00     0.240 C 
HETATM   10  O2  UNL     1       9.759 -12.870  19.174  1.00  0.00    -0.271 OA
HETATM   11  C9  UNL     1       8.546 -11.103  20.141  1.00  0.00     0.177 C 
HETATM   12  N3  UNL     1       7.695 -10.445  19.170  1.00  0.00    -0.346 N 
ATOM     13  H3  UNL     1       6.700 -10.666  19.230  1.00  0.00     0.163 HD
HETATM   14  C14 UNL     1       8.061  -9.544  18.159  1.00  0.00     0.241 C 
HETATM   15  O3  UNL     1       7.864  -9.926  16.949  1.00  0.00    -0.271 OA
HETATM   16  C15 UNL     1       8.649  -8.193  18.324  1.00  0.00     0.176 C 
HETATM   17  N4  UNL     1       7.584  -7.323  18.746  1.00  0.00    -0.356 N 
ATOM     18  H4  UNL     1       7.400  -7.362  19.749  1.00  0.00     0.162 HD
HETATM   19  C20 UNL     1       6.757  -6.442  18.068  1.00  0.00     0.169 C 
HETATM   20  C21 UNL     1       5.681  -6.610  17.144  1.00  0.00     0.120 C 
HETATM   21  C22 UNL     1       4.516  -7.498  17.104  1.00  0.00     0.167 C 
HETATM   22  N6  UNL     1       4.718  -8.601  16.153  1.00  0.00    -0.359 N 
ATOM     23  H6  UNL     1       5.623  -8.570  15.683  1.00  0.00     0.162 HD
HETATM   24  C29 UNL     1       3.941  -9.663  15.766  1.00  0.00     0.136 C 
HETATM   25  C30 UNL     1       3.416 -10.849  16.495  1.00  0.00     0.162 C 
HETATM   26  N7  UNL     1       4.346 -11.496  17.364  1.00  0.00    -0.347 N 
ATOM     27  H7  UNL     1       4.598 -10.961  18.195  1.00  0.00     0.163 HD
HETATM   28  C34 UNL     1       4.971 -12.750  17.261  1.00  0.00     0.241 C 
HETATM   29  O7  UNL     1       6.251 -12.817  17.090  1.00  0.00    -0.271 OA
ENDROOT
BRANCH  21  30
HETATM   30  C23 UNL     1       3.291  -6.714  16.783  1.00  0.00     0.003 C 
BRANCH  30  31
HETATM   31  C24 UNL     1       3.098  -5.322  17.133  1.00  0.00    -0.001 C 
BRANCH  31  32
HETATM   32  C25 UNL     1       2.330  -4.397  16.288  1.00  0.00     0.263 C 
BRANCH  32  33
HETATM   33  N5  UNL     1       3.208  -3.346  15.717  1.00  0.00    -0.075 N 
HETATM   34  C26 UNL     1       2.339  -2.265  15.293  1.00  0.00     0.272 C 
HETATM   35  C27 UNL     1       4.123  -2.839  16.693  1.00  0.00     0.272 C 
HETATM   36  C28 UNL     1       3.918  -3.828  14.562  1.00  0.00     0.272 C 
ENDBRANCH  32  33
ENDBRANCH  31  32
ENDBRANCH  30  31
ENDBRANCH  21  30
BRANCH  20  37
HETATM   37  O5  UNL     1       5.737  -5.810  16.114  1.00  0.00    -0.359 OA
ATOM     38  H5  UNL     1       6.378  -6.064  15.461  1.00  0.00     0.217 HD
ENDBRANCH  20  37
BRANCH  19  39
HETATM   39  O4  UNL     1       7.018  -5.176  18.332  1.00  0.00    -0.344 OA
ATOM     40  H4  UNL     1       6.242  -4.629  18.344  1.00  0.00     0.219 HD
ENDBRANCH  19  39
BRANCH  24  41
HETATM   41  O6  UNL     1       3.578  -9.661  14.509  1.00  0.00    -0.348 OA
ATOM     42  H6  UNL     1       4.170 -10.109  13.916  1.00  0.00     0.219 HD
ENDBRANCH  24  41
BRANCH  25  43
HETATM   43  C31 UNL     1       2.085 -10.483  17.096  1.00  0.00     0.008 C 
HETATM   44  C32 UNL     1       1.217 -11.756  17.110  1.00  0.00     0.012 C 
HETATM   45  C33 UNL     1       2.146 -10.073  18.545  1.00  0.00     0.012 C 
ENDBRANCH  25  43
BRANCH  16  46
HETATM   46  C16 UNL     1       9.411  -7.757  17.111  1.00  0.00     0.038 C 
BRANCH  46  47
HETATM   47  C17 UNL     1       9.950  -6.377  17.164  1.00  0.00    -0.020 C 
HETATM   48  C18 UNL     1      11.487  -6.426  17.221  1.00  0.00     0.009 C 
HETATM   49  C19 UNL     1       9.614  -5.489  16.024  1.00  0.00     0.009 C 
ENDBRANCH  46  47
ENDBRANCH  16  46
BRANCH   1  50
HETATM   50  C4  UNL     1       4.578 -14.766  15.992  1.00  0.00     0.038 C 
BRANCH  50  51
HETATM   51  C2  UNL     1       3.388 -14.930  15.109  1.00  0.00    -0.020 C 
HETATM   52  C1  UNL     1       2.142 -15.218  16.011  1.00  0.00     0.009 C 
HETATM   53  C3  UNL     1       2.995 -13.724  14.323  1.00  0.00     0.009 C 
ENDBRANCH  50  51
ENDBRANCH   1  50
BRANCH  11  54
HETATM   54  C10 UNL     1       7.978 -10.866  21.513  1.00  0.00     0.038 C 
BRANCH  54  55
HETATM   55  C11 UNL     1       8.984 -11.015  22.614  1.00  0.00    -0.020 C 
HETATM   56  C12 UNL     1       8.362 -10.488  23.890  1.00  0.00     0.009 C 
HETATM   57  C13 UNL     1      10.230 -10.165  22.350  1.00  0.00     0.009 C 
ENDBRANCH  54  55
ENDBRANCH  11  54
TORSDOF 14
ENDMDL
MODEL 3
REMARK VINA RESULT: -6.914373974      9.686     17.140
REMARK  14 active torsions:
REMARK  status: ('A' for Active; 'I' for Inactive)
REMARK    1  A    between atoms: C2_2  and  C4_4 
REMARK    2  A    between atoms: C4_4  and  C5_5 
REMARK    3  A    between atoms: C9_15  and  C10_16 
REMARK    4  A    between atoms: C10_16  and  C11_17 
REMARK    5  A    between atoms: C15_24  and  C16_25 
REMARK    6  A    between atoms: C16_25  and  C17_26 
REMARK    7  A    between atoms: C20_31  and  O4_32 
REMARK    8  A    between atoms: C21_34  and  O5_35 
REMARK    9  A    between atoms: C22_37  and  C23_38 
REMARK   10  A    between atoms: C23_38  and  C24_39 
REMARK   11  A    between atoms: C24_39  and  C25_40 
REMARK   12  A    between atoms: C25_40  and  N5_41 
REMARK   13  A    between atoms: C29_47  and  O6_48 
REMARK   14  A    between atoms: C30_50  and  C31_51 
ROOT
HETATM    1  C5  UNL     1       9.161 -10.264  18.856  1.00  0.00     0.177 C 
HETATM    2  N1  UNL     1       9.333 -11.570  18.301  1.00  0.00    -0.346 N 
ATOM      3  H1  UNL     1      10.305 -11.847  18.161  1.00  0.00     0.163 HD
HETATM    4  C6  UNL     1       8.392 -12.534  17.917  1.00  0.00     0.236 C 
HETATM    5  O1  UNL     1       8.338 -13.622  18.552  1.00  0.00    -0.272 OA
HETATM    6  C7  UNL     1       7.396 -12.429  16.793  1.00  0.00     0.225 C 
HETATM    7  N2  UNL     1       6.248 -13.223  17.089  1.00  0.00    -0.351 N 
ATOM      8  H2  UNL     1       6.446 -14.218  17.200  1.00  0.00     0.163 HD
HETATM    9  C8  UNL     1       4.911 -12.890  17.253  1.00  0.00     0.240 C 
HETATM   10  O2  UNL     1       4.308 -13.450  18.241  1.00  0.00    -0.271 OA
HETATM   11  C9  UNL     1       4.090 -11.964  16.430  1.00  0.00     0.177 C 
HETATM   12  N3  UNL     1       4.284 -10.589  16.841  1.00  0.00    -0.346 N 
ATOM     13  H3  UNL     1       5.181 -10.174  16.591  1.00  0.00     0.163 HD
HETATM   14  C14 UNL     1       3.397  -9.755  17.538  1.00  0.00     0.241 C 
HETATM   15  O3  UNL     1       3.771  -9.362  18.703  1.00  0.00    -0.271 OA
HETATM   16  C15 UNL     1       2.072  -9.267  17.085  1.00  0.00     0.176 C 
HETATM   17  N4  UNL     1       2.317  -8.234  16.114  1.00  0.00    -0.356 N 
ATOM     18  H4  UNL     1       2.502  -8.593  15.177  1.00  0.00     0.162 HD
HETATM   19  C20 UNL     1       2.353  -6.851  16.192  1.00  0.00     0.169 C 
HETATM   20  C21 UNL     1       3.257  -5.918  16.784  1.00  0.00     0.120 C 
HETATM   21  C22 UNL     1       4.718  -5.807  16.807  1.00  0.00     0.167 C 
HETATM   22  N6  UNL     1       5.268  -6.251  18.097  1.00  0.00    -0.359 N 
ATOM     23  H6  UNL     1       4.553  -6.560  18.756  1.00  0.00     0.162 HD
HETATM   24  C29 UNL     1       6.542  -6.334  18.598  1.00  0.00     0.136 C 
HETATM   25  C30 UNL     1       7.730  -7.142  18.208  1.00  0.00     0.162 C 
HETATM   26  N7  UNL     1       7.466  -8.512  17.906  1.00  0.00    -0.347 N 
ATOM     27  H7  UNL     1       6.943  -8.667  17.045  1.00  0.00     0.163 HD
HETATM   28  C34 UNL     1       7.812  -9.682  18.603  1.00  0.00     0.241 C 
HETATM   29  O7  UNL     1       6.884 -10.413  19.131  1.00  0.00    -0.271 OA
ENDROOT
BRANCH  21  30
HETATM   30  C23 UNL     1       5.125  -4.410  16.489  1.00  0.00     0.003 C 
BRANCH  30  31
HETATM   31  C24 UNL     1       6.203  -4.059  15.587  1.00  0.00    -0.001 C 
BRANCH  31  32
HETATM   32  C25 UNL     1       7.091  -2.913  15.831  1.00  0.00     0.263 C 
BRANCH  32  33
HETATM   33  N5  UNL     1       6.949  -1.894  14.762  1.00  0.00    -0.075 N 
HETATM   34  C26 UNL     1       6.753  -2.619  13.521  1.00  0.00     0.272 C 
HETATM   35  C27 UNL     1       5.812  -1.054  14.985  1.00  0.00     0.272 C 
HETATM   36  C28 UNL     1       8.143  -1.102  14.632  1.00  0.00     0.272 C 
ENDBRANCH  32  33
ENDBRANCH  31  32
ENDBRANCH  30  31
ENDBRANCH  21  30
BRANCH  20  37
HETATM   37  O5  UNL     1       2.671  -4.959  17.447  1.00  0.00    -0.359 OA
ATOM     38  H5  UNL     1       3.213  -4.189  17.573  1.00  0.00     0.217 HD
ENDBRANCH  20  37
BRANCH  19  39
HETATM   39  O4  UNL     1       1.333  -6.270  15.590  1.00  0.00    -0.344 OA
ATOM     40  H4  UNL     1       1.289  -5.335  15.748  1.00  0.00     0.219 HD
ENDBRANCH  19  39
BRANCH  24  41
HETATM   41  O6  UNL     1       6.789  -5.564  19.625  1.00  0.00    -0.348 OA
ATOM     42  H6  UNL     1       7.488  -5.861  20.196  1.00  0.00     0.219 HD
ENDBRANCH  24  41
BRANCH  25  43
HETATM   43  C31 UNL     1       8.509  -6.369  17.178  1.00  0.00     0.008 C 
HETATM   44  C32 UNL     1       9.464  -5.424  17.933  1.00  0.00     0.012 C 
HETATM   45  C33 UNL     1       9.430  -7.210  16.332  1.00  0.00     0.012 C 
ENDBRANCH  25  43
BRANCH  16  46
HETATM   46  C16 UNL     1       1.186  -8.892  18.233  1.00  0.00     0.038 C 
BRANCH  46  47
HETATM   47  C17 UNL     1       0.395 -10.005  18.811  1.00  0.00    -0.020 C 
HETATM   48  C18 UNL     1       0.527 -11.250  17.917  1.00  0.00     0.009 C 
HETATM   49  C19 UNL     1       0.771 -10.444  20.178  1.00  0.00     0.009 C 
ENDBRANCH  46  47
ENDBRANCH  16  46
BRANCH   1  50
HETATM   50  C4  UNL     1       9.401 -10.248  20.330  1.00  0.00     0.038 C 
BRANCH  50  51
HETATM   51  C2  UNL     1       9.921 -11.498  20.954  1.00  0.00    -0.020 C 
HETATM   52  C1  UNL     1      11.178 -11.135  21.812  1.00  0.00     0.009 C 
HETATM   53  C3  UNL     1       9.003 -12.166  21.924  1.00  0.00     0.009 C 
ENDBRANCH  50  51
ENDBRANCH   1  50
BRANCH  11  54
HETATM   54  C10 UNL     1       4.392 -12.072  14.961  1.00  0.00     0.038 C 
BRANCH  54  55
HETATM   55  C11 UNL     1       3.306 -11.530  14.082  1.00  0.00    -0.020 C 
HETATM   56  C12 UNL     1       2.568 -12.703  13.472  1.00  0.00     0.009 C 
HETATM   57  C13 UNL     1       3.884 -10.721  12.917  1.00  0.00     0.009 C 
ENDBRANCH  54  55
ENDBRANCH  11  54
TORSDOF 14
ENDMDL
MODEL 4
REMARK VINA RESULT: -6.769254050     10.708     17.856
REMARK  14 active torsions:
REMARK  status: ('A' for Active; 'I' for Inactive)
REMARK    1  A    between atoms: C2_2  and  C4_4 
REMARK    2  A    between atoms: C4_4  and  C5_5 
REMARK    3  A    between atoms: C9_15  and  C10_16 
REMARK    4  A    between atoms: C10_16  and  C11_17 
REMARK    5  A    between atoms: C15_24  and  C16_25 
REMARK    6  A    between atoms: C16_25  and  C17_26 
REMARK    7  A    between atoms: C20_31  and  O4_32 
REMARK    8  A    between atoms: C21_34  and  O5_35 
REMARK    9  A    between atoms: C22_37  and  C23_38 
REMARK   10  A    between atoms: C23_38  and  C24_39 
REMARK   11  A    between atoms: C24_39  and  C25_40 
REMARK   12  A    between atoms: C25_40  and  N5_41 
REMARK   13  A    between atoms: C29_47  and  O6_48 
REMARK   14  A    between atoms: C30_50  and  C31_51 
ROOT
HETATM    1  C5  UNL     1       4.802 -14.310  17.394  1.00  0.00     0.177 C 
HETATM    2  N1  UNL     1       5.348 -15.065  18.479  1.00  0.00    -0.346 N 
ATOM      3  H1  UNL     1       4.797 -15.881  18.747  1.00  0.00     0.163 HD
HETATM    4  C6  UNL     1       6.512 -14.873  19.234  1.00  0.00     0.236 C 
HETATM    5  O1  UNL     1       7.440 -15.723  19.152  1.00  0.00    -0.272 OA
HETATM    6  C7  UNL     1       6.805 -13.732  20.172  1.00  0.00     0.225 C 
HETATM    7  N2  UNL     1       8.212 -13.511  20.239  1.00  0.00    -0.351 N 
ATOM      8  H2  UNL     1       8.743 -14.309  20.589  1.00  0.00     0.163 HD
HETATM    9  C8  UNL     1       8.991 -12.409  19.916  1.00  0.00     0.240 C 
HETATM   10  O2  UNL     1      10.075 -12.655  19.272  1.00  0.00    -0.271 OA
HETATM   11  C9  UNL     1       8.726 -10.979  20.221  1.00  0.00     0.177 C 
HETATM   12  N3  UNL     1       7.834 -10.393  19.243  1.00  0.00    -0.346 N 
ATOM     13  H3  UNL     1       6.859 -10.688  19.299  1.00  0.00     0.163 HD
HETATM   14  C14 UNL     1       8.136  -9.472  18.228  1.00  0.00     0.241 C 
HETATM   15  O3  UNL     1       7.976  -9.875  17.019  1.00  0.00    -0.271 OA
HETATM   16  C15 UNL     1       8.619  -8.080  18.388  1.00  0.00     0.176 C 
HETATM   17  N4  UNL     1       7.489  -7.290  18.799  1.00  0.00    -0.356 N 
ATOM     18  H4  UNL     1       7.304  -7.337  19.801  1.00  0.00     0.162 HD
HETATM   19  C20 UNL     1       6.602  -6.478  18.112  1.00  0.00     0.169 C 
HETATM   20  C21 UNL     1       5.548  -6.732  17.183  1.00  0.00     0.120 C 
HETATM   21  C22 UNL     1       4.453  -7.706  17.143  1.00  0.00     0.167 C 
HETATM   22  N6  UNL     1       4.744  -8.796  16.199  1.00  0.00    -0.359 N 
ATOM     23  H6  UNL     1       5.646  -8.698  15.734  1.00  0.00     0.162 HD
HETATM   24  C29 UNL     1       4.051  -9.916  15.814  1.00  0.00     0.136 C 
HETATM   25  C30 UNL     1       3.613 -11.134  16.547  1.00  0.00     0.162 C 
HETATM   26  N7  UNL     1       4.584 -11.704  17.425  1.00  0.00    -0.347 N 
ATOM     27  H7  UNL     1       4.790 -11.147  18.254  1.00  0.00     0.163 HD
HETATM   28  C34 UNL     1       5.303 -12.907  17.333  1.00  0.00     0.241 C 
HETATM   29  O7  UNL     1       6.586 -12.878  17.169  1.00  0.00    -0.271 OA
ENDROOT
BRANCH  21  30
HETATM   30  C23 UNL     1       3.174  -7.018  16.810  1.00  0.00     0.003 C 
BRANCH  30  31
HETATM   31  C24 UNL     1       2.943  -5.599  16.982  1.00  0.00    -0.001 C 
BRANCH  31  32
HETATM   32  C25 UNL     1       2.311  -4.774  15.942  1.00  0.00     0.263 C 
BRANCH  32  33
HETATM   33  N5  UNL     1       3.070  -3.517  15.729  1.00  0.00    -0.075 N 
HETATM   34  C26 UNL     1       2.104  -2.512  15.327  1.00  0.00     0.272 C 
HETATM   35  C27 UNL     1       3.710  -3.079  16.931  1.00  0.00     0.272 C 
HETATM   36  C28 UNL     1       4.032  -3.660  14.668  1.00  0.00     0.272 C 
ENDBRANCH  32  33
ENDBRANCH  31  32
ENDBRANCH  30  31
ENDBRANCH  21  30
BRANCH  20  37
HETATM   37  O5  UNL     1       5.548  -5.935  16.149  1.00  0.00    -0.359 OA
ATOM     38  H5  UNL     1       5.061  -5.131  16.281  1.00  0.00     0.217 HD
ENDBRANCH  20  37
BRANCH  19  39
HETATM   39  O4  UNL     1       6.766  -5.195  18.369  1.00  0.00    -0.344 OA
ATOM     40  H4  UNL     1       5.975  -4.684  18.240  1.00  0.00     0.219 HD
ENDBRANCH  19  39
BRANCH  24  41
HETATM   41  O6  UNL     1       3.697  -9.948  14.555  1.00  0.00    -0.348 OA
ATOM     42  H6  UNL     1       3.889 -10.759  14.101  1.00  0.00     0.219 HD
ENDBRANCH  24  41
BRANCH  25  43
HETATM   43  C31 UNL     1       2.254 -10.866  17.139  1.00  0.00     0.008 C 
HETATM   44  C32 UNL     1       1.524 -12.218  17.251  1.00  0.00     0.012 C 
HETATM   45  C33 UNL     1       2.281 -10.353  18.556  1.00  0.00     0.012 C 
ENDBRANCH  25  43
BRANCH  16  46
HETATM   46  C16 UNL     1       9.354  -7.594  17.176  1.00  0.00     0.038 C 
BRANCH  46  47
HETATM   47  C17 UNL     1      10.055  -6.298  17.339  1.00  0.00    -0.020 C 
HETATM   48  C18 UNL     1      11.567  -6.501  17.138  1.00  0.00     0.009 C 
HETATM   49  C19 UNL     1       9.664  -5.211  16.408  1.00  0.00     0.009 C 
ENDBRANCH  46  47
ENDBRANCH  16  46
BRANCH   1  50
HETATM   50  C4  UNL     1       5.071 -14.955  16.074  1.00  0.00     0.038 C 
BRANCH  50  51
HETATM   51  C2  UNL     1       5.694 -16.309  16.086  1.00  0.00    -0.020 C 
HETATM   52  C1  UNL     1       4.955 -17.200  15.032  1.00  0.00     0.009 C 
HETATM   53  C3  UNL     1       7.125 -16.367  15.667  1.00  0.00     0.009 C 
ENDBRANCH  50  51
ENDBRANCH   1  50
BRANCH  11  54
HETATM   54  C10 UNL     1       8.135 -10.778  21.589  1.00  0.00     0.038 C 
BRANCH  54  55
HETATM   55  C11 UNL     1       9.110 -11.002  22.705  1.00  0.00    -0.020 C 
HETATM   56  C12 UNL     1       8.471 -10.516  23.989  1.00  0.00     0.009 C 
HETATM   57  C13 UNL     1      10.383 -10.175  22.508  1.00  0.00     0.009 C 
ENDBRANCH  54  55
ENDBRANCH  11  54
TORSDOF 14
ENDMDL
MODEL 5
REMARK VINA RESULT: -6.479283259      8.716     16.120
REMARK  14 active torsions:
REMARK  status: ('A' for Active; 'I' for Inactive)
REMARK    1  A    between atoms: C2_2  and  C4_4 
REMARK    2  A    between atoms: C4_4  and  C5_5 
REMARK    3  A    between atoms: C9_15  and  C10_16 
REMARK    4  A    between atoms: C10_16  and  C11_17 
REMARK    5  A    between atoms: C15_24  and  C16_25 
REMARK    6  A    between atoms: C16_25  and  C17_26 
REMARK    7  A    between atoms: C20_31  and  O4_32 
REMARK    8  A    between atoms: C21_34  and  O5_35 
REMARK    9  A    between atoms: C22_37  and  C23_38 
REMARK   10  A    between atoms: C23_38  and  C24_39 
REMARK   11  A    between atoms: C24_39  and  C25_40 
REMARK   12  A    between atoms: C25_40  and  N5_41 
REMARK   13  A    between atoms: C29_47  and  O6_48 
REMARK   14  A    between atoms: C30_50  and  C31_51 
ROOT
HETATM    1  C5  UNL     1       9.058 -10.748  18.815  1.00  0.00     0.177 C 
HETATM    2  N1  UNL     1       8.746 -12.063  18.347  1.00  0.00    -0.346 N 
ATOM      3  H1  UNL     1       9.527 -12.718  18.369  1.00  0.00     0.163 HD
HETATM    4  C6  UNL     1       7.547 -12.602  17.862  1.00  0.00     0.236 C 
HETATM    5  O1  UNL     1       6.973 -13.509  18.525  1.00  0.00    -0.272 OA
HETATM    6  C7  UNL     1       6.829 -12.220  16.596  1.00  0.00     0.225 C 
HETATM    7  N2  UNL     1       5.429 -12.454  16.744  1.00  0.00    -0.351 N 
ATOM      8  H2  UNL     1       5.187 -13.428  16.925  1.00  0.00     0.163 HD
HETATM    9  C8  UNL     1       4.339 -11.598  16.687  1.00  0.00     0.240 C 
HETATM   10  O2  UNL     1       3.442 -11.768  17.592  1.00  0.00    -0.271 OA
HETATM   11  C9  UNL     1       4.078 -10.509  15.711  1.00  0.00     0.177 C 
HETATM   12  N3  UNL     1       4.768  -9.293  16.090  1.00  0.00    -0.346 N 
ATOM     13  H3  UNL     1       5.780  -9.299  15.964  1.00  0.00     0.163 HD
HETATM   14  C14 UNL     1       4.223  -8.108  16.608  1.00  0.00     0.241 C 
HETATM   15  O3  UNL     1       4.578  -7.783  17.799  1.00  0.00    -0.271 OA
HETATM   16  C15 UNL     1       3.283  -7.178  15.937  1.00  0.00     0.176 C 
HETATM   17  N4  UNL     1       4.049  -6.432  14.974  1.00  0.00    -0.356 N 
ATOM     18  H4  UNL     1       4.184  -6.927  14.092  1.00  0.00     0.162 HD
HETATM   19  C20 UNL     1       4.640  -5.180  15.000  1.00  0.00     0.169 C 
HETATM   20  C21 UNL     1       5.766  -4.633  15.686  1.00  0.00     0.120 C 
HETATM   21  C22 UNL     1       7.129  -5.115  15.928  1.00  0.00     0.167 C 
HETATM   22  N6  UNL     1       7.283  -5.610  17.304  1.00  0.00    -0.359 N 
ATOM     23  H6  UNL     1       6.430  -5.540  17.857  1.00  0.00     0.162 HD
HETATM   24  C29 UNL     1       8.338  -6.146  17.998  1.00  0.00     0.136 C 
HETATM   25  C30 UNL     1       9.128  -7.396  17.828  1.00  0.00     0.162 C 
HETATM   26  N7  UNL     1       8.364  -8.570  17.546  1.00  0.00    -0.347 N 
ATOM     27  H7  UNL     1       7.934  -8.587  16.621  1.00  0.00     0.163 HD
HETATM   28  C34 UNL     1       8.110  -9.703  18.334  1.00  0.00     0.241 C 
HETATM   29  O7  UNL     1       6.906  -9.945  18.743  1.00  0.00    -0.271 OA
ENDROOT
BRANCH  21  30
HETATM   30  C23 UNL     1       8.110  -4.037  15.619  1.00  0.00     0.003 C 
BRANCH  30  31
HETATM   31  C24 UNL     1       8.010  -3.143  14.484  1.00  0.00    -0.001 C 
BRANCH  31  32
HETATM   32  C25 UNL     1       7.979  -1.681  14.634  1.00  0.00     0.263 C 
BRANCH  32  33
HETATM   33  N5  UNL     1       6.972  -1.076  13.729  1.00  0.00    -0.075 N 
HETATM   34  C26 UNL     1       7.667  -0.071  12.948  1.00  0.00     0.272 C 
HETATM   35  C27 UNL     1       6.417  -2.046  12.836  1.00  0.00     0.272 C 
HETATM   36  C28 UNL     1       5.928  -0.420  14.473  1.00  0.00     0.272 C 
ENDBRANCH  32  33
ENDBRANCH  31  32
ENDBRANCH  30  31
ENDBRANCH  21  30
BRANCH  20  37
HETATM   37  O5  UNL     1       5.549  -3.458  16.211  1.00  0.00    -0.359 OA
ATOM     38  H5  UNL     1       6.340  -2.968  16.401  1.00  0.00     0.217 HD
ENDBRANCH  20  37
BRANCH  19  39
HETATM   39  O4  UNL     1       4.031  -4.302  14.226  1.00  0.00    -0.344 OA
ATOM     40  H4  UNL     1       3.250  -4.649  13.810  1.00  0.00     0.219 HD
ENDBRANCH  19  39
BRANCH  24  41
HETATM   41  O6  UNL     1       8.751  -5.441  19.019  1.00  0.00    -0.348 OA
ATOM     42  H6  UNL     1       8.218  -4.684  19.231  1.00  0.00     0.219 HD
ENDBRANCH  24  41
BRANCH  25  43
HETATM   43  C31 UNL     1      10.277  -7.107  16.899  1.00  0.00     0.008 C 
HETATM   44  C32 UNL     1       9.702  -6.999  15.473  1.00  0.00     0.012 C 
HETATM   45  C33 UNL     1      10.938  -5.771  17.123  1.00  0.00     0.012 C 
ENDBRANCH  25  43
BRANCH  16  46
HETATM   46  C16 UNL     1       2.494  -6.367  16.919  1.00  0.00     0.038 C 
BRANCH  46  47
HETATM   47  C17 UNL     1       2.245  -4.960  16.522  1.00  0.00    -0.020 C 
HETATM   48  C18 UNL     1       0.898  -4.864  15.785  1.00  0.00     0.009 C 
HETATM   49  C19 UNL     1       2.181  -3.963  17.619  1.00  0.00     0.009 C 
ENDBRANCH  46  47
ENDBRANCH  16  46
BRANCH   1  50
HETATM   50  C4  UNL     1       9.100 -10.683  20.307  1.00  0.00     0.038 C 
BRANCH  50  51
HETATM   51  C2  UNL     1       9.730 -11.827  21.027  1.00  0.00    -0.020 C 
HETATM   52  C1  UNL     1      11.257 -11.525  21.188  1.00  0.00     0.009 C 
HETATM   53  C3  UNL     1       9.257 -12.051  22.424  1.00  0.00     0.009 C 
ENDBRANCH  50  51
ENDBRANCH   1  50
BRANCH  11  54
HETATM   54  C10 UNL     1       4.488 -10.875  14.311  1.00  0.00     0.038 C 
BRANCH  54  55
HETATM   55  C11 UNL     1       3.343 -10.938  13.346  1.00  0.00    -0.020 C 
HETATM   56  C12 UNL     1       2.708 -12.307  13.463  1.00  0.00     0.009 C 
HETATM   57  C13 UNL     1       3.826 -10.800  11.899  1.00  0.00     0.009 C 
ENDBRANCH  54  55
ENDBRANCH  11  54
TORSDOF 14
ENDMDL
