MODEL 1
REMARK VINA RESULT: -8.536973546      0.000      0.000
REMARK  6 active torsions:
REMARK  status: ('A' for Active; 'I' for Inactive)
REMARK    1  A    between atoms: C1_4  and  N2_5 
REMARK    2  A    between atoms: C1_4  and  C9_25 
REMARK    3  A    between atoms: C3_10  and  N4_11 
REMARK    4  A    between atoms: C8_19  and  N6_20 
REMARK    5  A    between atoms: C9_25  and  O3_27 
REMARK    6  A    between atoms: O3_27  and  N8_28 
ROOT
HETATM    1  N2  UNL     1     143.673  65.465  62.310  1.00  0.00    -0.170 N 
ATOM      2  H2  UNL     1     143.040  65.997  61.713  1.00  0.00     0.186 HD
HETATM    3  C2  UNL     1     144.160  66.160  63.242  1.00  0.00     0.713 A 
HETATM    4  N3  UNL     1     143.805  67.487  63.345  1.00  0.00    -0.021 N 
ATOM      5  H3  UNL     1     143.154  67.858  62.653  1.00  0.00     0.203 HD
HETATM    6  C3  UNL     1     144.251  68.316  64.280  1.00  0.00     0.709 A 
HETATM    7  N5  UNL     1     145.121  67.785  65.188  1.00  0.00    -0.022 N 
ATOM      8  H5  UNL     1     145.492  68.384  65.926  1.00  0.00     0.203 HD
HETATM    9  C8  UNL     1     145.502  66.511  65.142  1.00  0.00     0.705 A 
HETATM   10  N7  UNL     1     145.013  65.697  64.157  1.00  0.00    -0.021 N 
ATOM     11  H7  UNL     1     145.306  64.721  64.122  1.00  0.00     0.203 HD
ENDROOT
BRANCH   1  12
HETATM   12  C1  UNL     1     143.798  64.151  61.913  1.00  0.00     0.192 C 
HETATM   13  N1  UNL     1     143.783  63.815  60.659  1.00  0.00    -0.380 N 
ATOM     14  H12 UNL     1     143.682  64.584  59.995  1.00  0.00     0.158 HD
ATOM     15  H11 UNL     1     143.876  62.843  60.365  1.00  0.00     0.158 HD
BRANCH  12  16
HETATM   16  C9  UNL     1     143.942  63.048  62.866  1.00  0.00     0.348 C 
HETATM   17  O2  UNL     1     143.294  63.028  63.932  1.00  0.00    -0.254 OA
BRANCH  16  18
HETATM   18  O3  UNL     1     144.807  62.013  62.581  1.00  0.00    -0.200 OA
BRANCH  18  19
HETATM   19  N8  UNL     1     144.555  60.692  62.889  1.00  0.00    -0.302 N 
ATOM     20  H82 UNL     1     144.227  60.094  62.130  1.00  0.00     0.184 HD
ATOM     21  H81 UNL     1     144.678  60.289  63.818  1.00  0.00     0.184 HD
ENDBRANCH  18  19
ENDBRANCH  16  18
ENDBRANCH  12  16
ENDBRANCH   1  12
BRANCH   6  22
HETATM   22  N4  UNL     1     143.865  69.677  64.360  1.00  0.00    -0.213 N 
HETATM   23  C4  UNL     1     143.098  70.268  63.273  1.00  0.00     0.167 C 
HETATM   24  C5  UNL     1     143.376  71.756  63.236  1.00  0.00     0.188 C 
HETATM   25  O1  UNL     1     144.618  72.129  63.651  1.00  0.00    -0.388 OA
HETATM   26  C6  UNL     1     145.059  71.652  64.856  1.00  0.00     0.188 C 
HETATM   27  C7  UNL     1     144.163  70.578  65.444  1.00  0.00     0.167 C 
ENDBRANCH   6  22
BRANCH   9  28
HETATM   28  N6  UNL     1     146.312  66.021  65.986  1.00  0.00    -0.234 N 
ATOM     29  H62 UNL     1     146.857  66.659  66.567  1.00  0.00     0.174 HD
ATOM     30  H61 UNL     1     146.431  65.014  66.099  1.00  0.00     0.174 HD
ENDBRANCH   9  28
TORSDOF 6
ENDMDL
MODEL 2
REMARK VINA RESULT: -8.220889108      1.473      7.034
REMARK  6 active torsions:
REMARK  status: ('A' for Active; 'I' for Inactive)
REMARK    1  A    between atoms: C1_4  and  N2_5 
REMARK    2  A    between atoms: C1_4  and  C9_25 
REMARK    3  A    between atoms: C3_10  and  N4_11 
REMARK    4  A    between atoms: C8_19  and  N6_20 
REMARK    5  A    between atoms: C9_25  and  O3_27 
REMARK    6  A    between atoms: O3_27  and  N8_28 
ROOT
HETATM    1  N2  UNL     1     143.710  69.297  64.068  1.00  0.00    -0.170 N 
ATOM      2  H2  UNL     1     143.070  69.324  63.274  1.00  0.00     0.186 HD
HETATM    3  C2  UNL     1     144.151  68.139  64.297  1.00  0.00     0.713 A 
HETATM    4  N3  UNL     1     143.742  67.096  63.496  1.00  0.00    -0.021 N 
ATOM      5  H3  UNL     1     143.091  67.306  62.740  1.00  0.00     0.203 HD
HETATM    6  C3  UNL     1     144.136  65.837  63.639  1.00  0.00     0.709 A 
HETATM    7  N5  UNL     1     145.007  65.592  64.662  1.00  0.00    -0.022 N 
ATOM      8  H5  UNL     1     145.338  64.639  64.812  1.00  0.00     0.203 HD
HETATM    9  C8  UNL     1     145.439  66.558  65.469  1.00  0.00     0.705 A 
HETATM   10  N7  UNL     1     145.002  67.840  65.279  1.00  0.00    -0.021 N 
ATOM     11  H7  UNL     1     145.333  68.579  65.899  1.00  0.00     0.203 HD
ENDROOT
BRANCH   1  12
HETATM   12  C1  UNL     1     143.894  70.536  64.643  1.00  0.00     0.192 C 
HETATM   13  N1  UNL     1     143.859  70.700  65.931  1.00  0.00    -0.380 N 
ATOM     14  H12 UNL     1     143.698  69.856  66.482  1.00  0.00     0.158 HD
ATOM     15  H11 UNL     1     143.996  71.617  66.357  1.00  0.00     0.158 HD
BRANCH  12  16
HETATM   16  C9  UNL     1     144.126  71.748  63.854  1.00  0.00     0.348 C 
HETATM   17  O2  UNL     1     145.221  72.344  63.893  1.00  0.00    -0.254 OA
BRANCH  16  18
HETATM   18  O3  UNL     1     143.118  72.238  63.051  1.00  0.00    -0.200 OA
BRANCH  18  19
HETATM   19  N8  UNL     1     142.776  73.572  62.972  1.00  0.00    -0.302 N 
ATOM     20  H82 UNL     1     143.098  74.085  62.151  1.00  0.00     0.184 HD
ATOM     21  H81 UNL     1     142.228  74.064  63.678  1.00  0.00     0.184 HD
ENDBRANCH  18  19
ENDBRANCH  16  18
ENDBRANCH  12  16
ENDBRANCH   1  12
BRANCH   6  22
HETATM   22  N4  UNL     1     143.698  64.785  62.797  1.00  0.00    -0.213 N 
HETATM   23  C4  UNL     1     143.391  63.486  63.377  1.00  0.00     0.167 C 
HETATM   24  C5  UNL     1     143.604  62.420  62.322  1.00  0.00     0.188 C 
HETATM   25  O1  UNL     1     144.572  62.693  61.404  1.00  0.00    -0.388 OA
HETATM   26  C6  UNL     1     144.528  63.905  60.770  1.00  0.00     0.188 C 
HETATM   27  C7  UNL     1     143.515  64.864  61.370  1.00  0.00     0.167 C 
ENDBRANCH   6  22
BRANCH   9  28
HETATM   28  N6  UNL     1     146.247  66.327  66.420  1.00  0.00    -0.234 N 
ATOM     29  H62 UNL     1     146.289  65.384  66.807  1.00  0.00     0.174 HD
ATOM     30  H61 UNL     1     146.852  67.054  66.802  1.00  0.00     0.174 HD
ENDBRANCH   9  28
TORSDOF 6
ENDMDL
MODEL 3
REMARK VINA RESULT: -8.028265708      1.346      1.594
REMARK  6 active torsions:
REMARK  status: ('A' for Active; 'I' for Inactive)
REMARK    1  A    between atoms: C1_4  and  N2_5 
REMARK    2  A    between atoms: C1_4  and  C9_25 
REMARK    3  A    between atoms: C3_10  and  N4_11 
REMARK    4  A    between atoms: C8_19  and  N6_20 
REMARK    5  A    between atoms: C9_25  and  O3_27 
REMARK    6  A    between atoms: O3_27  and  N8_28 
ROOT
HETATM    1  N2  UNL     1     143.303  66.039  62.867  1.00  0.00    -0.170 N 
ATOM      2  H2  UNL     1     142.683  66.642  62.328  1.00  0.00     0.186 HD
HETATM    3  C2  UNL     1     143.947  66.669  63.749  1.00  0.00     0.713 A 
HETATM    4  N3  UNL     1     143.755  68.027  63.877  1.00  0.00    -0.021 N 
ATOM      5  H3  UNL     1     143.090  68.473  63.246  1.00  0.00     0.203 HD
HETATM    6  C3  UNL     1     144.374  68.795  64.765  1.00  0.00     0.709 A 
HETATM    7  N5  UNL     1     145.257  68.163  65.593  1.00  0.00    -0.022 N 
ATOM      8  H5  UNL     1     145.758  68.712  66.292  1.00  0.00     0.203 HD
HETATM    9  C8  UNL     1     145.486  66.855  65.518  1.00  0.00     0.705 A 
HETATM   10  N7  UNL     1     144.822  66.107  64.585  1.00  0.00    -0.021 N 
ATOM     11  H7  UNL     1     144.998  65.105  64.528  1.00  0.00     0.203 HD
ENDROOT
BRANCH   1  12
HETATM   12  C1  UNL     1     143.243  64.721  62.466  1.00  0.00     0.192 C 
HETATM   13  N1  UNL     1     142.596  63.830  63.154  1.00  0.00    -0.380 N 
ATOM     14  H12 UNL     1     142.132  64.170  63.997  1.00  0.00     0.158 HD
ATOM     15  H11 UNL     1     142.552  62.855  62.857  1.00  0.00     0.158 HD
BRANCH  12  16
HETATM   16  C9  UNL     1     143.908  64.233  61.257  1.00  0.00     0.348 C 
HETATM   17  O2  UNL     1     144.120  64.989  60.286  1.00  0.00    -0.254 OA
BRANCH  16  18
HETATM   18  O3  UNL     1     144.311  62.916  61.187  1.00  0.00    -0.200 OA
BRANCH  18  19
HETATM   19  N8  UNL     1     143.692  61.961  60.407  1.00  0.00    -0.302 N 
ATOM     20  H82 UNL     1     142.694  61.818  60.557  1.00  0.00     0.184 HD
ATOM     21  H81 UNL     1     144.173  61.402  59.702  1.00  0.00     0.184 HD
ENDBRANCH  18  19
ENDBRANCH  16  18
ENDBRANCH  12  16
ENDBRANCH   1  12
BRANCH   6  22
HETATM   22  N4  UNL     1     144.153  70.190  64.873  1.00  0.00    -0.213 N 
HETATM   23  C4  UNL     1     143.613  70.919  63.736  1.00  0.00     0.167 C 
HETATM   24  C5  UNL     1     144.076  72.359  63.817  1.00  0.00     0.188 C 
HETATM   25  O1  UNL     1     145.290  72.550  64.404  1.00  0.00    -0.388 OA
HETATM   26  C6  UNL     1     145.508  71.971  65.625  1.00  0.00     0.188 C 
HETATM   27  C7  UNL     1     144.416  71.000  66.036  1.00  0.00     0.167 C 
ENDBRANCH   6  22
BRANCH   9  28
HETATM   28  N6  UNL     1     146.309  66.271  66.288  1.00  0.00    -0.234 N 
ATOM     29  H62 UNL     1     147.281  66.188  65.990  1.00  0.00     0.174 HD
ATOM     30  H61 UNL     1     146.025  65.888  67.190  1.00  0.00     0.174 HD
ENDBRANCH   9  28
TORSDOF 6
ENDMDL
MODEL 4
REMARK VINA RESULT: -7.996780241      1.458      6.847
REMARK  6 active torsions:
REMARK  status: ('A' for Active; 'I' for Inactive)
REMARK    1  A    between atoms: C1_4  and  N2_5 
REMARK    2  A    between atoms: C1_4  and  C9_25 
REMARK    3  A    between atoms: C3_10  and  N4_11 
REMARK    4  A    between atoms: C8_19  and  N6_20 
REMARK    5  A    between atoms: C9_25  and  O3_27 
REMARK    6  A    between atoms: O3_27  and  N8_28 
ROOT
HETATM    1  N2  UNL     1     143.446  69.380  63.428  1.00  0.00    -0.170 N 
ATOM      2  H2  UNL     1     142.850  69.254  62.610  1.00  0.00     0.186 HD
HETATM    3  C2  UNL     1     143.909  68.292  63.864  1.00  0.00     0.713 A 
HETATM    4  N3  UNL     1     143.579  67.119  63.223  1.00  0.00    -0.021 N 
ATOM      5  H3  UNL     1     142.964  67.179  62.412  1.00  0.00     0.203 HD
HETATM    6  C3  UNL     1     144.004  65.916  63.587  1.00  0.00     0.709 A 
HETATM    7  N5  UNL     1     144.825  65.873  64.678  1.00  0.00    -0.022 N 
ATOM      8  H5  UNL     1     145.177  64.970  64.997  1.00  0.00     0.203 HD
HETATM    9  C8  UNL     1     145.180  66.972  65.339  1.00  0.00     0.705 A 
HETATM   10  N7  UNL     1     144.714  68.188  64.923  1.00  0.00    -0.021 N 
ATOM     11  H7  UNL     1     144.987  69.030  65.430  1.00  0.00     0.203 HD
ENDROOT
BRANCH   1  12
HETATM   12  C1  UNL     1     143.559  70.702  63.804  1.00  0.00     0.192 C 
HETATM   13  N1  UNL     1     142.958  71.649  63.149  1.00  0.00    -0.380 N 
ATOM     14  H12 UNL     1     142.395  71.349  62.352  1.00  0.00     0.158 HD
ATOM     15  H11 UNL     1     143.042  72.627  63.427  1.00  0.00     0.158 HD
BRANCH  12  16
HETATM   16  C9  UNL     1     144.367  71.132  64.947  1.00  0.00     0.348 C 
HETATM   17  O2  UNL     1     143.973  70.957  66.119  1.00  0.00    -0.254 OA
BRANCH  16  18
HETATM   18  O3  UNL     1     145.585  71.739  64.727  1.00  0.00    -0.200 OA
BRANCH  18  19
HETATM   19  N8  UNL     1     145.731  73.039  64.290  1.00  0.00    -0.302 N 
ATOM     20  H82 UNL     1     145.972  73.173  63.308  1.00  0.00     0.184 HD
ATOM     21  H81 UNL     1     145.613  73.858  64.887  1.00  0.00     0.184 HD
ENDBRANCH  18  19
ENDBRANCH  16  18
ENDBRANCH  12  16
ENDBRANCH   1  12
BRANCH   6  22
HETATM   22  N4  UNL     1     143.646  64.726  62.906  1.00  0.00    -0.213 N 
HETATM   23  C4  UNL     1     143.472  63.495  63.663  1.00  0.00     0.167 C 
HETATM   24  C5  UNL     1     143.759  62.320  62.751  1.00  0.00     0.188 C 
HETATM   25  O1  UNL     1     144.679  62.550  61.774  1.00  0.00    -0.388 OA
HETATM   26  C6  UNL     1     144.511  63.658  60.987  1.00  0.00     0.188 C 
HETATM   27  C7  UNL     1     143.428  64.596  61.488  1.00  0.00     0.167 C 
ENDBRANCH   6  22
BRANCH   9  28
HETATM   28  N6  UNL     1     145.942  66.929  66.353  1.00  0.00    -0.234 N 
ATOM     29  H62 UNL     1     146.065  67.778  66.907  1.00  0.00     0.174 HD
ATOM     30  H61 UNL     1     146.429  66.076  66.627  1.00  0.00     0.174 HD
ENDBRANCH   9  28
TORSDOF 6
ENDMDL
MODEL 5
REMARK VINA RESULT: -7.396280090      4.559      6.591
REMARK  6 active torsions:
REMARK  status: ('A' for Active; 'I' for Inactive)
REMARK    1  A    between atoms: C1_4  and  N2_5 
REMARK    2  A    between atoms: C1_4  and  C9_25 
REMARK    3  A    between atoms: C3_10  and  N4_11 
REMARK    4  A    between atoms: C8_19  and  N6_20 
REMARK    5  A    between atoms: C9_25  and  O3_27 
REMARK    6  A    between atoms: O3_27  and  N8_28 
ROOT
HETATM    1  N2  UNL     1     146.402  69.549  66.197  1.00  0.00    -0.170 N 
ATOM      2  H2  UNL     1     147.127  69.184  66.814  1.00  0.00     0.186 HD
HETATM    3  C2  UNL     1     146.475  70.798  66.047  1.00  0.00     0.713 A 
HETATM    4  N3  UNL     1     147.469  71.494  66.698  1.00  0.00    -0.021 N 
ATOM      5  H3  UNL     1     148.114  70.963  67.283  1.00  0.00     0.203 HD
HETATM    6  C3  UNL     1     147.646  72.807  66.619  1.00  0.00     0.709 A 
HETATM    7  N5  UNL     1     146.764  73.485  65.827  1.00  0.00    -0.022 N 
ATOM      8  H5  UNL     1     146.859  74.497  65.735  1.00  0.00     0.203 HD
HETATM    9  C8  UNL     1     145.783  72.869  65.173  1.00  0.00     0.705 A 
HETATM   10  N7  UNL     1     145.643  71.514  65.288  1.00  0.00    -0.021 N 
ATOM     11  H7  UNL     1     144.891  71.043  64.786  1.00  0.00     0.203 HD
ENDROOT
BRANCH   1  12
HETATM   12  C1  UNL     1     145.568  68.562  65.717  1.00  0.00     0.192 C 
HETATM   13  N1  UNL     1     144.309  68.787  65.488  1.00  0.00    -0.380 N 
ATOM     14  H12 UNL     1     143.987  69.737  65.677  1.00  0.00     0.158 HD
ATOM     15  H11 UNL     1     143.692  68.056  65.133  1.00  0.00     0.158 HD
BRANCH  12  16
HETATM   16  C9  UNL     1     146.030  67.199  65.446  1.00  0.00     0.348 C 
HETATM   17  O2  UNL     1     147.202  66.976  65.077  1.00  0.00    -0.254 OA
BRANCH  16  18
HETATM   18  O3  UNL     1     145.159  66.142  65.603  1.00  0.00    -0.200 OA
BRANCH  18  19
HETATM   19  N8  UNL     1     144.615  65.429  64.554  1.00  0.00    -0.302 N 
ATOM     20  H82 UNL     1     145.147  65.409  63.684  1.00  0.00     0.184 HD
ATOM     21  H81 UNL     1     143.727  64.930  64.603  1.00  0.00     0.184 HD
ENDBRANCH  18  19
ENDBRANCH  16  18
ENDBRANCH  12  16
ENDBRANCH   1  12
BRANCH   6  22
HETATM   22  N4  UNL     1     148.680  73.495  67.301  1.00  0.00    -0.213 N 
HETATM   23  C4  UNL     1     149.675  74.231  66.535  1.00  0.00     0.167 C 
HETATM   24  C5  UNL     1     150.958  74.292  67.338  1.00  0.00     0.188 C 
HETATM   25  O1  UNL     1     151.185  73.228  68.158  1.00  0.00    -0.388 OA
HETATM   26  C6  UNL     1     150.180  72.849  69.005  1.00  0.00     0.188 C 
HETATM   27  C7  UNL     1     148.861  73.548  68.729  1.00  0.00     0.167 C 
ENDBRANCH   6  22
BRANCH   9  28
HETATM   28  N6  UNL     1     144.963  73.502  64.439  1.00  0.00    -0.234 N 
ATOM     29  H62 UNL     1     144.016  73.657  64.787  1.00  0.00     0.174 HD
ATOM     30  H61 UNL     1     145.226  73.859  63.520  1.00  0.00     0.174 HD
ENDBRANCH   9  28
TORSDOF 6
ENDMDL
