MODEL 1
REMARK VINA RESULT: -8.039697936      0.000      0.000
REMARK  7 active torsions:
REMARK  status: ('A' for Active; 'I' for Inactive)
REMARK    1  A    between atoms: C4_4  and  N1_5 
REMARK    2  A    between atoms: C5_8  and  C6_9 
REMARK    3  A    between atoms: C10_13  and  O1_14 
REMARK    4  A    between atoms: O1_14  and  C11_15 
REMARK    5  A    between atoms: C11_15  and  C12_16 
REMARK    6  A    between atoms: C14_25  and  N5_26 
REMARK       I    between atoms: N5_26  and  C15_28 
REMARK       I    between atoms: C15_28  and  N6_30 
REMARK    7  A    between atoms: N6_30  and  C16_32 
ROOT
HETATM    1  N1  UNL     1      35.011   9.626  91.715  1.00  0.00    -0.239 N 
HETATM    2  N2  UNL     1      34.442   9.994  90.600  1.00  0.00    -0.289 N 
ATOM      3  H2  UNL     1      34.932  10.485  89.852  1.00  0.00     0.188 HD
HETATM    4  C5  UNL     1      33.148   9.659  90.541  1.00  0.00     0.094 A 
HETATM    5  C14 UNL     1      32.883   8.997  91.774  1.00  0.00     0.124 A 
HETATM    6  C19 UNL     1      34.065   8.995  92.480  1.00  0.00     0.238 A 
HETATM    7  F3  UNL     1      34.307   8.464  93.708  1.00  0.00    -0.182 F 
ENDROOT
BRANCH   4   8
HETATM    8  C6  UNL     1      32.193   9.936  89.473  1.00  0.00     0.039 A 
HETATM    9  C7  UNL     1      31.481  11.114  89.397  1.00  0.00     0.028 A 
HETATM   10  C8  UNL     1      30.559  11.351  88.368  1.00  0.00    -0.010 A 
HETATM   11  C9  UNL     1      29.808  12.640  88.325  1.00  0.00     0.052 C 
HETATM   12  C10 UNL     1      30.366  10.372  87.412  1.00  0.00     0.149 A 
HETATM   13  N3  UNL     1      31.057   9.233  87.492  1.00  0.00    -0.322 N 
HETATM   14  C13 UNL     1      31.944   9.013  88.486  1.00  0.00     0.113 A 
ATOM     15  H3  UNL     1      30.911   8.511  86.785  1.00  0.00     0.169 HD
HETATM   16  N4  UNL     1      32.556   7.884  88.456  1.00  0.00    -0.385 N 
ATOM     17  H42 UNL     1      33.226   7.718  89.207  1.00  0.00     0.157 HD
ATOM     18  H41 UNL     1      32.371   7.199  87.724  1.00  0.00     0.157 HD
BRANCH  12  19
HETATM   19  O1  UNL     1      29.451  10.624  86.399  1.00  0.00    -0.330 OA
BRANCH  19  20
HETATM   20  C11 UNL     1      28.518   9.642  86.072  1.00  0.00     0.248 C 
BRANCH  20  21
HETATM   21  C12 UNL     1      27.088  10.154  86.165  1.00  0.00     0.377 C 
HETATM   22  F1  UNL     1      26.267   9.047  86.225  1.00  0.00    -0.212 F 
HETATM   23  F2  UNL     1      26.941  10.849  87.339  1.00  0.00    -0.212 F 
ENDBRANCH  20  21
ENDBRANCH  19  20
ENDBRANCH  12  19
ENDBRANCH   4   8
BRANCH   5  24
HETATM   24  N5  UNL     1      31.613   8.475  92.053  1.00  0.00    -0.303 N 
HETATM   25  C15 UNL     1      31.060   7.276  91.596  1.00  0.00     0.326 C 
HETATM   26  O2  UNL     1      31.680   6.502  90.864  1.00  0.00    -0.247 OA
HETATM   27  N6  UNL     1      29.741   6.887  91.956  1.00  0.00    -0.293 N 
ATOM     28  H6  UNL     1      29.211   7.522  92.553  1.00  0.00     0.172 HD
ATOM     29  H5  UNL     1      31.020   9.038  92.663  1.00  0.00     0.171 HD
BRANCH  27  30
HETATM   30  C16 UNL     1      29.106   5.691  91.554  1.00  0.00     0.129 A 
HETATM   31  C17 UNL     1      28.053   5.016  92.115  1.00  0.00     0.125 A 
HETATM   32  C18 UNL     1      27.788   3.880  91.353  1.00  0.00     0.263 A 
HETATM   33  O3  UNL     1      26.889   3.051  91.596  1.00  0.00    -0.267 OA
HETATM   34  N7  UNL     1      28.670   3.882  90.358  1.00  0.00    -0.265 N 
HETATM   35  N8  UNL     1      29.454   4.938  90.460  1.00  0.00    -0.282 N 
ATOM     36  H7  UNL     1      28.732   3.173  89.627  1.00  0.00     0.190 HD
ATOM     37  H8  UNL     1      30.211   5.165  89.816  1.00  0.00     0.188 HD
ENDBRANCH  27  30
ENDBRANCH   5  24
BRANCH   1  38
HETATM   38  C4  UNL     1      36.353   9.802  92.145  1.00  0.00     0.121 C 
HETATM   39  C2  UNL     1      36.655  10.826  92.914  1.00  0.00    -0.070 C 
HETATM   40  C1  UNL     1      38.079  10.979  93.346  1.00  0.00     0.044 C 
HETATM   41  C3  UNL     1      35.609  11.773  93.320  1.00  0.00     0.044 C 
ENDBRANCH   1  38
TORSDOF 7
ENDMDL
MODEL 2
REMARK VINA RESULT: -7.574791809      1.607      1.992
REMARK  7 active torsions:
REMARK  status: ('A' for Active; 'I' for Inactive)
REMARK    1  A    between atoms: C4_4  and  N1_5 
REMARK    2  A    between atoms: C5_8  and  C6_9 
REMARK    3  A    between atoms: C10_13  and  O1_14 
REMARK    4  A    between atoms: O1_14  and  C11_15 
REMARK    5  A    between atoms: C11_15  and  C12_16 
REMARK    6  A    between atoms: C14_25  and  N5_26 
REMARK       I    between atoms: N5_26  and  C15_28 
REMARK       I    between atoms: C15_28  and  N6_30 
REMARK    7  A    between atoms: N6_30  and  C16_32 
ROOT
HETATM    1  N1  UNL     1      35.297   9.499  91.705  1.00  0.00    -0.239 N 
HETATM    2  N2  UNL     1      34.655   9.978  90.676  1.00  0.00    -0.289 N 
ATOM      3  H2  UNL     1      35.035  10.697  90.059  1.00  0.00     0.188 HD
HETATM    4  C5  UNL     1      33.446   9.428  90.513  1.00  0.00     0.094 A 
HETATM    5  C14 UNL     1      33.325   8.487  91.576  1.00  0.00     0.124 A 
HETATM    6  C19 UNL     1      34.494   8.558  92.297  1.00  0.00     0.238 A 
HETATM    7  F3  UNL     1      34.847   7.837  93.395  1.00  0.00    -0.182 F 
ENDROOT
BRANCH   4   8
HETATM    8  C6  UNL     1      32.443   9.739  89.500  1.00  0.00     0.039 A 
HETATM    9  C7  UNL     1      31.730  10.919  89.494  1.00  0.00     0.028 A 
HETATM   10  C8  UNL     1      30.762  11.188  88.517  1.00  0.00    -0.010 A 
HETATM   11  C9  UNL     1      30.012  12.479  88.550  1.00  0.00     0.052 C 
HETATM   12  C10 UNL     1      30.523  10.240  87.541  1.00  0.00     0.149 A 
HETATM   13  N3  UNL     1      31.215   9.099  87.552  1.00  0.00    -0.322 N 
HETATM   14  C13 UNL     1      32.147   8.848  88.497  1.00  0.00     0.113 A 
ATOM     15  H3  UNL     1      31.035   8.400  86.831  1.00  0.00     0.169 HD
HETATM   16  N4  UNL     1      32.755   7.720  88.403  1.00  0.00    -0.385 N 
ATOM     17  H42 UNL     1      33.459   7.531  89.117  1.00  0.00     0.157 HD
ATOM     18  H41 UNL     1      32.536   7.058  87.659  1.00  0.00     0.157 HD
BRANCH  12  19
HETATM   19  O1  UNL     1      29.563  10.524  86.580  1.00  0.00    -0.330 OA
BRANCH  19  20
HETATM   20  C11 UNL     1      28.608   9.557  86.272  1.00  0.00     0.248 C 
BRANCH  20  21
HETATM   21  C12 UNL     1      27.196  10.125  86.258  1.00  0.00     0.377 C 
HETATM   22  F1  UNL     1      26.330   9.052  86.271  1.00  0.00    -0.212 F 
HETATM   23  F2  UNL     1      26.995  10.841  87.412  1.00  0.00    -0.212 F 
ENDBRANCH  20  21
ENDBRANCH  19  20
ENDBRANCH  12  19
ENDBRANCH   4   8
BRANCH   5  24
HETATM   24  N5  UNL     1      32.178   7.691  91.706  1.00  0.00    -0.303 N 
HETATM   25  C15 UNL     1      30.992   8.001  92.375  1.00  0.00     0.326 C 
HETATM   26  O2  UNL     1      30.819   9.080  92.945  1.00  0.00    -0.247 OA
HETATM   27  N6  UNL     1      29.915   7.075  92.434  1.00  0.00    -0.293 N 
ATOM     28  H6  UNL     1      30.046   6.173  91.976  1.00  0.00     0.172 HD
ATOM     29  H5  UNL     1      32.215   6.776  91.258  1.00  0.00     0.171 HD
BRANCH  27  30
HETATM   30  C16 UNL     1      28.677   7.306  93.074  1.00  0.00     0.129 A 
HETATM   31  C17 UNL     1      27.428   6.818  92.787  1.00  0.00     0.125 A 
HETATM   32  C18 UNL     1      26.519   7.337  93.708  1.00  0.00     0.263 A 
HETATM   33  O3  UNL     1      25.297   7.089  93.722  1.00  0.00    -0.267 OA
HETATM   34  N7  UNL     1      27.218   8.119  94.525  1.00  0.00    -0.265 N 
HETATM   35  N8  UNL     1      28.488   8.113  94.168  1.00  0.00    -0.282 N 
ATOM     36  H7  UNL     1      26.831   8.644  95.309  1.00  0.00     0.190 HD
ATOM     37  H8  UNL     1      29.227   8.636  94.638  1.00  0.00     0.188 HD
ENDBRANCH  27  30
ENDBRANCH   5  24
BRANCH   1  38
HETATM   38  C4  UNL     1      36.586   9.828  92.199  1.00  0.00     0.121 C 
HETATM   39  C2  UNL     1      36.727  10.864  92.998  1.00  0.00    -0.070 C 
HETATM   40  C1  UNL     1      38.101  11.180  93.498  1.00  0.00     0.044 C 
HETATM   41  C3  UNL     1      35.555  11.666  93.372  1.00  0.00     0.044 C 
ENDBRANCH   1  38
TORSDOF 7
ENDMDL
MODEL 3
REMARK VINA RESULT: -7.353388513      2.556      5.877
REMARK  7 active torsions:
REMARK  status: ('A' for Active; 'I' for Inactive)
REMARK    1  A    between atoms: C4_4  and  N1_5 
REMARK    2  A    between atoms: C5_8  and  C6_9 
REMARK    3  A    between atoms: C10_13  and  O1_14 
REMARK    4  A    between atoms: O1_14  and  C11_15 
REMARK    5  A    between atoms: C11_15  and  C12_16 
REMARK    6  A    between atoms: C14_25  and  N5_26 
REMARK       I    between atoms: N5_26  and  C15_28 
REMARK       I    between atoms: C15_28  and  N6_30 
REMARK    7  A    between atoms: N6_30  and  C16_32 
ROOT
HETATM    1  N1  UNL     1      34.545   9.094  91.362  1.00  0.00    -0.239 N 
HETATM    2  N2  UNL     1      33.729   8.258  91.943  1.00  0.00    -0.289 N 
ATOM      3  H2  UNL     1      33.842   7.936  92.904  1.00  0.00     0.188 HD
HETATM    4  C5  UNL     1      32.730   7.866  91.144  1.00  0.00     0.094 A 
HETATM    5  C14 UNL     1      32.954   8.548  89.914  1.00  0.00     0.124 A 
HETATM    6  C19 UNL     1      34.091   9.303  90.086  1.00  0.00     0.238 A 
HETATM    7  F3  UNL     1      34.689  10.133  89.190  1.00  0.00    -0.182 F 
ENDROOT
BRANCH   4   8
HETATM    8  C6  UNL     1      31.659   6.919  91.439  1.00  0.00     0.039 A 
HETATM    9  C7  UNL     1      30.493   7.287  92.076  1.00  0.00     0.028 A 
HETATM   10  C8  UNL     1      29.485   6.355  92.359  1.00  0.00    -0.010 A 
HETATM   11  C9  UNL     1      28.239   6.796  93.053  1.00  0.00     0.052 C 
HETATM   12  C10 UNL     1      29.676   5.038  91.988  1.00  0.00     0.149 A 
HETATM   13  N3  UNL     1      30.807   4.687  91.373  1.00  0.00    -0.322 N 
HETATM   14  C13 UNL     1      31.773   5.592  91.103  1.00  0.00     0.113 A 
ATOM     15  H3  UNL     1      30.946   3.713  91.101  1.00  0.00     0.169 HD
HETATM   16  N4  UNL     1      32.814   5.141  90.501  1.00  0.00    -0.385 N 
ATOM     17  H42 UNL     1      33.544   5.824  90.296  1.00  0.00     0.157 HD
ATOM     18  H41 UNL     1      32.900   4.156  90.251  1.00  0.00     0.157 HD
BRANCH  12  19
HETATM   19  O1  UNL     1      28.667   4.129  92.274  1.00  0.00    -0.330 OA
BRANCH  19  20
HETATM   20  C11 UNL     1      27.900   3.619  91.228  1.00  0.00     0.248 C 
BRANCH  20  21
HETATM   21  C12 UNL     1      26.435   4.014  91.342  1.00  0.00     0.377 C 
HETATM   22  F1  UNL     1      26.147   4.111  92.688  1.00  0.00    -0.212 F 
HETATM   23  F2  UNL     1      26.267   5.257  90.786  1.00  0.00    -0.212 F 
ENDBRANCH  20  21
ENDBRANCH  19  20
ENDBRANCH  12  19
ENDBRANCH   4   8
BRANCH   5  24
HETATM   24  N5  UNL     1      32.071   8.397  88.836  1.00  0.00    -0.303 N 
HETATM   25  C15 UNL     1      31.251   9.369  88.256  1.00  0.00     0.326 C 
HETATM   26  O2  UNL     1      31.231  10.536  88.654  1.00  0.00    -0.247 OA
HETATM   27  N6  UNL     1      30.391   9.056  87.169  1.00  0.00    -0.293 N 
ATOM     28  H6  UNL     1      30.388   8.092  86.835  1.00  0.00     0.172 HD
ATOM     29  H5  UNL     1      32.020   7.465  88.425  1.00  0.00     0.171 HD
BRANCH  27  30
HETATM   30  C16 UNL     1      29.540   9.975  86.514  1.00  0.00     0.129 A 
HETATM   31  C17 UNL     1      28.355   9.768  85.857  1.00  0.00     0.125 A 
HETATM   32  C18 UNL     1      27.889  10.989  85.373  1.00  0.00     0.263 A 
HETATM   33  O3  UNL     1      26.833  11.145  84.728  1.00  0.00    -0.267 OA
HETATM   34  N7  UNL     1      28.784  11.902  85.737  1.00  0.00    -0.265 N 
HETATM   35  N8  UNL     1      29.762  11.325  86.408  1.00  0.00    -0.282 N 
ATOM     36  H7  UNL     1      28.724  12.899  85.528  1.00  0.00     0.190 HD
ATOM     37  H8  UNL     1      30.569  11.813  86.795  1.00  0.00     0.188 HD
ENDBRANCH  27  30
ENDBRANCH   5  24
BRANCH   1  38
HETATM   38  C4  UNL     1      35.710   9.722  91.875  1.00  0.00     0.121 C 
HETATM   39  C2  UNL     1      35.587  10.786  92.639  1.00  0.00    -0.070 C 
HETATM   40  C1  UNL     1      36.838  11.420  93.160  1.00  0.00     0.044 C 
HETATM   41  C3  UNL     1      34.254  11.314  92.953  1.00  0.00     0.044 C 
ENDBRANCH   1  38
TORSDOF 7
ENDMDL
MODEL 4
REMARK VINA RESULT: -7.234676886      3.397      4.833
REMARK  7 active torsions:
REMARK  status: ('A' for Active; 'I' for Inactive)
REMARK    1  A    between atoms: C4_4  and  N1_5 
REMARK    2  A    between atoms: C5_8  and  C6_9 
REMARK    3  A    between atoms: C10_13  and  O1_14 
REMARK    4  A    between atoms: O1_14  and  C11_15 
REMARK    5  A    between atoms: C11_15  and  C12_16 
REMARK    6  A    between atoms: C14_25  and  N5_26 
REMARK       I    between atoms: N5_26  and  C15_28 
REMARK       I    between atoms: C15_28  and  N6_30 
REMARK    7  A    between atoms: N6_30  and  C16_32 
ROOT
HETATM    1  N1  UNL     1      34.626   9.969  92.031  1.00  0.00    -0.239 N 
HETATM    2  N2  UNL     1      34.143   9.948  90.819  1.00  0.00    -0.289 N 
ATOM      3  H2  UNL     1      34.710   9.767  89.989  1.00  0.00     0.188 HD
HETATM    4  C5  UNL     1      32.828  10.188  90.778  1.00  0.00     0.094 A 
HETATM    5  C14 UNL     1      32.447  10.379  92.137  1.00  0.00     0.124 A 
HETATM    6  C19 UNL     1      33.591  10.236  92.888  1.00  0.00     0.238 A 
HETATM    7  F3  UNL     1      33.722  10.319  94.239  1.00  0.00    -0.182 F 
ENDROOT
BRANCH   4   8
HETATM    8  C6  UNL     1      31.964  10.276  89.605  1.00  0.00     0.039 A 
HETATM    9  C7  UNL     1      31.320  11.439  89.240  1.00  0.00     0.028 A 
HETATM   10  C8  UNL     1      30.484  11.494  88.117  1.00  0.00    -0.010 A 
HETATM   11  C9  UNL     1      29.804  12.775  87.759  1.00  0.00     0.052 C 
HETATM   12  C10 UNL     1      30.307  10.349  87.364  1.00  0.00     0.149 A 
HETATM   13  N3  UNL     1      30.931   9.226  87.723  1.00  0.00    -0.322 N 
HETATM   14  C13 UNL     1      31.737   9.181  88.807  1.00  0.00     0.113 A 
ATOM     15  H3  UNL     1      30.798   8.382  87.166  1.00  0.00     0.169 HD
HETATM   16  N4  UNL     1      32.290   8.049  89.051  1.00  0.00    -0.385 N 
ATOM     17  H42 UNL     1      32.898   8.015  89.870  1.00  0.00     0.157 HD
ATOM     18  H41 UNL     1      32.122   7.236  88.459  1.00  0.00     0.157 HD
BRANCH  12  19
HETATM   19  O1  UNL     1      29.478  10.423  86.253  1.00  0.00    -0.330 OA
BRANCH  19  20
HETATM   20  C11 UNL     1      28.309   9.663  86.230  1.00  0.00     0.248 C 
BRANCH  20  21
HETATM   21  C12 UNL     1      27.066  10.524  86.061  1.00  0.00     0.377 C 
HETATM   22  F1  UNL     1      26.012   9.666  85.826  1.00  0.00    -0.212 F 
HETATM   23  F2  UNL     1      26.818  11.182  87.239  1.00  0.00    -0.212 F 
ENDBRANCH  20  21
ENDBRANCH  19  20
ENDBRANCH  12  19
ENDBRANCH   4   8
BRANCH   5  24
HETATM   24  N5  UNL     1      31.112  10.628  92.483  1.00  0.00    -0.303 N 
HETATM   25  C15 UNL     1      30.507  11.862  92.735  1.00  0.00     0.326 C 
HETATM   26  O2  UNL     1      31.126  12.925  92.662  1.00  0.00    -0.247 OA
HETATM   27  N6  UNL     1      29.134  11.951  93.093  1.00  0.00    -0.293 N 
ATOM     28  H6  UNL     1      28.611  11.079  93.169  1.00  0.00     0.172 HD
ATOM     29  H5  UNL     1      30.509   9.809  92.560  1.00  0.00     0.171 HD
BRANCH  27  30
HETATM   30  C16 UNL     1      28.437  13.152  93.353  1.00  0.00     0.129 A 
HETATM   31  C17 UNL     1      27.182  13.546  92.969  1.00  0.00     0.125 A 
HETATM   32  C18 UNL     1      26.938  14.824  93.470  1.00  0.00     0.263 A 
HETATM   33  O3  UNL     1      25.885  15.469  93.298  1.00  0.00    -0.267 OA
HETATM   34  N7  UNL     1      28.031  15.180  94.138  1.00  0.00    -0.265 N 
HETATM   35  N8  UNL     1      28.923  14.210  94.080  1.00  0.00    -0.282 N 
ATOM     36  H7  UNL     1      28.160  16.068  94.622  1.00  0.00     0.190 HD
ATOM     37  H8  UNL     1      29.845  14.241  94.514  1.00  0.00     0.188 HD
ENDBRANCH  27  30
ENDBRANCH   5  24
BRANCH   1  38
HETATM   38  C4  UNL     1      35.959   9.766  92.475  1.00  0.00     0.121 C 
HETATM   39  C2  UNL     1      36.655  10.791  92.918  1.00  0.00    -0.070 C 
HETATM   40  C1  UNL     1      38.056  10.538  93.378  1.00  0.00     0.044 C 
HETATM   41  C3  UNL     1      36.052  12.129  92.949  1.00  0.00     0.044 C 
ENDBRANCH   1  38
TORSDOF 7
ENDMDL
MODEL 5
REMARK VINA RESULT: -6.889695351      4.604      6.615
REMARK  7 active torsions:
REMARK  status: ('A' for Active; 'I' for Inactive)
REMARK    1  A    between atoms: C4_4  and  N1_5 
REMARK    2  A    between atoms: C5_8  and  C6_9 
REMARK    3  A    between atoms: C10_13  and  O1_14 
REMARK    4  A    between atoms: O1_14  and  C11_15 
REMARK    5  A    between atoms: C11_15  and  C12_16 
REMARK    6  A    between atoms: C14_25  and  N5_26 
REMARK       I    between atoms: N5_26  and  C15_28 
REMARK       I    between atoms: C15_28  and  N6_30 
REMARK    7  A    between atoms: N6_30  and  C16_32 
ROOT
HETATM    1  N1  UNL     1      33.485  10.719  91.792  1.00  0.00    -0.239 N 
HETATM    2  N2  UNL     1      32.724  11.251  92.708  1.00  0.00    -0.289 N 
ATOM      3  H2  UNL     1      32.930  11.209  93.707  1.00  0.00     0.188 HD
HETATM    4  C5  UNL     1      31.646  11.860  92.201  1.00  0.00     0.094 A 
HETATM    5  C14 UNL     1      31.754  11.683  90.792  1.00  0.00     0.124 A 
HETATM    6  C19 UNL     1      32.909  10.969  90.573  1.00  0.00     0.238 A 
HETATM    7  F3  UNL     1      33.437  10.572  89.384  1.00  0.00    -0.182 F 
ENDROOT
BRANCH   4   8
HETATM    8  C6  UNL     1      30.567  12.528  92.920  1.00  0.00     0.039 A 
HETATM    9  C7  UNL     1      29.433  11.869  93.344  1.00  0.00     0.028 A 
HETATM   10  C8  UNL     1      28.403  12.537  94.021  1.00  0.00    -0.010 A 
HETATM   11  C9  UNL     1      27.191  11.784  94.459  1.00  0.00     0.052 C 
HETATM   12  C10 UNL     1      28.538  13.890  94.264  1.00  0.00     0.149 A 
HETATM   13  N3  UNL     1      29.638  14.524  93.851  1.00  0.00    -0.322 N 
HETATM   14  C13 UNL     1      30.626  13.872  93.200  1.00  0.00     0.113 A 
ATOM     15  H3  UNL     1      29.734  15.524  94.031  1.00  0.00     0.169 HD
HETATM   16  N4  UNL     1      31.639  14.583  92.857  1.00  0.00    -0.385 N 
ATOM     17  H42 UNL     1      32.385  14.091  92.365  1.00  0.00     0.157 HD
ATOM     18  H41 UNL     1      31.683  15.581  93.064  1.00  0.00     0.157 HD
BRANCH  12  19
HETATM   19  O1  UNL     1      27.511  14.535  94.938  1.00  0.00    -0.330 OA
BRANCH  19  20
HETATM   20  C11 UNL     1      26.888  15.627  94.336  1.00  0.00     0.248 C 
BRANCH  20  21
HETATM   21  C12 UNL     1      25.557  15.252  93.701  1.00  0.00     0.377 C 
HETATM   22  F1  UNL     1      24.998  16.417  93.219  1.00  0.00    -0.212 F 
HETATM   23  F2  UNL     1      25.793  14.425  92.632  1.00  0.00    -0.212 F 
ENDBRANCH  20  21
ENDBRANCH  19  20
ENDBRANCH  12  19
ENDBRANCH   4   8
BRANCH   5  24
HETATM   24  N5  UNL     1      30.796  12.224  89.923  1.00  0.00    -0.303 N 
HETATM   25  C15 UNL     1      30.196  11.611  88.820  1.00  0.00     0.326 C 
HETATM   26  O2  UNL     1      30.457  10.454  88.487  1.00  0.00    -0.247 OA
HETATM   27  N6  UNL     1      29.245  12.301  88.019  1.00  0.00    -0.293 N 
ATOM     28  H6  UNL     1      29.026  13.264  88.276  1.00  0.00     0.172 HD
ATOM     29  H5  UNL     1      30.502  13.181  90.119  1.00  0.00     0.171 HD
BRANCH  27  30
HETATM   30  C16 UNL     1      28.580  11.759  86.897  1.00  0.00     0.129 A 
HETATM   31  C17 UNL     1      27.340  11.184  86.797  1.00  0.00     0.125 A 
HETATM   32  C18 UNL     1      27.127  10.798  85.475  1.00  0.00     0.263 A 
HETATM   33  O3  UNL     1      26.094  10.243  85.050  1.00  0.00    -0.267 OA
HETATM   34  N7  UNL     1      28.224  11.139  84.804  1.00  0.00    -0.265 N 
HETATM   35  N8  UNL     1      29.089  11.705  85.624  1.00  0.00    -0.282 N 
ATOM     36  H7  UNL     1      28.373  10.986  83.807  1.00  0.00     0.190 HD
ATOM     37  H8  UNL     1      30.007  12.054  85.349  1.00  0.00     0.188 HD
ENDBRANCH  27  30
ENDBRANCH   5  24
BRANCH   1  38
HETATM   38  C4  UNL     1      34.698   9.995  91.934  1.00  0.00     0.121 C 
HETATM   39  C2  UNL     1      35.722  10.563  92.535  1.00  0.00    -0.070 C 
HETATM   40  C1  UNL     1      36.983   9.769  92.665  1.00  0.00     0.044 C 
HETATM   41  C3  UNL     1      35.603  11.932  93.051  1.00  0.00     0.044 C 
ENDBRANCH   1  38
TORSDOF 7
ENDMDL
