MODEL 1
REMARK VINA RESULT: -6.492469615      0.000      0.000
REMARK  9 active torsions:
REMARK  status: ('A' for Active; 'I' for Inactive)
REMARK    1  A    between atoms: C2_2  and  O1_4 
REMARK    2  A    between atoms: O1_4  and  C4_5 
REMARK    3  A    between atoms: C4_5  and  C5_6 
REMARK    4  A    between atoms: C6_9  and  N2_10 
REMARK    5  A    between atoms: C7_15  and  N4_16 
REMARK    6  A    between atoms: N4_16  and  C8_18 
REMARK    7  A    between atoms: C12_22  and  C13_24 
REMARK    8  A    between atoms: C14_27  and  N5_28 
REMARK       I    between atoms: N5_28  and  C15_30 
REMARK    9  A    between atoms: C15_30  and  C16_32 
ROOT
HETATM    1  C5  UNL     1      31.579  10.280  88.948  1.00  0.00     0.080 A 
HETATM    2  N1  UNL     1      31.901   9.132  88.336  1.00  0.00    -0.191 N 
ATOM      3  H1  UNL     1      31.516   8.937  87.412  1.00  0.00     0.184 HD
HETATM    4  C6  UNL     1      32.719   8.232  88.911  1.00  0.00     0.677 A 
HETATM    5  N3  UNL     1      33.246   8.458  90.135  1.00  0.00    -0.175 N 
ATOM      6  H3  UNL     1      33.865   7.772  90.567  1.00  0.00     0.186 HD
HETATM    7  C7  UNL     1      32.938   9.614  90.782  1.00  0.00     0.146 A 
HETATM    8  C14 UNL     1      32.104  10.536  90.204  1.00  0.00     0.105 A 
ENDROOT
BRANCH   8   9
HETATM    9  N5  UNL     1      31.740  11.753  90.869  1.00  0.00    -0.318 N 
HETATM   10  C15 UNL     1      30.992  11.797  92.043  1.00  0.00     0.260 C 
HETATM   11  O2  UNL     1      30.605  10.695  92.573  1.00  0.00    -0.267 OA
ATOM     12  H5  UNL     1      32.045  12.636  90.459  1.00  0.00     0.169 HD
BRANCH  10  13
HETATM   13  C16 UNL     1      30.613  12.994  92.735  1.00  0.00     0.077 A 
HETATM   14  C17 UNL     1      31.462  14.115  92.714  1.00  0.00     0.046 A 
HETATM   15  C18 UNL     1      31.102  15.313  93.277  1.00  0.00     0.050 A 
HETATM   16 CL1  UNL     1      32.199  16.667  93.216  1.00  0.00    -0.083 Cl
HETATM   17  C19 UNL     1      29.859  15.431  93.891  1.00  0.00     0.113 A 
HETATM   18  N6  UNL     1      29.059  14.375  93.913  1.00  0.00    -0.350 N 
HETATM   19  C20 UNL     1      29.401  13.160  93.354  1.00  0.00     0.114 A 
ATOM     20  H6  UNL     1      28.148  14.464  94.363  1.00  0.00     0.166 HD
HETATM   21  N7  UNL     1      28.544  12.250  93.548  1.00  0.00    -0.385 N 
ATOM     22  H72 UNL     1      28.796  11.352  93.135  1.00  0.00     0.157 HD
ATOM     23  H71 UNL     1      27.642  12.373  94.008  1.00  0.00     0.157 HD
ENDBRANCH  10  13
ENDBRANCH   8   9
BRANCH   1  24
HETATM   24  C4  UNL     1      30.678  11.304  88.321  1.00  0.00     0.228 C 
BRANCH  24  25
HETATM   25  O1  UNL     1      29.784  10.710  87.437  1.00  0.00    -0.381 OA
BRANCH  25  26
HETATM   26  C2  UNL     1      28.737  11.583  87.120  1.00  0.00     0.113 C 
HETATM   27  C1  UNL     1      27.442  10.852  86.867  1.00  0.00     0.039 C 
HETATM   28  C3  UNL     1      28.495  12.572  88.259  1.00  0.00     0.039 C 
ENDBRANCH  25  26
ENDBRANCH  24  25
ENDBRANCH   1  24
BRANCH   7  29
HETATM   29  N4  UNL     1      33.495   9.856  92.040  1.00  0.00    -0.366 N 
ATOM     30  H4  UNL     1      33.049   9.373  92.820  1.00  0.00     0.161 HD
BRANCH  29  31
HETATM   31  C8  UNL     1      34.610  10.693  92.381  1.00  0.00     0.128 C 
HETATM   32  C9  UNL     1      34.371  11.684  93.465  1.00  0.00     0.029 C 
HETATM   33  C10 UNL     1      35.480  11.572  94.480  1.00  0.00     0.006 C 
HETATM   34  C11 UNL     1      35.984  10.172  94.302  1.00  0.00     0.051 C 
HETATM   35  C12 UNL     1      35.810   9.889  92.836  1.00  0.00     0.182 C 
HETATM   36  F1  UNL     1      35.578   8.522  92.722  1.00  0.00    -0.235 F 
BRANCH  35  37
HETATM   37  C13 UNL     1      37.033  10.226  92.040  1.00  0.00     0.394 C 
HETATM   38  F2  UNL     1      36.833   9.876  90.727  1.00  0.00    -0.211 F 
HETATM   39  F3  UNL     1      37.342  11.589  92.103  1.00  0.00    -0.211 F 
ENDBRANCH  35  37
ENDBRANCH  29  31
ENDBRANCH   7  29
BRANCH   4  40
HETATM   40  N2  UNL     1      33.040   7.106  88.319  1.00  0.00    -0.234 N 
ATOM     41  H22 UNL     1      33.125   6.277  88.908  1.00  0.00     0.174 HD
ATOM     42  H21 UNL     1      33.198   7.049  87.313  1.00  0.00     0.174 HD
ENDBRANCH   4  40
TORSDOF 9
ENDMDL
MODEL 2
REMARK VINA RESULT: -6.340424218      4.512      6.693
REMARK  9 active torsions:
REMARK  status: ('A' for Active; 'I' for Inactive)
REMARK    1  A    between atoms: C2_2  and  O1_4 
REMARK    2  A    between atoms: O1_4  and  C4_5 
REMARK    3  A    between atoms: C4_5  and  C5_6 
REMARK    4  A    between atoms: C6_9  and  N2_10 
REMARK    5  A    between atoms: C7_15  and  N4_16 
REMARK    6  A    between atoms: N4_16  and  C8_18 
REMARK    7  A    between atoms: C12_22  and  C13_24 
REMARK    8  A    between atoms: C14_27  and  N5_28 
REMARK       I    between atoms: N5_28  and  C15_30 
REMARK    9  A    between atoms: C15_30  and  C16_32 
ROOT
HETATM    1  C5  UNL     1      34.183   5.472  89.083  1.00  0.00     0.080 A 
HETATM    2  N1  UNL     1      35.035   4.563  89.577  1.00  0.00    -0.191 N 
ATOM      3  H1  UNL     1      35.555   3.967  88.933  1.00  0.00     0.184 HD
HETATM    4  C6  UNL     1      35.220   4.417  90.902  1.00  0.00     0.677 A 
HETATM    5  N3  UNL     1      34.546   5.190  91.784  1.00  0.00    -0.175 N 
ATOM      6  H3  UNL     1      34.689   5.075  92.788  1.00  0.00     0.186 HD
HETATM    7  C7  UNL     1      33.675   6.120  91.313  1.00  0.00     0.146 A 
HETATM    8  C14 UNL     1      33.479   6.275  89.965  1.00  0.00     0.105 A 
ENDROOT
BRANCH   8   9
HETATM    9  N5  UNL     1      32.549   7.230  89.436  1.00  0.00    -0.318 N 
HETATM   10  C15 UNL     1      32.812   8.595  89.345  1.00  0.00     0.260 C 
HETATM   11  O2  UNL     1      33.947   9.035  89.750  1.00  0.00    -0.267 OA
ATOM     12  H5  UNL     1      31.645   6.891  89.108  1.00  0.00     0.169 HD
BRANCH  10  13
HETATM   13  C16 UNL     1      31.908   9.575  88.820  1.00  0.00     0.077 A 
HETATM   14  C17 UNL     1      31.119   9.271  87.695  1.00  0.00     0.046 A 
HETATM   15  C18 UNL     1      30.172  10.137  87.214  1.00  0.00     0.050 A 
HETATM   16 CL1  UNL     1      29.224   9.701  85.817  1.00  0.00    -0.083 Cl
HETATM   17  C19 UNL     1      29.978  11.359  87.853  1.00  0.00     0.113 A 
HETATM   18  N6  UNL     1      30.721  11.647  88.910  1.00  0.00    -0.350 N 
HETATM   19  C20 UNL     1      31.682  10.792  89.411  1.00  0.00     0.114 A 
ATOM     20  H6  UNL     1      30.578  12.543  89.376  1.00  0.00     0.166 HD
HETATM   21  N7  UNL     1      32.346  11.276  90.373  1.00  0.00    -0.385 N 
ATOM     22  H72 UNL     1      33.056  10.644  90.743  1.00  0.00     0.157 HD
ATOM     23  H71 UNL     1      32.177  12.180  90.813  1.00  0.00     0.157 HD
ENDBRANCH  10  13
ENDBRANCH   8   9
BRANCH   1  24
HETATM   24  C4  UNL     1      33.969   5.660  87.609  1.00  0.00     0.228 C 
BRANCH  24  25
HETATM   25  O1  UNL     1      33.578   4.470  87.004  1.00  0.00    -0.381 OA
BRANCH  25  26
HETATM   26  C2  UNL     1      34.404   4.165  85.916  1.00  0.00     0.113 C 
HETATM   27  C1  UNL     1      35.212   5.356  85.463  1.00  0.00     0.039 C 
HETATM   28  C3  UNL     1      35.384   3.051  86.278  1.00  0.00     0.039 C 
ENDBRANCH  25  26
ENDBRANCH  24  25
ENDBRANCH   1  24
BRANCH   7  29
HETATM   29  N4  UNL     1      32.990   6.930  92.223  1.00  0.00    -0.366 N 
ATOM     30  H4  UNL     1      33.280   7.908  92.248  1.00  0.00     0.161 HD
BRANCH  29  31
HETATM   31  C8  UNL     1      31.934   6.571  93.126  1.00  0.00     0.128 C 
HETATM   32  C9  UNL     1      32.276   6.605  94.573  1.00  0.00     0.029 C 
HETATM   33  C10 UNL     1      31.222   7.396  95.305  1.00  0.00     0.006 C 
HETATM   34  C11 UNL     1      30.648   8.287  94.245  1.00  0.00     0.051 C 
HETATM   35  C12 UNL     1      30.727   7.474  92.983  1.00  0.00     0.182 C 
HETATM   36  F1  UNL     1      30.892   8.379  91.940  1.00  0.00    -0.235 F 
BRANCH  35  37
HETATM   37  C13 UNL     1      29.477   6.688  92.729  1.00  0.00     0.394 C 
HETATM   38  F2  UNL     1      28.383   7.489  92.943  1.00  0.00    -0.211 F 
HETATM   39  F3  UNL     1      29.425   6.191  91.423  1.00  0.00    -0.211 F 
ENDBRANCH  35  37
ENDBRANCH  29  31
ENDBRANCH   7  29
BRANCH   4  40
HETATM   40  N2  UNL     1      36.052   3.531  91.395  1.00  0.00    -0.234 N 
ATOM     41  H22 UNL     1      35.646   2.710  91.845  1.00  0.00     0.174 HD
ATOM     42  H21 UNL     1      37.063   3.646  91.336  1.00  0.00     0.174 HD
ENDBRANCH   4  40
TORSDOF 9
ENDMDL
MODEL 3
REMARK VINA RESULT: -6.259363321      2.788      5.631
REMARK  9 active torsions:
REMARK  status: ('A' for Active; 'I' for Inactive)
REMARK    1  A    between atoms: C2_2  and  O1_4 
REMARK    2  A    between atoms: O1_4  and  C4_5 
REMARK    3  A    between atoms: C4_5  and  C5_6 
REMARK    4  A    between atoms: C6_9  and  N2_10 
REMARK    5  A    between atoms: C7_15  and  N4_16 
REMARK    6  A    between atoms: N4_16  and  C8_18 
REMARK    7  A    between atoms: C12_22  and  C13_24 
REMARK    8  A    between atoms: C14_27  and  N5_28 
REMARK       I    between atoms: N5_28  and  C15_30 
REMARK    9  A    between atoms: C15_30  and  C16_32 
ROOT
HETATM    1  C5  UNL     1      31.357  11.802  90.476  1.00  0.00     0.080 A 
HETATM    2  N1  UNL     1      30.852  12.866  91.116  1.00  0.00    -0.191 N 
ATOM      3  H1  UNL     1      30.164  13.451  90.642  1.00  0.00     0.184 HD
HETATM    4  C6  UNL     1      31.232  13.181  92.368  1.00  0.00     0.677 A 
HETATM    5  N3  UNL     1      32.143  12.428  93.025  1.00  0.00    -0.175 N 
ATOM      6  H3  UNL     1      32.428  12.671  93.973  1.00  0.00     0.186 HD
HETATM    7  C7  UNL     1      32.673  11.342  92.401  1.00  0.00     0.146 A 
HETATM    8  C14 UNL     1      32.293  11.014  91.125  1.00  0.00     0.105 A 
ENDROOT
BRANCH   8   9
HETATM    9  N5  UNL     1      32.851   9.891  90.430  1.00  0.00    -0.318 N 
HETATM   10  C15 UNL     1      32.466   8.572  90.661  1.00  0.00     0.260 C 
HETATM   11  O2  UNL     1      31.560   8.335  91.537  1.00  0.00    -0.267 OA
ATOM     12  H5  UNL     1      33.569  10.067  89.729  1.00  0.00     0.169 HD
BRANCH  10  13
HETATM   13  C16 UNL     1      33.000   7.428  89.983  1.00  0.00     0.077 A 
HETATM   14  C17 UNL     1      33.589   6.386  90.722  1.00  0.00     0.046 A 
HETATM   15  C18 UNL     1      34.026   5.229  90.130  1.00  0.00     0.050 A 
HETATM   16 CL1  UNL     1      34.746   3.972  91.101  1.00  0.00    -0.083 Cl
HETATM   17  C19 UNL     1      33.886   5.073  88.753  1.00  0.00     0.113 A 
HETATM   18  N6  UNL     1      33.333   6.054  88.057  1.00  0.00    -0.350 N 
HETATM   19  C20 UNL     1      32.888   7.227  88.631  1.00  0.00     0.114 A 
ATOM     20  H6  UNL     1      33.232   5.937  87.048  1.00  0.00     0.166 HD
HETATM   21  N7  UNL     1      32.467   8.078  87.794  1.00  0.00    -0.385 N 
ATOM     22  H72 UNL     1      32.138   8.945  88.219  1.00  0.00     0.157 HD
ATOM     23  H71 UNL     1      32.383   7.929  86.789  1.00  0.00     0.157 HD
ENDBRANCH  10  13
ENDBRANCH   8   9
BRANCH   1  24
HETATM   24  C4  UNL     1      30.939  11.425  89.084  1.00  0.00     0.228 C 
BRANCH  24  25
HETATM   25  O1  UNL     1      30.552  12.545  88.356  1.00  0.00    -0.381 OA
BRANCH  25  26
HETATM   26  C2  UNL     1      29.470  12.250  87.519  1.00  0.00     0.113 C 
HETATM   27  C1  UNL     1      29.507  10.827  87.021  1.00  0.00     0.039 C 
HETATM   28  C3  UNL     1      28.147  12.449  88.256  1.00  0.00     0.039 C 
ENDBRANCH  25  26
ENDBRANCH  24  25
ENDBRANCH   1  24
BRANCH   7  29
HETATM   29  N4  UNL     1      33.602  10.554  93.085  1.00  0.00    -0.366 N 
ATOM     30  H4  UNL     1      33.259   9.650  93.410  1.00  0.00     0.161 HD
BRANCH  29  31
HETATM   31  C8  UNL     1      34.974  10.846  93.392  1.00  0.00     0.128 C 
HETATM   32  C9  UNL     1      35.283  11.084  94.828  1.00  0.00     0.029 C 
HETATM   33  C10 UNL     1      36.462  10.231  95.219  1.00  0.00     0.006 C 
HETATM   34  C11 UNL     1      36.434   9.109  94.227  1.00  0.00     0.051 C 
HETATM   35  C12 UNL     1      35.905   9.731  92.965  1.00  0.00     0.182 C 
HETATM   36  F1  UNL     1      35.218   8.728  92.287  1.00  0.00    -0.235 F 
BRANCH  35  37
HETATM   37  C13 UNL     1      36.998  10.236  92.074  1.00  0.00     0.394 C 
HETATM   38  F2  UNL     1      37.030  11.608  92.124  1.00  0.00    -0.211 F 
HETATM   39  F3  UNL     1      38.252   9.740  92.447  1.00  0.00    -0.211 F 
ENDBRANCH  35  37
ENDBRANCH  29  31
ENDBRANCH   7  29
BRANCH   4  40
HETATM   40  N2  UNL     1      30.743  14.220  93.002  1.00  0.00    -0.234 N 
ATOM     41  H22 UNL     1      29.813  14.538  92.729  1.00  0.00     0.174 HD
ATOM     42  H21 UNL     1      31.262  14.697  93.740  1.00  0.00     0.174 HD
ENDBRANCH   4  40
TORSDOF 9
ENDMDL
MODEL 4
REMARK VINA RESULT: -6.254320924      3.541      6.708
REMARK  9 active torsions:
REMARK  status: ('A' for Active; 'I' for Inactive)
REMARK    1  A    between atoms: C2_2  and  O1_4 
REMARK    2  A    between atoms: O1_4  and  C4_5 
REMARK    3  A    between atoms: C4_5  and  C5_6 
REMARK    4  A    between atoms: C6_9  and  N2_10 
REMARK    5  A    between atoms: C7_15  and  N4_16 
REMARK    6  A    between atoms: N4_16  and  C8_18 
REMARK    7  A    between atoms: C12_22  and  C13_24 
REMARK    8  A    between atoms: C14_27  and  N5_28 
REMARK       I    between atoms: N5_28  and  C15_30 
REMARK    9  A    between atoms: C15_30  and  C16_32 
ROOT
HETATM    1  C5  UNL     1      36.311   9.439  93.912  1.00  0.00     0.080 A 
HETATM    2  N1  UNL     1      36.177   8.106  93.870  1.00  0.00    -0.191 N 
ATOM      3  H1  UNL     1      36.700   7.533  94.532  1.00  0.00     0.184 HD
HETATM    4  C6  UNL     1      35.369   7.506  92.977  1.00  0.00     0.677 A 
HETATM    5  N3  UNL     1      34.662   8.236  92.085  1.00  0.00    -0.175 N 
ATOM      6  H3  UNL     1      34.051   7.777  91.409  1.00  0.00     0.186 HD
HETATM    7  C7  UNL     1      34.777   9.590  92.102  1.00  0.00     0.146 A 
HETATM    8  C14 UNL     1      35.599  10.210  93.008  1.00  0.00     0.105 A 
ENDROOT
BRANCH   8   9
HETATM    9  N5  UNL     1      35.762  11.635  93.038  1.00  0.00    -0.318 N 
HETATM   10  C15 UNL     1      34.960  12.488  93.792  1.00  0.00     0.260 C 
HETATM   11  O2  UNL     1      34.023  11.985  94.508  1.00  0.00    -0.267 OA
ATOM     12  H5  UNL     1      36.506  12.045  92.475  1.00  0.00     0.169 HD
BRANCH  10  13
HETATM   13  C16 UNL     1      35.098  13.914  93.847  1.00  0.00     0.077 A 
HETATM   14  C17 UNL     1      36.377  14.497  93.815  1.00  0.00     0.046 A 
HETATM   15  C18 UNL     1      36.558  15.855  93.768  1.00  0.00     0.050 A 
HETATM   16 CL1  UNL     1      38.171  16.517  93.728  1.00  0.00    -0.083 Cl
HETATM   17  C19 UNL     1      35.445  16.691  93.750  1.00  0.00     0.113 A 
HETATM   18  N6  UNL     1      34.240  16.143  93.781  1.00  0.00    -0.350 N 
HETATM   19  C20 UNL     1      34.034  14.779  93.831  1.00  0.00     0.114 A 
ATOM     20  H6  UNL     1      33.425  16.757  93.768  1.00  0.00     0.166 HD
HETATM   21  N7  UNL     1      32.817  14.449  93.940  1.00  0.00    -0.385 N 
ATOM     22  H72 UNL     1      32.665  13.441  93.976  1.00  0.00     0.157 HD
ATOM     23  H71 UNL     1      32.026  15.092  93.927  1.00  0.00     0.157 HD
ENDBRANCH  10  13
ENDBRANCH   8   9
BRANCH   1  24
HETATM   24  C4  UNL     1      37.197  10.130  94.908  1.00  0.00     0.228 C 
BRANCH  24  25
HETATM   25  O1  UNL     1      38.414  10.483  94.335  1.00  0.00    -0.381 OA
BRANCH  25  26
HETATM   26  C2  UNL     1      39.044  11.490  95.075  1.00  0.00     0.113 C 
HETATM   27  C1  UNL     1      39.547  12.611  94.199  1.00  0.00     0.039 C 
HETATM   28  C3  UNL     1      38.081  12.094  96.094  1.00  0.00     0.039 C 
ENDBRANCH  25  26
ENDBRANCH  24  25
ENDBRANCH   1  24
BRANCH   7  29
HETATM   29  N4  UNL     1      34.034  10.346  91.192  1.00  0.00    -0.366 N 
ATOM     30  H4  UNL     1      34.532  11.119  90.750  1.00  0.00     0.161 HD
BRANCH  29  31
HETATM   31  C8  UNL     1      32.665  10.180  90.794  1.00  0.00     0.128 C 
HETATM   32  C9  UNL     1      31.717  11.221  91.275  1.00  0.00     0.029 C 
HETATM   33  C10 UNL     1      30.909  11.722  90.106  1.00  0.00     0.006 C 
HETATM   34  C11 UNL     1      31.778  11.427  88.921  1.00  0.00     0.051 C 
HETATM   35  C12 UNL     1      32.505  10.164  89.288  1.00  0.00     0.182 C 
HETATM   36  F1  UNL     1      33.738  10.216  88.647  1.00  0.00    -0.235 F 
BRANCH  35  37
HETATM   37  C13 UNL     1      31.785   8.934  88.824  1.00  0.00     0.394 C 
HETATM   38  F2  UNL     1      30.866   9.278  87.865  1.00  0.00    -0.211 F 
HETATM   39  F3  UNL     1      32.661   7.983  88.290  1.00  0.00    -0.211 F 
ENDBRANCH  35  37
ENDBRANCH  29  31
ENDBRANCH   7  29
BRANCH   4  40
HETATM   40  N2  UNL     1      35.231   6.203  92.929  1.00  0.00    -0.234 N 
ATOM     41  H22 UNL     1      36.054   5.639  93.145  1.00  0.00     0.174 HD
ATOM     42  H21 UNL     1      34.345   5.761  92.688  1.00  0.00     0.174 HD
ENDBRANCH   4  40
TORSDOF 9
ENDMDL
MODEL 5
REMARK VINA RESULT: -6.214009109      3.867      7.273
REMARK  9 active torsions:
REMARK  status: ('A' for Active; 'I' for Inactive)
REMARK    1  A    between atoms: C2_2  and  O1_4 
REMARK    2  A    between atoms: O1_4  and  C4_5 
REMARK    3  A    between atoms: C4_5  and  C5_6 
REMARK    4  A    between atoms: C6_9  and  N2_10 
REMARK    5  A    between atoms: C7_15  and  N4_16 
REMARK    6  A    between atoms: N4_16  and  C8_18 
REMARK    7  A    between atoms: C12_22  and  C13_24 
REMARK    8  A    between atoms: C14_27  and  N5_28 
REMARK       I    between atoms: N5_28  and  C15_30 
REMARK    9  A    between atoms: C15_30  and  C16_32 
ROOT
HETATM    1  C5  UNL     1      36.243   9.439  94.304  1.00  0.00     0.080 A 
HETATM    2  N1  UNL     1      36.181   8.113  94.124  1.00  0.00    -0.191 N 
ATOM      3  H1  UNL     1      36.714   7.502  94.742  1.00  0.00     0.184 HD
HETATM    4  C6  UNL     1      35.433   7.568  93.146  1.00  0.00     0.677 A 
HETATM    5  N3  UNL     1      34.716   8.349  92.308  1.00  0.00    -0.175 N 
ATOM      6  H3  UNL     1      34.151   7.932  91.568  1.00  0.00     0.186 HD
HETATM    7  C7  UNL     1      34.758   9.698  92.466  1.00  0.00     0.146 A 
HETATM    8  C14 UNL     1      35.518  10.262  93.458  1.00  0.00     0.105 A 
ENDROOT
BRANCH   8   9
HETATM    9  N5  UNL     1      35.604  11.683  93.636  1.00  0.00    -0.318 N 
HETATM   10  C15 UNL     1      36.580  12.477  93.040  1.00  0.00     0.260 C 
HETATM   11  O2  UNL     1      37.454  11.922  92.284  1.00  0.00    -0.267 OA
ATOM     12  H5  UNL     1      34.912  12.136  94.232  1.00  0.00     0.169 HD
BRANCH  10  13
HETATM   13  C16 UNL     1      36.693  13.898  93.194  1.00  0.00     0.077 A 
HETATM   14  C17 UNL     1      35.638  14.627  93.772  1.00  0.00     0.046 A 
HETATM   15  C18 UNL     1      35.736  15.971  94.029  1.00  0.00     0.050 A 
HETATM   16 CL1  UNL     1      34.393  16.818  94.750  1.00  0.00    -0.083 Cl
HETATM   17  C19 UNL     1      36.913  16.642  93.711  1.00  0.00     0.113 A 
HETATM   18  N6  UNL     1      37.906  15.956  93.165  1.00  0.00    -0.350 N 
HETATM   19  C20 UNL     1      37.830  14.604  92.896  1.00  0.00     0.114 A 
ATOM     20  H6  UNL     1      38.768  16.450  92.932  1.00  0.00     0.166 HD
HETATM   21  N7  UNL     1      38.845  14.144  92.297  1.00  0.00    -0.385 N 
ATOM     22  H72 UNL     1      38.789  13.145  92.098  1.00  0.00     0.157 HD
ATOM     23  H71 UNL     1      39.691  14.669  92.076  1.00  0.00     0.157 HD
ENDBRANCH  10  13
ENDBRANCH   8   9
BRANCH   1  24
HETATM   24  C4  UNL     1      37.060  10.068  95.395  1.00  0.00     0.228 C 
BRANCH  24  25
HETATM   25  O1  UNL     1      38.369  10.285  94.978  1.00  0.00    -0.381 OA
BRANCH  25  26
HETATM   26  C2  UNL     1      39.001  11.238  95.785  1.00  0.00     0.113 C 
HETATM   27  C1  UNL     1      39.985  12.079  95.009  1.00  0.00     0.039 C 
HETATM   28  C3  UNL     1      37.977  12.182  96.410  1.00  0.00     0.039 C 
ENDBRANCH  25  26
ENDBRANCH  24  25
ENDBRANCH   1  24
BRANCH   7  29
HETATM   29  N4  UNL     1      34.003  10.505  91.610  1.00  0.00    -0.366 N 
ATOM     30  H4  UNL     1      34.455  11.367  91.305  1.00  0.00     0.161 HD
BRANCH  29  31
HETATM   31  C8  UNL     1      32.678  10.283  91.104  1.00  0.00     0.128 C 
HETATM   32  C9  UNL     1      31.704  11.386  91.327  1.00  0.00     0.029 C 
HETATM   33  C10 UNL     1      31.026  11.708  90.020  1.00  0.00     0.006 C 
HETATM   34  C11 UNL     1      32.005  11.240  88.987  1.00  0.00     0.051 C 
HETATM   35  C12 UNL     1      32.671  10.044  89.609  1.00  0.00     0.182 C 
HETATM   36  F1  UNL     1      33.963   9.999  89.095  1.00  0.00    -0.235 F 
BRANCH  35  37
HETATM   37  C13 UNL     1      31.981   8.760  89.260  1.00  0.00     0.394 C 
HETATM   38  F2  UNL     1      31.221   8.942  88.132  1.00  0.00    -0.211 F 
HETATM   39  F3  UNL     1      32.890   7.722  89.030  1.00  0.00    -0.211 F 
ENDBRANCH  35  37
ENDBRANCH  29  31
ENDBRANCH   7  29
BRANCH   4  40
HETATM   40  N2  UNL     1      35.367   6.271  92.962  1.00  0.00    -0.234 N 
ATOM     41  H22 UNL     1      36.249   5.759  92.927  1.00  0.00     0.174 HD
ATOM     42  H21 UNL     1      34.477   5.784  92.858  1.00  0.00     0.174 HD
ENDBRANCH   4  40
TORSDOF 9
ENDMDL
