MODEL 1
REMARK VINA RESULT: -6.791775778      0.000      0.000
REMARK  12 active torsions:
REMARK  status: ('A' for Active; 'I' for Inactive)
REMARK    1  A    between atoms: O1_2  and  N1_3 
REMARK    2  A    between atoms: N1_3  and  C2_4 
REMARK    3  A    between atoms: C2_4  and  C3_5 
REMARK    4  A    between atoms: C3_5  and  C4_6 
REMARK    5  A    between atoms: C3_5  and  N2_10 
REMARK    6  A    between atoms: C4_6  and  C5_7 
REMARK       I    between atoms: N2_10  and  C8_12 
REMARK    7  A    between atoms: C8_12  and  C9_14 
REMARK    8  A    between atoms: C9_14  and  N3_16 
REMARK    9  A    between atoms: N3_16  and  C11_18 
REMARK   10  A    between atoms: C11_18  and  C13_20 
REMARK   11  A    between atoms: C15_22  and  N4_23 
REMARK   12  A    between atoms: C16_27  and  O3_28 
ROOT
HETATM    1  C9  UNL     1     -26.558  42.469  18.476  1.00  0.00     0.070 C 
HETATM    2  C10 UNL     1     -26.114  43.868  18.560  1.00  0.00     0.074 C 
ENDROOT
BRANCH   1   3
HETATM    3  C8  UNL     1     -25.772  41.771  17.390  1.00  0.00     0.263 C 
HETATM    4  N2  UNL     1     -25.595  40.385  17.382  1.00  0.00    -0.350 N 
ATOM      5  H2  UNL     1     -26.019  39.849  18.139  1.00  0.00     0.163 HD
HETATM    6  O2  UNL     1     -25.306  42.533  16.510  1.00  0.00    -0.266 OA
BRANCH   4   7
HETATM    7  C3  UNL     1     -24.843  39.645  16.363  1.00  0.00     0.102 C 
BRANCH   7   8
HETATM    8  C2  UNL     1     -25.769  39.329  15.260  1.00  0.00     0.167 C 
BRANCH   8   9
HETATM    9  N1  UNL     1     -27.031  38.710  15.688  1.00  0.00    -0.100 NA
BRANCH   9  10
HETATM   10  O1  UNL     1     -28.016  39.622  15.514  1.00  0.00    -0.291 OA
HETATM   11  C1  UNL     1     -27.849  40.415  14.402  1.00  0.00     0.231 C 
ENDBRANCH   9  10
ENDBRANCH   8   9
ENDBRANCH   7   8
BRANCH   7  12
HETATM   12  C4  UNL     1     -24.087  38.603  17.041  1.00  0.00     0.030 C 
BRANCH  12  13
HETATM   13  C5  UNL     1     -23.301  37.614  16.274  1.00  0.00    -0.021 C 
HETATM   14  C6  UNL     1     -23.232  36.330  17.134  1.00  0.00     0.009 C 
HETATM   15  C7  UNL     1     -21.886  37.958  15.959  1.00  0.00     0.009 C 
ENDBRANCH  12  13
ENDBRANCH   7  12
ENDBRANCH   4   7
ENDBRANCH   1   3
BRANCH   1  16
HETATM   16  N3  UNL     1     -26.776  41.688  19.591  1.00  0.00    -0.384 N 
ATOM     17  H3  UNL     1     -27.452  40.930  19.492  1.00  0.00     0.160 HD
BRANCH  16  18
HETATM   18  C11 UNL     1     -26.176  41.821  20.829  1.00  0.00     0.081 C 
HETATM   19  C12 UNL     1     -27.010  41.700  22.042  1.00  0.00     0.032 C 
BRANCH  18  20
HETATM   20  C13 UNL     1     -24.909  40.998  20.995  1.00  0.00     0.012 C 
HETATM   21  C14 UNL     1     -24.635  40.742  22.456  1.00  0.00     0.042 C 
HETATM   22  C15 UNL     1     -23.507  41.681  22.839  1.00  0.00     0.212 C 
HETATM   23  C16 UNL     1     -22.692  41.719  21.567  1.00  0.00     0.149 C 
HETATM   24  C17 UNL     1     -23.739  41.824  20.504  1.00  0.00     0.040 C 
BRANCH  22  25
HETATM   25  N4  UNL     1     -24.039  42.975  23.116  1.00  0.00    -0.073 N 
ATOM     26  H43 UNL     1     -23.353  43.588  23.557  1.00  0.00     0.274 HD
ATOM     27  H42 UNL     1     -24.196  43.518  22.267  1.00  0.00     0.274 HD
ATOM     28  H41 UNL     1     -24.887  42.880  23.675  1.00  0.00     0.274 HD
ENDBRANCH  22  25
BRANCH  23  29
HETATM   29  O3  UNL     1     -21.852  42.845  21.561  1.00  0.00    -0.393 OA
ATOM     30  H3  UNL     1     -22.311  43.595  21.203  1.00  0.00     0.210 HD
ENDBRANCH  23  29
ENDBRANCH  18  20
ENDBRANCH  16  18
ENDBRANCH   1  16
TORSDOF 12
ENDMDL
MODEL 2
REMARK VINA RESULT: -6.716963327      1.685      2.201
REMARK  12 active torsions:
REMARK  status: ('A' for Active; 'I' for Inactive)
REMARK    1  A    between atoms: O1_2  and  N1_3 
REMARK    2  A    between atoms: N1_3  and  C2_4 
REMARK    3  A    between atoms: C2_4  and  C3_5 
REMARK    4  A    between atoms: C3_5  and  C4_6 
REMARK    5  A    between atoms: C3_5  and  N2_10 
REMARK    6  A    between atoms: C4_6  and  C5_7 
REMARK       I    between atoms: N2_10  and  C8_12 
REMARK    7  A    between atoms: C8_12  and  C9_14 
REMARK    8  A    between atoms: C9_14  and  N3_16 
REMARK    9  A    between atoms: N3_16  and  C11_18 
REMARK   10  A    between atoms: C11_18  and  C13_20 
REMARK   11  A    between atoms: C15_22  and  N4_23 
REMARK   12  A    between atoms: C16_27  and  O3_28 
ROOT
HETATM    1  C9  UNL     1     -24.598  41.649  20.441  1.00  0.00     0.070 C 
HETATM    2  C10 UNL     1     -23.403  42.345  20.938  1.00  0.00     0.074 C 
ENDROOT
BRANCH   1   3
HETATM    3  C8  UNL     1     -24.379  41.277  18.992  1.00  0.00     0.263 C 
HETATM    4  N2  UNL     1     -24.803  40.051  18.473  1.00  0.00    -0.350 N 
ATOM      5  H2  UNL     1     -25.273  39.405  19.107  1.00  0.00     0.163 HD
HETATM    6  O2  UNL     1     -23.799  42.153  18.310  1.00  0.00    -0.266 OA
BRANCH   4   7
HETATM    7  C3  UNL     1     -24.621  39.625  17.082  1.00  0.00     0.102 C 
BRANCH   7   8
HETATM    8  C2  UNL     1     -25.794  40.080  16.313  1.00  0.00     0.167 C 
BRANCH   8   9
HETATM    9  N1  UNL     1     -27.036  39.360  16.624  1.00  0.00    -0.100 NA
BRANCH   9  10
HETATM   10  O1  UNL     1     -27.841  39.441  15.540  1.00  0.00    -0.291 OA
HETATM   11  C1  UNL     1     -27.431  40.368  14.609  1.00  0.00     0.231 C 
ENDBRANCH   9  10
ENDBRANCH   8   9
ENDBRANCH   7   8
BRANCH   7  12
HETATM   12  C4  UNL     1     -24.218  38.227  17.096  1.00  0.00     0.030 C 
BRANCH  12  13
HETATM   13  C5  UNL     1     -23.179  37.726  16.172  1.00  0.00    -0.021 C 
HETATM   14  C6  UNL     1     -22.678  36.379  16.746  1.00  0.00     0.009 C 
HETATM   15  C7  UNL     1     -21.958  38.561  15.995  1.00  0.00     0.009 C 
ENDBRANCH  12  13
ENDBRANCH   7  12
ENDBRANCH   4   7
ENDBRANCH   1   3
BRANCH   1  16
HETATM   16  N3  UNL     1     -25.252  40.678  21.169  1.00  0.00    -0.384 N 
ATOM     17  H3  UNL     1     -25.227  39.730  20.792  1.00  0.00     0.160 HD
BRANCH  16  18
HETATM   18  C11 UNL     1     -25.939  40.851  22.355  1.00  0.00     0.081 C 
HETATM   19  C12 UNL     1     -27.416  40.861  22.329  1.00  0.00     0.032 C 
BRANCH  18  20
HETATM   20  C13 UNL     1     -25.453  39.962  23.488  1.00  0.00     0.012 C 
HETATM   21  C14 UNL     1     -25.729  40.611  24.822  1.00  0.00     0.042 C 
HETATM   22  C15 UNL     1     -24.395  41.148  25.307  1.00  0.00     0.212 C 
HETATM   23  C16 UNL     1     -23.434  40.109  24.778  1.00  0.00     0.149 C 
HETATM   24  C17 UNL     1     -23.946  39.856  23.395  1.00  0.00     0.040 C 
BRANCH  22  25
HETATM   25  N4  UNL     1     -24.139  42.409  24.693  1.00  0.00    -0.073 N 
ATOM     26  H43 UNL     1     -23.890  42.315  23.708  1.00  0.00     0.274 HD
ATOM     27  H42 UNL     1     -24.989  42.961  24.576  1.00  0.00     0.274 HD
ATOM     28  H41 UNL     1     -23.426  42.907  25.224  1.00  0.00     0.274 HD
ENDBRANCH  22  25
BRANCH  23  29
HETATM   29  O3  UNL     1     -22.129  40.627  24.745  1.00  0.00    -0.393 OA
ATOM     30  H3  UNL     1     -21.998  41.234  25.464  1.00  0.00     0.210 HD
ENDBRANCH  23  29
ENDBRANCH  18  20
ENDBRANCH  16  18
ENDBRANCH   1  16
TORSDOF 12
ENDMDL
MODEL 3
REMARK VINA RESULT: -6.712424464      1.211      1.512
REMARK  12 active torsions:
REMARK  status: ('A' for Active; 'I' for Inactive)
REMARK    1  A    between atoms: O1_2  and  N1_3 
REMARK    2  A    between atoms: N1_3  and  C2_4 
REMARK    3  A    between atoms: C2_4  and  C3_5 
REMARK    4  A    between atoms: C3_5  and  C4_6 
REMARK    5  A    between atoms: C3_5  and  N2_10 
REMARK    6  A    between atoms: C4_6  and  C5_7 
REMARK       I    between atoms: N2_10  and  C8_12 
REMARK    7  A    between atoms: C8_12  and  C9_14 
REMARK    8  A    between atoms: C9_14  and  N3_16 
REMARK    9  A    between atoms: N3_16  and  C11_18 
REMARK   10  A    between atoms: C11_18  and  C13_20 
REMARK   11  A    between atoms: C15_22  and  N4_23 
REMARK   12  A    between atoms: C16_27  and  O3_28 
ROOT
HETATM    1  C9  UNL     1     -25.031  41.447  18.729  1.00  0.00     0.070 C 
HETATM    2  C10 UNL     1     -24.699  42.869  18.560  1.00  0.00     0.074 C 
ENDROOT
BRANCH   1   3
HETATM    3  C8  UNL     1     -24.529  40.681  17.526  1.00  0.00     0.263 C 
HETATM    4  N2  UNL     1     -24.886  39.350  17.297  1.00  0.00    -0.350 N 
ATOM      5  H2  UNL     1     -25.506  38.904  17.971  1.00  0.00     0.163 HD
HETATM    6  O2  UNL     1     -23.780  41.338  16.765  1.00  0.00    -0.266 OA
BRANCH   4   7
HETATM    7  C3  UNL     1     -24.433  38.549  16.155  1.00  0.00     0.102 C 
BRANCH   7   8
HETATM    8  C2  UNL     1     -25.487  38.594  15.125  1.00  0.00     0.167 C 
BRANCH   8   9
HETATM    9  N1  UNL     1     -26.815  38.183  15.600  1.00  0.00    -0.100 NA
BRANCH   9  10
HETATM   10  O1  UNL     1     -27.527  39.305  15.855  1.00  0.00    -0.291 OA
HETATM   11  C1  UNL     1     -27.527  40.211  14.820  1.00  0.00     0.231 C 
ENDBRANCH   9  10
ENDBRANCH   8   9
ENDBRANCH   7   8
BRANCH   7  12
HETATM   12  C4  UNL     1     -23.932  37.285  16.672  1.00  0.00     0.030 C 
BRANCH  12  13
HETATM   13  C5  UNL     1     -22.481  37.022  16.762  1.00  0.00    -0.021 C 
HETATM   14  C6  UNL     1     -21.777  38.068  15.865  1.00  0.00     0.009 C 
HETATM   15  C7  UNL     1     -21.993  35.697  16.284  1.00  0.00     0.009 C 
ENDBRANCH  12  13
ENDBRANCH   7  12
ENDBRANCH   4   7
ENDBRANCH   1   3
BRANCH   1  16
HETATM   16  N3  UNL     1     -24.860  40.777  19.922  1.00  0.00    -0.384 N 
ATOM     17  H3  UNL     1     -24.618  39.788  19.859  1.00  0.00     0.160 HD
BRANCH  16  18
HETATM   18  C11 UNL     1     -24.982  41.303  21.194  1.00  0.00     0.081 C 
HETATM   19  C12 UNL     1     -26.201  41.008  21.974  1.00  0.00     0.032 C 
BRANCH  18  20
HETATM   20  C13 UNL     1     -23.754  41.100  22.068  1.00  0.00     0.012 C 
HETATM   21  C14 UNL     1     -23.924  41.811  23.387  1.00  0.00     0.042 C 
HETATM   22  C15 UNL     1     -23.068  43.061  23.300  1.00  0.00     0.212 C 
HETATM   23  C16 UNL     1     -21.907  42.581  22.462  1.00  0.00     0.149 C 
HETATM   24  C17 UNL     1     -22.577  41.773  21.395  1.00  0.00     0.040 C 
BRANCH  22  25
HETATM   25  N4  UNL     1     -23.785  44.079  22.605  1.00  0.00    -0.073 N 
ATOM     26  H43 UNL     1     -24.712  43.769  22.316  1.00  0.00     0.274 HD
ATOM     27  H42 UNL     1     -24.071  44.839  23.223  1.00  0.00     0.274 HD
ATOM     28  H41 UNL     1     -23.227  44.411  21.819  1.00  0.00     0.274 HD
ENDBRANCH  22  25
BRANCH  23  29
HETATM   29  O3  UNL     1     -21.221  43.676  21.909  1.00  0.00    -0.393 OA
ATOM     30  H3  UNL     1     -20.928  44.261  22.598  1.00  0.00     0.210 HD
ENDBRANCH  23  29
ENDBRANCH  18  20
ENDBRANCH  16  18
ENDBRANCH   1  16
TORSDOF 12
ENDMDL
MODEL 4
REMARK VINA RESULT: -6.694931307      2.033      2.658
REMARK  12 active torsions:
REMARK  status: ('A' for Active; 'I' for Inactive)
REMARK    1  A    between atoms: O1_2  and  N1_3 
REMARK    2  A    between atoms: N1_3  and  C2_4 
REMARK    3  A    between atoms: C2_4  and  C3_5 
REMARK    4  A    between atoms: C3_5  and  C4_6 
REMARK    5  A    between atoms: C3_5  and  N2_10 
REMARK    6  A    between atoms: C4_6  and  C5_7 
REMARK       I    between atoms: N2_10  and  C8_12 
REMARK    7  A    between atoms: C8_12  and  C9_14 
REMARK    8  A    between atoms: C9_14  and  N3_16 
REMARK    9  A    between atoms: N3_16  and  C11_18 
REMARK   10  A    between atoms: C11_18  and  C13_20 
REMARK   11  A    between atoms: C15_22  and  N4_23 
REMARK   12  A    between atoms: C16_27  and  O3_28 
ROOT
HETATM    1  C9  UNL     1     -25.000  41.474  18.672  1.00  0.00     0.070 C 
HETATM    2  C10 UNL     1     -24.526  42.861  18.560  1.00  0.00     0.074 C 
ENDROOT
BRANCH   1   3
HETATM    3  C8  UNL     1     -24.524  40.695  17.467  1.00  0.00     0.263 C 
HETATM    4  N2  UNL     1     -24.871  39.357  17.270  1.00  0.00    -0.350 N 
ATOM      5  H2  UNL     1     -25.466  38.913  17.970  1.00  0.00     0.163 HD
HETATM    6  O2  UNL     1     -23.807  41.348  16.673  1.00  0.00    -0.266 OA
BRANCH   4   7
HETATM    7  C3  UNL     1     -24.443  38.543  16.128  1.00  0.00     0.102 C 
BRANCH   7   8
HETATM    8  C2  UNL     1     -25.515  38.584  15.115  1.00  0.00     0.167 C 
BRANCH   8   9
HETATM    9  N1  UNL     1     -26.838  38.192  15.619  1.00  0.00    -0.100 NA
BRANCH   9  10
HETATM   10  O1  UNL     1     -27.536  39.325  15.865  1.00  0.00    -0.291 OA
HETATM   11  C1  UNL     1     -27.536  40.217  14.818  1.00  0.00     0.231 C 
ENDBRANCH   9  10
ENDBRANCH   8   9
ENDBRANCH   7   8
BRANCH   7  12
HETATM   12  C4  UNL     1     -23.940  37.280  16.648  1.00  0.00     0.030 C 
BRANCH  12  13
HETATM   13  C5  UNL     1     -22.488  37.023  16.745  1.00  0.00    -0.021 C 
HETATM   14  C6  UNL     1     -21.785  38.062  15.839  1.00  0.00     0.009 C 
HETATM   15  C7  UNL     1     -21.994  35.695  16.284  1.00  0.00     0.009 C 
ENDBRANCH  12  13
ENDBRANCH   7  12
ENDBRANCH   4   7
ENDBRANCH   1   3
BRANCH   1  16
HETATM   16  N3  UNL     1     -24.944  40.760  19.850  1.00  0.00    -0.384 N 
ATOM     17  H3  UNL     1     -25.280  39.797  19.816  1.00  0.00     0.160 HD
BRANCH  16  18
HETATM   18  C11 UNL     1     -24.481  41.208  21.072  1.00  0.00     0.081 C 
HETATM   19  C12 UNL     1     -23.105  41.738  21.163  1.00  0.00     0.032 C 
BRANCH  18  20
HETATM   20  C13 UNL     1     -25.438  42.146  21.791  1.00  0.00     0.012 C 
HETATM   21  C14 UNL     1     -25.134  42.177  23.268  1.00  0.00     0.042 C 
HETATM   22  C15 UNL     1     -26.209  41.339  23.933  1.00  0.00     0.212 C 
HETATM   23  C16 UNL     1     -27.408  41.627  23.060  1.00  0.00     0.149 C 
HETATM   24  C17 UNL     1     -26.835  41.574  21.679  1.00  0.00     0.040 C 
BRANCH  22  25
HETATM   25  N4  UNL     1     -25.859  39.959  23.842  1.00  0.00    -0.073 N 
ATOM     26  H43 UNL     1     -24.898  39.825  23.529  1.00  0.00     0.274 HD
ATOM     27  H42 UNL     1     -25.776  39.522  24.760  1.00  0.00     0.274 HD
ATOM     28  H41 UNL     1     -26.530  39.477  23.245  1.00  0.00     0.274 HD
ENDBRANCH  22  25
BRANCH  23  29
HETATM   29  O3  UNL     1     -28.388  40.636  23.238  1.00  0.00    -0.393 OA
ATOM     30  H3  UNL     1     -29.256  41.015  23.160  1.00  0.00     0.210 HD
ENDBRANCH  23  29
ENDBRANCH  18  20
ENDBRANCH  16  18
ENDBRANCH   1  16
TORSDOF 12
ENDMDL
MODEL 5
REMARK VINA RESULT: -6.668203887      1.586      2.297
REMARK  12 active torsions:
REMARK  status: ('A' for Active; 'I' for Inactive)
REMARK    1  A    between atoms: O1_2  and  N1_3 
REMARK    2  A    between atoms: N1_3  and  C2_4 
REMARK    3  A    between atoms: C2_4  and  C3_5 
REMARK    4  A    between atoms: C3_5  and  C4_6 
REMARK    5  A    between atoms: C3_5  and  N2_10 
REMARK    6  A    between atoms: C4_6  and  C5_7 
REMARK       I    between atoms: N2_10  and  C8_12 
REMARK    7  A    between atoms: C8_12  and  C9_14 
REMARK    8  A    between atoms: C9_14  and  N3_16 
REMARK    9  A    between atoms: N3_16  and  C11_18 
REMARK   10  A    between atoms: C11_18  and  C13_20 
REMARK   11  A    between atoms: C15_22  and  N4_23 
REMARK   12  A    between atoms: C16_27  and  O3_28 
ROOT
HETATM    1  C9  UNL     1     -24.786  41.352  20.439  1.00  0.00     0.070 C 
HETATM    2  C10 UNL     1     -25.985  42.202  20.466  1.00  0.00     0.074 C 
ENDROOT
BRANCH   1   3
HETATM    3  C8  UNL     1     -24.440  41.039  19.001  1.00  0.00     0.263 C 
HETATM    4  N2  UNL     1     -24.868  39.864  18.378  1.00  0.00    -0.350 N 
ATOM      5  H2  UNL     1     -25.429  39.214  18.928  1.00  0.00     0.163 HD
HETATM    6  O2  UNL     1     -23.753  41.916  18.426  1.00  0.00    -0.266 OA
BRANCH   4   7
HETATM    7  C3  UNL     1     -24.566  39.497  16.991  1.00  0.00     0.102 C 
BRANCH   7   8
HETATM    8  C2  UNL     1     -25.708  39.913  16.155  1.00  0.00     0.167 C 
BRANCH   8   9
HETATM    9  N1  UNL     1     -27.008  39.403  16.611  1.00  0.00    -0.100 NA
BRANCH   9  10
HETATM   10  O1  UNL     1     -27.870  39.487  15.571  1.00  0.00    -0.291 OA
HETATM   11  C1  UNL     1     -27.497  40.400  14.611  1.00  0.00     0.231 C 
ENDBRANCH   9  10
ENDBRANCH   8   9
ENDBRANCH   7   8
BRANCH   7  12
HETATM   12  C4  UNL     1     -24.088  38.122  16.991  1.00  0.00     0.030 C 
BRANCH  12  13
HETATM   13  C5  UNL     1     -23.000  37.697  16.086  1.00  0.00    -0.021 C 
HETATM   14  C6  UNL     1     -22.475  36.342  16.618  1.00  0.00     0.009 C 
HETATM   15  C7  UNL     1     -21.801  38.578  15.993  1.00  0.00     0.009 C 
ENDBRANCH  12  13
ENDBRANCH   7  12
ENDBRANCH   4   7
ENDBRANCH   1   3
BRANCH   1  16
HETATM   16  N3  UNL     1     -23.684  41.591  21.233  1.00  0.00    -0.384 N 
ATOM     17  H3  UNL     1     -22.917  42.110  20.805  1.00  0.00     0.160 HD
BRANCH  16  18
HETATM   18  C11 UNL     1     -23.508  41.202  22.547  1.00  0.00     0.081 C 
HETATM   19  C12 UNL     1     -24.256  40.033  23.052  1.00  0.00     0.032 C 
BRANCH  18  20
HETATM   20  C13 UNL     1     -22.052  41.102  22.974  1.00  0.00     0.012 C 
HETATM   21  C14 UNL     1     -21.813  41.907  24.226  1.00  0.00     0.042 C 
HETATM   22  C15 UNL     1     -21.100  43.170  23.779  1.00  0.00     0.212 C 
HETATM   23  C16 UNL     1     -20.257  42.658  22.635  1.00  0.00     0.149 C 
HETATM   24  C17 UNL     1     -21.199  41.753  21.906  1.00  0.00     0.040 C 
BRANCH  22  25
HETATM   25  N4  UNL     1     -22.057  44.111  23.299  1.00  0.00    -0.073 N 
ATOM     26  H43 UNL     1     -23.014  43.832  23.513  1.00  0.00     0.274 HD
ATOM     27  H42 UNL     1     -22.038  44.984  23.828  1.00  0.00     0.274 HD
ATOM     28  H41 UNL     1     -21.913  44.263  22.301  1.00  0.00     0.274 HD
ENDBRANCH  22  25
BRANCH  23  29
HETATM   29  O3  UNL     1     -19.849  43.726  21.817  1.00  0.00    -0.393 OA
ATOM     30  H3  UNL     1     -19.006  43.534  21.423  1.00  0.00     0.210 HD
ENDBRANCH  23  29
ENDBRANCH  18  20
ENDBRANCH  16  18
ENDBRANCH   1  16
TORSDOF 12
ENDMDL
