MODEL 1
REMARK VINA RESULT: -6.893787594      0.000      0.000
REMARK  15 active torsions:
REMARK  status: ('A' for Active; 'I' for Inactive)
REMARK    1  A    between atoms: C2_2  and  C3_3 
REMARK    2  A    between atoms: C3_3  and  N1_4 
REMARK    3  A    between atoms: C4_5  and  C5_6 
REMARK    4  A    between atoms: C5_6  and  O1_7 
REMARK    5  A    between atoms: O1_7  and  C6_8 
REMARK    6  A    between atoms: C11_13  and  O2_14 
REMARK    7  A    between atoms: C12_16  and  C13_17 
REMARK    8  A    between atoms: C13_17  and  O3_18 
REMARK    9  A    between atoms: C13_17  and  C14_20 
REMARK   10  A    between atoms: C14_20  and  O4_21 
REMARK   11  A    between atoms: C14_20  and  C15_23 
REMARK   12  A    between atoms: C15_23  and  C16_24 
REMARK   13  A    between atoms: C16_24  and  O5_25 
REMARK   14  A    between atoms: C16_24  and  C17_27 
REMARK   15  A    between atoms: C17_27  and  O6_28 
ROOT
HETATM    1  N1  UNL     1     -24.755  40.621  16.365  1.00  0.00     0.111 N 
HETATM    2  C4  UNL     1     -23.842  39.789  15.646  1.00  0.00     0.278 C 
HETATM    3  C11 UNL     1     -25.100  39.087  15.081  1.00  0.00     0.189 C 
HETATM    4  C12 UNL     1     -25.687  40.472  15.187  1.00  0.00     0.285 C 
ENDROOT
BRANCH   4   5
HETATM    5  C13 UNL     1     -27.109  40.529  15.663  1.00  0.00     0.183 C 
BRANCH   5   6
HETATM    6  O3  UNL     1     -27.252  41.488  16.703  1.00  0.00    -0.391 OA
ATOM      7  H3  UNL     1     -27.882  42.156  16.458  1.00  0.00     0.210 HD
ENDBRANCH   5   6
BRANCH   5   8
HETATM    8  C14 UNL     1     -28.072  40.922  14.565  1.00  0.00     0.151 C 
BRANCH   8   9
HETATM    9  O4  UNL     1     -29.143  40.021  14.530  1.00  0.00    -0.393 OA
ATOM     10  H4  UNL     1     -29.821  40.305  15.132  1.00  0.00     0.210 HD
ENDBRANCH   8   9
BRANCH   8  11
HETATM   11  C15 UNL     1     -27.495  41.212  13.232  1.00  0.00     0.068 C 
BRANCH  11  12
HETATM   12  C16 UNL     1     -27.942  40.177  12.219  1.00  0.00     0.144 C 
BRANCH  12  13
HETATM   13  O5  UNL     1     -27.477  38.903  12.512  1.00  0.00    -0.393 OA
ATOM     14  H5  UNL     1     -28.059  38.423  13.088  1.00  0.00     0.210 HD
ENDBRANCH  12  13
BRANCH  12  15
HETATM   15  C17 UNL     1     -27.749  40.522  10.791  1.00  0.00     0.195 C 
BRANCH  15  16
HETATM   16  O6  UNL     1     -26.556  39.857  10.375  1.00  0.00    -0.398 OA
ATOM     17  H6  UNL     1     -26.805  39.284   9.660  1.00  0.00     0.209 HD
ENDBRANCH  15  16
ENDBRANCH  12  15
ENDBRANCH  11  12
ENDBRANCH   8  11
ENDBRANCH   5   8
ENDBRANCH   4   5
BRANCH   1  18
HETATM   18  C3  UNL     1     -24.326  42.016  16.473  1.00  0.00     0.300 C 
BRANCH  18  19
HETATM   19  C2  UNL     1     -24.239  42.479  17.878  1.00  0.00    -0.007 C 
HETATM   20  C1  UNL     1     -24.105  41.635  18.888  1.00  0.00     0.008 C 
ENDBRANCH  18  19
ENDBRANCH   1  18
BRANCH   3  21
HETATM   21  O2  UNL     1     -24.866  38.553  13.848  1.00  0.00    -0.391 OA
ATOM     22  H2  UNL     1     -25.676  38.351  13.395  1.00  0.00     0.210 HD
ENDBRANCH   3  21
BRANCH   2  23
HETATM   23  C5  UNL     1     -23.005  38.819  16.475  1.00  0.00     0.206 C 
BRANCH  23  24
HETATM   24  O1  UNL     1     -23.707  37.645  16.549  1.00  0.00    -0.384 OA
BRANCH  24  25
HETATM   25  C6  UNL     1     -23.029  36.507  16.264  1.00  0.00     0.121 C 
HETATM   26  C7  UNL     1     -21.554  36.816  16.123  1.00  0.00     0.032 C 
HETATM   27  C8  UNL     1     -20.930  35.452  16.167  1.00  0.00     0.002 C 
HETATM   28  C9  UNL     1     -21.934  34.528  16.839  1.00  0.00     0.002 C 
HETATM   29  C10 UNL     1     -23.010  35.483  17.377  1.00  0.00     0.032 C 
ENDBRANCH  24  25
ENDBRANCH  23  24
ENDBRANCH   2  23
TORSDOF 15
ENDMDL
MODEL 2
REMARK VINA RESULT: -6.525941846      1.261      1.353
REMARK  15 active torsions:
REMARK  status: ('A' for Active; 'I' for Inactive)
REMARK    1  A    between atoms: C2_2  and  C3_3 
REMARK    2  A    between atoms: C3_3  and  N1_4 
REMARK    3  A    between atoms: C4_5  and  C5_6 
REMARK    4  A    between atoms: C5_6  and  O1_7 
REMARK    5  A    between atoms: O1_7  and  C6_8 
REMARK    6  A    between atoms: C11_13  and  O2_14 
REMARK    7  A    between atoms: C12_16  and  C13_17 
REMARK    8  A    between atoms: C13_17  and  O3_18 
REMARK    9  A    between atoms: C13_17  and  C14_20 
REMARK   10  A    between atoms: C14_20  and  O4_21 
REMARK   11  A    between atoms: C14_20  and  C15_23 
REMARK   12  A    between atoms: C15_23  and  C16_24 
REMARK   13  A    between atoms: C16_24  and  O5_25 
REMARK   14  A    between atoms: C16_24  and  C17_27 
REMARK   15  A    between atoms: C17_27  and  O6_28 
ROOT
HETATM    1  N1  UNL     1     -25.254  40.664  15.978  1.00  0.00     0.111 N 
HETATM    2  C4  UNL     1     -24.649  39.535  15.343  1.00  0.00     0.278 C 
HETATM    3  C11 UNL     1     -25.777  39.661  14.291  1.00  0.00     0.189 C 
HETATM    4  C12 UNL     1     -25.634  41.132  14.594  1.00  0.00     0.285 C 
ENDROOT
BRANCH   4   5
HETATM    5  C13 UNL     1     -26.922  41.899  14.659  1.00  0.00     0.183 C 
BRANCH   5   6
HETATM    6  O3  UNL     1     -26.721  43.165  15.274  1.00  0.00    -0.391 OA
ATOM      7  H3  UNL     1     -27.454  43.384  15.836  1.00  0.00     0.210 HD
ENDBRANCH   5   6
BRANCH   5   8
HETATM    8  C14 UNL     1     -27.510  42.162  13.291  1.00  0.00     0.151 C 
BRANCH   8   9
HETATM    9  O4  UNL     1     -27.674  43.540  13.103  1.00  0.00    -0.393 OA
ATOM     10  H4  UNL     1     -26.924  43.892  12.638  1.00  0.00     0.210 HD
ENDBRANCH   8   9
BRANCH   8  11
HETATM   11  C15 UNL     1     -28.694  41.362  12.899  1.00  0.00     0.068 C 
BRANCH  11  12
HETATM   12  C16 UNL     1     -28.383  40.503  11.690  1.00  0.00     0.144 C 
BRANCH  12  13
HETATM   13  O5  UNL     1     -28.222  39.162  12.012  1.00  0.00    -0.393 OA
ATOM     14  H5  UNL     1     -29.020  38.660  11.902  1.00  0.00     0.210 HD
ENDBRANCH  12  13
BRANCH  12  15
HETATM   15  C17 UNL     1     -27.311  40.989  10.790  1.00  0.00     0.195 C 
BRANCH  15  16
HETATM   16  O6  UNL     1     -26.465  39.868  10.533  1.00  0.00    -0.398 OA
ATOM     17  H6  UNL     1     -26.177  39.551  11.381  1.00  0.00     0.209 HD
ENDBRANCH  15  16
ENDBRANCH  12  15
ENDBRANCH  11  12
ENDBRANCH   8  11
ENDBRANCH   5   8
ENDBRANCH   4   5
BRANCH   1  18
HETATM   18  C3  UNL     1     -24.295  41.601  16.561  1.00  0.00     0.300 C 
BRANCH  18  19
HETATM   19  C2  UNL     1     -23.782  41.148  17.876  1.00  0.00    -0.007 C 
HETATM   20  C1  UNL     1     -24.591  40.878  18.889  1.00  0.00     0.008 C 
ENDBRANCH  18  19
ENDBRANCH   1  18
BRANCH   3  21
HETATM   21  O2  UNL     1     -25.384  39.188  13.074  1.00  0.00    -0.391 OA
ATOM     22  H2  UNL     1     -25.701  39.735  12.366  1.00  0.00     0.210 HD
ENDBRANCH   3  21
BRANCH   2  23
HETATM   23  C5  UNL     1     -24.743  38.205  16.084  1.00  0.00     0.206 C 
BRANCH  23  24
HETATM   24  O1  UNL     1     -23.521  37.979  16.661  1.00  0.00    -0.384 OA
BRANCH  24  25
HETATM   25  C6  UNL     1     -22.833  36.893  16.234  1.00  0.00     0.121 C 
HETATM   26  C7  UNL     1     -21.359  37.225  16.147  1.00  0.00     0.032 C 
HETATM   27  C8  UNL     1     -20.727  35.870  16.016  1.00  0.00     0.002 C 
HETATM   28  C9  UNL     1     -21.730  34.860  16.551  1.00  0.00     0.002 C 
HETATM   29  C10 UNL     1     -22.816  35.731  17.201  1.00  0.00     0.032 C 
ENDBRANCH  24  25
ENDBRANCH  23  24
ENDBRANCH   2  23
TORSDOF 15
ENDMDL
MODEL 3
REMARK VINA RESULT: -6.386813813      1.295      1.543
REMARK  15 active torsions:
REMARK  status: ('A' for Active; 'I' for Inactive)
REMARK    1  A    between atoms: C2_2  and  C3_3 
REMARK    2  A    between atoms: C3_3  and  N1_4 
REMARK    3  A    between atoms: C4_5  and  C5_6 
REMARK    4  A    between atoms: C5_6  and  O1_7 
REMARK    5  A    between atoms: O1_7  and  C6_8 
REMARK    6  A    between atoms: C11_13  and  O2_14 
REMARK    7  A    between atoms: C12_16  and  C13_17 
REMARK    8  A    between atoms: C13_17  and  O3_18 
REMARK    9  A    between atoms: C13_17  and  C14_20 
REMARK   10  A    between atoms: C14_20  and  O4_21 
REMARK   11  A    between atoms: C14_20  and  C15_23 
REMARK   12  A    between atoms: C15_23  and  C16_24 
REMARK   13  A    between atoms: C16_24  and  O5_25 
REMARK   14  A    between atoms: C16_24  and  C17_27 
REMARK   15  A    between atoms: C17_27  and  O6_28 
ROOT
HETATM    1  N1  UNL     1     -24.608  40.138  17.059  1.00  0.00     0.111 N 
HETATM    2  C4  UNL     1     -23.290  40.356  16.549  1.00  0.00     0.278 C 
HETATM    3  C11 UNL     1     -23.990  40.862  15.265  1.00  0.00     0.189 C 
HETATM    4  C12 UNL     1     -25.028  41.340  16.249  1.00  0.00     0.285 C 
ENDROOT
BRANCH   4   5
HETATM    5  C13 UNL     1     -26.453  41.174  15.806  1.00  0.00     0.183 C 
BRANCH   5   6
HETATM    6  O3  UNL     1     -27.307  42.051  16.528  1.00  0.00    -0.391 OA
ATOM      7  H3  UNL     1     -27.775  42.627  15.935  1.00  0.00     0.210 HD
ENDBRANCH   5   6
BRANCH   5   8
HETATM    8  C14 UNL     1     -26.643  41.481  14.339  1.00  0.00     0.151 C 
BRANCH   8   9
HETATM    9  O4  UNL     1     -26.712  42.867  14.150  1.00  0.00    -0.393 OA
ATOM     10  H4  UNL     1     -27.535  43.197  14.490  1.00  0.00     0.210 HD
ENDBRANCH   8   9
BRANCH   8  11
HETATM   11  C15 UNL     1     -27.700  40.729  13.622  1.00  0.00     0.068 C 
BRANCH  11  12
HETATM   12  C16 UNL     1     -27.110  39.952  12.462  1.00  0.00     0.144 C 
BRANCH  12  13
HETATM   13  O5  UNL     1     -25.762  39.671  12.634  1.00  0.00    -0.393 OA
ATOM     14  H5  UNL     1     -25.600  38.755  12.828  1.00  0.00     0.210 HD
ENDBRANCH  12  13
BRANCH  12  15
HETATM   15  C17 UNL     1     -27.399  40.470  11.104  1.00  0.00     0.195 C 
BRANCH  15  16
HETATM   16  O6  UNL     1     -26.441  39.866  10.234  1.00  0.00    -0.398 OA
ATOM     17  H6  UNL     1     -26.090  40.567   9.696  1.00  0.00     0.209 HD
ENDBRANCH  15  16
ENDBRANCH  12  15
ENDBRANCH  11  12
ENDBRANCH   8  11
ENDBRANCH   5   8
ENDBRANCH   4   5
BRANCH   1  18
HETATM   18  C3  UNL     1     -24.749  40.438  18.483  1.00  0.00     0.300 C 
BRANCH  18  19
HETATM   19  C2  UNL     1     -23.907  41.581  18.912  1.00  0.00    -0.007 C 
HETATM   20  C1  UNL     1     -23.689  41.851  20.189  1.00  0.00     0.008 C 
ENDBRANCH  18  19
ENDBRANCH   1  18
BRANCH   3  21
HETATM   21  O2  UNL     1     -23.225  41.776  14.603  1.00  0.00    -0.391 OA
ATOM     22  H2  UNL     1     -23.710  42.198  13.904  1.00  0.00     0.210 HD
ENDBRANCH   3  21
BRANCH   2  23
HETATM   23  C5  UNL     1     -22.457  39.111  16.259  1.00  0.00     0.206 C 
BRANCH  23  24
HETATM   24  O1  UNL     1     -23.262  38.026  16.489  1.00  0.00    -0.384 OA
BRANCH  24  25
HETATM   25  C6  UNL     1     -22.747  36.808  16.193  1.00  0.00     0.121 C 
HETATM   26  C7  UNL     1     -21.237  36.896  16.127  1.00  0.00     0.032 C 
HETATM   27  C8  UNL     1     -20.826  35.452  16.149  1.00  0.00     0.002 C 
HETATM   28  C9  UNL     1     -21.988  34.670  16.741  1.00  0.00     0.002 C 
HETATM   29  C10 UNL     1     -22.935  35.760  17.266  1.00  0.00     0.032 C 
ENDBRANCH  24  25
ENDBRANCH  23  24
ENDBRANCH   2  23
TORSDOF 15
ENDMDL
MODEL 4
REMARK VINA RESULT: -6.333834372      1.719      2.307
REMARK  15 active torsions:
REMARK  status: ('A' for Active; 'I' for Inactive)
REMARK    1  A    between atoms: C2_2  and  C3_3 
REMARK    2  A    between atoms: C3_3  and  N1_4 
REMARK    3  A    between atoms: C4_5  and  C5_6 
REMARK    4  A    between atoms: C5_6  and  O1_7 
REMARK    5  A    between atoms: O1_7  and  C6_8 
REMARK    6  A    between atoms: C11_13  and  O2_14 
REMARK    7  A    between atoms: C12_16  and  C13_17 
REMARK    8  A    between atoms: C13_17  and  O3_18 
REMARK    9  A    between atoms: C13_17  and  C14_20 
REMARK   10  A    between atoms: C14_20  and  O4_21 
REMARK   11  A    between atoms: C14_20  and  C15_23 
REMARK   12  A    between atoms: C15_23  and  C16_24 
REMARK   13  A    between atoms: C16_24  and  O5_25 
REMARK   14  A    between atoms: C16_24  and  C17_27 
REMARK   15  A    between atoms: C17_27  and  O6_28 
ROOT
HETATM    1  N1  UNL     1     -25.691  41.294  17.801  1.00  0.00     0.111 N 
HETATM    2  C4  UNL     1     -24.473  40.734  17.308  1.00  0.00     0.278 C 
HETATM    3  C11 UNL     1     -24.971  41.164  15.907  1.00  0.00     0.189 C 
HETATM    4  C12 UNL     1     -25.581  42.303  16.685  1.00  0.00     0.285 C 
ENDROOT
BRANCH   4   5
HETATM    5  C13 UNL     1     -26.955  42.715  16.243  1.00  0.00     0.183 C 
BRANCH   5   6
HETATM    6  O3  UNL     1     -27.139  44.114  16.418  1.00  0.00    -0.391 OA
ATOM      7  H3  UNL     1     -27.240  44.547  15.579  1.00  0.00     0.210 HD
ENDBRANCH   5   6
BRANCH   5   8
HETATM    8  C14 UNL     1     -27.208  42.416  14.783  1.00  0.00     0.151 C 
BRANCH   8   9
HETATM    9  O4  UNL     1     -27.066  43.587  14.028  1.00  0.00    -0.393 OA
ATOM     10  H4  UNL     1     -27.921  43.959  13.847  1.00  0.00     0.210 HD
ENDBRANCH   8   9
BRANCH   8  11
HETATM   11  C15 UNL     1     -28.426  41.640  14.453  1.00  0.00     0.068 C 
BRANCH  11  12
HETATM   12  C16 UNL     1     -28.093  40.172  14.277  1.00  0.00     0.144 C 
BRANCH  12  13
HETATM   13  O5  UNL     1     -27.942  39.506  15.485  1.00  0.00    -0.393 OA
ATOM     14  H5  UNL     1     -27.071  39.605  15.852  1.00  0.00     0.210 HD
ENDBRANCH  12  13
BRANCH  12  15
HETATM   15  C17 UNL     1     -27.002  39.850  13.327  1.00  0.00     0.195 C 
BRANCH  15  16
HETATM   16  O6  UNL     1     -26.392  38.652  13.808  1.00  0.00    -0.398 OA
ATOM     17  H6  UNL     1     -26.302  38.077  13.057  1.00  0.00     0.209 HD
ENDBRANCH  15  16
ENDBRANCH  12  15
ENDBRANCH  11  12
ENDBRANCH   8  11
ENDBRANCH   5   8
ENDBRANCH   4   5
BRANCH   1  18
HETATM   18  C3  UNL     1     -25.552  41.976  19.088  1.00  0.00     0.300 C 
BRANCH  18  19
HETATM   19  C2  UNL     1     -24.139  42.092  19.522  1.00  0.00    -0.007 C 
HETATM   20  C1  UNL     1     -23.754  41.775  20.748  1.00  0.00     0.008 C 
ENDBRANCH  18  19
ENDBRANCH   1  18
BRANCH   3  21
HETATM   21  O2  UNL     1     -23.934  41.413  15.059  1.00  0.00    -0.391 OA
ATOM     22  H2  UNL     1     -23.728  42.339  15.019  1.00  0.00     0.210 HD
ENDBRANCH   3  21
BRANCH   2  23
HETATM   23  C5  UNL     1     -24.335  39.217  17.393  1.00  0.00     0.206 C 
BRANCH  23  24
HETATM   24  O1  UNL     1     -24.253  38.748  16.108  1.00  0.00    -0.384 OA
BRANCH  24  25
HETATM   25  C6  UNL     1     -23.377  37.740  15.878  1.00  0.00     0.121 C 
HETATM   26  C7  UNL     1     -21.963  38.282  15.896  1.00  0.00     0.032 C 
HETATM   27  C8  UNL     1     -21.137  37.031  15.986  1.00  0.00     0.002 C 
HETATM   28  C9  UNL     1     -22.044  35.941  16.535  1.00  0.00     0.002 C 
HETATM   29  C10 UNL     1     -23.307  36.699  16.972  1.00  0.00     0.032 C 
ENDBRANCH  24  25
ENDBRANCH  23  24
ENDBRANCH   2  23
TORSDOF 15
ENDMDL
MODEL 5
REMARK VINA RESULT: -6.224423895      2.265      5.259
REMARK  15 active torsions:
REMARK  status: ('A' for Active; 'I' for Inactive)
REMARK    1  A    between atoms: C2_2  and  C3_3 
REMARK    2  A    between atoms: C3_3  and  N1_4 
REMARK    3  A    between atoms: C4_5  and  C5_6 
REMARK    4  A    between atoms: C5_6  and  O1_7 
REMARK    5  A    between atoms: O1_7  and  C6_8 
REMARK    6  A    between atoms: C11_13  and  O2_14 
REMARK    7  A    between atoms: C12_16  and  C13_17 
REMARK    8  A    between atoms: C13_17  and  O3_18 
REMARK    9  A    between atoms: C13_17  and  C14_20 
REMARK   10  A    between atoms: C14_20  and  O4_21 
REMARK   11  A    between atoms: C14_20  and  C15_23 
REMARK   12  A    between atoms: C15_23  and  C16_24 
REMARK   13  A    between atoms: C16_24  and  O5_25 
REMARK   14  A    between atoms: C16_24  and  C17_27 
REMARK   15  A    between atoms: C17_27  and  O6_28 
ROOT
HETATM    1  N1  UNL     1     -24.659  40.634  15.191  1.00  0.00     0.111 N 
HETATM    2  C4  UNL     1     -25.376  39.406  15.049  1.00  0.00     0.278 C 
HETATM    3  C11 UNL     1     -25.984  39.729  16.435  1.00  0.00     0.189 C 
HETATM    4  C12 UNL     1     -25.860  41.150  15.945  1.00  0.00     0.285 C 
ENDROOT
BRANCH   4   5
HETATM    5  C13 UNL     1     -25.414  42.145  16.977  1.00  0.00     0.183 C 
BRANCH   5   6
HETATM    6  O3  UNL     1     -26.034  43.405  16.758  1.00  0.00    -0.391 OA
ATOM      7  H3  UNL     1     -25.808  43.745  15.901  1.00  0.00     0.210 HD
ENDBRANCH   5   6
BRANCH   5   8
HETATM    8  C14 UNL     1     -25.767  41.718  18.384  1.00  0.00     0.151 C 
BRANCH   8   9
HETATM    9  O4  UNL     1     -27.148  41.839  18.584  1.00  0.00    -0.393 OA
ATOM     10  H4  UNL     1     -27.421  42.730  18.401  1.00  0.00     0.210 HD
ENDBRANCH   8   9
BRANCH   8  11
HETATM   11  C15 UNL     1     -24.954  42.283  19.486  1.00  0.00     0.068 C 
BRANCH  11  12
HETATM   12  C16 UNL     1     -24.794  41.273  20.605  1.00  0.00     0.144 C 
BRANCH  12  13
HETATM   13  O5  UNL     1     -26.005  40.913  21.180  1.00  0.00    -0.393 OA
ATOM     14  H5  UNL     1     -26.251  40.016  20.986  1.00  0.00     0.210 HD
ENDBRANCH  12  13
BRANCH  12  15
HETATM   15  C17 UNL     1     -23.764  41.575  21.627  1.00  0.00     0.195 C 
BRANCH  15  16
HETATM   16  O6  UNL     1     -22.602  41.997  20.912  1.00  0.00    -0.398 OA
ATOM     17  H6  UNL     1     -21.946  42.203  21.567  1.00  0.00     0.209 HD
ENDBRANCH  15  16
ENDBRANCH  12  15
ENDBRANCH  11  12
ENDBRANCH   8  11
ENDBRANCH   5   8
ENDBRANCH   4   5
BRANCH   1  18
HETATM   18  C3  UNL     1     -24.512  41.381  13.942  1.00  0.00     0.300 C 
BRANCH  18  19
HETATM   19  C2  UNL     1     -25.773  41.451  13.167  1.00  0.00    -0.007 C 
HETATM   20  C1  UNL     1     -26.064  42.483  12.391  1.00  0.00     0.008 C 
ENDBRANCH  18  19
ENDBRANCH   1  18
BRANCH   3  21
HETATM   21  O2  UNL     1     -27.222  39.178  16.581  1.00  0.00    -0.391 OA
ATOM     22  H2  UNL     1     -27.822  39.774  17.013  1.00  0.00     0.210 HD
ENDBRANCH   3  21
BRANCH   2  23
HETATM   23  C5  UNL     1     -24.551  38.124  15.103  1.00  0.00     0.206 C 
BRANCH  23  24
HETATM   24  O1  UNL     1     -24.151  37.958  16.404  1.00  0.00    -0.384 OA
BRANCH  24  25
HETATM   25  C6  UNL     1     -22.860  37.600  16.607  1.00  0.00     0.121 C 
HETATM   26  C7  UNL     1     -22.677  36.138  16.261  1.00  0.00     0.032 C 
HETATM   27  C8  UNL     1     -21.184  36.003  16.196  1.00  0.00     0.002 C 
HETATM   28  C9  UNL     1     -20.623  37.400  15.972  1.00  0.00     0.002 C 
HETATM   29  C10 UNL     1     -21.866  38.250  15.671  1.00  0.00     0.032 C 
ENDBRANCH  24  25
ENDBRANCH  23  24
ENDBRANCH   2  23
TORSDOF 15
ENDMDL
