MODEL 1
REMARK VINA RESULT: -6.302403688      0.000      0.000
REMARK  2 active torsions:
REMARK  status: ('A' for Active; 'I' for Inactive)
REMARK    1  A    between atoms: C2_2  and  C5_5 
REMARK    2  A    between atoms: C9_9  and  C10_10 
ROOT
HETATM    1  C5  UNL     1      22.981 -23.557  73.921  1.00  0.00    -0.006 C 
HETATM    2  C6  UNL     1      21.815 -24.430  73.593  1.00  0.00     0.005 C 
HETATM    3  C7  UNL     1      21.299 -24.033  72.223  1.00  0.00     0.001 C 
HETATM    4  C8  UNL     1      20.829 -22.596  72.352  1.00  0.00     0.015 C 
HETATM    5  C9  UNL     1      22.115 -21.770  72.504  1.00  0.00     0.087 C 
HETATM    6  C11 UNL     1      22.622 -22.079  73.894  1.00  0.00     0.020 C 
ENDROOT
BRANCH   1   7
HETATM    7  C2  UNL     1      23.612 -23.897  75.251  1.00  0.00    -0.048 C 
HETATM    8  C1  UNL     1      23.165 -22.854  76.272  1.00  0.00     0.015 C 
HETATM    9  C3  UNL     1      25.096 -23.895  75.225  1.00  0.00     0.015 C 
HETATM   10  C4  UNL     1      23.112 -25.231  75.763  1.00  0.00     0.015 C 
ENDBRANCH   1   7
BRANCH   5  11
HETATM   11  C10 UNL     1      21.869 -20.348  72.276  1.00  0.00     0.177 C 
HETATM   12  O1  UNL     1      22.134 -19.517  73.178  1.00  0.00    -0.648 OA
HETATM   13  O2  UNL     1      21.352 -19.918  71.085  1.00  0.00    -0.648 OA
ENDBRANCH   5  11
TORSDOF 2
ENDMDL
MODEL 2
REMARK VINA RESULT: -6.175040328      2.083      3.145
REMARK  2 active torsions:
REMARK  status: ('A' for Active; 'I' for Inactive)
REMARK    1  A    between atoms: C2_2  and  C5_5 
REMARK    2  A    between atoms: C9_9  and  C10_10 
ROOT
HETATM    1  C5  UNL     1      23.960 -24.414  73.156  1.00  0.00    -0.006 C 
HETATM    2  C6  UNL     1      24.213 -24.397  74.628  1.00  0.00     0.005 C 
HETATM    3  C7  UNL     1      23.076 -23.646  75.294  1.00  0.00     0.001 C 
HETATM    4  C8  UNL     1      23.140 -22.228  74.757  1.00  0.00     0.015 C 
HETATM    5  C9  UNL     1      22.689 -22.336  73.294  1.00  0.00     0.087 C 
HETATM    6  C11 UNL     1      23.833 -23.014  72.576  1.00  0.00     0.020 C 
ENDROOT
BRANCH   1   7
HETATM    7  C2  UNL     1      25.009 -25.184  72.390  1.00  0.00    -0.048 C 
HETATM    8  C1  UNL     1      25.791 -24.197  71.528  1.00  0.00     0.015 C 
HETATM    9  C3  UNL     1      24.448 -26.222  71.488  1.00  0.00     0.015 C 
HETATM   10  C4  UNL     1      26.014 -25.814  73.330  1.00  0.00     0.015 C 
ENDBRANCH   1   7
BRANCH   5  11
HETATM   11  C10 UNL     1      22.346 -21.029  72.739  1.00  0.00     0.177 C 
HETATM   12  O1  UNL     1      22.025 -20.928  71.530  1.00  0.00    -0.648 OA
HETATM   13  O2  UNL     1      22.373 -19.914  73.532  1.00  0.00    -0.648 OA
ENDBRANCH   5  11
TORSDOF 2
ENDMDL
MODEL 3
REMARK VINA RESULT: -6.170178800      0.804      1.104
REMARK  2 active torsions:
REMARK  status: ('A' for Active; 'I' for Inactive)
REMARK    1  A    between atoms: C2_2  and  C5_5 
REMARK    2  A    between atoms: C9_9  and  C10_10 
ROOT
HETATM    1  C5  UNL     1      23.387 -23.732  73.273  1.00  0.00    -0.006 C 
HETATM    2  C6  UNL     1      22.179 -24.597  73.126  1.00  0.00     0.005 C 
HETATM    3  C7  UNL     1      21.347 -24.055  71.980  1.00  0.00     0.001 C 
HETATM    4  C8  UNL     1      20.917 -22.661  72.398  1.00  0.00     0.015 C 
HETATM    5  C9  UNL     1      22.199 -21.817  72.341  1.00  0.00     0.087 C 
HETATM    6  C11 UNL     1      23.027 -22.275  73.519  1.00  0.00     0.020 C 
ENDROOT
BRANCH   1   7
HETATM    7  C2  UNL     1      24.321 -24.211  74.360  1.00  0.00    -0.048 C 
HETATM    8  C1  UNL     1      25.387 -23.140  74.579  1.00  0.00     0.015 C 
HETATM    9  C3  UNL     1      25.020 -25.479  74.031  1.00  0.00     0.015 C 
HETATM   10  C4  UNL     1      23.591 -24.357  75.678  1.00  0.00     0.015 C 
ENDBRANCH   1   7
BRANCH   5  11
HETATM   11  C10 UNL     1      21.901 -20.386  72.359  1.00  0.00     0.177 C 
HETATM   12  O1  UNL     1      22.253 -19.689  73.341  1.00  0.00    -0.648 OA
HETATM   13  O2  UNL     1      21.240 -19.805  71.313  1.00  0.00    -0.648 OA
ENDBRANCH   5  11
TORSDOF 2
ENDMDL
MODEL 4
REMARK VINA RESULT: -6.117747408      2.101      3.212
REMARK  2 active torsions:
REMARK  status: ('A' for Active; 'I' for Inactive)
REMARK    1  A    between atoms: C2_2  and  C5_5 
REMARK    2  A    between atoms: C9_9  and  C10_10 
ROOT
HETATM    1  C5  UNL     1      23.995 -24.406  73.148  1.00  0.00    -0.006 C 
HETATM    2  C6  UNL     1      24.230 -24.401  74.623  1.00  0.00     0.005 C 
HETATM    3  C7  UNL     1      23.080 -23.662  75.281  1.00  0.00     0.001 C 
HETATM    4  C8  UNL     1      23.144 -22.239  74.758  1.00  0.00     0.015 C 
HETATM    5  C9  UNL     1      22.711 -22.337  73.288  1.00  0.00     0.087 C 
HETATM    6  C11 UNL     1      23.869 -23.002  72.579  1.00  0.00     0.020 C 
ENDROOT
BRANCH   1   7
HETATM    7  C2  UNL     1      25.058 -25.164  72.389  1.00  0.00    -0.048 C 
HETATM    8  C1  UNL     1      24.366 -26.189  71.494  1.00  0.00     0.015 C 
HETATM    9  C3  UNL     1      26.007 -25.899  73.263  1.00  0.00     0.015 C 
HETATM   10  C4  UNL     1      25.825 -24.243  71.463  1.00  0.00     0.015 C 
ENDBRANCH   1   7
BRANCH   5  11
HETATM   11  C10 UNL     1      22.368 -21.026  72.741  1.00  0.00     0.177 C 
HETATM   12  O1  UNL     1      22.055 -20.917  71.531  1.00  0.00    -0.648 OA
HETATM   13  O2  UNL     1      22.388 -19.917  73.542  1.00  0.00    -0.648 OA
ENDBRANCH   5  11
TORSDOF 2
ENDMDL
MODEL 5
REMARK VINA RESULT: -6.099183177      2.109      3.099
REMARK  2 active torsions:
REMARK  status: ('A' for Active; 'I' for Inactive)
REMARK    1  A    between atoms: C2_2  and  C5_5 
REMARK    2  A    between atoms: C9_9  and  C10_10 
ROOT
HETATM    1  C5  UNL     1      23.936 -24.422  73.068  1.00  0.00    -0.006 C 
HETATM    2  C6  UNL     1      24.203 -24.433  74.537  1.00  0.00     0.005 C 
HETATM    3  C7  UNL     1      23.079 -23.683  75.227  1.00  0.00     0.001 C 
HETATM    4  C8  UNL     1      23.153 -22.256  74.715  1.00  0.00     0.015 C 
HETATM    5  C9  UNL     1      22.686 -22.334  73.254  1.00  0.00     0.087 C 
HETATM    6  C11 UNL     1      23.818 -23.010  72.514  1.00  0.00     0.020 C 
ENDROOT
BRANCH   1   7
HETATM    7  C2  UNL     1      24.971 -25.188  72.279  1.00  0.00    -0.048 C 
HETATM    8  C1  UNL     1      25.931 -25.847  73.266  1.00  0.00     0.015 C 
HETATM    9  C3  UNL     1      25.777 -24.337  71.367  1.00  0.00     0.015 C 
HETATM   10  C4  UNL     1      24.331 -26.313  71.494  1.00  0.00     0.015 C 
ENDBRANCH   1   7
BRANCH   5  11
HETATM   11  C10 UNL     1      22.351 -21.014  72.726  1.00  0.00     0.177 C 
HETATM   12  O1  UNL     1      22.043 -20.886  71.517  1.00  0.00    -0.648 OA
HETATM   13  O2  UNL     1      22.372 -19.918  73.544  1.00  0.00    -0.648 OA
ENDBRANCH   5  11
TORSDOF 2
ENDMDL
