MODEL 1
REMARK VINA RESULT: -5.162507207      0.000      0.000
REMARK  2 active torsions:
REMARK  status: ('A' for Active; 'I' for Inactive)
REMARK    1  A    between atoms: C6_7  and  N1_8 
REMARK    2  A    between atoms: N1_8  and  C7_10 
ROOT
HETATM    1  C1  UNL     1      26.168 -25.342  69.330  1.00  0.00     0.068 C 
HETATM    2  S1  UNL     1      25.600 -26.233  71.022  1.00  0.00    -0.260 SA
HETATM    3  C2  UNL     1      27.305 -26.995  71.165  1.00  0.00     0.068 C 
HETATM    4  C3  UNL     1      24.070 -26.898  70.105  1.00  0.00     0.053 C 
HETATM    5  C4  UNL     1      23.237 -25.587  70.000  1.00  0.00     0.011 C 
HETATM    6  C5  UNL     1      22.891 -25.230  71.403  1.00  0.00     0.026 C 
HETATM    7  C6  UNL     1      23.772 -24.374  72.191  1.00  0.00     0.090 C 
HETATM    8  C9  UNL     1      25.275 -24.476  71.912  1.00  0.00     0.078 C 
ENDROOT
BRANCH   7   9
HETATM    9  N1  UNL     1      23.401 -22.983  72.208  1.00  0.00    -0.375 N 
ATOM     10  H1  UNL     1      23.439 -22.464  71.331  1.00  0.00     0.161 HD
BRANCH   9  11
HETATM   11  C7  UNL     1      22.986 -22.294  73.379  1.00  0.00     0.066 C 
HETATM   12  C8  UNL     1      23.071 -22.919  74.728  1.00  0.00     0.088 C 
HETATM   13  N2  UNL     1      22.527 -21.099  73.253  1.00  0.00    -0.389 N 
ATOM     14  H22 UNL     1      22.470 -20.671  72.330  1.00  0.00     0.157 HD
ATOM     15  H21 UNL     1      22.229 -20.604  74.094  1.00  0.00     0.157 HD
ENDBRANCH   9  11
ENDBRANCH   7   9
TORSDOF 2
ENDMDL
MODEL 2
REMARK VINA RESULT: -5.125953557      0.804      1.067
REMARK  2 active torsions:
REMARK  status: ('A' for Active; 'I' for Inactive)
REMARK    1  A    between atoms: C6_7  and  N1_8 
REMARK    2  A    between atoms: N1_8  and  C7_10 
ROOT
HETATM    1  C1  UNL     1      25.971 -25.610  69.056  1.00  0.00     0.068 C 
HETATM    2  S1  UNL     1      25.523 -26.366  70.847  1.00  0.00    -0.260 SA
HETATM    3  C2  UNL     1      27.169 -27.260  70.856  1.00  0.00     0.068 C 
HETATM    4  C3  UNL     1      23.855 -26.945  70.135  1.00  0.00     0.053 C 
HETATM    5  C4  UNL     1      23.119 -25.577  70.042  1.00  0.00     0.011 C 
HETATM    6  C5  UNL     1      22.957 -25.124  71.450  1.00  0.00     0.026 C 
HETATM    7  C6  UNL     1      23.982 -24.305  72.091  1.00  0.00     0.090 C 
HETATM    8  C9  UNL     1      25.433 -24.547  71.663  1.00  0.00     0.078 C 
ENDROOT
BRANCH   7   9
HETATM    9  N1  UNL     1      23.725 -22.890  72.066  1.00  0.00    -0.375 N 
ATOM     10  H1  UNL     1      24.233 -22.320  71.390  1.00  0.00     0.161 HD
BRANCH   9  11
HETATM   11  C7  UNL     1      22.802 -22.243  72.930  1.00  0.00     0.066 C 
HETATM   12  C8  UNL     1      21.789 -21.281  72.416  1.00  0.00     0.088 C 
HETATM   13  N2  UNL     1      22.855 -22.506  74.188  1.00  0.00    -0.389 N 
ATOM     14  H22 UNL     1      23.549 -23.165  74.541  1.00  0.00     0.157 HD
ATOM     15  H21 UNL     1      22.192 -22.041  74.809  1.00  0.00     0.157 HD
ENDBRANCH   9  11
ENDBRANCH   7   9
TORSDOF 2
ENDMDL
MODEL 3
REMARK VINA RESULT: -5.052079275      1.240      2.521
REMARK  2 active torsions:
REMARK  status: ('A' for Active; 'I' for Inactive)
REMARK    1  A    between atoms: C6_7  and  N1_8 
REMARK    2  A    between atoms: N1_8  and  C7_10 
ROOT
HETATM    1  C1  UNL     1      23.980 -27.396  70.348  1.00  0.00     0.068 C 
HETATM    2  S1  UNL     1      24.275 -25.485  69.856  1.00  0.00    -0.260 SA
HETATM    3  C2  UNL     1      23.506 -25.822  68.182  1.00  0.00     0.068 C 
HETATM    4  C3  UNL     1      26.092 -25.675  70.394  1.00  0.00     0.053 C 
HETATM    5  C4  UNL     1      25.907 -25.705  71.939  1.00  0.00     0.011 C 
HETATM    6  C5  UNL     1      25.394 -24.355  72.298  1.00  0.00     0.026 C 
HETATM    7  C6  UNL     1      23.959 -24.088  72.329  1.00  0.00     0.090 C 
HETATM    8  C9  UNL     1      23.087 -24.856  71.331  1.00  0.00     0.078 C 
ENDROOT
BRANCH   7   9
HETATM    9  N1  UNL     1      23.358 -24.183  73.633  1.00  0.00    -0.375 N 
ATOM     10  H1  UNL     1      23.098 -25.107  73.978  1.00  0.00     0.161 HD
BRANCH   9  11
HETATM   11  C7  UNL     1      23.107 -23.061  74.467  1.00  0.00     0.066 C 
HETATM   12  C8  UNL     1      23.167 -23.159  75.952  1.00  0.00     0.088 C 
HETATM   13  N2  UNL     1      22.822 -21.937  73.910  1.00  0.00    -0.389 N 
ATOM     14  H22 UNL     1      22.781 -21.870  72.893  1.00  0.00     0.157 HD
ATOM     15  H21 UNL     1      22.642 -21.131  74.509  1.00  0.00     0.157 HD
ENDBRANCH   9  11
ENDBRANCH   7   9
TORSDOF 2
ENDMDL
MODEL 4
REMARK VINA RESULT: -4.953873168      2.532      5.076
REMARK  2 active torsions:
REMARK  status: ('A' for Active; 'I' for Inactive)
REMARK    1  A    between atoms: C6_7  and  N1_8 
REMARK    2  A    between atoms: N1_8  and  C7_10 
ROOT
HETATM    1  C1  UNL     1      23.236 -22.406  73.466  1.00  0.00     0.068 C 
HETATM    2  S1  UNL     1      23.539 -24.365  73.686  1.00  0.00    -0.260 SA
HETATM    3  C2  UNL     1      22.468 -24.335  75.222  1.00  0.00     0.068 C 
HETATM    4  C3  UNL     1      25.410 -24.048  73.531  1.00  0.00     0.053 C 
HETATM    5  C4  UNL     1      25.502 -23.761  72.003  1.00  0.00     0.011 C 
HETATM    6  C5  UNL     1      25.132 -25.042  71.342  1.00  0.00     0.026 C 
HETATM    7  C6  UNL     1      23.742 -25.331  71.004  1.00  0.00     0.090 C 
HETATM    8  C9  UNL     1      22.667 -24.762  71.936  1.00  0.00     0.078 C 
ENDROOT
BRANCH   7   9
HETATM    9  N1  UNL     1      23.378 -25.030  69.644  1.00  0.00    -0.375 N 
ATOM     10  H1  UNL     1      22.947 -24.126  69.450  1.00  0.00     0.161 HD
BRANCH   9  11
HETATM   11  C7  UNL     1      23.587 -25.921  68.559  1.00  0.00     0.066 C 
HETATM   12  C8  UNL     1      24.874 -25.956  67.810  1.00  0.00     0.088 C 
HETATM   13  N2  UNL     1      22.630 -26.713  68.225  1.00  0.00    -0.389 N 
ATOM     14  H22 UNL     1      21.749 -26.689  68.738  1.00  0.00     0.157 HD
ATOM     15  H21 UNL     1      22.781 -27.353  67.445  1.00  0.00     0.157 HD
ENDBRANCH   9  11
ENDBRANCH   7   9
TORSDOF 2
ENDMDL
MODEL 5
REMARK VINA RESULT: -4.885969046      2.569      5.303
REMARK  2 active torsions:
REMARK  status: ('A' for Active; 'I' for Inactive)
REMARK    1  A    between atoms: C6_7  and  N1_8 
REMARK    2  A    between atoms: N1_8  and  C7_10 
ROOT
HETATM    1  C1  UNL     1      22.418 -21.760  72.559  1.00  0.00     0.068 C 
HETATM    2  S1  UNL     1      22.100 -23.698  72.907  1.00  0.00    -0.260 SA
HETATM    3  C2  UNL     1      20.311 -23.471  72.403  1.00  0.00     0.068 C 
HETATM    4  C3  UNL     1      22.894 -23.475  74.622  1.00  0.00     0.053 C 
HETATM    5  C4  UNL     1      24.389 -23.345  74.205  1.00  0.00     0.011 C 
HETATM    6  C5  UNL     1      24.750 -24.669  73.631  1.00  0.00     0.026 C 
HETATM    7  C6  UNL     1      24.581 -24.933  72.205  1.00  0.00     0.090 C 
HETATM    8  C9  UNL     1      23.414 -24.230  71.502  1.00  0.00     0.078 C 
ENDROOT
BRANCH   7   9
HETATM    9  N1  UNL     1      25.769 -24.754  71.414  1.00  0.00    -0.375 N 
ATOM     10  H1  UNL     1      26.313 -23.900  71.547  1.00  0.00     0.161 HD
BRANCH   9  11
HETATM   11  C7  UNL     1      26.228 -25.699  70.459  1.00  0.00     0.066 C 
HETATM   12  C8  UNL     1      25.881 -25.587  69.015  1.00  0.00     0.088 C 
HETATM   13  N2  UNL     1      26.964 -26.673  70.867  1.00  0.00    -0.389 N 
ATOM     14  H22 UNL     1      27.202 -26.749  71.856  1.00  0.00     0.157 HD
ATOM     15  H21 UNL     1      27.294 -27.351  70.181  1.00  0.00     0.157 HD
ENDBRANCH   9  11
ENDBRANCH   7   9
TORSDOF 2
ENDMDL
