MODEL 1
REMARK VINA RESULT: -8.196696453      0.000      0.000
REMARK  9 active torsions:
REMARK  status: ('A' for Active; 'I' for Inactive)
REMARK    1  A    between atoms: C1_2  and  C2_4 
REMARK    2  A    between atoms: C2_4  and  C3_5 
REMARK    3  A    between atoms: C3_5  and  C4_6 
REMARK    4  A    between atoms: C4_6  and  C5_7 
REMARK    5  A    between atoms: C5_7  and  C6_8 
REMARK    6  A    between atoms: C9_11  and  C10_12 
REMARK    7  A    between atoms: C14_16  and  O3_17 
REMARK    8  A    between atoms: O3_17  and  C15_18 
REMARK    9  A    between atoms: C15_18  and  C16_19 
ROOT
HETATM    1  C6  UNL     1       9.296  19.629  37.859  1.00  0.00    -0.056 A 
HETATM    2  C7  UNL     1       9.789  19.020  36.761  1.00  0.00     0.008 A 
HETATM    3  C8  UNL     1      11.142  18.665  36.710  1.00  0.00     0.011 A 
HETATM    4  C9  UNL     1      11.951  18.932  37.759  1.00  0.00    -0.021 A 
HETATM    5  C14 UNL     1      11.445  19.575  38.923  1.00  0.00     0.075 A 
HETATM    6  C28 UNL     1      10.118  19.911  38.945  1.00  0.00     0.044 A 
ENDROOT
BRANCH   5   7
HETATM    7  O3  UNL     1      12.282  19.823  39.942  1.00  0.00    -0.350 OA
BRANCH   7   8
HETATM    8  C15 UNL     1      12.291  20.586  41.065  1.00  0.00     0.180 C 
BRANCH   8   9
HETATM    9  C16 UNL     1      13.608  20.946  41.682  1.00  0.00     0.010 C 
HETATM   10  C17 UNL     1      13.414  20.928  43.180  1.00  0.00     0.007 C 
HETATM   11  C18 UNL     1      12.541  22.010  43.715  1.00  0.00     0.000 C 
HETATM   12  C19 UNL     1      12.621  22.001  45.244  1.00  0.00     0.000 C 
HETATM   13  C20 UNL     1      13.258  23.247  45.773  1.00  0.00     0.000 C 
HETATM   14  C21 UNL     1      14.661  23.004  46.289  1.00  0.00     0.000 C 
HETATM   15  C22 UNL     1      15.682  23.832  45.554  1.00  0.00     0.000 C 
HETATM   16  C23 UNL     1      16.491  22.996  44.585  1.00  0.00     0.000 C 
HETATM   17  C24 UNL     1      16.202  23.420  43.140  1.00  0.00     0.000 C 
HETATM   18  C25 UNL     1      16.481  22.242  42.259  1.00  0.00     0.000 C 
HETATM   19  C26 UNL     1      15.686  22.192  41.000  1.00  0.00     0.000 C 
HETATM   20  C27 UNL     1      14.205  22.225  41.159  1.00  0.00     0.007 C 
ENDBRANCH   8   9
ENDBRANCH   7   8
ENDBRANCH   5   7
BRANCH   4  21
HETATM   21  C10 UNL     1      13.371  18.595  37.767  1.00  0.00     0.021 C 
HETATM   22  C11 UNL     1      14.330  19.472  37.037  1.00  0.00     0.009 C 
HETATM   23  C12 UNL     1      14.360  18.535  35.838  1.00  0.00     0.001 C 
HETATM   24  C13 UNL     1      13.714  17.496  36.743  1.00  0.00     0.009 C 
ENDBRANCH   4  21
BRANCH   1  25
HETATM   25  C5  UNL     1       7.858  20.030  37.987  1.00  0.00     0.038 C 
BRANCH  25  26
HETATM   26  C4  UNL     1       7.176  19.152  39.031  1.00  0.00     0.005 C 
BRANCH  26  27
HETATM   27  C3  UNL     1       6.285  18.175  38.330  1.00  0.00     0.011 C 
BRANCH  27  28
HETATM   28  C2  UNL     1       6.607  16.749  38.663  1.00  0.00     0.113 C 
BRANCH  28  29
HETATM   29  C1  UNL     1       7.736  16.201  37.906  1.00  0.00     0.172 C 
HETATM   30  O1  UNL     1       7.663  15.814  36.714  1.00  0.00    -0.648 OA
HETATM   31  O2  UNL     1       8.965  16.121  38.601  1.00  0.00    -0.648 OA
ENDBRANCH  28  29
ENDBRANCH  27  28
ENDBRANCH  26  27
ENDBRANCH  25  26
ENDBRANCH   1  25
TORSDOF 9
ENDMDL
MODEL 2
REMARK VINA RESULT: -7.882103146      5.177      9.569
REMARK  9 active torsions:
REMARK  status: ('A' for Active; 'I' for Inactive)
REMARK    1  A    between atoms: C1_2  and  C2_4 
REMARK    2  A    between atoms: C2_4  and  C3_5 
REMARK    3  A    between atoms: C3_5  and  C4_6 
REMARK    4  A    between atoms: C4_6  and  C5_7 
REMARK    5  A    between atoms: C5_7  and  C6_8 
REMARK    6  A    between atoms: C9_11  and  C10_12 
REMARK    7  A    between atoms: C14_16  and  O3_17 
REMARK    8  A    between atoms: O3_17  and  C15_18 
REMARK    9  A    between atoms: C15_18  and  C16_19 
ROOT
HETATM    1  C6  UNL     1      17.367  21.848  44.553  1.00  0.00    -0.056 A 
HETATM    2  C7  UNL     1      16.462  20.848  44.582  1.00  0.00     0.008 A 
HETATM    3  C8  UNL     1      15.307  20.932  43.796  1.00  0.00     0.011 A 
HETATM    4  C9  UNL     1      15.100  22.013  43.011  1.00  0.00    -0.021 A 
HETATM    5  C14 UNL     1      16.046  23.075  42.972  1.00  0.00     0.075 A 
HETATM    6  C28 UNL     1      17.166  22.966  43.751  1.00  0.00     0.044 A 
ENDROOT
BRANCH   5   7
HETATM    7  O3  UNL     1      15.802  24.132  42.180  1.00  0.00    -0.350 OA
BRANCH   7   8
HETATM    8  C15 UNL     1      16.458  24.835  41.222  1.00  0.00     0.180 C 
BRANCH   8   9
HETATM    9  C16 UNL     1      15.759  25.112  39.926  1.00  0.00     0.010 C 
HETATM   10  C17 UNL     1      15.603  23.787  39.215  1.00  0.00     0.007 C 
HETATM   11  C18 UNL     1      16.874  23.179  38.732  1.00  0.00     0.000 C 
HETATM   12  C19 UNL     1      16.542  21.975  37.846  1.00  0.00     0.000 C 
HETATM   13  C20 UNL     1      16.955  22.200  36.427  1.00  0.00     0.000 C 
HETATM   14  C21 UNL     1      15.773  22.447  35.513  1.00  0.00     0.000 C 
HETATM   15  C22 UNL     1      15.855  23.792  34.839  1.00  0.00     0.000 C 
HETATM   16  C23 UNL     1      14.885  24.784  35.446  1.00  0.00     0.000 C 
HETATM   17  C24 UNL     1      15.645  25.919  36.142  1.00  0.00     0.000 C 
HETATM   18  C25 UNL     1      14.751  26.475  37.207  1.00  0.00     0.000 C 
HETATM   19  C26 UNL     1      15.455  27.073  38.376  1.00  0.00     0.000 C 
HETATM   20  C27 UNL     1      16.412  26.180  39.089  1.00  0.00     0.007 C 
ENDBRANCH   8   9
ENDBRANCH   7   8
ENDBRANCH   5   7
BRANCH   4  21
HETATM   21  C10 UNL     1      13.915  22.166  42.174  1.00  0.00     0.021 C 
HETATM   22  C11 UNL     1      12.622  21.582  42.632  1.00  0.00     0.009 C 
HETATM   23  C12 UNL     1      12.796  20.358  41.745  1.00  0.00     0.001 C 
HETATM   24  C13 UNL     1      13.881  21.143  41.021  1.00  0.00     0.009 C 
ENDBRANCH   4  21
BRANCH   1  25
HETATM   25  C5  UNL     1      18.630  21.823  45.360  1.00  0.00     0.038 C 
BRANCH  25  26
HETATM   26  C4  UNL     1      18.286  21.859  46.845  1.00  0.00     0.005 C 
BRANCH  26  27
HETATM   27  C3  UNL     1      17.695  23.195  47.169  1.00  0.00     0.011 C 
BRANCH  27  28
HETATM   28  C2  UNL     1      16.627  23.121  48.219  1.00  0.00     0.113 C 
BRANCH  28  29
HETATM   29  C1  UNL     1      15.280  22.895  47.683  1.00  0.00     0.172 C 
HETATM   30  O1  UNL     1      14.864  23.377  46.602  1.00  0.00    -0.648 OA
HETATM   31  O2  UNL     1      14.434  22.078  48.467  1.00  0.00    -0.648 OA
ENDBRANCH  28  29
ENDBRANCH  27  28
ENDBRANCH  26  27
ENDBRANCH  25  26
ENDBRANCH   1  25
TORSDOF 9
ENDMDL
MODEL 3
REMARK VINA RESULT: -7.767269535      5.129      9.637
REMARK  9 active torsions:
REMARK  status: ('A' for Active; 'I' for Inactive)
REMARK    1  A    between atoms: C1_2  and  C2_4 
REMARK    2  A    between atoms: C2_4  and  C3_5 
REMARK    3  A    between atoms: C3_5  and  C4_6 
REMARK    4  A    between atoms: C4_6  and  C5_7 
REMARK    5  A    between atoms: C5_7  and  C6_8 
REMARK    6  A    between atoms: C9_11  and  C10_12 
REMARK    7  A    between atoms: C14_16  and  O3_17 
REMARK    8  A    between atoms: O3_17  and  C15_18 
REMARK    9  A    between atoms: C15_18  and  C16_19 
ROOT
HETATM    1  C6  UNL     1      17.632  21.965  44.064  1.00  0.00    -0.056 A 
HETATM    2  C7  UNL     1      16.787  20.983  44.441  1.00  0.00     0.008 A 
HETATM    3  C8  UNL     1      15.502  20.921  43.890  1.00  0.00     0.011 A 
HETATM    4  C9  UNL     1      15.110  21.845  42.984  1.00  0.00    -0.021 A 
HETATM    5  C14 UNL     1      15.990  22.886  42.579  1.00  0.00     0.075 A 
HETATM    6  C28 UNL     1      17.241  22.922  43.134  1.00  0.00     0.044 A 
ENDROOT
BRANCH   5   7
HETATM    7  O3  UNL     1      15.562  23.784  41.677  1.00  0.00    -0.350 OA
BRANCH   7   8
HETATM    8  C15 UNL     1      16.112  24.694  40.834  1.00  0.00     0.180 C 
BRANCH   8   9
HETATM    9  C16 UNL     1      16.578  24.238  39.485  1.00  0.00     0.010 C 
HETATM   10  C17 UNL     1      16.404  25.404  38.540  1.00  0.00     0.007 C 
HETATM   11  C18 UNL     1      14.991  25.771  38.246  1.00  0.00     0.000 C 
HETATM   12  C19 UNL     1      14.971  26.803  37.115  1.00  0.00     0.000 C 
HETATM   13  C20 UNL     1      14.326  26.260  35.880  1.00  0.00     0.000 C 
HETATM   14  C21 UNL     1      15.332  25.958  34.788  1.00  0.00     0.000 C 
HETATM   15  C22 UNL     1      15.312  24.505  34.391  1.00  0.00     0.000 C 
HETATM   16  C23 UNL     1      16.511  23.757  34.934  1.00  0.00     0.000 C 
HETATM   17  C24 UNL     1      16.069  22.712  35.965  1.00  0.00     0.000 C 
HETATM   18  C25 UNL     1      17.222  22.473  36.889  1.00  0.00     0.000 C 
HETATM   19  C26 UNL     1      16.850  22.050  38.269  1.00  0.00     0.000 C 
HETATM   20  C27 UNL     1      15.932  22.964  39.008  1.00  0.00     0.007 C 
ENDBRANCH   8   9
ENDBRANCH   7   8
ENDBRANCH   5   7
BRANCH   4  21
HETATM   21  C10 UNL     1      13.783  21.842  42.377  1.00  0.00     0.021 C 
HETATM   22  C11 UNL     1      12.702  21.024  42.998  1.00  0.00     0.009 C 
HETATM   23  C12 UNL     1      12.901  19.898  41.993  1.00  0.00     0.001 C 
HETATM   24  C13 UNL     1      13.699  20.894  41.165  1.00  0.00     0.009 C 
ENDBRANCH   4  21
BRANCH   1  25
HETATM   25  C5  UNL     1      19.024  22.088  44.605  1.00  0.00     0.038 C 
BRANCH  25  26
HETATM   26  C4  UNL     1      18.991  21.987  46.126  1.00  0.00     0.005 C 
BRANCH  26  27
HETATM   27  C3  UNL     1      18.269  23.180  46.671  1.00  0.00     0.011 C 
BRANCH  27  28
HETATM   28  C2  UNL     1      17.196  22.812  47.653  1.00  0.00     0.113 C 
BRANCH  28  29
HETATM   29  C1  UNL     1      15.838  23.110  47.189  1.00  0.00     0.172 C 
HETATM   30  O1  UNL     1      15.570  23.922  46.270  1.00  0.00    -0.648 OA
HETATM   31  O2  UNL     1      14.796  22.415  47.846  1.00  0.00    -0.648 OA
ENDBRANCH  28  29
ENDBRANCH  27  28
ENDBRANCH  26  27
ENDBRANCH  25  26
ENDBRANCH   1  25
TORSDOF 9
ENDMDL
MODEL 4
REMARK VINA RESULT: -7.700094794      2.299      4.813
REMARK  9 active torsions:
REMARK  status: ('A' for Active; 'I' for Inactive)
REMARK    1  A    between atoms: C1_2  and  C2_4 
REMARK    2  A    between atoms: C2_4  and  C3_5 
REMARK    3  A    between atoms: C3_5  and  C4_6 
REMARK    4  A    between atoms: C4_6  and  C5_7 
REMARK    5  A    between atoms: C5_7  and  C6_8 
REMARK    6  A    between atoms: C9_11  and  C10_12 
REMARK    7  A    between atoms: C14_16  and  O3_17 
REMARK    8  A    between atoms: O3_17  and  C15_18 
REMARK    9  A    between atoms: C15_18  and  C16_19 
ROOT
HETATM    1  C6  UNL     1      13.674  19.073  36.976  1.00  0.00    -0.056 A 
HETATM    2  C7  UNL     1      12.580  18.765  36.249  1.00  0.00     0.008 A 
HETATM    3  C8  UNL     1      11.316  18.795  36.848  1.00  0.00     0.011 A 
HETATM    4  C9  UNL     1      11.193  19.130  38.151  1.00  0.00    -0.021 A 
HETATM    5  C14 UNL     1      12.339  19.456  38.930  1.00  0.00     0.075 A 
HETATM    6  C28 UNL     1      13.562  19.419  38.318  1.00  0.00     0.044 A 
ENDROOT
BRANCH   5   7
HETATM    7  O3  UNL     1      12.174  19.783  40.221  1.00  0.00    -0.350 OA
BRANCH   7   8
HETATM    8  C15 UNL     1      12.279  20.895  40.992  1.00  0.00     0.180 C 
BRANCH   8   9
HETATM    9  C16 UNL     1      13.560  21.144  41.728  1.00  0.00     0.010 C 
HETATM   10  C17 UNL     1      13.243  21.069  43.204  1.00  0.00     0.007 C 
HETATM   11  C18 UNL     1      12.393  22.177  43.722  1.00  0.00     0.000 C 
HETATM   12  C19 UNL     1      12.348  22.093  45.251  1.00  0.00     0.000 C 
HETATM   13  C20 UNL     1      13.011  23.272  45.891  1.00  0.00     0.000 C 
HETATM   14  C21 UNL     1      14.350  22.919  46.503  1.00  0.00     0.000 C 
HETATM   15  C22 UNL     1      15.474  23.716  45.893  1.00  0.00     0.000 C 
HETATM   16  C23 UNL     1      16.310  22.877  44.950  1.00  0.00     0.000 C 
HETATM   17  C24 UNL     1      16.165  23.384  43.510  1.00  0.00     0.000 C 
HETATM   18  C25 UNL     1      16.446  22.233  42.595  1.00  0.00     0.000 C 
HETATM   19  C26 UNL     1      15.755  22.290  41.276  1.00  0.00     0.000 C 
HETATM   20  C27 UNL     1      14.270  22.408  41.320  1.00  0.00     0.007 C 
ENDBRANCH   8   9
ENDBRANCH   7   8
ENDBRANCH   5   7
BRANCH   4  21
HETATM   21  C10 UNL     1       9.906  19.174  38.838  1.00  0.00     0.021 C 
HETATM   22  C11 UNL     1       8.824  18.242  38.411  1.00  0.00     0.009 C 
HETATM   23  C12 UNL     1       8.146  19.322  37.580  1.00  0.00     0.001 C 
HETATM   24  C13 UNL     1       9.014  20.323  38.330  1.00  0.00     0.009 C 
ENDBRANCH   4  21
BRANCH   1  25
HETATM   25  C5  UNL     1      15.058  19.071  36.399  1.00  0.00     0.038 C 
BRANCH  25  26
HETATM   26  C4  UNL     1      15.256  17.817  35.555  1.00  0.00     0.005 C 
BRANCH  26  27
HETATM   27  C3  UNL     1      15.088  16.615  36.432  1.00  0.00     0.011 C 
BRANCH  27  28
HETATM   28  C2  UNL     1      15.735  15.386  35.866  1.00  0.00     0.113 C 
BRANCH  28  29
HETATM   29  C1  UNL     1      16.494  14.607  36.849  1.00  0.00     0.172 C 
HETATM   30  O1  UNL     1      16.871  15.051  37.961  1.00  0.00    -0.648 OA
HETATM   31  O2  UNL     1      16.797  13.276  36.480  1.00  0.00    -0.648 OA
ENDBRANCH  28  29
ENDBRANCH  27  28
ENDBRANCH  26  27
ENDBRANCH  25  26
ENDBRANCH   1  25
TORSDOF 9
ENDMDL
MODEL 5
REMARK VINA RESULT: -7.661388522      5.152     10.604
REMARK  9 active torsions:
REMARK  status: ('A' for Active; 'I' for Inactive)
REMARK    1  A    between atoms: C1_2  and  C2_4 
REMARK    2  A    between atoms: C2_4  and  C3_5 
REMARK    3  A    between atoms: C3_5  and  C4_6 
REMARK    4  A    between atoms: C4_6  and  C5_7 
REMARK    5  A    between atoms: C5_7  and  C6_8 
REMARK    6  A    between atoms: C9_11  and  C10_12 
REMARK    7  A    between atoms: C14_16  and  O3_17 
REMARK    8  A    between atoms: O3_17  and  C15_18 
REMARK    9  A    between atoms: C15_18  and  C16_19 
ROOT
HETATM    1  C6  UNL     1      17.555  21.932  43.944  1.00  0.00    -0.056 A 
HETATM    2  C7  UNL     1      16.562  21.284  44.587  1.00  0.00     0.008 A 
HETATM    3  C8  UNL     1      15.295  21.194  44.000  1.00  0.00     0.011 A 
HETATM    4  C9  UNL     1      15.069  21.755  42.791  1.00  0.00    -0.021 A 
HETATM    5  C14 UNL     1      16.107  22.442  42.102  1.00  0.00     0.075 A 
HETATM    6  C28 UNL     1      17.336  22.514  42.701  1.00  0.00     0.044 A 
ENDROOT
BRANCH   5   7
HETATM    7  O3  UNL     1      15.841  22.986  40.904  1.00  0.00    -0.350 OA
BRANCH   7   8
HETATM    8  C15 UNL     1      16.172  24.111  40.221  1.00  0.00     0.180 C 
BRANCH   8   9
HETATM    9  C16 UNL     1      16.677  23.981  38.817  1.00  0.00     0.010 C 
HETATM   10  C17 UNL     1      16.363  25.281  38.112  1.00  0.00     0.007 C 
HETATM   11  C18 UNL     1      14.915  25.533  37.874  1.00  0.00     0.000 C 
HETATM   12  C19 UNL     1      14.768  26.756  36.963  1.00  0.00     0.000 C 
HETATM   13  C20 UNL     1      14.181  26.392  35.637  1.00  0.00     0.000 C 
HETATM   14  C21 UNL     1      15.206  26.425  34.523  1.00  0.00     0.000 C 
HETATM   15  C22 UNL     1      15.351  25.083  33.852  1.00  0.00     0.000 C 
HETATM   16  C23 UNL     1      16.632  24.387  34.259  1.00  0.00     0.000 C 
HETATM   17  C24 UNL     1      16.320  23.118  35.061  1.00  0.00     0.000 C 
HETATM   18  C25 UNL     1      17.501  22.838  35.939  1.00  0.00     0.000 C 
HETATM   19  C26 UNL     1      17.190  22.116  37.205  1.00  0.00     0.000 C 
HETATM   20  C27 UNL     1      16.179  22.758  38.093  1.00  0.00     0.007 C 
ENDBRANCH   8   9
ENDBRANCH   7   8
ENDBRANCH   5   7
BRANCH   4  21
HETATM   21  C10 UNL     1      13.771  21.703  42.126  1.00  0.00     0.021 C 
HETATM   22  C11 UNL     1      12.610  21.108  42.848  1.00  0.00     0.009 C 
HETATM   23  C12 UNL     1      12.766  19.781  42.120  1.00  0.00     0.001 C 
HETATM   24  C13 UNL     1      13.668  20.521  41.142  1.00  0.00     0.009 C 
ENDBRANCH   4  21
BRANCH   1  25
HETATM   25  C5  UNL     1      18.938  22.061  44.508  1.00  0.00     0.038 C 
BRANCH  25  26
HETATM   26  C4  UNL     1      19.103  21.098  45.678  1.00  0.00     0.005 C 
BRANCH  26  27
HETATM   27  C3  UNL     1      20.306  21.505  46.471  1.00  0.00     0.011 C 
BRANCH  27  28
HETATM   28  C2  UNL     1      20.797  22.878  46.119  1.00  0.00     0.113 C 
BRANCH  28  29
HETATM   29  C1  UNL     1      22.114  23.200  46.677  1.00  0.00     0.172 C 
HETATM   30  O1  UNL     1      23.169  22.583  46.392  1.00  0.00    -0.648 OA
HETATM   31  O2  UNL     1      22.150  24.280  47.590  1.00  0.00    -0.648 OA
ENDBRANCH  28  29
ENDBRANCH  27  28
ENDBRANCH  26  27
ENDBRANCH  25  26
ENDBRANCH   1  25
TORSDOF 9
ENDMDL
