MODEL 1
REMARK VINA RESULT: -9.531881768      0.000      0.000
REMARK  9 active torsions:
REMARK  status: ('A' for Active; 'I' for Inactive)
REMARK    1  A    between atoms: C2_2  and  C3_3 
REMARK    2  A    between atoms: C3_3  and  C4_4 
REMARK    3  A    between atoms: C4_4  and  C5_5 
REMARK    4  A    between atoms: C5_5  and  C6_6 
REMARK    5  A    between atoms: C6_6  and  C7_7 
REMARK    6  A    between atoms: C10_10  and  N1_11 
REMARK       I    between atoms: N1_11  and  C11_13 
REMARK    7  A    between atoms: C11_13  and  C12_15 
REMARK    8  A    between atoms: C14_19  and  C15_20 
REMARK    9  A    between atoms: C21_26  and  C22_27 
ROOT
HETATM    1  C12 UNL     1      18.808  22.344  45.016  1.00  0.00     0.048 A 
HETATM    2  C13 UNL     1      17.782  21.741  45.687  1.00  0.00     0.105 A 
HETATM    3  N2  UNL     1      16.532  21.640  45.125  1.00  0.00    -0.364 N 
ATOM      4  H2  UNL     1      15.779  21.186  45.642  1.00  0.00     0.165 HD
HETATM    5  C14 UNL     1      16.292  22.135  43.897  1.00  0.00     0.053 A 
HETATM    6  C21 UNL     1      17.285  22.755  43.169  1.00  0.00     0.003 A 
HETATM    7  C28 UNL     1      18.534  22.849  43.748  1.00  0.00     0.033 A 
ENDROOT
BRANCH   1   8
HETATM    8  C11 UNL     1      20.133  22.437  45.611  1.00  0.00     0.257 C 
HETATM    9  N1  UNL     1      20.478  21.688  46.757  1.00  0.00    -0.323 N 
ATOM     10  H1  UNL     1      19.748  21.083  47.131  1.00  0.00     0.169 HD
HETATM   11  O1  UNL     1      20.988  23.199  45.095  1.00  0.00    -0.267 OA
BRANCH   9  12
HETATM   12  C10 UNL     1      21.701  21.673  47.446  1.00  0.00     0.035 A 
HETATM   13  C9  UNL     1      22.341  20.577  47.958  1.00  0.00     0.030 A 
HETATM   14  C8  UNL     1      23.551  20.698  48.656  1.00  0.00     0.009 A 
HETATM   15  C7  UNL     1      24.146  21.911  48.858  1.00  0.00    -0.058 A 
HETATM   16  C30 UNL     1      23.517  23.018  48.349  1.00  0.00     0.009 A 
HETATM   17  C29 UNL     1      22.324  22.915  47.659  1.00  0.00     0.030 A 
BRANCH  15  18
HETATM   18  C6  UNL     1      25.458  22.040  49.621  1.00  0.00     0.038 C 
BRANCH  18  19
HETATM   19  C5  UNL     1      25.200  22.924  50.764  1.00  0.00     0.005 C 
BRANCH  19  20
HETATM   20  C4  UNL     1      24.694  22.344  51.992  1.00  0.00     0.000 C 
BRANCH  20  21
HETATM   21  C3  UNL     1      23.994  23.171  52.978  1.00  0.00    -0.000 C 
BRANCH  21  22
HETATM   22  C2  UNL     1      23.889  24.610  52.711  1.00  0.00    -0.005 C 
HETATM   23  C1  UNL     1      22.854  25.271  53.669  1.00  0.00     0.005 C 
ENDBRANCH  21  22
ENDBRANCH  20  21
ENDBRANCH  19  20
ENDBRANCH  18  19
ENDBRANCH  15  18
ENDBRANCH   9  12
ENDBRANCH   1   8
BRANCH   6  24
HETATM   24  C22 UNL     1      17.003  23.286  41.840  1.00  0.00    -0.024 A 
HETATM   25  C23 UNL     1      16.759  24.643  41.681  1.00  0.00     0.012 A 
HETATM   26  C24 UNL     1      16.488  25.235  40.485  1.00  0.00     0.001 A 
HETATM   27  C25 UNL     1      16.452  24.441  39.355  1.00  0.00     0.000 A 
HETATM   28  C26 UNL     1      16.691  23.080  39.471  1.00  0.00     0.001 A 
HETATM   29  C27 UNL     1      16.964  22.512  40.703  1.00  0.00     0.012 A 
ENDBRANCH   6  24
BRANCH   5  30
HETATM   30  C15 UNL     1      14.933  21.972  43.396  1.00  0.00    -0.009 A 
HETATM   31  C16 UNL     1      14.041  23.024  43.450  1.00  0.00     0.014 A 
HETATM   32  C17 UNL     1      12.731  22.909  42.983  1.00  0.00     0.001 A 
HETATM   33  C18 UNL     1      12.353  21.686  42.454  1.00  0.00     0.000 A 
HETATM   34  C19 UNL     1      13.262  20.638  42.406  1.00  0.00     0.001 A 
HETATM   35  C20 UNL     1      14.542  20.769  42.869  1.00  0.00     0.014 A 
ENDBRANCH   5  30
TORSDOF 9
ENDMDL
MODEL 2
REMARK VINA RESULT: -9.401015752      1.470      2.084
REMARK  9 active torsions:
REMARK  status: ('A' for Active; 'I' for Inactive)
REMARK    1  A    between atoms: C2_2  and  C3_3 
REMARK    2  A    between atoms: C3_3  and  C4_4 
REMARK    3  A    between atoms: C4_4  and  C5_5 
REMARK    4  A    between atoms: C5_5  and  C6_6 
REMARK    5  A    between atoms: C6_6  and  C7_7 
REMARK    6  A    between atoms: C10_10  and  N1_11 
REMARK       I    between atoms: N1_11  and  C11_13 
REMARK    7  A    between atoms: C11_13  and  C12_15 
REMARK    8  A    between atoms: C14_19  and  C15_20 
REMARK    9  A    between atoms: C21_26  and  C22_27 
ROOT
HETATM    1  C12 UNL     1      18.483  22.135  45.151  1.00  0.00     0.048 A 
HETATM    2  C13 UNL     1      17.422  21.488  45.718  1.00  0.00     0.105 A 
HETATM    3  N2  UNL     1      16.217  21.398  45.064  1.00  0.00    -0.364 N 
ATOM      4  H2  UNL     1      15.437  20.910  45.504  1.00  0.00     0.165 HD
HETATM    5  C14 UNL     1      16.057  21.949  43.847  1.00  0.00     0.053 A 
HETATM    6  C21 UNL     1      17.089  22.616  43.222  1.00  0.00     0.003 A 
HETATM    7  C28 UNL     1      18.292  22.697  43.893  1.00  0.00     0.033 A 
ENDROOT
BRANCH   1   8
HETATM    8  C11 UNL     1      19.761  22.216  45.844  1.00  0.00     0.257 C 
HETATM    9  N1  UNL     1      20.551  23.386  45.795  1.00  0.00    -0.323 N 
ATOM     10  H1  UNL     1      20.168  24.160  45.254  1.00  0.00     0.169 HD
HETATM   11  O1  UNL     1      20.172  21.226  46.498  1.00  0.00    -0.267 OA
BRANCH   9  12
HETATM   12  C10 UNL     1      21.798  23.615  46.398  1.00  0.00     0.035 A 
HETATM   13  C9  UNL     1      23.014  23.161  45.965  1.00  0.00     0.030 A 
HETATM   14  C8  UNL     1      24.191  23.434  46.678  1.00  0.00     0.009 A 
HETATM   15  C7  UNL     1      24.179  24.163  47.833  1.00  0.00    -0.058 A 
HETATM   16  C30 UNL     1      22.967  24.625  48.278  1.00  0.00     0.009 A 
HETATM   17  C29 UNL     1      21.799  24.365  47.587  1.00  0.00     0.030 A 
BRANCH  15  18
HETATM   18  C6  UNL     1      25.458  24.455  48.608  1.00  0.00     0.038 C 
BRANCH  18  19
HETATM   19  C5  UNL     1      25.331  23.783  49.906  1.00  0.00     0.005 C 
BRANCH  19  20
HETATM   20  C4  UNL     1      25.455  22.340  49.959  1.00  0.00     0.000 C 
BRANCH  20  21
HETATM   21  C3  UNL     1      24.367  21.513  50.488  1.00  0.00    -0.000 C 
BRANCH  21  22
HETATM   22  C2  UNL     1      23.879  20.411  49.653  1.00  0.00    -0.005 C 
HETATM   23  C1  UNL     1      22.614  20.847  48.855  1.00  0.00     0.005 C 
ENDBRANCH  21  22
ENDBRANCH  20  21
ENDBRANCH  19  20
ENDBRANCH  18  19
ENDBRANCH  15  18
ENDBRANCH   9  12
ENDBRANCH   1   8
BRANCH   6  24
HETATM   24  C22 UNL     1      16.894  23.207  41.903  1.00  0.00    -0.024 A 
HETATM   25  C23 UNL     1      16.718  24.578  41.785  1.00  0.00     0.012 A 
HETATM   26  C24 UNL     1      16.530  25.225  40.601  1.00  0.00     0.001 A 
HETATM   27  C25 UNL     1      16.512  24.476  39.441  1.00  0.00     0.000 A 
HETATM   28  C26 UNL     1      16.684  23.102  39.516  1.00  0.00     0.001 A 
HETATM   29  C27 UNL     1      16.874  22.477  40.736  1.00  0.00     0.012 A 
ENDBRANCH   6  24
BRANCH   5  30
HETATM   30  C15 UNL     1      14.740  21.793  43.243  1.00  0.00    -0.009 A 
HETATM   31  C16 UNL     1      13.862  22.858  43.205  1.00  0.00     0.014 A 
HETATM   32  C17 UNL     1      12.592  22.750  42.637  1.00  0.00     0.001 A 
HETATM   33  C18 UNL     1      12.239  21.521  42.104  1.00  0.00     0.000 A 
HETATM   34  C19 UNL     1      13.134  20.461  42.149  1.00  0.00     0.001 A 
HETATM   35  C20 UNL     1      14.374  20.585  42.710  1.00  0.00     0.014 A 
ENDBRANCH   5  30
TORSDOF 9
ENDMDL
MODEL 3
REMARK VINA RESULT: -9.142617539      1.760      3.136
REMARK  9 active torsions:
REMARK  status: ('A' for Active; 'I' for Inactive)
REMARK    1  A    between atoms: C2_2  and  C3_3 
REMARK    2  A    between atoms: C3_3  and  C4_4 
REMARK    3  A    between atoms: C4_4  and  C5_5 
REMARK    4  A    between atoms: C5_5  and  C6_6 
REMARK    5  A    between atoms: C6_6  and  C7_7 
REMARK    6  A    between atoms: C10_10  and  N1_11 
REMARK       I    between atoms: N1_11  and  C11_13 
REMARK    7  A    between atoms: C11_13  and  C12_15 
REMARK    8  A    between atoms: C14_19  and  C15_20 
REMARK    9  A    between atoms: C21_26  and  C22_27 
ROOT
HETATM    1  C12 UNL     1      18.728  22.353  44.898  1.00  0.00     0.048 A 
HETATM    2  C13 UNL     1      17.686  21.780  45.570  1.00  0.00     0.105 A 
HETATM    3  N2  UNL     1      16.434  21.712  45.009  1.00  0.00    -0.364 N 
ATOM      4  H2  UNL     1      15.670  21.280  45.528  1.00  0.00     0.165 HD
HETATM    5  C14 UNL     1      16.208  22.210  43.780  1.00  0.00     0.053 A 
HETATM    6  C21 UNL     1      17.217  22.801  43.050  1.00  0.00     0.003 A 
HETATM    7  C28 UNL     1      18.468  22.862  43.629  1.00  0.00     0.033 A 
ENDROOT
BRANCH   1   8
HETATM    8  C11 UNL     1      20.056  22.411  45.492  1.00  0.00     0.257 C 
HETATM    9  N1  UNL     1      20.427  21.548  46.547  1.00  0.00    -0.323 N 
ATOM     10  H1  UNL     1      19.715  20.887  46.855  1.00  0.00     0.169 HD
HETATM   11  O1  UNL     1      20.889  23.245  45.060  1.00  0.00    -0.267 OA
BRANCH   9  12
HETATM   12  C10 UNL     1      21.656  21.486  47.223  1.00  0.00     0.035 A 
HETATM   13  C9  UNL     1      22.879  21.864  46.738  1.00  0.00     0.030 A 
HETATM   14  C8  UNL     1      24.044  21.723  47.506  1.00  0.00     0.009 A 
HETATM   15  C7  UNL     1      24.013  21.206  48.770  1.00  0.00    -0.058 A 
HETATM   16  C30 UNL     1      22.794  20.825  49.269  1.00  0.00     0.009 A 
HETATM   17  C29 UNL     1      21.637  20.957  48.525  1.00  0.00     0.030 A 
BRANCH  15  18
HETATM   18  C6  UNL     1      25.281  21.050  49.601  1.00  0.00     0.038 C 
BRANCH  18  19
HETATM   19  C5  UNL     1      25.458  19.613  49.840  1.00  0.00     0.005 C 
BRANCH  19  20
HETATM   20  C4  UNL     1      24.709  18.675  49.030  1.00  0.00     0.000 C 
BRANCH  20  21
HETATM   21  C3  UNL     1      25.306  18.073  47.834  1.00  0.00    -0.000 C 
BRANCH  21  22
HETATM   22  C2  UNL     1      24.482  17.999  46.623  1.00  0.00    -0.005 C 
HETATM   23  C1  UNL     1      25.300  17.398  45.440  1.00  0.00     0.005 C 
ENDBRANCH  21  22
ENDBRANCH  20  21
ENDBRANCH  19  20
ENDBRANCH  18  19
ENDBRANCH  15  18
ENDBRANCH   9  12
ENDBRANCH   1   8
BRANCH   6  24
HETATM   24  C22 UNL     1      16.950  23.335  41.720  1.00  0.00    -0.024 A 
HETATM   25  C23 UNL     1      16.736  24.697  41.558  1.00  0.00     0.012 A 
HETATM   26  C24 UNL     1      16.481  25.293  40.361  1.00  0.00     0.001 A 
HETATM   27  C25 UNL     1      16.429  24.499  39.232  1.00  0.00     0.000 A 
HETATM   28  C26 UNL     1      16.638  23.133  39.350  1.00  0.00     0.001 A 
HETATM   29  C27 UNL     1      16.896  22.561  40.584  1.00  0.00     0.012 A 
ENDBRANCH   6  24
BRANCH   5  30
HETATM   30  C15 UNL     1      14.845  22.083  43.280  1.00  0.00    -0.009 A 
HETATM   31  C16 UNL     1      13.983  23.161  43.327  1.00  0.00     0.014 A 
HETATM   32  C17 UNL     1      12.671  23.081  42.860  1.00  0.00     0.001 A 
HETATM   33  C18 UNL     1      12.258  21.865  42.339  1.00  0.00     0.000 A 
HETATM   34  C19 UNL     1      13.137  20.791  42.297  1.00  0.00     0.001 A 
HETATM   35  C20 UNL     1      14.419  20.888  42.760  1.00  0.00     0.014 A 
ENDBRANCH   5  30
TORSDOF 9
ENDMDL
MODEL 4
REMARK VINA RESULT: -8.916448979      6.315     13.566
REMARK  9 active torsions:
REMARK  status: ('A' for Active; 'I' for Inactive)
REMARK    1  A    between atoms: C2_2  and  C3_3 
REMARK    2  A    between atoms: C3_3  and  C4_4 
REMARK    3  A    between atoms: C4_4  and  C5_5 
REMARK    4  A    between atoms: C5_5  and  C6_6 
REMARK    5  A    between atoms: C6_6  and  C7_7 
REMARK    6  A    between atoms: C10_10  and  N1_11 
REMARK       I    between atoms: N1_11  and  C11_13 
REMARK    7  A    between atoms: C11_13  and  C12_15 
REMARK    8  A    between atoms: C14_19  and  C15_20 
REMARK    9  A    between atoms: C21_26  and  C22_27 
ROOT
HETATM    1  C12 UNL     1      12.847  20.098  40.761  1.00  0.00     0.048 A 
HETATM    2  C13 UNL     1      12.297  19.786  41.972  1.00  0.00     0.105 A 
HETATM    3  N2  UNL     1      12.728  20.399  43.123  1.00  0.00    -0.364 N 
ATOM      4  H2  UNL     1      12.303  20.152  44.017  1.00  0.00     0.165 HD
HETATM    5  C14 UNL     1      13.705  21.322  43.082  1.00  0.00     0.053 A 
HETATM    6  C21 UNL     1      14.302  21.680  41.892  1.00  0.00     0.003 A 
HETATM    7  C28 UNL     1      13.857  21.056  40.744  1.00  0.00     0.033 A 
ENDROOT
BRANCH   1   8
HETATM    8  C11 UNL     1      12.378  19.455  39.542  1.00  0.00     0.257 C 
HETATM    9  N1  UNL     1      11.024  19.090  39.379  1.00  0.00    -0.323 N 
ATOM     10  H1  UNL     1      10.405  19.308  40.159  1.00  0.00     0.169 HD
HETATM   11  O1  UNL     1      13.193  19.219  38.616  1.00  0.00    -0.267 OA
BRANCH   9  12
HETATM   12  C10 UNL     1      10.423  18.462  38.275  1.00  0.00     0.035 A 
HETATM   13  C9  UNL     1       9.862  19.076  37.188  1.00  0.00     0.030 A 
HETATM   14  C8  UNL     1       9.263  18.335  36.160  1.00  0.00     0.009 A 
HETATM   15  C7  UNL     1       9.211  16.970  36.195  1.00  0.00    -0.058 A 
HETATM   16  C30 UNL     1       9.770  16.342  37.277  1.00  0.00     0.009 A 
HETATM   17  C29 UNL     1      10.364  17.058  38.299  1.00  0.00     0.030 A 
BRANCH  15  18
HETATM   18  C6  UNL     1       8.555  16.167  35.078  1.00  0.00     0.038 C 
BRANCH  18  19
HETATM   19  C5  UNL     1       7.436  15.434  35.682  1.00  0.00     0.005 C 
BRANCH  19  20
HETATM   20  C4  UNL     1       6.290  16.182  36.158  1.00  0.00     0.000 C 
BRANCH  20  21
HETATM   21  C3  UNL     1       5.726  15.924  37.486  1.00  0.00    -0.000 C 
BRANCH  21  22
HETATM   22  C2  UNL     1       6.428  16.483  38.646  1.00  0.00    -0.005 C 
HETATM   23  C1  UNL     1       6.454  18.039  38.573  1.00  0.00     0.005 C 
ENDBRANCH  21  22
ENDBRANCH  20  21
ENDBRANCH  19  20
ENDBRANCH  18  19
ENDBRANCH  15  18
ENDBRANCH   9  12
ENDBRANCH   1   8
BRANCH   6  24
HETATM   24  C22 UNL     1      15.360  22.683  41.869  1.00  0.00    -0.024 A 
HETATM   25  C23 UNL     1      16.687  22.279  41.839  1.00  0.00     0.012 A 
HETATM   26  C24 UNL     1      17.746  23.135  41.816  1.00  0.00     0.001 A 
HETATM   27  C25 UNL     1      17.491  24.493  41.822  1.00  0.00     0.000 A 
HETATM   28  C26 UNL     1      16.178  24.938  41.851  1.00  0.00     0.001 A 
HETATM   29  C27 UNL     1      15.126  24.039  41.874  1.00  0.00     0.012 A 
ENDBRANCH   6  24
BRANCH   5  30
HETATM   30  C15 UNL     1      14.084  21.911  44.361  1.00  0.00    -0.009 A 
HETATM   31  C16 UNL     1      15.339  21.680  44.887  1.00  0.00     0.014 A 
HETATM   32  C17 UNL     1      15.741  22.223  46.109  1.00  0.00     0.001 A 
HETATM   33  C18 UNL     1      14.823  23.013  46.782  1.00  0.00     0.000 A 
HETATM   34  C19 UNL     1      13.565  23.235  46.238  1.00  0.00     0.001 A 
HETATM   35  C20 UNL     1      13.189  22.695  45.041  1.00  0.00     0.014 A 
ENDBRANCH   5  30
TORSDOF 9
ENDMDL
MODEL 5
REMARK VINA RESULT: -8.831848017      6.326     13.549
REMARK  9 active torsions:
REMARK  status: ('A' for Active; 'I' for Inactive)
REMARK    1  A    between atoms: C2_2  and  C3_3 
REMARK    2  A    between atoms: C3_3  and  C4_4 
REMARK    3  A    between atoms: C4_4  and  C5_5 
REMARK    4  A    between atoms: C5_5  and  C6_6 
REMARK    5  A    between atoms: C6_6  and  C7_7 
REMARK    6  A    between atoms: C10_10  and  N1_11 
REMARK       I    between atoms: N1_11  and  C11_13 
REMARK    7  A    between atoms: C11_13  and  C12_15 
REMARK    8  A    between atoms: C14_19  and  C15_20 
REMARK    9  A    between atoms: C21_26  and  C22_27 
ROOT
HETATM    1  C12 UNL     1      12.827  20.074  40.792  1.00  0.00     0.048 A 
HETATM    2  C13 UNL     1      12.320  19.747  42.017  1.00  0.00     0.105 A 
HETATM    3  N2  UNL     1      12.771  20.366  43.158  1.00  0.00    -0.364 N 
ATOM      4  H2  UNL     1      12.378  20.108  44.063  1.00  0.00     0.165 HD
HETATM    5  C14 UNL     1      13.725  21.311  43.090  1.00  0.00     0.053 A 
HETATM    6  C21 UNL     1      14.279  21.685  41.885  1.00  0.00     0.003 A 
HETATM    7  C28 UNL     1      13.815  21.054  40.749  1.00  0.00     0.033 A 
ENDROOT
BRANCH   1   8
HETATM    8  C11 UNL     1      12.337  19.424  39.585  1.00  0.00     0.257 C 
HETATM    9  N1  UNL     1      10.996  18.992  39.476  1.00  0.00    -0.323 N 
ATOM     10  H1  UNL     1      10.403  19.170  40.286  1.00  0.00     0.169 HD
HETATM   11  O1  UNL     1      13.120  19.242  38.621  1.00  0.00    -0.267 OA
BRANCH   9  12
HETATM   12  C10 UNL     1      10.379  18.350  38.391  1.00  0.00     0.035 A 
HETATM   13  C9  UNL     1      10.337  17.003  38.151  1.00  0.00     0.030 A 
HETATM   14  C8  UNL     1       9.711  16.485  37.009  1.00  0.00     0.009 A 
HETATM   15  C7  UNL     1       9.116  17.296  36.085  1.00  0.00    -0.058 A 
HETATM   16  C30 UNL     1       9.149  18.647  36.313  1.00  0.00     0.009 A 
HETATM   17  C29 UNL     1       9.762  19.174  37.434  1.00  0.00     0.030 A 
BRANCH  15  18
HETATM   18  C6  UNL     1       8.441  16.730  34.841  1.00  0.00     0.038 C 
BRANCH  18  19
HETATM   19  C5  UNL     1       7.312  15.914  35.304  1.00  0.00     0.005 C 
BRANCH  19  20
HETATM   20  C4  UNL     1       6.283  16.543  36.108  1.00  0.00     0.000 C 
BRANCH  20  21
HETATM   21  C3  UNL     1       5.856  15.946  37.376  1.00  0.00    -0.000 C 
BRANCH  21  22
HETATM   22  C2  UNL     1       6.405  16.510  38.615  1.00  0.00    -0.005 C 
HETATM   23  C1  UNL     1       6.374  18.066  38.570  1.00  0.00     0.005 C 
ENDBRANCH  21  22
ENDBRANCH  20  21
ENDBRANCH  19  20
ENDBRANCH  18  19
ENDBRANCH  15  18
ENDBRANCH   9  12
ENDBRANCH   1   8
BRANCH   6  24
HETATM   24  C22 UNL     1      15.314  22.711  41.835  1.00  0.00    -0.024 A 
HETATM   25  C23 UNL     1      16.621  22.353  41.533  1.00  0.00     0.012 A 
HETATM   26  C24 UNL     1      17.657  23.233  41.461  1.00  0.00     0.001 A 
HETATM   27  C25 UNL     1      17.399  24.569  41.702  1.00  0.00     0.000 A 
HETATM   28  C26 UNL     1      16.106  24.969  42.006  1.00  0.00     0.001 A 
HETATM   29  C27 UNL     1      15.077  24.046  42.070  1.00  0.00     0.012 A 
ENDBRANCH   6  24
BRANCH   5  30
HETATM   30  C15 UNL     1      14.128  21.904  44.360  1.00  0.00    -0.009 A 
HETATM   31  C16 UNL     1      13.244  22.691  45.071  1.00  0.00     0.014 A 
HETATM   32  C17 UNL     1      13.590  23.279  46.289  1.00  0.00     0.001 A 
HETATM   33  C18 UNL     1      14.870  23.041  46.765  1.00  0.00     0.000 A 
HETATM   34  C19 UNL     1      15.746  22.247  46.038  1.00  0.00     0.001 A 
HETATM   35  C20 UNL     1      15.389  21.679  44.847  1.00  0.00     0.014 A 
ENDBRANCH   5  30
TORSDOF 9
ENDMDL
