MODEL 1
REMARK VINA RESULT: -7.185928747      0.000      0.000
REMARK  4 active torsions:
REMARK  status: ('A' for Active; 'I' for Inactive)
REMARK    1  A    between atoms: N4_9  and  C4_11 
REMARK    2  A    between atoms: C4_11  and  C5_12 
REMARK    3  A    between atoms: C10_20  and  C11_21 
REMARK    4  A    between atoms: C13_25  and  N7_26 
ROOT
HETATM    1  N1  UNL     1     -11.794 -31.037  17.238  1.00  0.00    -0.190 NA
HETATM    2  C1  UNL     1     -11.106 -30.161  17.523  1.00  0.00     0.116 C 
HETATM    3  C2  UNL     1     -10.242 -29.025  17.868  1.00  0.00     0.125 C 
HETATM    4  N2  UNL     1     -10.431 -27.901  17.368  1.00  0.00    -0.291 N 
ATOM      5  H2  UNL     1     -11.220 -27.868  16.722  1.00  0.00     0.187 HD
HETATM    6  N3  UNL     1      -9.789 -26.700  17.515  1.00  0.00    -0.279 N 
ATOM      7  H3  UNL     1     -10.109 -25.878  17.002  1.00  0.00     0.189 HD
HETATM    8  C3  UNL     1      -8.674 -26.613  18.387  1.00  0.00     0.156 C 
HETATM    9  N4  UNL     1      -8.322 -25.523  18.933  1.00  0.00    -0.364 N 
ATOM     10  H4  UNL     1      -7.515 -25.498  19.556  1.00  0.00     0.162 HD
HETATM   11  S1  UNL     1      -7.827 -28.171  18.638  1.00  0.00    -0.076 SA
HETATM   12  C10 UNL     1      -9.175 -29.365  18.833  1.00  0.00     0.159 C 
ENDROOT
BRANCH  12  13
HETATM   13  C11 UNL     1      -8.627 -30.732  18.505  1.00  0.00     0.022 A 
HETATM   14  C12 UNL     1      -7.737 -31.063  17.521  1.00  0.00     0.106 A 
HETATM   15  N6  UNL     1      -7.396 -32.312  17.416  1.00  0.00    -0.346 N 
HETATM   16  C13 UNL     1      -7.923 -33.199  18.260  1.00  0.00     0.142 A 
ATOM     17  H6  UNL     1      -6.736 -32.609  16.698  1.00  0.00     0.167 HD
HETATM   18  S2  UNL     1      -8.936 -32.240  19.239  1.00  0.00    -0.056 SA
BRANCH  16  19
HETATM   19  N7  UNL     1      -7.696 -34.498  18.302  1.00  0.00    -0.380 N 
ATOM     20  H72 UNL     1      -7.846 -35.209  17.585  1.00  0.00     0.158 HD
ATOM     21  H71 UNL     1      -7.318 -35.037  19.082  1.00  0.00     0.158 HD
ENDBRANCH  16  19
ENDBRANCH  12  13
BRANCH   9  22
HETATM   22  C4  UNL     1      -9.076 -24.316  18.664  1.00  0.00     0.178 C 
BRANCH  22  23
HETATM   23  C5  UNL     1      -8.307 -23.354  17.859  1.00  0.00     0.026 A 
HETATM   24  C6  UNL     1      -8.005 -23.606  16.536  1.00  0.00     0.027 A 
HETATM   25  C7  UNL     1      -7.273 -22.681  15.787  1.00  0.00     0.003 A 
HETATM   26  C8  UNL     1      -6.854 -21.510  16.378  1.00  0.00     0.017 A 
HETATM   27  C9  UNL     1      -7.173 -21.293  17.695  1.00  0.00     0.088 A 
HETATM   28  N5  UNL     1      -7.883 -22.205  18.400  1.00  0.00    -0.368 N 
ATOM     29  H5  UNL     1      -8.102 -22.011  19.377  1.00  0.00     0.165 HD
ENDBRANCH  22  23
ENDBRANCH   9  22
TORSDOF 4
ENDMDL
MODEL 2
REMARK VINA RESULT: -7.184601319      1.187      1.297
REMARK  4 active torsions:
REMARK  status: ('A' for Active; 'I' for Inactive)
REMARK    1  A    between atoms: N4_9  and  C4_11 
REMARK    2  A    between atoms: C4_11  and  C5_12 
REMARK    3  A    between atoms: C10_20  and  C11_21 
REMARK    4  A    between atoms: C13_25  and  N7_26 
ROOT
HETATM    1  N1  UNL     1     -11.536 -30.563  15.981  1.00  0.00    -0.190 NA
HETATM    2  C1  UNL     1     -11.017 -29.647  16.443  1.00  0.00     0.116 C 
HETATM    3  C2  UNL     1     -10.360 -28.462  17.008  1.00  0.00     0.125 C 
HETATM    4  N2  UNL     1     -10.269 -27.406  16.355  1.00  0.00    -0.291 N 
ATOM      5  H2  UNL     1     -10.686 -27.463  15.426  1.00  0.00     0.187 HD
HETATM    6  N3  UNL     1      -9.720 -26.184  16.637  1.00  0.00    -0.279 N 
ATOM      7  H3  UNL     1      -9.751 -25.432  15.949  1.00  0.00     0.189 HD
HETATM    8  C3  UNL     1      -9.107 -25.976  17.900  1.00  0.00     0.156 C 
HETATM    9  N4  UNL     1      -8.999 -24.824  18.421  1.00  0.00    -0.364 N 
ATOM     10  H4  UNL     1      -8.553 -24.711  19.331  1.00  0.00     0.162 HD
HETATM   11  S1  UNL     1      -8.513 -27.477  18.673  1.00  0.00    -0.076 SA
HETATM   12  C10 UNL     1      -9.846 -28.668  18.379  1.00  0.00     0.159 C 
ENDROOT
BRANCH  12  13
HETATM   13  C11 UNL     1      -9.255 -30.052  18.483  1.00  0.00     0.022 A 
HETATM   14  C12 UNL     1      -9.728 -31.111  19.206  1.00  0.00     0.106 A 
HETATM   15  N6  UNL     1      -9.057 -32.223  19.151  1.00  0.00    -0.346 N 
HETATM   16  C13 UNL     1      -7.954 -32.276  18.404  1.00  0.00     0.142 A 
ATOM     17  H6  UNL     1      -9.369 -33.042  19.672  1.00  0.00     0.167 HD
HETATM   18  S2  UNL     1      -7.858 -30.703  17.753  1.00  0.00    -0.056 SA
BRANCH  16  19
HETATM   19  N7  UNL     1      -7.152 -33.309  18.230  1.00  0.00    -0.380 N 
ATOM     20  H72 UNL     1      -6.142 -33.377  18.354  1.00  0.00     0.158 HD
ATOM     21  H71 UNL     1      -7.409 -34.251  17.933  1.00  0.00     0.158 HD
ENDBRANCH  16  19
ENDBRANCH  12  13
BRANCH   9  22
HETATM   22  C4  UNL     1      -9.514 -23.670  17.711  1.00  0.00     0.178 C 
BRANCH  22  23
HETATM   23  C5  UNL     1      -8.435 -22.799  17.219  1.00  0.00     0.026 A 
HETATM   24  C6  UNL     1      -7.822 -23.033  16.004  1.00  0.00     0.027 A 
HETATM   25  C7  UNL     1      -6.799 -22.196  15.553  1.00  0.00     0.003 A 
HETATM   26  C8  UNL     1      -6.404 -21.129  16.329  1.00  0.00     0.017 A 
HETATM   27  C9  UNL     1      -7.035 -20.927  17.531  1.00  0.00     0.088 A 
HETATM   28  N5  UNL     1      -8.024 -21.754  17.946  1.00  0.00    -0.368 N 
ATOM     29  H5  UNL     1      -8.472 -21.573  18.845  1.00  0.00     0.165 HD
ENDBRANCH  22  23
ENDBRANCH   9  22
TORSDOF 4
ENDMDL
MODEL 3
REMARK VINA RESULT: -7.130631286      1.896      3.028
REMARK  4 active torsions:
REMARK  status: ('A' for Active; 'I' for Inactive)
REMARK    1  A    between atoms: N4_9  and  C4_11 
REMARK    2  A    between atoms: C4_11  and  C5_12 
REMARK    3  A    between atoms: C10_20  and  C11_21 
REMARK    4  A    between atoms: C13_25  and  N7_26 
ROOT
HETATM    1  N1  UNL     1      -5.615 -28.537  20.486  1.00  0.00    -0.190 NA
HETATM    2  C1  UNL     1      -6.347 -27.849  19.927  1.00  0.00     0.116 C 
HETATM    3  C2  UNL     1      -7.277 -26.949  19.234  1.00  0.00     0.125 C 
HETATM    4  N2  UNL     1      -7.480 -25.793  19.649  1.00  0.00    -0.291 N 
ATOM      5  H2  UNL     1      -6.949 -25.560  20.488  1.00  0.00     0.187 HD
HETATM    6  N3  UNL     1      -8.277 -24.772  19.202  1.00  0.00    -0.279 N 
ATOM      7  H3  UNL     1      -8.301 -23.881  19.697  1.00  0.00     0.189 HD
HETATM    8  C3  UNL     1      -9.069 -24.970  18.041  1.00  0.00     0.156 C 
HETATM    9  N4  UNL     1      -9.452 -24.008  17.309  1.00  0.00    -0.364 N 
ATOM     10  H4  UNL     1     -10.019 -24.187  16.481  1.00  0.00     0.162 HD
HETATM   11  S1  UNL     1      -9.465 -26.686  17.718  1.00  0.00    -0.076 SA
HETATM   12  C10 UNL     1      -7.909 -27.555  18.043  1.00  0.00     0.159 C 
ENDROOT
BRANCH  12  13
HETATM   13  C11 UNL     1      -8.242 -28.996  18.337  1.00  0.00     0.022 A 
HETATM   14  C12 UNL     1      -9.151 -29.478  19.237  1.00  0.00     0.106 A 
HETATM   15  N6  UNL     1      -9.280 -30.768  19.329  1.00  0.00    -0.346 N 
HETATM   16  C13 UNL     1      -8.530 -31.549  18.551  1.00  0.00     0.142 A 
ATOM     17  H6  UNL     1      -9.945 -31.176  19.985  1.00  0.00     0.167 HD
HETATM   18  S2  UNL     1      -7.609 -30.426  17.658  1.00  0.00    -0.056 SA
BRANCH  16  19
HETATM   19  N7  UNL     1      -8.524 -32.868  18.506  1.00  0.00    -0.380 N 
ATOM     20  H72 UNL     1      -7.918 -33.532  18.988  1.00  0.00     0.158 HD
ATOM     21  H71 UNL     1      -9.144 -33.473  17.968  1.00  0.00     0.158 HD
ENDBRANCH  16  19
ENDBRANCH  12  13
BRANCH   9  22
HETATM   22  C4  UNL     1      -9.076 -22.653  17.658  1.00  0.00     0.178 C 
BRANCH  22  23
HETATM   23  C5  UNL     1      -7.834 -22.235  16.988  1.00  0.00     0.026 A 
HETATM   24  C6  UNL     1      -7.519 -22.680  15.719  1.00  0.00     0.027 A 
HETATM   25  C7  UNL     1      -6.336 -22.273  15.099  1.00  0.00     0.003 A 
HETATM   26  C8  UNL     1      -5.481 -21.420  15.761  1.00  0.00     0.017 A 
HETATM   27  C9  UNL     1      -5.827 -20.998  17.021  1.00  0.00     0.088 A 
HETATM   28  N5  UNL     1      -6.980 -21.408  17.601  1.00  0.00    -0.368 N 
ATOM     29  H5  UNL     1      -7.205 -21.074  18.538  1.00  0.00     0.165 HD
ENDBRANCH  22  23
ENDBRANCH   9  22
TORSDOF 4
ENDMDL
MODEL 4
REMARK VINA RESULT: -7.125392297      1.444      1.834
REMARK  4 active torsions:
REMARK  status: ('A' for Active; 'I' for Inactive)
REMARK    1  A    between atoms: N4_9  and  C4_11 
REMARK    2  A    between atoms: C4_11  and  C5_12 
REMARK    3  A    between atoms: C10_20  and  C11_21 
REMARK    4  A    between atoms: C13_25  and  N7_26 
ROOT
HETATM    1  N1  UNL     1     -11.138 -30.155  15.673  1.00  0.00    -0.190 NA
HETATM    2  C1  UNL     1     -10.652 -29.251  16.190  1.00  0.00     0.116 C 
HETATM    3  C2  UNL     1     -10.033 -28.081  16.827  1.00  0.00     0.125 C 
HETATM    4  N2  UNL     1      -9.863 -27.023  16.194  1.00  0.00    -0.291 N 
ATOM      5  H2  UNL     1     -10.189 -27.066  15.229  1.00  0.00     0.187 HD
HETATM    6  N3  UNL     1      -9.324 -25.812  16.539  1.00  0.00    -0.279 N 
ATOM      7  H3  UNL     1      -9.275 -25.055  15.856  1.00  0.00     0.189 HD
HETATM    8  C3  UNL     1      -8.832 -25.623  17.856  1.00  0.00     0.156 C 
HETATM    9  N4  UNL     1      -8.756 -24.477  18.394  1.00  0.00    -0.364 N 
ATOM     10  H4  UNL     1      -8.399 -24.377  19.344  1.00  0.00     0.162 HD
HETATM   11  S1  UNL     1      -8.340 -27.139  18.670  1.00  0.00    -0.076 SA
HETATM   12  C10 UNL     1      -9.657 -28.306  18.238  1.00  0.00     0.159 C 
ENDROOT
BRANCH  12  13
HETATM   13  C11 UNL     1      -9.101 -29.700  18.388  1.00  0.00     0.022 A 
HETATM   14  C12 UNL     1      -9.642 -30.746  19.082  1.00  0.00     0.106 A 
HETATM   15  N6  UNL     1      -8.991 -31.871  19.077  1.00  0.00    -0.346 N 
HETATM   16  C13 UNL     1      -7.842 -31.949  18.404  1.00  0.00     0.142 A 
ATOM     17  H6  UNL     1      -9.352 -32.681  19.579  1.00  0.00     0.167 HD
HETATM   18  S2  UNL     1      -7.672 -30.382  17.755  1.00  0.00    -0.056 SA
BRANCH  16  19
HETATM   19  N7  UNL     1      -7.051 -32.999  18.288  1.00  0.00    -0.380 N 
ATOM     20  H72 UNL     1      -7.129 -33.923  18.713  1.00  0.00     0.158 HD
ATOM     21  H71 UNL     1      -6.196 -33.073  17.737  1.00  0.00     0.158 HD
ENDBRANCH  16  19
ENDBRANCH  12  13
BRANCH   9  22
HETATM   22  C4  UNL     1      -9.181 -23.310  17.648  1.00  0.00     0.178 C 
BRANCH  22  23
HETATM   23  C5  UNL     1      -8.041 -22.569  17.086  1.00  0.00     0.026 A 
HETATM   24  C6  UNL     1      -7.345 -21.644  17.840  1.00  0.00     0.027 A 
HETATM   25  C7  UNL     1      -6.264 -20.951  17.289  1.00  0.00     0.003 A 
HETATM   26  C8  UNL     1      -5.894 -21.197  15.986  1.00  0.00     0.017 A 
HETATM   27  C9  UNL     1      -6.608 -22.123  15.268  1.00  0.00     0.088 A 
HETATM   28  N5  UNL     1      -7.652 -22.781  15.824  1.00  0.00    -0.368 N 
ATOM     29  H5  UNL     1      -8.160 -23.464  15.261  1.00  0.00     0.165 HD
ENDBRANCH  22  23
ENDBRANCH   9  22
TORSDOF 4
ENDMDL
MODEL 5
REMARK VINA RESULT: -7.054216920      3.107      8.576
REMARK  4 active torsions:
REMARK  status: ('A' for Active; 'I' for Inactive)
REMARK    1  A    between atoms: N4_9  and  C4_11 
REMARK    2  A    between atoms: C4_11  and  C5_12 
REMARK    3  A    between atoms: C10_20  and  C11_21 
REMARK    4  A    between atoms: C13_25  and  N7_26 
ROOT
HETATM    1  N1  UNL     1      -7.054 -23.153  19.845  1.00  0.00    -0.190 NA
HETATM    2  C1  UNL     1      -7.664 -23.892  19.211  1.00  0.00     0.116 C 
HETATM    3  C2  UNL     1      -8.434 -24.859  18.418  1.00  0.00     0.125 C 
HETATM    4  N2  UNL     1      -8.424 -26.071  18.701  1.00  0.00    -0.291 N 
ATOM      5  H2  UNL     1      -7.846 -26.299  19.509  1.00  0.00     0.187 HD
HETATM    6  N3  UNL     1      -9.038 -27.160  18.139  1.00  0.00    -0.279 N 
ATOM      7  H3  UNL     1      -8.897 -28.092  18.531  1.00  0.00     0.189 HD
HETATM    8  C3  UNL     1      -9.873 -26.977  17.007  1.00  0.00     0.156 C 
HETATM    9  N4  UNL     1     -10.808 -27.783  16.715  1.00  0.00    -0.364 N 
ATOM     10  H4  UNL     1     -11.389 -27.620  15.894  1.00  0.00     0.162 HD
HETATM   11  S1  UNL     1      -9.481 -25.518  16.047  1.00  0.00    -0.076 SA
HETATM   12  C10 UNL     1      -9.183 -24.245  17.301  1.00  0.00     0.159 C 
ENDROOT
BRANCH  12  13
HETATM   13  C11 UNL     1      -8.337 -23.168  16.670  1.00  0.00     0.022 A 
HETATM   14  C12 UNL     1      -7.243 -23.327  15.866  1.00  0.00     0.106 A 
HETATM   15  N6  UNL     1      -6.660 -22.253  15.426  1.00  0.00    -0.346 N 
HETATM   16  C13 UNL     1      -7.150 -21.063  15.774  1.00  0.00     0.142 A 
ATOM     17  H6  UNL     1      -5.840 -22.318  14.823  1.00  0.00     0.167 HD
HETATM   18  S2  UNL     1      -8.481 -21.471  16.758  1.00  0.00    -0.056 SA
BRANCH  16  19
HETATM   19  N7  UNL     1      -6.693 -19.874  15.427  1.00  0.00    -0.380 N 
ATOM     20  H72 UNL     1      -7.009 -19.247  14.687  1.00  0.00     0.158 HD
ATOM     21  H71 UNL     1      -5.922 -19.358  15.850  1.00  0.00     0.158 HD
ENDBRANCH  16  19
ENDBRANCH  12  13
BRANCH   9  22
HETATM   22  C4  UNL     1     -11.043 -28.937  17.559  1.00  0.00     0.178 C 
BRANCH  22  23
HETATM   23  C5  UNL     1     -11.811 -29.981  16.863  1.00  0.00     0.026 A 
HETATM   24  C6  UNL     1     -12.929 -30.553  17.438  1.00  0.00     0.027 A 
HETATM   25  C7  UNL     1     -13.645 -31.544  16.762  1.00  0.00     0.003 A 
HETATM   26  C8  UNL     1     -13.231 -31.947  15.512  1.00  0.00     0.017 A 
HETATM   27  C9  UNL     1     -12.116 -31.356  14.972  1.00  0.00     0.088 A 
HETATM   28  N5  UNL     1     -11.438 -30.399  15.647  1.00  0.00    -0.368 N 
ATOM     29  H5  UNL     1     -10.615 -29.980  15.215  1.00  0.00     0.165 HD
ENDBRANCH  22  23
ENDBRANCH   9  22
TORSDOF 4
ENDMDL
