MODEL 1
REMARK VINA RESULT: -7.100706452      0.000      0.000
REMARK  4 active torsions:
REMARK  status: ('A' for Active; 'I' for Inactive)
REMARK    1  A    between atoms: O1_1  and  C1_3 
REMARK    2  A    between atoms: C3_5  and  O2_6 
REMARK    3  A    between atoms: C10_14  and  C11_15 
REMARK    4  A    between atoms: C11_15  and  N1_16 
ROOT
HETATM    1  C1  UNL     1      32.447  38.279  24.769  1.00  0.00     0.068 A 
HETATM    2  C2  UNL     1      32.213  38.874  23.535  1.00  0.00     0.073 A 
HETATM    3  C3  UNL     1      33.230  39.167  22.664  1.00  0.00     0.075 A 
HETATM    4  C4  UNL     1      34.536  38.856  23.037  1.00  0.00    -0.018 A 
HETATM    5  C5  UNL     1      34.813  38.270  24.237  1.00  0.00    -0.046 A 
HETATM    6  C6  UNL     1      33.740  37.989  25.094  1.00  0.00     0.044 A 
HETATM    7  C7  UNL     1      36.031  37.802  24.986  1.00  0.00     0.039 C 
HETATM    8  C8  UNL     1      36.870  36.836  24.193  1.00  0.00     0.005 C 
HETATM    9  C9  UNL     1      36.272  36.370  22.917  1.00  0.00     0.006 C 
HETATM   10  C10 UNL     1      36.669  37.175  21.711  1.00  0.00     0.014 C 
HETATM   11  C16 UNL     1      36.684  38.643  21.924  1.00  0.00     0.011 C 
HETATM   12  C17 UNL     1      35.355  39.305  21.890  1.00  0.00     0.042 C 
ENDROOT
BRANCH  10  13
HETATM   13  C11 UNL     1      35.897  36.708  20.523  1.00  0.00     0.279 C 
BRANCH  13  14
HETATM   14  N1  UNL     1      36.621  35.726  19.727  1.00  0.00     0.107 N 
HETATM   15  C12 UNL     1      35.678  34.890  18.979  1.00  0.00     0.274 C 
HETATM   16  C13 UNL     1      36.074  35.010  17.519  1.00  0.00     0.033 C 
HETATM   17  C14 UNL     1      37.574  35.287  17.684  1.00  0.00     0.053 C 
HETATM   18  C15 UNL     1      37.505  36.336  18.783  1.00  0.00     0.318 C 
HETATM   19 CL1  UNL     1      39.138  36.611  19.366  1.00  0.00    -0.092 Cl
ENDBRANCH  13  14
ENDBRANCH  10  13
BRANCH   3  20
HETATM   20  O2  UNL     1      32.981  39.766  21.427  1.00  0.00    -0.360 OA
ATOM     21  H2  UNL     1      33.627  39.752  20.731  1.00  0.00     0.217 HD
ENDBRANCH   3  20
BRANCH   1  22
HETATM   22  O1  UNL     1      31.365  38.005  25.612  1.00  0.00    -0.361 OA
ATOM     23  H1  UNL     1      31.429  37.288  26.232  1.00  0.00     0.217 HD
ENDBRANCH   1  22
TORSDOF 4
ENDMDL
MODEL 2
REMARK VINA RESULT: -6.954526151     11.893     14.380
REMARK  4 active torsions:
REMARK  status: ('A' for Active; 'I' for Inactive)
REMARK    1  A    between atoms: O1_1  and  C1_3 
REMARK    2  A    between atoms: C3_5  and  O2_6 
REMARK    3  A    between atoms: C10_14  and  C11_15 
REMARK    4  A    between atoms: C11_15  and  N1_16 
ROOT
HETATM    1  C1  UNL     1      36.106  27.729  14.290  1.00  0.00     0.068 A 
HETATM    2  C2  UNL     1      35.495  28.305  15.397  1.00  0.00     0.073 A 
HETATM    3  C3  UNL     1      34.194  28.736  15.368  1.00  0.00     0.075 A 
HETATM    4  C4  UNL     1      33.470  28.588  14.187  1.00  0.00    -0.018 A 
HETATM    5  C5  UNL     1      34.028  28.027  13.076  1.00  0.00    -0.046 A 
HETATM    6  C6  UNL     1      35.361  27.601  13.154  1.00  0.00     0.044 A 
HETATM    7  C7  UNL     1      33.608  27.709  11.666  1.00  0.00     0.039 C 
HETATM    8  C8  UNL     1      32.361  26.867  11.603  1.00  0.00     0.005 C 
HETATM    9  C9  UNL     1      31.878  26.345  12.906  1.00  0.00     0.006 C 
HETATM   10  C10 UNL     1      30.850  27.209  13.582  1.00  0.00     0.014 C 
HETATM   11  C16 UNL     1      31.133  28.664  13.530  1.00  0.00     0.011 C 
HETATM   12  C17 UNL     1      32.141  29.152  14.506  1.00  0.00     0.042 C 
ENDROOT
BRANCH  10  13
HETATM   13  C11 UNL     1      30.553  26.662  14.938  1.00  0.00     0.279 C 
BRANCH  13  14
HETATM   14  N1  UNL     1      29.459  25.700  14.933  1.00  0.00     0.107 N 
HETATM   15  C12 UNL     1      29.686  24.674  15.956  1.00  0.00     0.274 C 
HETATM   16  C13 UNL     1      28.457  24.685  16.845  1.00  0.00     0.033 C 
HETATM   17  C14 UNL     1      27.412  25.167  15.829  1.00  0.00     0.053 C 
HETATM   18  C15 UNL     1      28.195  26.311  15.204  1.00  0.00     0.318 C 
HETATM   19 CL1  UNL     1      27.314  26.853  13.785  1.00  0.00    -0.092 Cl
ENDBRANCH  13  14
ENDBRANCH  10  13
BRANCH   3  20
HETATM   20  O2  UNL     1      33.592  29.314  16.489  1.00  0.00    -0.360 OA
ATOM     21  H2  UNL     1      33.603  28.882  17.335  1.00  0.00     0.217 HD
ENDBRANCH   3  20
BRANCH   1  22
HETATM   22  O1  UNL     1      37.437  27.309  14.385  1.00  0.00    -0.361 OA
ATOM     23  H1  UNL     1      38.112  27.947  14.583  1.00  0.00     0.217 HD
ENDBRANCH   1  22
TORSDOF 4
ENDMDL
MODEL 3
REMARK VINA RESULT: -6.951856181     11.811     14.323
REMARK  4 active torsions:
REMARK  status: ('A' for Active; 'I' for Inactive)
REMARK    1  A    between atoms: O1_1  and  C1_3 
REMARK    2  A    between atoms: C3_5  and  O2_6 
REMARK    3  A    between atoms: C10_14  and  C11_15 
REMARK    4  A    between atoms: C11_15  and  N1_16 
ROOT
HETATM    1  C1  UNL     1      36.157  27.732  14.176  1.00  0.00     0.068 A 
HETATM    2  C2  UNL     1      35.578  28.278  15.316  1.00  0.00     0.073 A 
HETATM    3  C3  UNL     1      34.271  28.691  15.342  1.00  0.00     0.075 A 
HETATM    4  C4  UNL     1      33.507  28.555  14.184  1.00  0.00    -0.018 A 
HETATM    5  C5  UNL     1      34.033  28.024  13.043  1.00  0.00    -0.046 A 
HETATM    6  C6  UNL     1      35.374  27.616  13.066  1.00  0.00     0.044 A 
HETATM    7  C7  UNL     1      33.567  27.727  11.644  1.00  0.00     0.039 C 
HETATM    8  C8  UNL     1      32.331  26.868  11.609  1.00  0.00     0.005 C 
HETATM    9  C9  UNL     1      31.901  26.315  12.917  1.00  0.00     0.006 C 
HETATM   10  C10 UNL     1      30.887  27.151  13.646  1.00  0.00     0.014 C 
HETATM   11  C16 UNL     1      31.147  28.610  13.613  1.00  0.00     0.011 C 
HETATM   12  C17 UNL     1      32.183  29.094  14.561  1.00  0.00     0.042 C 
ENDROOT
BRANCH  10  13
HETATM   13  C11 UNL     1      30.646  26.574  15.001  1.00  0.00     0.279 C 
BRANCH  13  14
HETATM   14  N1  UNL     1      29.233  26.534  15.357  1.00  0.00     0.107 N 
HETATM   15  C12 UNL     1      28.413  26.416  14.147  1.00  0.00     0.274 C 
HETATM   16  C13 UNL     1      27.554  25.181  14.339  1.00  0.00     0.033 C 
HETATM   17  C14 UNL     1      27.456  25.174  15.871  1.00  0.00     0.053 C 
HETATM   18  C15 UNL     1      28.917  25.428  16.206  1.00  0.00     0.318 C 
HETATM   19 CL1  UNL     1      29.023  25.760  17.927  1.00  0.00    -0.092 Cl
ENDBRANCH  13  14
ENDBRANCH  10  13
BRANCH   3  20
HETATM   20  O2  UNL     1      33.702  29.239  16.494  1.00  0.00    -0.360 OA
ATOM     21  H2  UNL     1      32.773  29.158  16.674  1.00  0.00     0.217 HD
ENDBRANCH   3  20
BRANCH   1  22
HETATM   22  O1  UNL     1      37.496  27.330  14.216  1.00  0.00    -0.361 OA
ATOM     23  H1  UNL     1      37.853  26.831  13.490  1.00  0.00     0.217 HD
ENDBRANCH   1  22
TORSDOF 4
ENDMDL
MODEL 4
REMARK VINA RESULT: -6.763247343     13.049     16.291
REMARK  4 active torsions:
REMARK  status: ('A' for Active; 'I' for Inactive)
REMARK    1  A    between atoms: O1_1  and  C1_3 
REMARK    2  A    between atoms: C3_5  and  O2_6 
REMARK    3  A    between atoms: C10_14  and  C11_15 
REMARK    4  A    between atoms: C11_15  and  N1_16 
ROOT
HETATM    1  C1  UNL     1      31.196  31.259  12.584  1.00  0.00     0.068 A 
HETATM    2  C2  UNL     1      31.581  29.948  12.328  1.00  0.00     0.073 A 
HETATM    3  C3  UNL     1      30.701  29.012  11.850  1.00  0.00     0.075 A 
HETATM    4  C4  UNL     1      29.382  29.395  11.616  1.00  0.00    -0.018 A 
HETATM    5  C5  UNL     1      28.960  30.671  11.851  1.00  0.00    -0.046 A 
HETATM    6  C6  UNL     1      29.896  31.593  12.340  1.00  0.00     0.044 A 
HETATM    7  C7  UNL     1      27.678  31.451  11.743  1.00  0.00     0.039 C 
HETATM    8  C8  UNL     1      27.065  31.381  10.369  1.00  0.00     0.005 C 
HETATM    9  C9  UNL     1      27.903  30.733   9.330  1.00  0.00     0.006 C 
HETATM   10  C10 UNL     1      27.646  29.263   9.147  1.00  0.00     0.014 C 
HETATM   11  C16 UNL     1      27.473  28.503  10.408  1.00  0.00     0.011 C 
HETATM   12  C17 UNL     1      28.730  28.163  11.124  1.00  0.00     0.042 C 
ENDROOT
BRANCH  10  13
HETATM   13  C11 UNL     1      28.641  28.698   8.189  1.00  0.00     0.279 C 
BRANCH  13  14
HETATM   14  N1  UNL     1      28.140  28.638   6.822  1.00  0.00     0.107 N 
HETATM   15  C12 UNL     1      26.679  28.514   6.826  1.00  0.00     0.274 C 
HETATM   16  C13 UNL     1      26.155  29.669   5.994  1.00  0.00     0.033 C 
HETATM   17  C14 UNL     1      27.348  29.864   5.049  1.00  0.00     0.053 C 
HETATM   18  C15 UNL     1      28.475  29.806   6.069  1.00  0.00     0.318 C 
HETATM   19 CL1  UNL     1      29.991  29.711   5.188  1.00  0.00    -0.092 Cl
ENDBRANCH  13  14
ENDBRANCH  10  13
BRANCH   3  20
HETATM   20  O2  UNL     1      31.101  27.697  11.598  1.00  0.00    -0.360 OA
ATOM     21  H2  UNL     1      30.860  26.986  12.179  1.00  0.00     0.217 HD
ENDBRANCH   3  20
BRANCH   1  22
HETATM   22  O1  UNL     1      32.142  32.166  13.070  1.00  0.00    -0.361 OA
ATOM     23  H1  UNL     1      31.847  32.940  13.537  1.00  0.00     0.217 HD
ENDBRANCH   1  22
TORSDOF 4
ENDMDL
MODEL 5
REMARK VINA RESULT: -6.588882986      3.285      7.166
REMARK  4 active torsions:
REMARK  status: ('A' for Active; 'I' for Inactive)
REMARK    1  A    between atoms: O1_1  and  C1_3 
REMARK    2  A    between atoms: C3_5  and  O2_6 
REMARK    3  A    between atoms: C10_14  and  C11_15 
REMARK    4  A    between atoms: C11_15  and  N1_16 
ROOT
HETATM    1  C1  UNL     1      34.644  33.938  15.240  1.00  0.00     0.068 A 
HETATM    2  C2  UNL     1      33.940  33.545  16.373  1.00  0.00     0.073 A 
HETATM    3  C3  UNL     1      34.489  33.603  17.627  1.00  0.00     0.075 A 
HETATM    4  C4  UNL     1      35.795  34.071  17.762  1.00  0.00    -0.018 A 
HETATM    5  C5  UNL     1      36.523  34.469  16.679  1.00  0.00    -0.046 A 
HETATM    6  C6  UNL     1      35.918  34.392  15.417  1.00  0.00     0.044 A 
HETATM    7  C7  UNL     1      37.903  35.003  16.408  1.00  0.00     0.039 C 
HETATM    8  C8  UNL     1      38.223  36.232  17.217  1.00  0.00     0.005 C 
HETATM    9  C9  UNL     1      37.088  36.807  17.980  1.00  0.00     0.006 C 
HETATM   10  C10 UNL     1      36.977  36.319  19.398  1.00  0.00     0.014 C 
HETATM   11  C16 UNL     1      37.206  34.865  19.572  1.00  0.00     0.011 C 
HETATM   12  C17 UNL     1      36.059  33.992  19.214  1.00  0.00     0.042 C 
ENDROOT
BRANCH  10  13
HETATM   13  C11 UNL     1      35.724  36.849  20.011  1.00  0.00     0.279 C 
BRANCH  13  14
HETATM   14  N1  UNL     1      35.941  38.069  20.777  1.00  0.00     0.107 N 
HETATM   15  C12 UNL     1      35.191  39.178  20.179  1.00  0.00     0.274 C 
HETATM   16  C13 UNL     1      34.308  39.734  21.280  1.00  0.00     0.033 C 
HETATM   17  C14 UNL     1      35.168  39.376  22.500  1.00  0.00     0.053 C 
HETATM   18  C15 UNL     1      35.516  37.941  22.136  1.00  0.00     0.318 C 
HETATM   19 CL1  UNL     1      36.755  37.390  23.252  1.00  0.00    -0.092 Cl
ENDBRANCH  13  14
ENDBRANCH  10  13
BRANCH   3  20
HETATM   20  O2  UNL     1      33.770  33.204  18.757  1.00  0.00    -0.360 OA
ATOM     21  H2  UNL     1      33.896  32.347  19.147  1.00  0.00     0.217 HD
ENDBRANCH   3  20
BRANCH   1  22
HETATM   22  O1  UNL     1      34.026  33.856  13.988  1.00  0.00    -0.361 OA
ATOM     23  H1  UNL     1      33.107  34.083  13.908  1.00  0.00     0.217 HD
ENDBRANCH   1  22
TORSDOF 4
ENDMDL
