MODEL 1
REMARK VINA RESULT: -4.758881967      0.000      0.000
REMARK  4 active torsions:
REMARK  status: ('A' for Active; 'I' for Inactive)
REMARK    1  A    between atoms: C2_2  and  N1_3 
REMARK    2  A    between atoms: C2_2  and  C3_7 
REMARK    3  A    between atoms: C3_7  and  N2_9 
REMARK    4  A    between atoms: N2_9  and  C5_11 
ROOT
HETATM    1  N2  UNL     1     -11.153  -6.928  49.901  1.00  0.00    -0.382 N 
ATOM      2  H2  UNL     1     -11.136  -7.230  50.875  1.00  0.00     0.157 HD
ENDROOT
BRANCH   1   3
HETATM    3  C3  UNL     1     -11.819  -5.741  49.514  1.00  0.00     0.105 C 
HETATM    4  C4  UNL     1     -10.953  -4.511  49.479  1.00  0.00     0.034 C 
BRANCH   3   5
HETATM    5  C2  UNL     1     -12.900  -5.502  50.560  1.00  0.00     0.201 C 
HETATM    6  C1  UNL     1     -12.779  -6.462  51.704  1.00  0.00     0.042 C 
BRANCH   5   7
HETATM    7  N1  UNL     1     -14.218  -5.525  49.968  1.00  0.00    -0.073 N 
ATOM      8  H13 UNL     1     -14.912  -5.883  50.625  1.00  0.00     0.274 HD
ATOM      9  H12 UNL     1     -14.585  -4.582  49.845  1.00  0.00     0.274 HD
ATOM     10  H11 UNL     1     -14.236  -6.046  49.091  1.00  0.00     0.274 HD
ENDBRANCH   5   7
ENDBRANCH   3   5
ENDBRANCH   1   3
BRANCH   1  11
HETATM   11  C5  UNL     1     -10.516  -7.677  48.894  1.00  0.00     0.297 C 
HETATM   12  N3  UNL     1      -9.433  -7.061  48.213  1.00  0.00    -0.350 N 
HETATM   13  C6  UNL     1      -8.628  -8.008  47.834  1.00  0.00     0.192 C 
ATOM     14  H3  UNL     1      -9.311  -6.062  48.051  1.00  0.00     0.163 HD
HETATM   15  N4  UNL     1      -9.150  -9.263  48.250  1.00  0.00    -0.297 N 
HETATM   16  N5  UNL     1      -9.979  -8.945  49.328  1.00  0.00    -0.094 NA
ATOM     17  H4  UNL     1      -8.962 -10.183  47.853  1.00  0.00     0.183 HD
ENDBRANCH   1  11
TORSDOF 4
ENDMDL
MODEL 2
REMARK VINA RESULT: -4.557296875      1.599      2.159
REMARK  4 active torsions:
REMARK  status: ('A' for Active; 'I' for Inactive)
REMARK    1  A    between atoms: C2_2  and  N1_3 
REMARK    2  A    between atoms: C2_2  and  C3_7 
REMARK    3  A    between atoms: C3_7  and  N2_9 
REMARK    4  A    between atoms: N2_9  and  C5_11 
ROOT
HETATM    1  N2  UNL     1     -12.076  -5.568  50.412  1.00  0.00    -0.382 N 
ATOM      2  H2  UNL     1     -11.485  -4.960  50.978  1.00  0.00     0.157 HD
ENDROOT
BRANCH   1   3
HETATM    3  C3  UNL     1     -13.476  -5.620  50.610  1.00  0.00     0.105 C 
HETATM    4  C4  UNL     1     -14.191  -4.309  50.424  1.00  0.00     0.034 C 
BRANCH   3   5
HETATM    5  C2  UNL     1     -13.683  -6.045  52.058  1.00  0.00     0.201 C 
HETATM    6  C1  UNL     1     -13.568  -4.880  52.993  1.00  0.00     0.042 C 
BRANCH   5   7
HETATM    7  N1  UNL     1     -12.793  -7.124  52.421  1.00  0.00    -0.073 N 
ATOM      8  H13 UNL     1     -12.529  -7.069  53.405  1.00  0.00     0.274 HD
ATOM      9  H12 UNL     1     -13.283  -8.018  52.435  1.00  0.00     0.274 HD
ATOM     10  H11 UNL     1     -11.971  -7.162  51.819  1.00  0.00     0.274 HD
ENDBRANCH   5   7
ENDBRANCH   3   5
ENDBRANCH   1   3
BRANCH   1  11
HETATM   11  C5  UNL     1     -11.529  -6.386  49.405  1.00  0.00     0.297 C 
HETATM   12  N3  UNL     1     -10.467  -5.845  48.635  1.00  0.00    -0.350 N 
HETATM   13  C6  UNL     1      -9.721  -6.839  48.254  1.00  0.00     0.192 C 
ATOM     14  H3  UNL     1     -10.317  -4.860  48.418  1.00  0.00     0.163 HD
HETATM   15  N4  UNL     1     -10.263  -8.053  48.759  1.00  0.00    -0.297 N 
HETATM   16  N5  UNL     1     -11.014  -7.654  49.867  1.00  0.00    -0.094 NA
ATOM     17  H4  UNL     1     -10.134  -8.997  48.395  1.00  0.00     0.183 HD
ENDBRANCH   1  11
TORSDOF 4
ENDMDL
MODEL 3
REMARK VINA RESULT: -4.496979007      2.980      4.492
REMARK  4 active torsions:
REMARK  status: ('A' for Active; 'I' for Inactive)
REMARK    1  A    between atoms: C2_2  and  N1_3 
REMARK    2  A    between atoms: C2_2  and  C3_7 
REMARK    3  A    between atoms: C3_7  and  N2_9 
REMARK    4  A    between atoms: N2_9  and  C5_11 
ROOT
HETATM    1  N2  UNL     1     -13.229  -5.696  52.829  1.00  0.00    -0.382 N 
ATOM      2  H2  UNL     1     -12.894  -4.751  53.022  1.00  0.00     0.157 HD
ENDROOT
BRANCH   1   3
HETATM    3  C3  UNL     1     -14.125  -6.349  53.708  1.00  0.00     0.105 C 
HETATM    4  C4  UNL     1     -15.370  -6.889  53.057  1.00  0.00     0.034 C 
BRANCH   3   5
HETATM    5  C2  UNL     1     -14.564  -5.301  54.721  1.00  0.00     0.201 C 
HETATM    6  C1  UNL     1     -13.645  -4.118  54.721  1.00  0.00     0.042 C 
BRANCH   5   7
HETATM    7  N1  UNL     1     -14.711  -5.874  56.040  1.00  0.00    -0.073 N 
ATOM      8  H13 UNL     1     -13.938  -5.603  56.649  1.00  0.00     0.274 HD
ATOM      9  H12 UNL     1     -15.478  -5.437  56.550  1.00  0.00     0.274 HD
ATOM     10  H11 UNL     1     -14.819  -6.888  56.008  1.00  0.00     0.274 HD
ENDBRANCH   5   7
ENDBRANCH   3   5
ENDBRANCH   1   3
BRANCH   1  11
HETATM   11  C5  UNL     1     -12.815  -6.394  51.680  1.00  0.00     0.297 C 
HETATM   12  N3  UNL     1     -12.621  -5.638  50.495  1.00  0.00    -0.350 N 
HETATM   13  C6  UNL     1     -11.708  -6.244  49.796  1.00  0.00     0.192 C 
ATOM     14  H3  UNL     1     -13.108  -4.779  50.238  1.00  0.00     0.163 HD
HETATM   15  N4  UNL     1     -11.277  -7.405  50.493  1.00  0.00    -0.297 N 
HETATM   16  N5  UNL     1     -11.584  -7.134  51.828  1.00  0.00    -0.094 NA
ATOM     17  H4  UNL     1     -10.844  -8.244  50.107  1.00  0.00     0.183 HD
ENDBRANCH   1  11
TORSDOF 4
ENDMDL
MODEL 4
REMARK VINA RESULT: -4.447112531      2.287      3.564
REMARK  4 active torsions:
REMARK  status: ('A' for Active; 'I' for Inactive)
REMARK    1  A    between atoms: C2_2  and  N1_3 
REMARK    2  A    between atoms: C2_2  and  C3_7 
REMARK    3  A    between atoms: C3_7  and  N2_9 
REMARK    4  A    between atoms: N2_9  and  C5_11 
ROOT
HETATM    1  N2  UNL     1     -12.782  -6.662  52.339  1.00  0.00    -0.382 N 
ATOM      2  H2  UNL     1     -12.378  -7.271  53.051  1.00  0.00     0.157 HD
ENDROOT
BRANCH   1   3
HETATM    3  C3  UNL     1     -13.756  -5.691  52.674  1.00  0.00     0.105 C 
HETATM    4  C4  UNL     1     -13.910  -5.430  54.148  1.00  0.00     0.034 C 
BRANCH   3   5
HETATM    5  C2  UNL     1     -15.086  -6.235  52.171  1.00  0.00     0.201 C 
HETATM    6  C1  UNL     1     -16.180  -5.221  52.306  1.00  0.00     0.042 C 
BRANCH   5   7
HETATM    7  N1  UNL     1     -15.421  -7.485  52.816  1.00  0.00    -0.073 N 
ATOM      8  H13 UNL     1     -15.051  -8.280  52.296  1.00  0.00     0.274 HD
ATOM      9  H12 UNL     1     -14.900  -7.604  53.684  1.00  0.00     0.274 HD
ATOM     10  H11 UNL     1     -16.425  -7.578  52.972  1.00  0.00     0.274 HD
ENDBRANCH   5   7
ENDBRANCH   3   5
ENDBRANCH   1   3
BRANCH   1  11
HETATM   11  C5  UNL     1     -12.391  -6.757  50.991  1.00  0.00     0.297 C 
HETATM   12  N3  UNL     1     -12.133  -5.544  50.302  1.00  0.00    -0.350 N 
HETATM   13  C6  UNL     1     -11.246  -5.801  49.388  1.00  0.00     0.192 C 
ATOM     14  H3  UNL     1     -12.564  -4.638  50.489  1.00  0.00     0.163 HD
HETATM   15  N4  UNL     1     -10.896  -7.177  49.447  1.00  0.00    -0.297 N 
HETATM   16  N5  UNL     1     -11.208  -7.551  50.756  1.00  0.00    -0.094 NA
ATOM     17  H4  UNL     1     -10.507  -7.758  48.704  1.00  0.00     0.183 HD
ENDBRANCH   1  11
TORSDOF 4
ENDMDL
MODEL 5
REMARK VINA RESULT: -4.385819609      1.415      1.766
REMARK  4 active torsions:
REMARK  status: ('A' for Active; 'I' for Inactive)
REMARK    1  A    between atoms: C2_2  and  N1_3 
REMARK    2  A    between atoms: C2_2  and  C3_7 
REMARK    3  A    between atoms: C3_7  and  N2_9 
REMARK    4  A    between atoms: N2_9  and  C5_11 
ROOT
HETATM    1  N2  UNL     1     -12.212  -5.973  50.714  1.00  0.00    -0.382 N 
ATOM      2  H2  UNL     1     -11.964  -6.263  51.660  1.00  0.00     0.157 HD
ENDROOT
BRANCH   1   3
HETATM    3  C3  UNL     1     -13.173  -4.960  50.487  1.00  0.00     0.105 C 
HETATM    4  C4  UNL     1     -12.740  -3.575  50.887  1.00  0.00     0.034 C 
BRANCH   3   5
HETATM    5  C2  UNL     1     -14.379  -5.320  51.343  1.00  0.00     0.201 C 
HETATM    6  C1  UNL     1     -14.068  -6.442  52.286  1.00  0.00     0.042 C 
BRANCH   5   7
HETATM    7  N1  UNL     1     -15.538  -5.601  50.527  1.00  0.00    -0.073 N 
ATOM      8  H13 UNL     1     -16.225  -4.850  50.589  1.00  0.00     0.274 HD
ATOM      9  H12 UNL     1     -15.317  -5.535  49.534  1.00  0.00     0.274 HD
ATOM     10  H11 UNL     1     -15.956  -6.504  50.753  1.00  0.00     0.274 HD
ENDBRANCH   5   7
ENDBRANCH   3   5
ENDBRANCH   1   3
BRANCH   1  11
HETATM   11  C5  UNL     1     -11.612  -6.567  49.588  1.00  0.00     0.297 C 
HETATM   12  N3  UNL     1     -10.626  -5.811  48.903  1.00  0.00    -0.350 N 
HETATM   13  C6  UNL     1      -9.796  -6.656  48.366  1.00  0.00     0.192 C 
ATOM     14  H3  UNL     1     -10.577  -4.794  48.842  1.00  0.00     0.163 HD
HETATM   15  N4  UNL     1     -10.206  -7.980  48.679  1.00  0.00    -0.297 N 
HETATM   16  N5  UNL     1     -10.966  -7.834  49.842  1.00  0.00    -0.094 NA
ATOM     17  H4  UNL     1      -9.994  -8.839  48.172  1.00  0.00     0.183 HD
ENDBRANCH   1  11
TORSDOF 4
ENDMDL
