MODEL 1
REMARK VINA RESULT: -6.647699271      0.000      0.000
REMARK  9 active torsions:
REMARK  status: ('A' for Active; 'I' for Inactive)
REMARK    1  A    between atoms: O1_2  and  C2_3 
REMARK    2  A    between atoms: C2_3  and  C3_5 
REMARK    3  A    between atoms: C4_6  and  C5_7 
REMARK       I    between atoms: C5_7  and  N1_9 
REMARK    4  A    between atoms: N1_9  and  N2_11 
REMARK    5  A    between atoms: C6_14  and  C8_16 
REMARK       I    between atoms: C8_16  and  N3_18 
REMARK    6  A    between atoms: N3_18  and  N4_20 
REMARK    7  A    between atoms: C9_22  and  C10_23 
REMARK    8  A    between atoms: C14_28  and  O5_29 
REMARK    9  A    between atoms: C15_31  and  O6_33 
ROOT
HETATM    1  C10 UNL     1      71.466  24.337  39.907  1.00  0.00     0.128 C 
HETATM    2  C11 UNL     1      70.945  24.377  41.346  1.00  0.00     0.031 C 
HETATM    3  C12 UNL     1      70.340  24.473  38.960  1.00  0.00     0.069 C 
HETATM    4  N5  UNL     1      69.467  24.585  38.238  1.00  0.00    -0.197 NA
ENDROOT
BRANCH   1   5
HETATM    5  C9  UNL     1      72.111  23.039  39.620  1.00  0.00     0.099 C 
HETATM    6  N4  UNL     1      73.357  22.862  39.430  1.00  0.00    -0.312 N 
ATOM      7  H4  UNL     1      73.682  21.914  39.238  1.00  0.00     0.185 HD
BRANCH   6   8
HETATM    8  N3  UNL     1      74.308  23.886  39.468  1.00  0.00    -0.270 N 
HETATM    9  C8  UNL     1      75.702  23.650  39.548  1.00  0.00     0.245 C 
HETATM   10  O4  UNL     1      76.044  22.443  39.583  1.00  0.00    -0.271 OA
ATOM     11  H3  UNL     1      73.981  24.851  39.437  1.00  0.00     0.190 HD
BRANCH   9  12
HETATM   12  C6  UNL     1      76.611  24.813  39.581  1.00  0.00     0.054 C 
HETATM   13  C4  UNL     1      76.945  25.321  40.951  1.00  0.00     0.113 C 
HETATM   14  C3  UNL     1      77.788  24.280  41.591  1.00  0.00     0.136 C 
HETATM   15  C15 UNL     1      79.224  24.513  41.093  1.00  0.00     0.093 C 
HETATM   16  C14 UNL     1      79.151  24.748  39.623  1.00  0.00     0.154 C 
HETATM   17  C16 UNL     1      79.866  25.687  41.816  1.00  0.00     0.049 C 
HETATM   18  C13 UNL     1      77.899  24.363  38.932  1.00  0.00     0.054 C 
HETATM   19  C7  UNL     1      75.940  25.934  38.823  1.00  0.00     0.026 C 
BRANCH  13  20
HETATM   20  C5  UNL     1      75.833  25.867  41.725  1.00  0.00     0.241 C 
HETATM   21  O3  UNL     1      74.732  25.233  41.892  1.00  0.00    -0.271 OA
HETATM   22  N1  UNL     1      75.897  27.139  42.345  1.00  0.00    -0.276 N 
ATOM     23  H1  UNL     1      76.743  27.703  42.257  1.00  0.00     0.189 HD
BRANCH  22  24
HETATM   24  N2  UNL     1      74.818  27.623  43.072  1.00  0.00    -0.343 N 
ATOM     25  H22 UNL     1      74.606  27.201  43.976  1.00  0.00     0.176 HD
ATOM     26  H21 UNL     1      74.250  28.387  42.707  1.00  0.00     0.176 HD
ENDBRANCH  22  24
ENDBRANCH  13  20
BRANCH  14  27
HETATM   27  C2  UNL     1      77.702  24.131  43.037  1.00  0.00     0.266 C 
HETATM   28  O2  UNL     1      77.885  22.999  43.552  1.00  0.00    -0.265 OA
BRANCH  27  29
HETATM   29  O1  UNL     1      77.425  25.190  43.847  1.00  0.00    -0.326 OA
HETATM   30  C1  UNL     1      76.604  25.101  45.025  1.00  0.00     0.213 C 
ENDBRANCH  27  29
ENDBRANCH  14  27
BRANCH  15  31
HETATM   31  O6  UNL     1      79.944  23.381  41.440  1.00  0.00    -0.387 OA
ATOM     32  H6  UNL     1      80.636  23.673  42.021  1.00  0.00     0.210 HD
ENDBRANCH  15  31
BRANCH  16  33
HETATM   33  O5  UNL     1      79.568  26.052  39.261  1.00  0.00    -0.392 OA
ATOM     34  H5  UNL     1      80.489  26.074  39.031  1.00  0.00     0.210 HD
ENDBRANCH  16  33
ENDBRANCH   9  12
ENDBRANCH   6   8
ENDBRANCH   1   5
TORSDOF 9
ENDMDL
MODEL 2
REMARK VINA RESULT: -6.469350578      5.043      8.021
REMARK  9 active torsions:
REMARK  status: ('A' for Active; 'I' for Inactive)
REMARK    1  A    between atoms: O1_2  and  C2_3 
REMARK    2  A    between atoms: C2_3  and  C3_5 
REMARK    3  A    between atoms: C4_6  and  C5_7 
REMARK       I    between atoms: C5_7  and  N1_9 
REMARK    4  A    between atoms: N1_9  and  N2_11 
REMARK    5  A    between atoms: C6_14  and  C8_16 
REMARK       I    between atoms: C8_16  and  N3_18 
REMARK    6  A    between atoms: N3_18  and  N4_20 
REMARK    7  A    between atoms: C9_22  and  C10_23 
REMARK    8  A    between atoms: C14_28  and  O5_29 
REMARK    9  A    between atoms: C15_31  and  O6_33 
ROOT
HETATM    1  C10 UNL     1      70.751  23.255  39.883  1.00  0.00     0.128 C 
HETATM    2  C11 UNL     1      70.803  21.835  39.316  1.00  0.00     0.031 C 
HETATM    3  C12 UNL     1      70.127  24.167  38.902  1.00  0.00     0.069 C 
HETATM    4  N5  UNL     1      69.638  24.860  38.143  1.00  0.00    -0.197 NA
ENDROOT
BRANCH   1   5
HETATM    5  C9  UNL     1      72.114  23.768  40.136  1.00  0.00     0.099 C 
HETATM    6  N4  UNL     1      72.438  24.565  41.074  1.00  0.00    -0.312 N 
ATOM      7  H4  UNL     1      73.416  24.849  41.144  1.00  0.00     0.185 HD
BRANCH   6   8
HETATM    8  N3  UNL     1      71.539  25.076  42.014  1.00  0.00    -0.270 N 
HETATM    9  C8  UNL     1      71.818  26.201  42.827  1.00  0.00     0.245 C 
HETATM   10  O4  UNL     1      72.945  26.726  42.653  1.00  0.00    -0.271 OA
ATOM     11  H3  UNL     1      70.635  24.615  42.120  1.00  0.00     0.190 HD
BRANCH   9  12
HETATM   12  C6  UNL     1      70.789  26.649  43.785  1.00  0.00     0.054 C 
HETATM   13  C4  UNL     1      69.382  26.273  43.431  1.00  0.00     0.113 C 
HETATM   14  C3  UNL     1      69.291  24.799  43.581  1.00  0.00     0.136 C 
HETATM   15  C15 UNL     1      69.047  24.526  45.075  1.00  0.00     0.093 C 
HETATM   16  C14 UNL     1      69.986  25.394  45.843  1.00  0.00     0.154 C 
HETATM   17  C16 UNL     1      67.599  24.802  45.449  1.00  0.00     0.049 C 
HETATM   18  C13 UNL     1      71.121  25.992  45.104  1.00  0.00     0.054 C 
HETATM   19  C7  UNL     1      70.860  28.157  43.855  1.00  0.00     0.026 C 
BRANCH  13  20
HETATM   20  C5  UNL     1      68.844  26.866  42.209  1.00  0.00     0.241 C 
HETATM   21  O3  UNL     1      69.280  26.561  41.044  1.00  0.00    -0.271 OA
HETATM   22  N1  UNL     1      67.800  27.824  42.231  1.00  0.00    -0.276 N 
ATOM     23  H1  UNL     1      67.401  28.117  43.123  1.00  0.00     0.189 HD
BRANCH  22  24
HETATM   24  N2  UNL     1      67.316  28.365  41.048  1.00  0.00    -0.343 N 
ATOM     25  H22 UNL     1      67.855  29.099  40.587  1.00  0.00     0.176 HD
ATOM     26  H21 UNL     1      66.438  28.034  40.648  1.00  0.00     0.176 HD
ENDBRANCH  22  24
ENDBRANCH  13  20
BRANCH  14  27
HETATM   27  C2  UNL     1      68.368  24.083  42.712  1.00  0.00     0.266 C 
HETATM   28  O2  UNL     1      67.328  24.662  42.306  1.00  0.00    -0.265 OA
BRANCH  27  29
HETATM   29  O1  UNL     1      68.600  22.797  42.330  1.00  0.00    -0.326 OA
HETATM   30  C1  UNL     1      67.584  21.781  42.285  1.00  0.00     0.213 C 
ENDBRANCH  27  29
ENDBRANCH  14  27
BRANCH  15  31
HETATM   31  O6  UNL     1      69.263  23.171  45.263  1.00  0.00    -0.387 OA
ATOM     32  H6  UNL     1      68.672  22.722  44.670  1.00  0.00     0.210 HD
ENDBRANCH  15  31
BRANCH  16  33
HETATM   33  O5  UNL     1      69.312  26.355  46.633  1.00  0.00    -0.392 OA
ATOM     34  H5  UNL     1      68.972  25.975  47.435  1.00  0.00     0.210 HD
ENDBRANCH  16  33
ENDBRANCH   9  12
ENDBRANCH   6   8
ENDBRANCH   1   5
TORSDOF 9
ENDMDL
MODEL 3
REMARK VINA RESULT: -6.268852052      5.788      7.989
REMARK  9 active torsions:
REMARK  status: ('A' for Active; 'I' for Inactive)
REMARK    1  A    between atoms: O1_2  and  C2_3 
REMARK    2  A    between atoms: C2_3  and  C3_5 
REMARK    3  A    between atoms: C4_6  and  C5_7 
REMARK       I    between atoms: C5_7  and  N1_9 
REMARK    4  A    between atoms: N1_9  and  N2_11 
REMARK    5  A    between atoms: C6_14  and  C8_16 
REMARK       I    between atoms: C8_16  and  N3_18 
REMARK    6  A    between atoms: N3_18  and  N4_20 
REMARK    7  A    between atoms: C9_22  and  C10_23 
REMARK    8  A    between atoms: C14_28  and  O5_29 
REMARK    9  A    between atoms: C15_31  and  O6_33 
ROOT
HETATM    1  C10 UNL     1      79.328  23.990  41.383  1.00  0.00     0.128 C 
HETATM    2  C11 UNL     1      80.441  25.041  41.423  1.00  0.00     0.031 C 
HETATM    3  C12 UNL     1      78.575  24.102  40.118  1.00  0.00     0.069 C 
HETATM    4  N5  UNL     1      78.005  24.191  39.136  1.00  0.00    -0.197 NA
ENDROOT
BRANCH   1   5
HETATM    5  C9  UNL     1      78.361  24.212  42.478  1.00  0.00     0.099 C 
HETATM    6  N4  UNL     1      78.210  23.458  43.492  1.00  0.00    -0.312 N 
ATOM      7  H4  UNL     1      77.505  23.718  44.182  1.00  0.00     0.185 HD
BRANCH   6   8
HETATM    8  N3  UNL     1      78.952  22.295  43.720  1.00  0.00    -0.270 N 
HETATM    9  C8  UNL     1      78.490  21.223  44.520  1.00  0.00     0.245 C 
HETATM   10  O4  UNL     1      77.351  21.377  45.026  1.00  0.00    -0.271 OA
ATOM     11  H3  UNL     1      79.872  22.215  43.288  1.00  0.00     0.190 HD
BRANCH   9  12
HETATM   12  C6  UNL     1      79.363  20.044  44.688  1.00  0.00     0.054 C 
HETATM   13  C4  UNL     1      78.712  18.854  45.327  1.00  0.00     0.113 C 
HETATM   14  C3  UNL     1      77.721  18.341  44.348  1.00  0.00     0.136 C 
HETATM   15  C15 UNL     1      78.501  17.454  43.362  1.00  0.00     0.093 C 
HETATM   16  C14 UNL     1      79.745  18.189  42.993  1.00  0.00     0.154 C 
HETATM   17  C16 UNL     1      78.814  16.100  43.979  1.00  0.00     0.049 C 
HETATM   18  C13 UNL     1      79.798  19.637  43.300  1.00  0.00     0.054 C 
HETATM   19  C7  UNL     1      80.524  20.460  45.561  1.00  0.00     0.026 C 
BRANCH  13  20
HETATM   20  C5  UNL     1      78.274  19.025  46.711  1.00  0.00     0.241 C 
HETATM   21  O3  UNL     1      78.919  18.536  47.703  1.00  0.00    -0.271 OA
HETATM   22  N1  UNL     1      77.102  19.745  47.048  1.00  0.00    -0.276 N 
ATOM     23  H1  UNL     1      76.535  20.164  46.310  1.00  0.00     0.189 HD
BRANCH  22  24
HETATM   24  N2  UNL     1      76.719  19.884  48.375  1.00  0.00    -0.343 N 
ATOM     25  H22 UNL     1      77.239  19.378  49.092  1.00  0.00     0.176 HD
ATOM     26  H21 UNL     1      75.932  20.482  48.626  1.00  0.00     0.176 HD
ENDBRANCH  22  24
ENDBRANCH  13  20
BRANCH  14  27
HETATM   27  C2  UNL     1      76.523  17.699  44.867  1.00  0.00     0.266 C 
HETATM   28  O2  UNL     1      75.419  17.903  44.301  1.00  0.00    -0.265 OA
BRANCH  27  29
HETATM   29  O1  UNL     1      76.566  16.883  45.956  1.00  0.00    -0.326 OA
HETATM   30  C1  UNL     1      75.405  16.500  46.714  1.00  0.00     0.213 C 
ENDBRANCH  27  29
ENDBRANCH  14  27
BRANCH  15  31
HETATM   31  O6  UNL     1      77.653  17.225  42.291  1.00  0.00    -0.387 OA
ATOM     32  H6  UNL     1      76.864  16.839  42.653  1.00  0.00     0.210 HD
ENDBRANCH  15  31
BRANCH  16  33
HETATM   33  O5  UNL     1      80.917  17.521  43.423  1.00  0.00    -0.392 OA
ATOM     34  H5  UNL     1      81.673  17.770  42.903  1.00  0.00     0.210 HD
ENDBRANCH  16  33
ENDBRANCH   9  12
ENDBRANCH   6   8
ENDBRANCH   1   5
TORSDOF 9
ENDMDL
MODEL 4
REMARK VINA RESULT: -6.255081462      5.261      8.386
REMARK  9 active torsions:
REMARK  status: ('A' for Active; 'I' for Inactive)
REMARK    1  A    between atoms: O1_2  and  C2_3 
REMARK    2  A    between atoms: C2_3  and  C3_5 
REMARK    3  A    between atoms: C4_6  and  C5_7 
REMARK       I    between atoms: C5_7  and  N1_9 
REMARK    4  A    between atoms: N1_9  and  N2_11 
REMARK    5  A    between atoms: C6_14  and  C8_16 
REMARK       I    between atoms: C8_16  and  N3_18 
REMARK    6  A    between atoms: N3_18  and  N4_20 
REMARK    7  A    between atoms: C9_22  and  C10_23 
REMARK    8  A    between atoms: C14_28  and  O5_29 
REMARK    9  A    between atoms: C15_31  and  O6_33 
ROOT
HETATM    1  C10 UNL     1      71.552  22.760  39.800  1.00  0.00     0.128 C 
HETATM    2  C11 UNL     1      72.820  22.397  39.024  1.00  0.00     0.031 C 
HETATM    3  C12 UNL     1      70.519  21.725  39.590  1.00  0.00     0.069 C 
HETATM    4  N5  UNL     1      69.732  20.918  39.429  1.00  0.00    -0.197 NA
ENDROOT
BRANCH   1   5
HETATM    5  C9  UNL     1      70.985  24.034  39.310  1.00  0.00     0.099 C 
HETATM    6  N4  UNL     1      70.358  24.884  40.021  1.00  0.00    -0.312 N 
ATOM      7  H4  UNL     1      70.013  25.728  39.564  1.00  0.00     0.185 HD
BRANCH   6   8
HETATM    8  N3  UNL     1      70.113  24.732  41.389  1.00  0.00    -0.270 N 
HETATM    9  C8  UNL     1      70.938  25.292  42.393  1.00  0.00     0.245 C 
HETATM   10  O4  UNL     1      71.925  25.948  41.979  1.00  0.00    -0.271 OA
ATOM     11  H3  UNL     1      69.299  24.189  41.677  1.00  0.00     0.190 HD
BRANCH   9  12
HETATM   12  C6  UNL     1      70.578  25.063  43.806  1.00  0.00     0.054 C 
HETATM   13  C4  UNL     1      69.773  26.156  44.444  1.00  0.00     0.113 C 
HETATM   14  C3  UNL     1      68.437  26.124  43.798  1.00  0.00     0.136 C 
HETATM   15  C15 UNL     1      67.629  25.032  44.520  1.00  0.00     0.093 C 
HETATM   16  C14 UNL     1      68.520  23.846  44.667  1.00  0.00     0.154 C 
HETATM   17  C16 UNL     1      67.129  25.527  45.868  1.00  0.00     0.049 C 
HETATM   18  C13 UNL     1      69.743  23.804  43.834  1.00  0.00     0.054 C 
HETATM   19  C7  UNL     1      71.865  24.923  44.586  1.00  0.00     0.026 C 
BRANCH  13  20
HETATM   20  C5  UNL     1      70.435  27.452  44.574  1.00  0.00     0.241 C 
HETATM   21  O3  UNL     1      71.164  27.756  45.582  1.00  0.00    -0.271 OA
HETATM   22  N1  UNL     1      70.312  28.464  43.590  1.00  0.00    -0.276 N 
ATOM     23  H1  UNL     1      69.747  28.295  42.758  1.00  0.00     0.189 HD
BRANCH  22  24
HETATM   24  N2  UNL     1      70.956  29.683  43.750  1.00  0.00    -0.343 N 
ATOM     25  H22 UNL     1      71.688  29.763  44.456  1.00  0.00     0.176 HD
ATOM     26  H21 UNL     1      70.700  30.483  43.171  1.00  0.00     0.176 HD
ENDBRANCH  22  24
ENDBRANCH  13  20
BRANCH  14  27
HETATM   27  C2  UNL     1      67.713  27.381  43.674  1.00  0.00     0.266 C 
HETATM   28  O2  UNL     1      67.117  27.852  44.676  1.00  0.00    -0.265 OA
BRANCH  27  29
HETATM   29  O1  UNL     1      67.661  28.060  42.494  1.00  0.00    -0.326 OA
HETATM   30  C1  UNL     1      67.973  27.472  41.220  1.00  0.00     0.213 C 
ENDBRANCH  27  29
ENDBRANCH  14  27
BRANCH  15  31
HETATM   31  O6  UNL     1      66.511  24.794  43.736  1.00  0.00    -0.387 OA
ATOM     32  H6  UNL     1      65.964  24.194  44.229  1.00  0.00     0.210 HD
ENDBRANCH  15  31
BRANCH  16  33
HETATM   33  O5  UNL     1      68.799  23.542  46.021  1.00  0.00    -0.392 OA
ATOM     34  H5  UNL     1      68.751  24.316  46.571  1.00  0.00     0.210 HD
ENDBRANCH  16  33
ENDBRANCH   9  12
ENDBRANCH   6   8
ENDBRANCH   1   5
TORSDOF 9
ENDMDL
MODEL 5
REMARK VINA RESULT: -6.229082650      4.776      8.278
REMARK  9 active torsions:
REMARK  status: ('A' for Active; 'I' for Inactive)
REMARK    1  A    between atoms: O1_2  and  C2_3 
REMARK    2  A    between atoms: C2_3  and  C3_5 
REMARK    3  A    between atoms: C4_6  and  C5_7 
REMARK       I    between atoms: C5_7  and  N1_9 
REMARK    4  A    between atoms: N1_9  and  N2_11 
REMARK    5  A    between atoms: C6_14  and  C8_16 
REMARK       I    between atoms: C8_16  and  N3_18 
REMARK    6  A    between atoms: N3_18  and  N4_20 
REMARK    7  A    between atoms: C9_22  and  C10_23 
REMARK    8  A    between atoms: C14_28  and  O5_29 
REMARK    9  A    between atoms: C15_31  and  O6_33 
ROOT
HETATM    1  C10 UNL     1      72.650  22.997  38.959  1.00  0.00     0.128 C 
HETATM    2  C11 UNL     1      71.364  22.367  39.499  1.00  0.00     0.031 C 
HETATM    3  C12 UNL     1      73.468  21.970  38.283  1.00  0.00     0.069 C 
HETATM    4  N5  UNL     1      74.089  21.174  37.757  1.00  0.00    -0.197 NA
ENDROOT
BRANCH   1   5
HETATM    5  C9  UNL     1      73.470  23.540  40.062  1.00  0.00     0.099 C 
HETATM    6  N4  UNL     1      73.046  24.301  40.990  1.00  0.00    -0.312 N 
ATOM      7  H4  UNL     1      73.713  24.611  41.697  1.00  0.00     0.185 HD
BRANCH   6   8
HETATM    8  N3  UNL     1      71.722  24.737  41.101  1.00  0.00    -0.270 N 
HETATM    9  C8  UNL     1      71.228  25.442  42.225  1.00  0.00     0.245 C 
HETATM   10  O4  UNL     1      72.063  25.659  43.137  1.00  0.00    -0.271 OA
ATOM     11  H3  UNL     1      71.081  24.537  40.334  1.00  0.00     0.190 HD
BRANCH   9  12
HETATM   12  C6  UNL     1      69.810  25.853  42.229  1.00  0.00     0.054 C 
HETATM   13  C4  UNL     1      68.888  24.953  42.995  1.00  0.00     0.113 C 
HETATM   14  C3  UNL     1      69.238  25.116  44.429  1.00  0.00     0.136 C 
HETATM   15  C15 UNL     1      68.504  26.376  44.917  1.00  0.00     0.093 C 
HETATM   16  C14 UNL     1      68.695  27.430  43.880  1.00  0.00     0.154 C 
HETATM   17  C16 UNL     1      67.031  26.088  45.157  1.00  0.00     0.049 C 
HETATM   18  C13 UNL     1      69.764  27.216  42.879  1.00  0.00     0.054 C 
HETATM   19  C7  UNL     1      69.341  25.880  40.793  1.00  0.00     0.026 C 
BRANCH  13  20
HETATM   20  C5  UNL     1      68.740  23.593  42.482  1.00  0.00     0.241 C 
HETATM   21  O3  UNL     1      69.734  22.797  42.343  1.00  0.00    -0.271 OA
HETATM   22  N1  UNL     1      67.483  23.063  42.100  1.00  0.00    -0.276 N 
ATOM     23  H1  UNL     1      66.645  23.639  42.182  1.00  0.00     0.189 HD
BRANCH  22  24
HETATM   24  N2  UNL     1      67.384  21.766  41.616  1.00  0.00    -0.343 N 
ATOM     25  H22 UNL     1      66.757  21.581  40.833  1.00  0.00     0.176 HD
ATOM     26  H21 UNL     1      67.930  21.014  42.036  1.00  0.00     0.176 HD
ENDBRANCH  22  24
ENDBRANCH  13  20
BRANCH  14  27
HETATM   27  C2  UNL     1      69.052  23.970  45.308  1.00  0.00     0.266 C 
HETATM   28  O2  UNL     1      69.912  23.725  46.191  1.00  0.00    -0.265 OA
BRANCH  27  29
HETATM   29  O1  UNL     1      67.968  23.154  45.195  1.00  0.00    -0.326 OA
HETATM   30  C1  UNL     1      67.947  21.788  45.643  1.00  0.00     0.213 C 
ENDBRANCH  27  29
ENDBRANCH  14  27
BRANCH  15  31
HETATM   31  O6  UNL     1      69.060  26.698  46.145  1.00  0.00    -0.387 OA
ATOM     32  H6  UNL     1      68.828  27.604  46.313  1.00  0.00     0.210 HD
ENDBRANCH  15  31
BRANCH  16  33
HETATM   33  O5  UNL     1      67.478  27.817  43.270  1.00  0.00    -0.392 OA
ATOM     34  H5  UNL     1      67.581  27.951  42.335  1.00  0.00     0.210 HD
ENDBRANCH  16  33
ENDBRANCH   9  12
ENDBRANCH   6   8
ENDBRANCH   1   5
TORSDOF 9
ENDMDL
