MODEL 1
REMARK VINA RESULT: -6.626738413      0.000      0.000
REMARK  7 active torsions:
REMARK  status: ('A' for Active; 'I' for Inactive)
REMARK    1  A    between atoms: C6_6  and  O1_8 
REMARK    2  A    between atoms: C8_10  and  C9_11 
REMARK    3  A    between atoms: C9_11  and  O3_13 
REMARK    4  A    between atoms: O3_13  and  C10_14 
REMARK    5  A    between atoms: C10_14  and  C11_15 
REMARK    6  A    between atoms: C12_17  and  C14_19 
REMARK    7  A    between atoms: C14_19  and  O4_20 
ROOT
HETATM    1  C1  UNL     1      23.153   5.588  10.688  1.00  0.00     0.043 C 
HETATM    2  C2  UNL     1      23.280   5.175  12.167  1.00  0.00    -0.087 C 
HETATM    3  C3  UNL     1      24.487   5.163  12.661  1.00  0.00    -0.024 C 
HETATM    4  C4  UNL     1      25.010   4.827  14.031  1.00  0.00     0.030 C 
HETATM    5  C5  UNL     1      24.055   5.451  14.923  1.00  0.00     0.042 C 
HETATM    6  C6  UNL     1      24.119   5.868  16.317  1.00  0.00     0.068 C 
HETATM    7  C7  UNL     1      25.142   6.974  16.451  1.00  0.00     0.047 C 
HETATM    8  C8  UNL     1      22.723   6.231  16.714  1.00  0.00     0.129 C 
HETATM    9  C12 UNL     1      21.640   6.669  15.843  1.00  0.00    -0.007 C 
HETATM   10  C13 UNL     1      20.519   6.909  16.941  1.00  0.00     0.018 C 
HETATM   11  C15 UNL     1      20.964   5.837  14.842  1.00  0.00     0.012 C 
HETATM   12  C16 UNL     1      21.195   6.039  13.356  1.00  0.00     0.005 C 
HETATM   13  C17 UNL     1      21.954   4.852  12.734  1.00  0.00     0.033 C 
ENDROOT
BRANCH   8  14
HETATM   14  C9  UNL     1      22.840   7.221  17.835  1.00  0.00     0.266 C 
HETATM   15  O2  UNL     1      22.979   8.469  17.585  1.00  0.00    -0.265 OA
BRANCH  14  16
HETATM   16  O3  UNL     1      22.811   6.902  19.151  1.00  0.00    -0.319 OA
BRANCH  16  17
HETATM   17  C10 UNL     1      22.714   5.731  19.853  1.00  0.00     0.210 C 
BRANCH  17  18
HETATM   18  C11 UNL     1      23.930   5.054  20.353  1.00  0.00     0.248 C 
HETATM   19  F1  UNL     1      25.067   5.657  19.942  1.00  0.00    -0.253 F 
ENDBRANCH  17  18
ENDBRANCH  16  17
ENDBRANCH  14  16
ENDBRANCH   8  14
BRANCH   6  20
HETATM   20  O1  UNL     1      24.649   4.806  17.063  1.00  0.00    -0.389 OA
ATOM     21  H1  UNL     1      23.926   4.341  17.466  1.00  0.00     0.210 HD
ENDBRANCH   6  20
BRANCH   9  22
HETATM   22  C14 UNL     1      21.696   8.096  15.335  1.00  0.00     0.174 C 
BRANCH  22  23
HETATM   23  O4  UNL     1      20.530   8.777  15.769  1.00  0.00    -0.400 OA
ATOM     24  H4  UNL     1      20.192   9.290  15.045  1.00  0.00     0.209 HD
ENDBRANCH  22  23
ENDBRANCH   9  22
TORSDOF 7
ENDMDL
MODEL 2
REMARK VINA RESULT: -6.391339603      2.321      2.916
REMARK  7 active torsions:
REMARK  status: ('A' for Active; 'I' for Inactive)
REMARK    1  A    between atoms: C6_6  and  O1_8 
REMARK    2  A    between atoms: C8_10  and  C9_11 
REMARK    3  A    between atoms: C9_11  and  O3_13 
REMARK    4  A    between atoms: O3_13  and  C10_14 
REMARK    5  A    between atoms: C10_14  and  C11_15 
REMARK    6  A    between atoms: C12_17  and  C14_19 
REMARK    7  A    between atoms: C14_19  and  O4_20 
ROOT
HETATM    1  C1  UNL     1      20.776   4.984   9.883  1.00  0.00     0.043 C 
HETATM    2  C2  UNL     1      21.416   4.808  11.274  1.00  0.00    -0.087 C 
HETATM    3  C3  UNL     1      22.429   3.990  11.342  1.00  0.00    -0.024 C 
HETATM    4  C4  UNL     1      23.303   3.566  12.492  1.00  0.00     0.030 C 
HETATM    5  C5  UNL     1      23.538   4.798  13.215  1.00  0.00     0.042 C 
HETATM    6  C6  UNL     1      24.563   5.218  14.160  1.00  0.00     0.068 C 
HETATM    7  C7  UNL     1      25.901   5.241  13.454  1.00  0.00     0.047 C 
HETATM    8  C8  UNL     1      24.110   6.528  14.721  1.00  0.00     0.129 C 
HETATM    9  C12 UNL     1      23.212   7.494  14.102  1.00  0.00    -0.007 C 
HETATM   10  C13 UNL     1      23.237   8.615  15.225  1.00  0.00     0.018 C 
HETATM   11  C15 UNL     1      21.780   7.290  13.856  1.00  0.00     0.012 C 
HETATM   12  C16 UNL     1      21.241   7.062  12.456  1.00  0.00     0.005 C 
HETATM   13  C17 UNL     1      20.709   5.627  12.280  1.00  0.00     0.033 C 
ENDROOT
BRANCH   8  14
HETATM   14  C9  UNL     1      25.345   7.261  15.153  1.00  0.00     0.266 C 
HETATM   15  O2  UNL     1      25.989   7.992  14.322  1.00  0.00    -0.265 OA
BRANCH  14  16
HETATM   16  O3  UNL     1      25.869   7.219  16.402  1.00  0.00    -0.319 OA
BRANCH  16  17
HETATM   17  C10 UNL     1      25.341   7.183  17.664  1.00  0.00     0.210 C 
BRANCH  17  18
HETATM   18  C11 UNL     1      24.905   5.902  18.258  1.00  0.00     0.248 C 
HETATM   19  F1  UNL     1      23.701   5.497  17.796  1.00  0.00    -0.253 F 
ENDBRANCH  17  18
ENDBRANCH  16  17
ENDBRANCH  14  16
ENDBRANCH   8  14
BRANCH   6  20
HETATM   20  O1  UNL     1      24.695   4.215  15.130  1.00  0.00    -0.389 OA
ATOM     21  H1  UNL     1      24.459   4.588  15.972  1.00  0.00     0.210 HD
ENDBRANCH   6  20
BRANCH   9  22
HETATM   22  C14 UNL     1      23.782   8.350  12.987  1.00  0.00     0.174 C 
BRANCH  22  23
HETATM   23  O4  UNL     1      23.566   9.715  13.311  1.00  0.00    -0.400 OA
ATOM     24  H4  UNL     1      22.786  10.013  12.859  1.00  0.00     0.209 HD
ENDBRANCH  22  23
ENDBRANCH   9  22
TORSDOF 7
ENDMDL
MODEL 3
REMARK VINA RESULT: -6.307173891      1.346      1.736
REMARK  7 active torsions:
REMARK  status: ('A' for Active; 'I' for Inactive)
REMARK    1  A    between atoms: C6_6  and  O1_8 
REMARK    2  A    between atoms: C8_10  and  C9_11 
REMARK    3  A    between atoms: C9_11  and  O3_13 
REMARK    4  A    between atoms: O3_13  and  C10_14 
REMARK    5  A    between atoms: C10_14  and  C11_15 
REMARK    6  A    between atoms: C12_17  and  C14_19 
REMARK    7  A    between atoms: C14_19  and  O4_20 
ROOT
HETATM    1  C1  UNL     1      20.888   6.539  10.488  1.00  0.00     0.043 C 
HETATM    2  C2  UNL     1      21.624   5.803  11.625  1.00  0.00    -0.087 C 
HETATM    3  C3  UNL     1      22.888   5.552  11.425  1.00  0.00    -0.024 C 
HETATM    4  C4  UNL     1      23.925   4.871  12.278  1.00  0.00     0.030 C 
HETATM    5  C5  UNL     1      23.667   5.388  13.605  1.00  0.00     0.042 C 
HETATM    6  C6  UNL     1      24.477   5.483  14.812  1.00  0.00     0.068 C 
HETATM    7  C7  UNL     1      25.640   6.414  14.548  1.00  0.00     0.047 C 
HETATM    8  C8  UNL     1      23.553   5.903  15.910  1.00  0.00     0.129 C 
HETATM    9  C12 UNL     1      22.300   6.635  15.782  1.00  0.00    -0.007 C 
HETATM   10  C13 UNL     1      21.922   6.754  17.319  1.00  0.00     0.018 C 
HETATM   11  C15 UNL     1      21.072   6.120  15.168  1.00  0.00     0.012 C 
HETATM   12  C16 UNL     1      20.595   6.613  13.814  1.00  0.00     0.005 C 
HETATM   13  C17 UNL     1      20.701   5.513  12.741  1.00  0.00     0.033 C 
ENDROOT
BRANCH   8  14
HETATM   14  C9  UNL     1      24.394   6.608  16.934  1.00  0.00     0.266 C 
HETATM   15  O2  UNL     1      24.435   7.887  16.969  1.00  0.00    -0.265 OA
BRANCH  14  16
HETATM   16  O3  UNL     1      25.152   5.986  17.869  1.00  0.00    -0.319 OA
BRANCH  16  17
HETATM   17  C10 UNL     1      24.896   5.088  18.870  1.00  0.00     0.210 C 
BRANCH  17  18
HETATM   18  C11 UNL     1      24.151   5.503  20.077  1.00  0.00     0.248 C 
HETATM   19  F1  UNL     1      23.251   4.579  20.476  1.00  0.00    -0.253 F 
ENDBRANCH  17  18
ENDBRANCH  16  17
ENDBRANCH  14  16
ENDBRANCH   8  14
BRANCH   6  20
HETATM   20  O1  UNL     1      25.072   4.234  15.034  1.00  0.00    -0.389 OA
ATOM     21  H1  UNL     1      25.759   4.347  15.680  1.00  0.00     0.210 HD
ENDBRANCH   6  20
BRANCH   9  22
HETATM   22  C14 UNL     1      22.395   8.124  15.510  1.00  0.00     0.174 C 
BRANCH  22  23
HETATM   23  O4  UNL     1      21.660   8.813  16.508  1.00  0.00    -0.400 OA
ATOM     24  H4  UNL     1      21.571   8.245  17.264  1.00  0.00     0.209 HD
ENDBRANCH  22  23
ENDBRANCH   9  22
TORSDOF 7
ENDMDL
MODEL 4
REMARK VINA RESULT: -6.176025722      3.280      6.096
REMARK  7 active torsions:
REMARK  status: ('A' for Active; 'I' for Inactive)
REMARK    1  A    between atoms: C6_6  and  O1_8 
REMARK    2  A    between atoms: C8_10  and  C9_11 
REMARK    3  A    between atoms: C9_11  and  O3_13 
REMARK    4  A    between atoms: O3_13  and  C10_14 
REMARK    5  A    between atoms: C10_14  and  C11_15 
REMARK    6  A    between atoms: C12_17  and  C14_19 
REMARK    7  A    between atoms: C14_19  and  O4_20 
ROOT
HETATM    1  C1  UNL     1      25.521   6.667  18.875  1.00  0.00     0.043 C 
HETATM    2  C2  UNL     1      24.594   7.452  17.927  1.00  0.00    -0.087 C 
HETATM    3  C3  UNL     1      25.095   8.531  17.393  1.00  0.00    -0.024 C 
HETATM    4  C4  UNL     1      24.519   9.541  16.437  1.00  0.00     0.030 C 
HETATM    5  C5  UNL     1      23.804   8.731  15.475  1.00  0.00     0.042 C 
HETATM    6  C6  UNL     1      23.354   8.969  14.110  1.00  0.00     0.068 C 
HETATM    7  C7  UNL     1      24.564   9.162  13.223  1.00  0.00     0.047 C 
HETATM    8  C8  UNL     1      22.469   7.819  13.750  1.00  0.00     0.129 C 
HETATM    9  C12 UNL     1      22.485   6.477  14.316  1.00  0.00    -0.007 C 
HETATM   10  C13 UNL     1      21.338   5.820  13.437  1.00  0.00     0.018 C 
HETATM   11  C15 UNL     1      22.105   6.127  15.689  1.00  0.00     0.012 C 
HETATM   12  C16 UNL     1      23.143   5.734  16.723  1.00  0.00     0.005 C 
HETATM   13  C17 UNL     1      23.273   6.798  17.829  1.00  0.00     0.033 C 
ENDROOT
BRANCH   8  14
HETATM   14  C9  UNL     1      22.522   7.688  12.256  1.00  0.00     0.266 C 
HETATM   15  O2  UNL     1      21.785   8.427  11.515  1.00  0.00    -0.265 OA
BRANCH  14  16
HETATM   16  O3  UNL     1      23.315   6.818  11.586  1.00  0.00    -0.319 OA
BRANCH  16  17
HETATM   17  C10 UNL     1      23.391   6.391  10.289  1.00  0.00     0.210 C 
BRANCH  17  18
HETATM   18  C11 UNL     1      22.376   5.465   9.743  1.00  0.00     0.248 C 
HETATM   19  F1  UNL     1      22.432   4.240  10.310  1.00  0.00    -0.253 F 
ENDBRANCH  17  18
ENDBRANCH  16  17
ENDBRANCH  14  16
ENDBRANCH   8  14
BRANCH   6  20
HETATM   20  O1  UNL     1      22.696  10.206  14.081  1.00  0.00    -0.389 OA
ATOM     21  H1  UNL     1      21.982  10.144  13.457  1.00  0.00     0.210 HD
ENDBRANCH   6  20
BRANCH   9  22
HETATM   22  C14 UNL     1      23.601   5.552  13.867  1.00  0.00     0.174 C 
BRANCH  22  23
HETATM   23  O4  UNL     1      23.021   4.385  13.307  1.00  0.00    -0.400 OA
ATOM     24  H4  UNL     1      23.412   4.233  12.454  1.00  0.00     0.209 HD
ENDBRANCH  22  23
ENDBRANCH   9  22
TORSDOF 7
ENDMDL
MODEL 5
REMARK VINA RESULT: -6.142245700      1.692      3.549
REMARK  7 active torsions:
REMARK  status: ('A' for Active; 'I' for Inactive)
REMARK    1  A    between atoms: C6_6  and  O1_8 
REMARK    2  A    between atoms: C8_10  and  C9_11 
REMARK    3  A    between atoms: C9_11  and  O3_13 
REMARK    4  A    between atoms: O3_13  and  C10_14 
REMARK    5  A    between atoms: C10_14  and  C11_15 
REMARK    6  A    between atoms: C12_17  and  C14_19 
REMARK    7  A    between atoms: C14_19  and  O4_20 
ROOT
HETATM    1  C1  UNL     1      21.885   3.965  10.501  1.00  0.00     0.043 C 
HETATM    2  C2  UNL     1      21.749   5.182  11.437  1.00  0.00    -0.087 C 
HETATM    3  C3  UNL     1      20.839   5.095  12.366  1.00  0.00    -0.024 C 
HETATM    4  C4  UNL     1      20.414   6.050  13.450  1.00  0.00     0.030 C 
HETATM    5  C5  UNL     1      21.665   6.578  13.950  1.00  0.00     0.042 C 
HETATM    6  C6  UNL     1      22.048   7.219  15.200  1.00  0.00     0.068 C 
HETATM    7  C7  UNL     1      21.881   6.227  16.330  1.00  0.00     0.047 C 
HETATM    8  C8  UNL     1      23.435   7.741  15.002  1.00  0.00     0.129 C 
HETATM    9  C12 UNL     1      24.439   7.253  14.065  1.00  0.00    -0.007 C 
HETATM   10  C13 UNL     1      25.632   8.228  14.447  1.00  0.00     0.018 C 
HETATM   11  C15 UNL     1      24.364   7.362  12.604  1.00  0.00     0.012 C 
HETATM   12  C16 UNL     1      24.090   6.152  11.732  1.00  0.00     0.005 C 
HETATM   13  C17 UNL     1      22.707   6.241  11.058  1.00  0.00     0.033 C 
ENDROOT
BRANCH   8  14
HETATM   14  C9  UNL     1      24.068   7.806  16.360  1.00  0.00     0.266 C 
HETATM   15  O2  UNL     1      23.878   8.823  17.115  1.00  0.00    -0.265 OA
BRANCH  14  16
HETATM   16  O3  UNL     1      24.860   6.843  16.888  1.00  0.00    -0.319 OA
BRANCH  16  17
HETATM   17  C10 UNL     1      25.347   6.579  18.140  1.00  0.00     0.210 C 
BRANCH  17  18
HETATM   18  C11 UNL     1      24.925   5.363  18.867  1.00  0.00     0.248 C 
HETATM   19  F1  UNL     1      23.582   5.243  18.943  1.00  0.00    -0.253 F 
ENDBRANCH  17  18
ENDBRANCH  16  17
ENDBRANCH  14  16
ENDBRANCH   8  14
BRANCH   6  20
HETATM   20  O1  UNL     1      21.111   8.225  15.475  1.00  0.00    -0.389 OA
ATOM     21  H1  UNL     1      21.052   8.320  16.419  1.00  0.00     0.210 HD
ENDBRANCH   6  20
BRANCH   9  22
HETATM   22  C14 UNL     1      25.148   5.961  14.423  1.00  0.00     0.174 C 
BRANCH  22  23
HETATM   23  O4  UNL     1      26.548   6.181  14.357  1.00  0.00    -0.400 OA
ATOM     24  H4  UNL     1      26.957   5.742  15.093  1.00  0.00     0.209 HD
ENDBRANCH  22  23
ENDBRANCH   9  22
TORSDOF 7
ENDMDL
