MODEL 1
REMARK VINA RESULT: -10.034172774      0.000      0.000
REMARK  11 active torsions:
REMARK  status: ('A' for Active; 'I' for Inactive)
REMARK    1  A    between atoms: C2_2  and  O1_3 
REMARK    2  A    between atoms: O1_3  and  C3_4 
REMARK    3  A    between atoms: C3_4  and  C4_6 
REMARK    4  A    between atoms: C4_6  and  O3_7 
REMARK    5  A    between atoms: N1_12  and  C8_13 
REMARK    6  A    between atoms: C15_29  and  C16_30 
REMARK    7  A    between atoms: N6_32  and  N7_34 
REMARK    8  A    between atoms: N8_36  and  N9_38 
REMARK    9  A    between atoms: N9_38  and  C18_40 
REMARK   10  A    between atoms: C18_40  and  N10_41 
REMARK   11  A    between atoms: C19_44  and  O4_45 
ROOT
HETATM    1  C8  UNL     1      35.947   2.205  39.969  1.00  0.00     0.120 A 
HETATM    2  N2  UNL     1      36.772   2.054  38.875  1.00  0.00    -0.327 N 
ATOM      3  H2  UNL     1      36.475   2.444  37.981  1.00  0.00     0.169 HD
HETATM    4  C9  UNL     1      37.948   1.415  38.937  1.00  0.00     0.134 A 
HETATM    5  N3  UNL     1      38.755   1.269  37.869  1.00  0.00    -0.176 N 
ATOM      6  H3  UNL     1      38.454   1.661  36.977  1.00  0.00     0.186 HD
HETATM    7  C10 UNL     1      39.936   0.631  37.922  1.00  0.00     0.677 A 
HETATM    8  N4  UNL     1      40.648   0.530  36.861  1.00  0.00    -0.234 N 
ATOM      9  H41 UNL     1      41.545   0.046  36.900  1.00  0.00     0.174 HD
ATOM     10  H42 UNL     1      40.310   0.937  35.988  1.00  0.00     0.174 HD
HETATM   11  N5  UNL     1      40.383   0.093  39.076  1.00  0.00    -0.195 N 
ATOM     12  H5  UNL     1      41.281  -0.391  39.111  1.00  0.00     0.184 HD
HETATM   13  C11 UNL     1      39.621   0.208  40.179  1.00  0.00     0.036 A 
HETATM   14  C12 UNL     1      40.073  -0.370  41.475  1.00  0.00     0.070 C 
HETATM   15  C13 UNL     1      38.389   0.873  40.125  1.00  0.00     0.032 A 
HETATM   16  C14 UNL     1      37.598   1.001  41.227  1.00  0.00     0.034 A 
HETATM   17  C15 UNL     1      36.352   1.683  41.136  1.00  0.00     0.033 A 
ENDROOT
BRANCH  17  18
HETATM   18  C16 UNL     1      35.599   1.658  42.362  1.00  0.00     0.037 C 
HETATM   19  C17 UNL     1      36.152   2.246  43.636  1.00  0.00     0.070 C 
HETATM   20  N6  UNL     1      34.450   1.152  42.460  1.00  0.00    -0.289 N 
ATOM     21  H6  UNL     1      34.073   0.749  41.602  1.00  0.00     0.188 HD
BRANCH  20  22
HETATM   22  N7  UNL     1      33.645   1.067  43.547  1.00  0.00    -0.228 N 
HETATM   23  N8  UNL     1      32.887   1.876  44.081  1.00  0.00    -0.231 N 
ATOM     24  H8  UNL     1      32.396   1.529  44.905  1.00  0.00     0.209 HD
ATOM     25  H7  UNL     1      33.673   0.160  44.011  1.00  0.00     0.210 HD
BRANCH  23  26
HETATM   26  N9  UNL     1      32.600   3.178  43.735  1.00  0.00    -0.301 N 
ATOM     27  H9  UNL     1      33.365   3.769  43.409  1.00  0.00     0.183 HD
BRANCH  26  28
HETATM   28  C18 UNL     1      31.271   3.756  43.809  1.00  0.00     0.294 C 
BRANCH  28  29
HETATM   29  N10 UNL     1      31.216   4.912  44.680  1.00  0.00    -0.220 N 
HETATM   30  N11 UNL     1      31.675   6.114  44.288  1.00  0.00    -0.257 N 
HETATM   31  C19 UNL     1      31.496   6.975  45.292  1.00  0.00     0.240 A 
ATOM     32  H11 UNL     1      32.088   6.330  43.381  1.00  0.00     0.191 HD
HETATM   33  N12 UNL     1      30.933   6.298  46.281  1.00  0.00    -0.272 N 
HETATM   34  C20 UNL     1      30.746   5.020  45.936  1.00  0.00     0.345 A 
ATOM     35  H12 UNL     1      30.677   6.698  47.183  1.00  0.00     0.174 HD
HETATM   36  O5  UNL     1      30.235   4.076  46.622  1.00  0.00    -0.245 OA
BRANCH  31  37
HETATM   37  O4  UNL     1      31.853   8.319  45.247  1.00  0.00    -0.331 OA
ATOM     38  H4  UNL     1      31.274   9.036  45.478  1.00  0.00     0.221 HD
ENDBRANCH  31  37
ENDBRANCH  28  29
ENDBRANCH  26  28
ENDBRANCH  23  26
ENDBRANCH  20  22
ENDBRANCH  17  18
BRANCH   1  39
HETATM   39  N1  UNL     1      34.761   2.973  39.793  1.00  0.00    -0.326 N 
HETATM   40  C4  UNL     1      34.506   4.343  40.086  1.00  0.00     0.225 C 
HETATM   41  C5  UNL     1      33.028   4.480  40.266  1.00  0.00     0.074 C 
HETATM   42  C6  UNL     1      32.452   3.399  39.397  1.00  0.00     0.025 C 
HETATM   43  C7  UNL     1      33.575   2.422  39.172  1.00  0.00     0.128 C 
BRANCH  40  44
HETATM   44  C3  UNL     1      34.883   5.213  38.895  1.00  0.00     0.315 C 
HETATM   45  O2  UNL     1      35.837   4.883  38.156  1.00  0.00    -0.260 OA
BRANCH  44  46
HETATM   46  O1  UNL     1      34.205   6.377  38.585  1.00  0.00    -0.318 OA
BRANCH  46  47
HETATM   47  C2  UNL     1      34.691   7.656  38.946  1.00  0.00     0.174 C 
HETATM   48  C1  UNL     1      34.051   8.224  40.169  1.00  0.00     0.034 C 
ENDBRANCH  46  47
ENDBRANCH  44  46
ENDBRANCH  40  44
BRANCH  40  49
HETATM   49  O3  UNL     1      35.137   4.852  41.217  1.00  0.00    -0.362 OA
ATOM     50  H3  UNL     1      35.714   4.182  41.565  1.00  0.00     0.213 HD
ENDBRANCH  40  49
ENDBRANCH   1  39
TORSDOF 11
ENDMDL
MODEL 2
REMARK VINA RESULT: -9.809294768      2.367      4.571
REMARK  11 active torsions:
REMARK  status: ('A' for Active; 'I' for Inactive)
REMARK    1  A    between atoms: C2_2  and  O1_3 
REMARK    2  A    between atoms: O1_3  and  C3_4 
REMARK    3  A    between atoms: C3_4  and  C4_6 
REMARK    4  A    between atoms: C4_6  and  O3_7 
REMARK    5  A    between atoms: N1_12  and  C8_13 
REMARK    6  A    between atoms: C15_29  and  C16_30 
REMARK    7  A    between atoms: N6_32  and  N7_34 
REMARK    8  A    between atoms: N8_36  and  N9_38 
REMARK    9  A    between atoms: N9_38  and  C18_40 
REMARK   10  A    between atoms: C18_40  and  N10_41 
REMARK   11  A    between atoms: C19_44  and  O4_45 
ROOT
HETATM    1  C8  UNL     1      36.826   1.697  41.482  1.00  0.00     0.120 A 
HETATM    2  N2  UNL     1      37.999   0.990  41.329  1.00  0.00    -0.327 N 
ATOM      3  H2  UNL     1      38.429   0.571  42.153  1.00  0.00     0.169 HD
HETATM    4  C9  UNL     1      38.599   0.830  40.141  1.00  0.00     0.134 A 
HETATM    5  N3  UNL     1      39.745   0.138  39.991  1.00  0.00    -0.176 N 
ATOM      6  H3  UNL     1      40.171  -0.280  40.819  1.00  0.00     0.186 HD
HETATM    7  C10 UNL     1      40.353  -0.028  38.805  1.00  0.00     0.677 A 
HETATM    8  N4  UNL     1      41.444  -0.700  38.743  1.00  0.00    -0.234 N 
ATOM      9  H41 UNL     1      41.907  -0.826  37.842  1.00  0.00     0.174 HD
ATOM     10  H42 UNL     1      41.837  -1.100  39.595  1.00  0.00     0.174 HD
HETATM   11  N5  UNL     1      39.834   0.501  37.678  1.00  0.00    -0.195 N 
ATOM     12  H5  UNL     1      40.299   0.372  36.780  1.00  0.00     0.184 HD
HETATM   13  C11 UNL     1      38.688   1.203  37.764  1.00  0.00     0.036 A 
HETATM   14  C12 UNL     1      38.078   1.806  36.547  1.00  0.00     0.070 C 
HETATM   15  C13 UNL     1      38.053   1.377  39.001  1.00  0.00     0.032 A 
HETATM   16  C14 UNL     1      36.894   2.085  39.114  1.00  0.00     0.034 A 
HETATM   17  C15 UNL     1      36.276   2.242  40.387  1.00  0.00     0.033 A 
ENDROOT
BRANCH  17  18
HETATM   18  C16 UNL     1      35.110   3.085  40.352  1.00  0.00     0.037 C 
HETATM   19  C17 UNL     1      35.189   4.517  39.888  1.00  0.00     0.070 C 
HETATM   20  N6  UNL     1      33.964   2.698  40.703  1.00  0.00    -0.289 N 
ATOM     21  H6  UNL     1      33.906   1.731  41.022  1.00  0.00     0.188 HD
BRANCH  20  22
HETATM   22  N7  UNL     1      32.798   3.388  40.716  1.00  0.00    -0.228 N 
HETATM   23  N8  UNL     1      32.127   3.863  41.631  1.00  0.00    -0.231 N 
ATOM     24  H8  UNL     1      31.275   4.342  41.339  1.00  0.00     0.209 HD
ATOM     25  H7  UNL     1      32.400   3.542  39.790  1.00  0.00     0.210 HD
BRANCH  23  26
HETATM   26  N9  UNL     1      32.351   3.848  42.990  1.00  0.00    -0.301 N 
ATOM     27  H9  UNL     1      33.314   3.926  43.319  1.00  0.00     0.183 HD
BRANCH  26  28
HETATM   28  C18 UNL     1      31.296   3.728  43.979  1.00  0.00     0.294 C 
BRANCH  28  29
HETATM   29  N10 UNL     1      31.205   4.890  44.838  1.00  0.00    -0.220 N 
HETATM   30  N11 UNL     1      31.693   6.086  44.462  1.00  0.00    -0.257 N 
HETATM   31  C19 UNL     1      31.470   6.956  45.450  1.00  0.00     0.240 A 
ATOM     32  H11 UNL     1      32.154   6.292  43.577  1.00  0.00     0.191 HD
HETATM   33  N12 UNL     1      30.851   6.290  46.413  1.00  0.00    -0.272 N 
HETATM   34  C20 UNL     1      30.672   5.011  46.067  1.00  0.00     0.345 A 
ATOM     35  H12 UNL     1      30.552   6.698  47.298  1.00  0.00     0.174 HD
HETATM   36  O5  UNL     1      30.119   4.076  46.732  1.00  0.00    -0.245 OA
BRANCH  31  37
HETATM   37  O4  UNL     1      31.839   8.296  45.414  1.00  0.00    -0.331 OA
ATOM     38  H4  UNL     1      31.292   9.011  45.715  1.00  0.00     0.221 HD
ENDBRANCH  31  37
ENDBRANCH  28  29
ENDBRANCH  26  28
ENDBRANCH  23  26
ENDBRANCH  20  22
ENDBRANCH  17  18
BRANCH   1  39
HETATM   39  N1  UNL     1      36.245   1.727  42.781  1.00  0.00    -0.326 N 
HETATM   40  C4  UNL     1      35.278   0.865  43.371  1.00  0.00     0.225 C 
HETATM   41  C5  UNL     1      34.611   1.643  44.461  1.00  0.00     0.074 C 
HETATM   42  C6  UNL     1      35.663   2.615  44.913  1.00  0.00     0.025 C 
HETATM   43  C7  UNL     1      36.655   2.689  43.782  1.00  0.00     0.128 C 
BRANCH  40  44
HETATM   44  C3  UNL     1      35.967  -0.317  44.040  1.00  0.00     0.315 C 
HETATM   45  O2  UNL     1      36.820  -0.982  43.409  1.00  0.00    -0.260 OA
BRANCH  44  46
HETATM   46  O1  UNL     1      35.689  -0.699  45.338  1.00  0.00    -0.318 OA
BRANCH  46  47
HETATM   47  C2  UNL     1      36.675  -0.709  46.353  1.00  0.00     0.174 C 
HETATM   48  C1  UNL     1      36.250  -0.039  47.617  1.00  0.00     0.034 C 
ENDBRANCH  46  47
ENDBRANCH  44  46
ENDBRANCH  40  44
BRANCH  40  49
HETATM   49  O3  UNL     1      34.296   0.374  42.517  1.00  0.00    -0.362 OA
ATOM     50  H3  UNL     1      33.546   0.956  42.557  1.00  0.00     0.213 HD
ENDBRANCH  40  49
ENDBRANCH   1  39
TORSDOF 11
ENDMDL
MODEL 3
REMARK VINA RESULT: -9.774624664      2.836      4.226
REMARK  11 active torsions:
REMARK  status: ('A' for Active; 'I' for Inactive)
REMARK    1  A    between atoms: C2_2  and  O1_3 
REMARK    2  A    between atoms: O1_3  and  C3_4 
REMARK    3  A    between atoms: C3_4  and  C4_6 
REMARK    4  A    between atoms: C4_6  and  O3_7 
REMARK    5  A    between atoms: N1_12  and  C8_13 
REMARK    6  A    between atoms: C15_29  and  C16_30 
REMARK    7  A    between atoms: N6_32  and  N7_34 
REMARK    8  A    between atoms: N8_36  and  N9_38 
REMARK    9  A    between atoms: N9_38  and  C18_40 
REMARK   10  A    between atoms: C18_40  and  N10_41 
REMARK   11  A    between atoms: C19_44  and  O4_45 
ROOT
HETATM    1  C8  UNL     1      36.011   2.300  39.724  1.00  0.00     0.120 A 
HETATM    2  N2  UNL     1      36.737   2.103  38.568  1.00  0.00    -0.327 N 
ATOM      3  H2  UNL     1      36.358   2.451  37.688  1.00  0.00     0.169 HD
HETATM    4  C9  UNL     1      37.919   1.472  38.554  1.00  0.00     0.134 A 
HETATM    5  N3  UNL     1      38.629   1.281  37.426  1.00  0.00    -0.176 N 
ATOM      6  H3  UNL     1      38.247   1.632  36.547  1.00  0.00     0.186 HD
HETATM    7  C10 UNL     1      39.815   0.651  37.402  1.00  0.00     0.677 A 
HETATM    8  N4  UNL     1      40.431   0.505  36.287  1.00  0.00    -0.234 N 
ATOM      9  H41 UNL     1      41.331   0.027  36.268  1.00  0.00     0.174 HD
ATOM     10  H42 UNL     1      40.014   0.871  35.431  1.00  0.00     0.174 HD
HETATM   11  N5  UNL     1      40.367   0.168  38.534  1.00  0.00    -0.195 N 
ATOM     12  H5  UNL     1      41.268  -0.310  38.511  1.00  0.00     0.184 HD
HETATM   13  C11 UNL     1      39.705   0.330  39.695  1.00  0.00     0.036 A 
HETATM   14  C12 UNL     1      40.276  -0.187  40.970  1.00  0.00     0.070 C 
HETATM   15  C13 UNL     1      38.468   0.987  39.721  1.00  0.00     0.032 A 
HETATM   16  C14 UNL     1      37.777   1.162  40.883  1.00  0.00     0.034 A 
HETATM   17  C15 UNL     1      36.522   1.834  40.872  1.00  0.00     0.033 A 
ENDROOT
BRANCH  17  18
HETATM   18  C16 UNL     1      35.881   1.861  42.160  1.00  0.00     0.037 C 
HETATM   19  C17 UNL     1      34.805   0.870  42.523  1.00  0.00     0.070 C 
HETATM   20  N6  UNL     1      36.163   2.699  43.057  1.00  0.00    -0.289 N 
ATOM     21  H6  UNL     1      36.888   3.374  42.815  1.00  0.00     0.188 HD
BRANCH  20  22
HETATM   22  N7  UNL     1      35.638   2.827  44.299  1.00  0.00    -0.228 N 
HETATM   23  N8  UNL     1      35.948   2.338  45.385  1.00  0.00    -0.231 N 
ATOM     24  H8  UNL     1      35.361   2.620  46.170  1.00  0.00     0.209 HD
ATOM     25  H7  UNL     1      34.830   3.449  44.343  1.00  0.00     0.210 HD
BRANCH  23  26
HETATM   26  N9  UNL     1      36.967   1.468  45.701  1.00  0.00    -0.301 N 
ATOM     27  H9  UNL     1      37.800   1.847  46.152  1.00  0.00     0.183 HD
BRANCH  26  28
HETATM   28  C18 UNL     1      36.923   0.043  45.429  1.00  0.00     0.294 C 
BRANCH  28  29
HETATM   29  N10 UNL     1      36.067  -0.672  46.354  1.00  0.00    -0.220 N 
HETATM   30  N11 UNL     1      34.733  -0.716  46.192  1.00  0.00    -0.257 N 
HETATM   31  C19 UNL     1      34.216  -1.437  47.189  1.00  0.00     0.240 A 
ATOM     32  H11 UNL     1      34.207  -0.275  45.438  1.00  0.00     0.191 HD
HETATM   33  N12 UNL     1      35.230  -1.825  47.946  1.00  0.00    -0.272 N 
HETATM   34  C20 UNL     1      36.389  -1.369  47.459  1.00  0.00     0.345 A 
ATOM     35  H12 UNL     1      35.140  -2.395  48.787  1.00  0.00     0.174 HD
HETATM   36  O5  UNL     1      37.567  -1.538  47.913  1.00  0.00    -0.245 OA
BRANCH  31  37
HETATM   37  O4  UNL     1      32.860  -1.698  47.348  1.00  0.00    -0.331 OA
ATOM     38  H4  UNL     1      32.375  -2.344  46.848  1.00  0.00     0.221 HD
ENDBRANCH  31  37
ENDBRANCH  28  29
ENDBRANCH  26  28
ENDBRANCH  23  26
ENDBRANCH  20  22
ENDBRANCH  17  18
BRANCH   1  39
HETATM   39  N1  UNL     1      34.808   3.055  39.620  1.00  0.00    -0.326 N 
HETATM   40  C4  UNL     1      34.558   4.424  39.919  1.00  0.00     0.225 C 
HETATM   41  C5  UNL     1      33.093   4.548  40.194  1.00  0.00     0.074 C 
HETATM   42  C6  UNL     1      32.474   3.454  39.372  1.00  0.00     0.025 C 
HETATM   43  C7  UNL     1      33.590   2.487  39.081  1.00  0.00     0.128 C 
BRANCH  40  44
HETATM   44  C3  UNL     1      34.847   5.289  38.700  1.00  0.00     0.315 C 
HETATM   45  O2  UNL     1      35.793   4.996  37.935  1.00  0.00    -0.260 OA
BRANCH  44  46
HETATM   46  O1  UNL     1      34.096   6.407  38.391  1.00  0.00    -0.318 OA
BRANCH  46  47
HETATM   47  C2  UNL     1      34.544   7.720  38.666  1.00  0.00     0.174 C 
HETATM   48  C1  UNL     1      34.238   8.187  40.051  1.00  0.00     0.034 C 
ENDBRANCH  46  47
ENDBRANCH  44  46
ENDBRANCH  40  44
BRANCH  40  49
HETATM   49  O3  UNL     1      35.255   4.949  41.003  1.00  0.00    -0.362 OA
ATOM     50  H3  UNL     1      35.056   5.876  41.067  1.00  0.00     0.213 HD
ENDBRANCH  40  49
ENDBRANCH   1  39
TORSDOF 11
ENDMDL
MODEL 4
REMARK VINA RESULT: -9.762784936      2.999      4.535
REMARK  11 active torsions:
REMARK  status: ('A' for Active; 'I' for Inactive)
REMARK    1  A    between atoms: C2_2  and  O1_3 
REMARK    2  A    between atoms: O1_3  and  C3_4 
REMARK    3  A    between atoms: C3_4  and  C4_6 
REMARK    4  A    between atoms: C4_6  and  O3_7 
REMARK    5  A    between atoms: N1_12  and  C8_13 
REMARK    6  A    between atoms: C15_29  and  C16_30 
REMARK    7  A    between atoms: N6_32  and  N7_34 
REMARK    8  A    between atoms: N8_36  and  N9_38 
REMARK    9  A    between atoms: N9_38  and  C18_40 
REMARK   10  A    between atoms: C18_40  and  N10_41 
REMARK   11  A    between atoms: C19_44  and  O4_45 
ROOT
HETATM    1  C8  UNL     1      36.780   2.338  39.144  1.00  0.00     0.120 A 
HETATM    2  N2  UNL     1      37.616   2.022  38.094  1.00  0.00    -0.327 N 
ATOM      3  H2  UNL     1      37.404   2.397  37.170  1.00  0.00     0.169 HD
HETATM    4  C9  UNL     1      38.696   1.241  38.238  1.00  0.00     0.134 A 
HETATM    5  N3  UNL     1      39.514   0.933  37.213  1.00  0.00    -0.176 N 
ATOM      6  H3  UNL     1      39.299   1.312  36.290  1.00  0.00     0.186 HD
HETATM    7  C10 UNL     1      40.598   0.153  37.347  1.00  0.00     0.677 A 
HETATM    8  N4  UNL     1      41.328  -0.097  36.324  1.00  0.00    -0.234 N 
ATOM      9  H41 UNL     1      42.152  -0.690  36.425  1.00  0.00     0.174 HD
ATOM     10  H42 UNL     1      41.077   0.301  35.418  1.00  0.00     0.174 HD
HETATM   11  N5  UNL     1      40.931  -0.374  38.545  1.00  0.00    -0.195 N 
ATOM     12  H5  UNL     1      41.756  -0.966  38.642  1.00  0.00     0.184 HD
HETATM   13  C11 UNL     1      40.152  -0.100  39.608  1.00  0.00     0.036 A 
HETATM   14  C12 UNL     1      40.479  -0.659  40.949  1.00  0.00     0.070 C 
HETATM   15  C13 UNL     1      39.020   0.714  39.469  1.00  0.00     0.032 A 
HETATM   16  C14 UNL     1      38.215   1.003  40.529  1.00  0.00     0.034 A 
HETATM   17  C15 UNL     1      37.072   1.834  40.352  1.00  0.00     0.033 A 
ENDROOT
BRANCH  17  18
HETATM   18  C16 UNL     1      36.280   1.974  41.545  1.00  0.00     0.037 C 
HETATM   19  C17 UNL     1      35.126   1.048  41.834  1.00  0.00     0.070 C 
HETATM   20  N6  UNL     1      36.485   2.863  42.413  1.00  0.00    -0.289 N 
ATOM     21  H6  UNL     1      37.262   3.495  42.219  1.00  0.00     0.188 HD
BRANCH  20  22
HETATM   22  N7  UNL     1      35.817   3.097  43.568  1.00  0.00    -0.228 N 
HETATM   23  N8  UNL     1      36.003   2.717  44.724  1.00  0.00    -0.231 N 
ATOM     24  H8  UNL     1      35.325   3.059  45.405  1.00  0.00     0.209 HD
ATOM     25  H7  UNL     1      35.004   3.703  43.459  1.00  0.00     0.210 HD
BRANCH  23  26
HETATM   26  N9  UNL     1      36.985   1.900  45.237  1.00  0.00    -0.301 N 
ATOM     27  H9  UNL     1      37.704   2.323  45.824  1.00  0.00     0.183 HD
BRANCH  26  28
HETATM   28  C18 UNL     1      37.056   0.472  44.989  1.00  0.00     0.294 C 
BRANCH  28  29
HETATM   29  N10 UNL     1      36.040  -0.268  45.710  1.00  0.00    -0.220 N 
HETATM   30  N11 UNL     1      36.361  -1.222  46.601  1.00  0.00    -0.257 N 
HETATM   31  C19 UNL     1      35.228  -1.725  47.098  1.00  0.00     0.240 A 
ATOM     32  H11 UNL     1      37.305  -1.512  46.853  1.00  0.00     0.191 HD
HETATM   33  N12 UNL     1      34.233  -1.079  46.511  1.00  0.00    -0.272 N 
HETATM   34  C20 UNL     1      34.700  -0.171  45.647  1.00  0.00     0.345 A 
ATOM     35  H12 UNL     1      33.244  -1.249  46.694  1.00  0.00     0.174 HD
HETATM   36  O5  UNL     1      34.046   0.633  44.906  1.00  0.00    -0.245 OA
BRANCH  31  37
HETATM   37  O4  UNL     1      35.170  -2.736  48.051  1.00  0.00    -0.331 OA
ATOM     38  H4  UNL     1      35.650  -2.729  48.871  1.00  0.00     0.221 HD
ENDBRANCH  31  37
ENDBRANCH  28  29
ENDBRANCH  26  28
ENDBRANCH  23  26
ENDBRANCH  20  22
ENDBRANCH  17  18
BRANCH   1  39
HETATM   39  N1  UNL     1      35.712   3.242  38.880  1.00  0.00    -0.326 N 
HETATM   40  C4  UNL     1      34.487   3.034  38.185  1.00  0.00     0.225 C 
HETATM   41  C5  UNL     1      34.030   4.372  37.701  1.00  0.00     0.074 C 
HETATM   42  C6  UNL     1      34.593   5.337  38.705  1.00  0.00     0.025 C 
HETATM   43  C7  UNL     1      35.710   4.596  39.392  1.00  0.00     0.128 C 
BRANCH  40  44
HETATM   44  C3  UNL     1      33.419   2.530  39.147  1.00  0.00     0.315 C 
HETATM   45  O2  UNL     1      33.212   1.301  39.264  1.00  0.00    -0.260 OA
BRANCH  44  46
HETATM   46  O1  UNL     1      32.650   3.385  39.913  1.00  0.00    -0.318 OA
BRANCH  46  47
HETATM   47  C2  UNL     1      32.794   3.483  41.316  1.00  0.00     0.174 C 
HETATM   48  C1  UNL     1      32.827   4.885  41.826  1.00  0.00     0.034 C 
ENDBRANCH  46  47
ENDBRANCH  44  46
ENDBRANCH  40  44
BRANCH  40  49
HETATM   49  O3  UNL     1      34.542   2.167  37.099  1.00  0.00    -0.362 OA
ATOM     50  H3  UNL     1      33.853   2.407  36.490  1.00  0.00     0.213 HD
ENDBRANCH  40  49
ENDBRANCH   1  39
TORSDOF 11
ENDMDL
MODEL 5
REMARK VINA RESULT: -9.713773829      3.253      4.615
REMARK  11 active torsions:
REMARK  status: ('A' for Active; 'I' for Inactive)
REMARK    1  A    between atoms: C2_2  and  O1_3 
REMARK    2  A    between atoms: O1_3  and  C3_4 
REMARK    3  A    between atoms: C3_4  and  C4_6 
REMARK    4  A    between atoms: C4_6  and  O3_7 
REMARK    5  A    between atoms: N1_12  and  C8_13 
REMARK    6  A    between atoms: C15_29  and  C16_30 
REMARK    7  A    between atoms: N6_32  and  N7_34 
REMARK    8  A    between atoms: N8_36  and  N9_38 
REMARK    9  A    between atoms: N9_38  and  C18_40 
REMARK   10  A    between atoms: C18_40  and  N10_41 
REMARK   11  A    between atoms: C19_44  and  O4_45 
ROOT
HETATM    1  C8  UNL     1      36.616   2.346  39.618  1.00  0.00     0.120 A 
HETATM    2  N2  UNL     1      37.446   2.072  38.552  1.00  0.00    -0.327 N 
ATOM      3  H2  UNL     1      37.221   2.471  37.642  1.00  0.00     0.169 HD
HETATM    4  C9  UNL     1      38.537   1.301  38.663  1.00  0.00     0.134 A 
HETATM    5  N3  UNL     1      39.349   1.035  37.622  1.00  0.00    -0.176 N 
ATOM      6  H3  UNL     1      39.120   1.437  36.713  1.00  0.00     0.186 HD
HETATM    7  C10 UNL     1      40.444   0.264  37.723  1.00  0.00     0.677 A 
HETATM    8  N4  UNL     1      41.168   0.055  36.685  1.00  0.00    -0.234 N 
ATOM      9  H41 UNL     1      42.000  -0.530  36.762  1.00  0.00     0.174 HD
ATOM     10  H42 UNL     1      40.903   0.476  35.795  1.00  0.00     0.174 HD
HETATM   11  N5  UNL     1      40.795  -0.293  38.901  1.00  0.00    -0.195 N 
ATOM     12  H5  UNL     1      41.628  -0.877  38.973  1.00  0.00     0.184 HD
HETATM   13  C11 UNL     1      40.023  -0.062  39.979  1.00  0.00     0.036 A 
HETATM   14  C12 UNL     1      40.370  -0.656  41.300  1.00  0.00     0.070 C 
HETATM   15  C13 UNL     1      38.879   0.742  39.874  1.00  0.00     0.032 A 
HETATM   16  C14 UNL     1      38.080   0.989  40.950  1.00  0.00     0.034 A 
HETATM   17  C15 UNL     1      36.926   1.809  40.808  1.00  0.00     0.033 A 
ENDROOT
BRANCH  17  18
HETATM   18  C16 UNL     1      36.143   1.903  42.012  1.00  0.00     0.037 C 
HETATM   19  C17 UNL     1      34.965   0.994  42.255  1.00  0.00     0.070 C 
HETATM   20  N6  UNL     1      36.376   2.735  42.927  1.00  0.00    -0.289 N 
ATOM     21  H6  UNL     1      37.170   3.355  42.765  1.00  0.00     0.188 HD
BRANCH  20  22
HETATM   22  N7  UNL     1      35.720   2.922  44.098  1.00  0.00    -0.228 N 
HETATM   23  N8  UNL     1      35.892   2.462  45.226  1.00  0.00    -0.231 N 
ATOM     24  H8  UNL     1      35.230   2.787  45.931  1.00  0.00     0.209 HD
ATOM     25  H7  UNL     1      34.933   3.566  44.031  1.00  0.00     0.210 HD
BRANCH  23  26
HETATM   26  N9  UNL     1      36.842   1.575  45.682  1.00  0.00    -0.301 N 
ATOM     27  H9  UNL     1      37.580   1.931  46.289  1.00  0.00     0.183 HD
BRANCH  26  28
HETATM   28  C18 UNL     1      36.851   0.163  45.347  1.00  0.00     0.294 C 
BRANCH  28  29
HETATM   29  N10 UNL     1      36.073  -0.633  46.275  1.00  0.00    -0.220 N 
HETATM   30  N11 UNL     1      34.735  -0.726  46.176  1.00  0.00    -0.257 N 
HETATM   31  C19 UNL     1      34.299  -1.516  47.159  1.00  0.00     0.240 A 
ATOM     32  H11 UNL     1      34.155  -0.272  45.471  1.00  0.00     0.191 HD
HETATM   33  N12 UNL     1      35.365  -1.897  47.845  1.00  0.00    -0.272 N 
HETATM   34  C20 UNL     1      36.479  -1.368  47.326  1.00  0.00     0.345 A 
ATOM     35  H12 UNL     1      35.341  -2.510  48.660  1.00  0.00     0.174 HD
HETATM   36  O5  UNL     1      37.684  -1.509  47.714  1.00  0.00    -0.245 OA
BRANCH  31  37
HETATM   37  O4  UNL     1      32.964  -1.843  47.370  1.00  0.00    -0.331 OA
ATOM     38  H4  UNL     1      32.372  -1.348  47.924  1.00  0.00     0.221 HD
ENDBRANCH  31  37
ENDBRANCH  28  29
ENDBRANCH  26  28
ENDBRANCH  23  26
ENDBRANCH  20  22
ENDBRANCH  17  18
BRANCH   1  39
HETATM   39  N1  UNL     1      35.534   3.243  39.391  1.00  0.00    -0.326 N 
HETATM   40  C4  UNL     1      35.540   4.577  38.895  1.00  0.00     0.225 C 
HETATM   41  C5  UNL     1      34.290   5.230  39.391  1.00  0.00     0.074 C 
HETATM   42  C6  UNL     1      33.315   4.096  39.529  1.00  0.00     0.025 C 
HETATM   43  C7  UNL     1      34.156   2.848  39.592  1.00  0.00     0.128 C 
BRANCH  40  44
HETATM   44  C3  UNL     1      35.456   4.572  37.375  1.00  0.00     0.315 C 
HETATM   45  O2  UNL     1      35.052   5.589  36.767  1.00  0.00    -0.260 OA
BRANCH  44  46
HETATM   46  O1  UNL     1      35.812   3.473  36.618  1.00  0.00    -0.318 OA
BRANCH  46  47
HETATM   47  C2  UNL     1      35.015   2.997  35.551  1.00  0.00     0.174 C 
HETATM   48  C1  UNL     1      33.696   2.445  35.979  1.00  0.00     0.034 C 
ENDBRANCH  46  47
ENDBRANCH  44  46
ENDBRANCH  40  44
BRANCH  40  49
HETATM   49  O3  UNL     1      36.626   5.362  39.271  1.00  0.00    -0.362 OA
ATOM     50  H3  UNL     1      36.512   5.615  40.180  1.00  0.00     0.213 HD
ENDBRANCH  40  49
ENDBRANCH   1  39
TORSDOF 11
ENDMDL
