MODEL 1
REMARK VINA RESULT: -6.463149163      0.000      0.000
REMARK  8 active torsions:
REMARK  status: ('A' for Active; 'I' for Inactive)
REMARK    1  A    between atoms: C4_4  and  O1_5 
REMARK    2  A    between atoms: C12_15  and  O3_16 
REMARK    3  A    between atoms: O3_16  and  C13_17 
REMARK    4  A    between atoms: C15_20  and  O5_21 
REMARK    5  A    between atoms: O5_21  and  C16_22 
REMARK    6  A    between atoms: C16_22  and  O6_23 
REMARK    7  A    between atoms: C19_26  and  O7_27 
REMARK    8  A    between atoms: C21_30  and  O8_32 
ROOT
HETATM    1  C1  UNL     1      18.423  44.806  21.611  1.00  0.00     0.024 C 
HETATM    2  C2  UNL     1      19.677  44.863  21.115  1.00  0.00    -0.038 C 
HETATM    3  C3  UNL     1      20.227  43.533  20.775  1.00  0.00     0.074 C 
HETATM    4  C4  UNL     1      21.606  43.087  20.859  1.00  0.00     0.179 C 
HETATM    5  O2  UNL     1      22.343  42.755  21.930  1.00  0.00    -0.320 OA
HETATM    6  C5  UNL     1      22.911  43.746  22.785  1.00  0.00     0.066 C 
HETATM    7  C6  UNL     1      23.077  43.076  24.130  1.00  0.00     0.046 C 
HETATM    8  C7  UNL     1      21.915  44.793  22.742  1.00  0.00     0.039 C 
HETATM    9  C8  UNL     1      21.546  46.062  23.217  1.00  0.00     0.013 C 
HETATM   10  C9  UNL     1      21.067  46.908  22.008  1.00  0.00     0.028 C 
HETATM   11  C10 UNL     1      20.260  46.200  21.001  1.00  0.00    -0.063 C 
HETATM   12  C11 UNL     1      20.803  46.326  19.563  1.00  0.00     0.070 C 
HETATM   13  C12 UNL     1      20.440  47.676  18.938  1.00  0.00     0.165 C 
HETATM   14  C15 UNL     1      21.611  48.605  19.203  1.00  0.00     0.162 C 
HETATM   15  C18 UNL     1      21.740  48.743  20.677  1.00  0.00     0.066 A 
HETATM   16  C19 UNL     1      23.029  48.592  21.307  1.00  0.00     0.081 A 
HETATM   17  C20 UNL     1      23.432  47.435  22.219  1.00  0.00     0.068 A 
HETATM   18  C21 UNL     1      24.639  46.638  21.941  1.00  0.00     0.061 C 
HETATM   19  C22 UNL     1      24.944  46.237  20.550  1.00  0.00     0.046 C 
HETATM   20  C23 UNL     1      24.771  45.436  22.849  1.00  0.00     0.041 C 
HETATM   21  C24 UNL     1      24.287  44.138  22.287  1.00  0.00     0.041 C 
HETATM   22  C25 UNL     1      22.292  47.427  21.338  1.00  0.00     0.017 A 
ENDROOT
BRANCH  13  23
HETATM   23  O3  UNL     1      20.130  47.557  17.581  1.00  0.00    -0.313 OA
BRANCH  23  24
HETATM   24  C13 UNL     1      18.832  47.806  17.156  1.00  0.00     0.255 C 
HETATM   25  C14 UNL     1      17.730  46.820  17.308  1.00  0.00     0.126 C 
HETATM   26  O4  UNL     1      18.544  48.905  16.613  1.00  0.00    -0.266 OA
ENDBRANCH  23  24
ENDBRANCH  13  23
BRANCH  14  27
HETATM   27  O5  UNL     1      21.559  49.764  18.512  1.00  0.00    -0.359 OA
BRANCH  27  28
HETATM   28  C16 UNL     1      22.543  50.034  17.608  1.00  0.00     0.337 C 
BRANCH  28  29
HETATM   29  O6  UNL     1      23.585  50.678  18.321  1.00  0.00    -0.372 OA
HETATM   30  C17 UNL     1      23.797  51.950  17.752  1.00  0.00     0.204 C 
ENDBRANCH  28  29
ENDBRANCH  27  28
ENDBRANCH  14  27
BRANCH  16  31
HETATM   31  O7  UNL     1      24.077  48.997  20.559  1.00  0.00    -0.388 OA
ATOM     32  H7  UNL     1      24.572  48.295  20.152  1.00  0.00     0.210 HD
ENDBRANCH  16  31
BRANCH   4  33
HETATM   33  O1  UNL     1      22.407  43.498  19.748  1.00  0.00    -0.341 OA
ATOM     34  H1  UNL     1      23.230  43.899  20.003  1.00  0.00     0.220 HD
ENDBRANCH   4  33
BRANCH  18  35
HETATM   35  O8  UNL     1      25.726  47.505  22.288  1.00  0.00    -0.390 OA
ATOM     36  H8  UNL     1      26.486  47.108  21.878  1.00  0.00     0.210 HD
ENDBRANCH  18  35
TORSDOF 8
ENDMDL
MODEL 2
REMARK VINA RESULT: -6.329508884      2.427      5.154
REMARK  8 active torsions:
REMARK  status: ('A' for Active; 'I' for Inactive)
REMARK    1  A    between atoms: C4_4  and  O1_5 
REMARK    2  A    between atoms: C12_15  and  O3_16 
REMARK    3  A    between atoms: O3_16  and  C13_17 
REMARK    4  A    between atoms: C15_20  and  O5_21 
REMARK    5  A    between atoms: O5_21  and  C16_22 
REMARK    6  A    between atoms: C16_22  and  O6_23 
REMARK    7  A    between atoms: C19_26  and  O7_27 
REMARK    8  A    between atoms: C21_30  and  O8_32 
ROOT
HETATM    1  C1  UNL     1      22.980  42.028  21.631  1.00  0.00     0.024 C 
HETATM    2  C2  UNL     1      22.807  43.190  20.966  1.00  0.00    -0.038 C 
HETATM    3  C3  UNL     1      24.062  43.720  20.390  1.00  0.00     0.074 C 
HETATM    4  C4  UNL     1      24.449  45.107  20.215  1.00  0.00     0.179 C 
HETATM    5  O2  UNL     1      24.869  46.008  21.117  1.00  0.00    -0.320 OA
HETATM    6  C5  UNL     1      23.957  46.670  21.992  1.00  0.00     0.066 C 
HETATM    7  C6  UNL     1      24.770  47.058  23.207  1.00  0.00     0.046 C 
HETATM    8  C7  UNL     1      22.960  45.650  22.225  1.00  0.00     0.039 C 
HETATM    9  C8  UNL     1      21.773  45.321  22.899  1.00  0.00     0.013 C 
HETATM   10  C9  UNL     1      20.816  44.640  21.886  1.00  0.00     0.028 C 
HETATM   11  C10 UNL     1      21.440  43.709  20.930  1.00  0.00    -0.063 C 
HETATM   12  C11 UNL     1      21.124  44.024  19.454  1.00  0.00     0.070 C 
HETATM   13  C12 UNL     1      19.729  43.532  19.058  1.00  0.00     0.165 C 
HETATM   14  C15 UNL     1      18.783  44.702  19.258  1.00  0.00     0.162 C 
HETATM   15  C18 UNL     1      18.810  45.050  20.702  1.00  0.00     0.066 A 
HETATM   16  C19 UNL     1      18.973  46.423  21.112  1.00  0.00     0.081 A 
HETATM   17  C20 UNL     1      20.207  46.994  21.808  1.00  0.00     0.068 A 
HETATM   18  C21 UNL     1      20.909  48.166  21.261  1.00  0.00     0.061 C 
HETATM   19  C22 UNL     1      21.133  48.268  19.802  1.00  0.00     0.046 C 
HETATM   20  C23 UNL     1      22.202  48.470  21.986  1.00  0.00     0.041 C 
HETATM   21  C24 UNL     1      23.447  47.944  21.349  1.00  0.00     0.041 C 
HETATM   22  C25 UNL     1      20.167  45.734  21.110  1.00  0.00     0.017 A 
ENDROOT
BRANCH  13  23
HETATM   23  O3  UNL     1      19.704  43.022  17.757  1.00  0.00    -0.313 OA
BRANCH  23  24
HETATM   24  C13 UNL     1      20.617  42.042  17.393  1.00  0.00     0.255 C 
HETATM   25  C14 UNL     1      20.743  40.748  18.114  1.00  0.00     0.126 C 
HETATM   26  O4  UNL     1      21.386  42.227  16.413  1.00  0.00    -0.266 OA
ENDBRANCH  23  24
ENDBRANCH  13  23
BRANCH  14  27
HETATM   27  O5  UNL     1      17.555  44.512  18.728  1.00  0.00    -0.359 OA
BRANCH  27  28
HETATM   28  C16 UNL     1      16.486  44.415  19.567  1.00  0.00     0.337 C 
BRANCH  28  29
HETATM   29  O6  UNL     1      15.786  45.644  19.479  1.00  0.00    -0.372 OA
HETATM   30  C17 UNL     1      14.519  45.398  18.913  1.00  0.00     0.204 C 
ENDBRANCH  28  29
ENDBRANCH  27  28
ENDBRANCH  14  27
BRANCH  16  31
HETATM   31  O7  UNL     1      18.436  47.334  20.273  1.00  0.00    -0.388 OA
ATOM     32  H7  UNL     1      17.913  48.006  20.694  1.00  0.00     0.210 HD
ENDBRANCH  16  31
BRANCH   4  33
HETATM   33  O1  UNL     1      23.876  45.719  19.056  1.00  0.00    -0.341 OA
ATOM     34  H1  UNL     1      24.352  46.483  18.756  1.00  0.00     0.220 HD
ENDBRANCH   4  33
BRANCH  18  35
HETATM   35  O8  UNL     1      20.039  49.268  21.546  1.00  0.00    -0.390 OA
ATOM     36  H8  UNL     1      20.069  49.355  22.492  1.00  0.00     0.210 HD
ENDBRANCH  18  35
TORSDOF 8
ENDMDL
MODEL 3
REMARK VINA RESULT: -5.946524956      2.502      5.387
REMARK  8 active torsions:
REMARK  status: ('A' for Active; 'I' for Inactive)
REMARK    1  A    between atoms: C4_4  and  O1_5 
REMARK    2  A    between atoms: C12_15  and  O3_16 
REMARK    3  A    between atoms: O3_16  and  C13_17 
REMARK    4  A    between atoms: C15_20  and  O5_21 
REMARK    5  A    between atoms: O5_21  and  C16_22 
REMARK    6  A    between atoms: C16_22  and  O6_23 
REMARK    7  A    between atoms: C19_26  and  O7_27 
REMARK    8  A    between atoms: C21_30  and  O8_32 
ROOT
HETATM    1  C1  UNL     1      22.549  42.495  21.348  1.00  0.00     0.024 C 
HETATM    2  C2  UNL     1      22.294  43.652  20.702  1.00  0.00    -0.038 C 
HETATM    3  C3  UNL     1      23.520  44.400  20.347  1.00  0.00     0.074 C 
HETATM    4  C4  UNL     1      23.703  45.838  20.280  1.00  0.00     0.179 C 
HETATM    5  O2  UNL     1      23.834  46.740  21.265  1.00  0.00    -0.320 OA
HETATM    6  C5  UNL     1      22.707  47.205  22.008  1.00  0.00     0.066 C 
HETATM    7  C6  UNL     1      23.256  47.643  23.347  1.00  0.00     0.046 C 
HETATM    8  C7  UNL     1      21.862  46.033  22.047  1.00  0.00     0.039 C 
HETATM    9  C8  UNL     1      20.655  45.488  22.517  1.00  0.00     0.013 C 
HETATM   10  C9  UNL     1      19.983  44.728  21.344  1.00  0.00     0.028 C 
HETATM   11  C10 UNL     1      20.883  43.958  20.469  1.00  0.00    -0.063 C 
HETATM   12  C11 UNL     1      20.746  44.304  18.972  1.00  0.00     0.070 C 
HETATM   13  C12 UNL     1      19.523  43.627  18.347  1.00  0.00     0.165 C 
HETATM   14  C15 UNL     1      18.383  44.626  18.433  1.00  0.00     0.162 C 
HETATM   15  C18 UNL     1      18.137  44.892  19.875  1.00  0.00     0.066 A 
HETATM   16  C19 UNL     1      18.015  46.248  20.349  1.00  0.00     0.081 A 
HETATM   17  C20 UNL     1      19.024  46.960  21.248  1.00  0.00     0.068 A 
HETATM   18  C21 UNL     1      19.604  48.256  20.855  1.00  0.00     0.061 C 
HETATM   19  C22 UNL     1      20.024  48.472  19.453  1.00  0.00     0.046 C 
HETATM   20  C23 UNL     1      20.707  48.712  21.784  1.00  0.00     0.041 C 
HETATM   21  C24 UNL     1      22.102  48.419  21.333  1.00  0.00     0.041 C 
HETATM   22  C25 UNL     1      19.290  45.751  20.512  1.00  0.00     0.017 A 
ENDROOT
BRANCH  13  23
HETATM   23  O3  UNL     1      19.775  43.194  17.043  1.00  0.00    -0.313 OA
BRANCH  23  24
HETATM   24  C13 UNL     1      20.759  42.242  16.820  1.00  0.00     0.255 C 
HETATM   25  C14 UNL     1      20.860  40.984  17.607  1.00  0.00     0.126 C 
HETATM   26  O4  UNL     1      21.621  42.422  15.919  1.00  0.00    -0.266 OA
ENDBRANCH  23  24
ENDBRANCH  13  23
BRANCH  14  27
HETATM   27  O5  UNL     1      17.295  44.281  17.711  1.00  0.00    -0.359 OA
BRANCH  27  28
HETATM   28  C16 UNL     1      16.839  45.142  16.758  1.00  0.00     0.337 C 
BRANCH  28  29
HETATM   29  O6  UNL     1      15.869  45.965  17.382  1.00  0.00    -0.372 OA
HETATM   30  C17 UNL     1      14.787  45.155  17.783  1.00  0.00     0.204 C 
ENDBRANCH  28  29
ENDBRANCH  27  28
ENDBRANCH  14  27
BRANCH  16  31
HETATM   31  O7  UNL     1      17.472  47.112  19.466  1.00  0.00    -0.388 OA
ATOM     32  H7  UNL     1      17.329  46.757  18.596  1.00  0.00     0.210 HD
ENDBRANCH  16  31
BRANCH   4  33
HETATM   33  O1  UNL     1      23.219  46.419  19.066  1.00  0.00    -0.341 OA
ATOM     34  H1  UNL     1      23.342  45.864  18.305  1.00  0.00     0.220 HD
ENDBRANCH   4  33
BRANCH  18  35
HETATM   35  O8  UNL     1      18.536  49.194  21.036  1.00  0.00    -0.390 OA
ATOM     36  H8  UNL     1      18.736  49.900  20.432  1.00  0.00     0.210 HD
ENDBRANCH  18  35
TORSDOF 8
ENDMDL
MODEL 4
REMARK VINA RESULT: -5.915592519      2.853      6.620
REMARK  8 active torsions:
REMARK  status: ('A' for Active; 'I' for Inactive)
REMARK    1  A    between atoms: C4_4  and  O1_5 
REMARK    2  A    between atoms: C12_15  and  O3_16 
REMARK    3  A    between atoms: O3_16  and  C13_17 
REMARK    4  A    between atoms: C15_20  and  O5_21 
REMARK    5  A    between atoms: O5_21  and  C16_22 
REMARK    6  A    between atoms: C16_22  and  O6_23 
REMARK    7  A    between atoms: C19_26  and  O7_27 
REMARK    8  A    between atoms: C21_30  and  O8_32 
ROOT
HETATM    1  C1  UNL     1      24.030  44.284  17.880  1.00  0.00     0.024 C 
HETATM    2  C2  UNL     1      22.731  44.136  18.214  1.00  0.00    -0.038 C 
HETATM    3  C3  UNL     1      22.077  43.010  17.512  1.00  0.00     0.074 C 
HETATM    4  C4  UNL     1      20.697  42.909  17.073  1.00  0.00     0.179 C 
HETATM    5  O2  UNL     1      20.076  43.488  16.034  1.00  0.00    -0.320 OA
HETATM    6  C5  UNL     1      19.665  44.854  16.074  1.00  0.00     0.066 C 
HETATM    7  C6  UNL     1      19.626  45.309  14.633  1.00  0.00     0.046 C 
HETATM    8  C7  UNL     1      20.701  45.462  16.879  1.00  0.00     0.039 C 
HETATM    9  C8  UNL     1      21.188  46.657  17.432  1.00  0.00     0.013 C 
HETATM   10  C9  UNL     1      21.563  46.385  18.913  1.00  0.00     0.028 C 
HETATM   11  C10 UNL     1      22.208  45.091  19.191  1.00  0.00    -0.063 C 
HETATM   12  C11 UNL     1      21.505  44.264  20.287  1.00  0.00     0.070 C 
HETATM   13  C12 UNL     1      21.860  44.768  21.688  1.00  0.00     0.165 C 
HETATM   14  C15 UNL     1      20.778  45.757  22.080  1.00  0.00     0.162 C 
HETATM   15  C18 UNL     1      20.831  46.879  21.107  1.00  0.00     0.066 A 
HETATM   16  C19 UNL     1      19.621  47.353  20.483  1.00  0.00     0.081 A 
HETATM   17  C20 UNL     1      19.270  47.190  19.005  1.00  0.00     0.068 A 
HETATM   18  C21 UNL     1      17.999  46.569  18.594  1.00  0.00     0.061 C 
HETATM   19  C22 UNL     1      17.512  45.366  19.304  1.00  0.00     0.046 C 
HETATM   20  C23 UNL     1      17.914  46.337  17.101  1.00  0.00     0.041 C 
HETATM   21  C24 UNL     1      18.261  44.961  16.634  1.00  0.00     0.041 C 
HETATM   22  C25 UNL     1      20.295  46.447  19.693  1.00  0.00     0.017 A 
ENDROOT
BRANCH  13  23
HETATM   23  O3  UNL     1      22.001  43.719  22.600  1.00  0.00    -0.313 OA
BRANCH  23  24
HETATM   24  C13 UNL     1      23.143  43.649  23.385  1.00  0.00     0.255 C 
HETATM   25  C14 UNL     1      24.389  44.395  23.067  1.00  0.00     0.126 C 
HETATM   26  O4  UNL     1      23.157  42.929  24.419  1.00  0.00    -0.266 OA
ENDBRANCH  23  24
ENDBRANCH  13  23
BRANCH  14  27
HETATM   27  O5  UNL     1      20.807  46.115  23.382  1.00  0.00    -0.359 OA
BRANCH  27  28
HETATM   28  C16 UNL     1      21.760  46.995  23.801  1.00  0.00     0.337 C 
BRANCH  28  29
HETATM   29  O6  UNL     1      21.534  47.214  25.182  1.00  0.00    -0.372 OA
HETATM   30  C17 UNL     1      22.206  46.209  25.910  1.00  0.00     0.204 C 
ENDBRANCH  28  29
ENDBRANCH  27  28
ENDBRANCH  14  27
BRANCH  16  31
HETATM   31  O7  UNL     1      18.513  47.259  21.249  1.00  0.00    -0.388 OA
ATOM     32  H7  UNL     1      17.791  46.786  20.851  1.00  0.00     0.210 HD
ENDBRANCH  16  31
BRANCH   4  33
HETATM   33  O1  UNL     1      19.792  42.543  18.118  1.00  0.00    -0.341 OA
ATOM     34  H1  UNL     1      18.880  42.692  17.898  1.00  0.00     0.220 HD
ENDBRANCH   4  33
BRANCH  18  35
HETATM   35  O8  UNL     1      17.007  47.560  18.888  1.00  0.00    -0.390 OA
ATOM     36  H8  UNL     1      16.615  47.760  18.045  1.00  0.00     0.210 HD
ENDBRANCH  18  35
TORSDOF 8
ENDMDL
MODEL 5
REMARK VINA RESULT: -5.870998955      2.490      4.902
REMARK  8 active torsions:
REMARK  status: ('A' for Active; 'I' for Inactive)
REMARK    1  A    between atoms: C4_4  and  O1_5 
REMARK    2  A    between atoms: C12_15  and  O3_16 
REMARK    3  A    between atoms: O3_16  and  C13_17 
REMARK    4  A    between atoms: C15_20  and  O5_21 
REMARK    5  A    between atoms: O5_21  and  C16_22 
REMARK    6  A    between atoms: C16_22  and  O6_23 
REMARK    7  A    between atoms: C19_26  and  O7_27 
REMARK    8  A    between atoms: C21_30  and  O8_32 
ROOT
HETATM    1  C1  UNL     1      23.459  40.970  21.630  1.00  0.00     0.024 C 
HETATM    2  C2  UNL     1      23.411  42.188  21.050  1.00  0.00    -0.038 C 
HETATM    3  C3  UNL     1      24.680  42.568  20.394  1.00  0.00     0.074 C 
HETATM    4  C4  UNL     1      25.259  43.893  20.264  1.00  0.00     0.179 C 
HETATM    5  O2  UNL     1      25.881  44.657  21.174  1.00  0.00    -0.320 OA
HETATM    6  C5  UNL     1      25.154  45.383  22.165  1.00  0.00     0.066 C 
HETATM    7  C6  UNL     1      26.112  45.563  23.321  1.00  0.00     0.046 C 
HETATM    8  C7  UNL     1      24.036  44.506  22.428  1.00  0.00     0.039 C 
HETATM    9  C8  UNL     1      22.871  44.308  23.187  1.00  0.00     0.013 C 
HETATM   10  C9  UNL     1      21.744  43.846  22.227  1.00  0.00     0.028 C 
HETATM   11  C10 UNL     1      22.140  42.903  21.168  1.00  0.00    -0.063 C 
HETATM   12  C11 UNL     1      21.757  43.363  19.746  1.00  0.00     0.070 C 
HETATM   13  C12 UNL     1      20.276  43.108  19.451  1.00  0.00     0.165 C 
HETATM   14  C15 UNL     1      19.538  44.386  19.801  1.00  0.00     0.162 C 
HETATM   15  C18 UNL     1      19.734  44.625  21.255  1.00  0.00     0.066 A 
HETATM   16  C19 UNL     1      20.135  45.928  21.726  1.00  0.00     0.081 A 
HETATM   17  C20 UNL     1      21.494  46.262  22.339  1.00  0.00     0.068 A 
HETATM   18  C21 UNL     1      22.319  47.356  21.798  1.00  0.00     0.061 C 
HETATM   19  C22 UNL     1      22.436  47.524  20.332  1.00  0.00     0.046 C 
HETATM   20  C23 UNL     1      23.697  47.416  22.420  1.00  0.00     0.041 C 
HETATM   21  C24 UNL     1      24.792  46.759  21.644  1.00  0.00     0.041 C 
HETATM   22  C25 UNL     1      21.207  45.074  21.577  1.00  0.00     0.017 A 
ENDROOT
BRANCH  13  23
HETATM   23  O3  UNL     1      20.069  42.699  18.131  1.00  0.00    -0.313 OA
BRANCH  23  24
HETATM   24  C13 UNL     1      20.747  41.588  17.648  1.00  0.00     0.255 C 
HETATM   25  C14 UNL     1      20.764  40.282  18.356  1.00  0.00     0.126 C 
HETATM   26  O4  UNL     1      21.386  41.659  16.565  1.00  0.00    -0.266 OA
ENDBRANCH  23  24
ENDBRANCH  13  23
BRANCH  14  27
HETATM   27  O5  UNL     1      18.257  44.416  19.375  1.00  0.00    -0.359 OA
BRANCH  27  28
HETATM   28  C16 UNL     1      17.262  44.577  20.293  1.00  0.00     0.337 C 
BRANCH  28  29
HETATM   29  O6  UNL     1      16.801  45.911  20.163  1.00  0.00    -0.372 OA
HETATM   30  C17 UNL     1      16.536  46.162  18.801  1.00  0.00     0.204 C 
ENDBRANCH  28  29
ENDBRANCH  27  28
ENDBRANCH  14  27
BRANCH  16  31
HETATM   31  O7  UNL     1      19.676  46.964  20.992  1.00  0.00    -0.388 OA
ATOM     32  H7  UNL     1      18.854  46.803  20.544  1.00  0.00     0.210 HD
ENDBRANCH  16  31
BRANCH   4  33
HETATM   33  O1  UNL     1      24.692  44.661  19.199  1.00  0.00    -0.341 OA
ATOM     34  H1  UNL     1      25.063  44.459  18.348  1.00  0.00     0.220 HD
ENDBRANCH   4  33
BRANCH  18  35
HETATM   35  O8  UNL     1      21.652  48.550  22.223  1.00  0.00    -0.390 OA
ATOM     36  H8  UNL     1      22.026  49.236  21.682  1.00  0.00     0.210 HD
ENDBRANCH  18  35
TORSDOF 8
ENDMDL
