MODEL 1
REMARK VINA RESULT: -6.309728463      0.000      0.000
REMARK  7 active torsions:
REMARK  status: ('A' for Active; 'I' for Inactive)
REMARK    1  A    between atoms: C2_2  and  C3_3 
REMARK    2  A    between atoms: C3_3  and  C4_4 
REMARK    3  A    between atoms: C4_4  and  O1_6 
REMARK    4  A    between atoms: C8_12  and  C9_13 
REMARK    5  A    between atoms: C19_25  and  O6_26 
REMARK    6  A    between atoms: O6_26  and  N1_27 
REMARK    7  A    between atoms: C22_32  and  O7_33 
ROOT
HETATM    1  C3  UNL     1      22.289  46.539  22.462  1.00  0.00     0.081 C 
HETATM    2  C6  UNL     1      21.030  46.801  21.589  1.00  0.00     0.271 C 
HETATM    3  O2  UNL     1      20.736  47.746  20.879  1.00  0.00    -0.264 OA
HETATM    4  O3  UNL     1      20.296  45.661  21.822  1.00  0.00    -0.310 OA
HETATM    5  C7  UNL     1      21.237  44.599  21.816  1.00  0.00     0.168 C 
HETATM    6  C8  UNL     1      20.874  43.737  20.646  1.00  0.00    -0.043 C 
HETATM    7  C13 UNL     1      21.868  42.929  20.007  1.00  0.00     0.061 C 
HETATM    8  C14 UNL     1      22.100  41.646  20.838  1.00  0.00     0.151 C 
HETATM    9  O4  UNL     1      22.588  41.911  22.105  1.00  0.00    -0.314 OA
HETATM   10  C15 UNL     1      23.058  43.077  22.714  1.00  0.00     0.271 C 
HETATM   11  O5  UNL     1      22.988  43.022  23.958  1.00  0.00    -0.264 OA
HETATM   12  C16 UNL     1      23.602  44.307  22.045  1.00  0.00     0.081 C 
HETATM   13  C17 UNL     1      24.864  44.641  22.764  1.00  0.00     0.029 C 
HETATM   14  C18 UNL     1      22.595  45.275  21.757  1.00  0.00     0.061 C 
HETATM   15  C19 UNL     1      24.188  43.758  20.725  1.00  0.00     0.181 C 
HETATM   16  C20 UNL     1      23.246  43.310  19.720  1.00  0.00     0.022 C 
HETATM   17  C21 UNL     1      23.325  44.255  18.539  1.00  0.00     0.021 C 
HETATM   18  C22 UNL     1      23.734  41.965  19.119  1.00  0.00     0.140 C 
HETATM   19  C23 UNL     1      23.003  40.904  19.907  1.00  0.00     0.007 C 
HETATM   20  C24 UNL     1      22.219  40.021  18.939  1.00  0.00     0.020 C 
HETATM   21  C25 UNL     1      23.938  39.959  20.634  1.00  0.00     0.020 C 
ENDROOT
BRANCH   1  22
HETATM   22  C2  UNL     1      21.644  46.557  23.773  1.00  0.00     0.018 C 
HETATM   23  C1  UNL     1      22.309  46.217  25.028  1.00  0.00     0.006 C 
ENDBRANCH   1  22
BRANCH   1  24
HETATM   24  C4  UNL     1      23.112  47.727  22.076  1.00  0.00     0.133 C 
HETATM   25  C5  UNL     1      23.545  47.882  20.667  1.00  0.00     0.040 C 
BRANCH  24  26
HETATM   26  O1  UNL     1      22.489  48.928  22.459  1.00  0.00    -0.395 OA
ATOM     27  H1  UNL     1      22.628  49.112  23.381  1.00  0.00     0.210 HD
ENDBRANCH  24  26
ENDBRANCH   1  24
BRANCH   6  28
HETATM   28  C9  UNL     1      19.708  44.281  19.936  1.00  0.00     0.008 C 
HETATM   29  C10 UNL     1      19.247  44.241  18.731  1.00  0.00    -0.087 C 
HETATM   30  C11 UNL     1      19.753  43.584  17.528  1.00  0.00     0.043 C 
HETATM   31  C12 UNL     1      17.934  45.020  18.494  1.00  0.00     0.043 C 
ENDBRANCH   6  28
BRANCH  15  32
HETATM   32  O6  UNL     1      25.109  42.782  21.069  1.00  0.00    -0.280 OA
BRANCH  32  33
HETATM   33  N1  UNL     1      26.340  42.978  20.535  1.00  0.00    -0.311 N 
ATOM     34  H12 UNL     1      26.508  42.944  19.529  1.00  0.00     0.184 HD
ATOM     35  H11 UNL     1      27.065  43.160  21.229  1.00  0.00     0.184 HD
ENDBRANCH  32  33
ENDBRANCH  15  32
BRANCH  18  36
HETATM   36  O7  UNL     1      23.445  41.847  17.786  1.00  0.00    -0.394 OA
ATOM     37  H7  UNL     1      22.530  41.649  17.626  1.00  0.00     0.210 HD
ENDBRANCH  18  36
TORSDOF 7
ENDMDL
MODEL 2
REMARK VINA RESULT: -6.297533576      2.265      4.889
REMARK  7 active torsions:
REMARK  status: ('A' for Active; 'I' for Inactive)
REMARK    1  A    between atoms: C2_2  and  C3_3 
REMARK    2  A    between atoms: C3_3  and  C4_4 
REMARK    3  A    between atoms: C4_4  and  O1_6 
REMARK    4  A    between atoms: C8_12  and  C9_13 
REMARK    5  A    between atoms: C19_25  and  O6_26 
REMARK    6  A    between atoms: O6_26  and  N1_27 
REMARK    7  A    between atoms: C22_32  and  O7_33 
ROOT
HETATM    1  C3  UNL     1      19.127  46.057  19.587  1.00  0.00     0.081 C 
HETATM    2  C6  UNL     1      19.238  44.549  19.231  1.00  0.00     0.271 C 
HETATM    3  O2  UNL     1      19.105  43.969  18.167  1.00  0.00    -0.264 OA
HETATM    4  O3  UNL     1      19.536  44.001  20.457  1.00  0.00    -0.310 OA
HETATM    5  C7  UNL     1      20.462  44.894  21.053  1.00  0.00     0.168 C 
HETATM    6  C8  UNL     1      21.738  44.124  21.197  1.00  0.00    -0.043 C 
HETATM    7  C13 UNL     1      22.996  44.808  21.232  1.00  0.00     0.061 C 
HETATM    8  C14 UNL     1      23.226  45.388  22.647  1.00  0.00     0.151 C 
HETATM    9  O4  UNL     1      22.275  46.329  23.001  1.00  0.00    -0.314 OA
HETATM   10  C15 UNL     1      21.261  46.966  22.281  1.00  0.00     0.271 C 
HETATM   11  O5  UNL     1      20.354  47.396  23.021  1.00  0.00    -0.264 OA
HETATM   12  C16 UNL     1      21.176  47.165  20.794  1.00  0.00     0.081 C 
HETATM   13  C17 UNL     1      20.819  48.597  20.591  1.00  0.00     0.029 C 
HETATM   14  C18 UNL     1      20.503  46.097  20.129  1.00  0.00     0.061 C 
HETATM   15  C19 UNL     1      22.657  47.197  20.358  1.00  0.00     0.181 C 
HETATM   16  C20 UNL     1      23.389  45.948  20.413  1.00  0.00     0.022 C 
HETATM   17  C21 UNL     1      23.715  45.526  18.995  1.00  0.00     0.021 C 
HETATM   18  C22 UNL     1      24.791  46.199  21.029  1.00  0.00     0.140 C 
HETATM   19  C23 UNL     1      24.632  45.872  22.495  1.00  0.00     0.007 C 
HETATM   20  C24 UNL     1      25.646  44.796  22.874  1.00  0.00     0.020 C 
HETATM   21  C25 UNL     1      24.944  47.045  23.400  1.00  0.00     0.020 C 
ENDROOT
BRANCH   1  22
HETATM   22  C2  UNL     1      17.955  45.983  20.455  1.00  0.00     0.018 C 
HETATM   23  C1  UNL     1      16.630  45.543  20.024  1.00  0.00     0.006 C 
ENDBRANCH   1  22
BRANCH   1  24
HETATM   24  C4  UNL     1      18.941  46.625  18.215  1.00  0.00     0.133 C 
HETATM   25  C5  UNL     1      18.331  47.967  18.063  1.00  0.00     0.040 C 
BRANCH  24  26
HETATM   26  O1  UNL     1      20.148  46.628  17.493  1.00  0.00    -0.395 OA
ATOM     27  H1  UNL     1      20.254  47.432  16.997  1.00  0.00     0.210 HD
ENDBRANCH  24  26
ENDBRANCH   1  24
BRANCH   6  28
HETATM   28  C9  UNL     1      21.586  42.757  20.681  1.00  0.00     0.008 C 
HETATM   29  C10 UNL     1      22.229  41.643  20.787  1.00  0.00    -0.087 C 
HETATM   30  C11 UNL     1      23.443  41.298  21.523  1.00  0.00     0.043 C 
HETATM   31  C12 UNL     1      21.631  40.451  20.006  1.00  0.00     0.043 C 
ENDBRANCH   6  28
BRANCH  15  32
HETATM   32  O6  UNL     1      23.267  48.208  21.084  1.00  0.00    -0.280 OA
BRANCH  32  33
HETATM   33  N1  UNL     1      23.990  49.067  20.323  1.00  0.00    -0.311 N 
ATOM     34  H12 UNL     1      23.551  49.712  19.665  1.00  0.00     0.184 HD
ATOM     35  H11 UNL     1      24.997  49.003  20.474  1.00  0.00     0.184 HD
ENDBRANCH  32  33
ENDBRANCH  15  32
BRANCH  18  36
HETATM   36  O7  UNL     1      25.761  45.410  20.472  1.00  0.00    -0.394 OA
ATOM     37  H7  UNL     1      26.463  45.207  21.081  1.00  0.00     0.210 HD
ENDBRANCH  18  36
TORSDOF 7
ENDMDL
MODEL 3
REMARK VINA RESULT: -6.185275606      1.053      1.166
REMARK  7 active torsions:
REMARK  status: ('A' for Active; 'I' for Inactive)
REMARK    1  A    between atoms: C2_2  and  C3_3 
REMARK    2  A    between atoms: C3_3  and  C4_4 
REMARK    3  A    between atoms: C4_4  and  O1_6 
REMARK    4  A    between atoms: C8_12  and  C9_13 
REMARK    5  A    between atoms: C19_25  and  O6_26 
REMARK    6  A    between atoms: O6_26  and  N1_27 
REMARK    7  A    between atoms: C22_32  and  O7_33 
ROOT
HETATM    1  C3  UNL     1      22.229  46.518  22.588  1.00  0.00     0.081 C 
HETATM    2  C6  UNL     1      20.855  47.031  22.074  1.00  0.00     0.271 C 
HETATM    3  O2  UNL     1      20.527  48.116  21.627  1.00  0.00    -0.264 OA
HETATM    4  O3  UNL     1      20.065  45.919  22.251  1.00  0.00    -0.310 OA
HETATM    5  C7  UNL     1      20.867  44.820  21.849  1.00  0.00     0.168 C 
HETATM    6  C8  UNL     1      20.186  44.233  20.651  1.00  0.00    -0.043 C 
HETATM    7  C13 UNL     1      20.939  43.504  19.675  1.00  0.00     0.061 C 
HETATM    8  C14 UNL     1      21.195  42.069  20.190  1.00  0.00     0.151 C 
HETATM    9  O4  UNL     1      21.953  42.043  21.348  1.00  0.00    -0.314 OA
HETATM   10  C15 UNL     1      22.658  43.032  22.039  1.00  0.00     0.271 C 
HETATM   11  O5  UNL     1      22.835  42.736  23.237  1.00  0.00    -0.264 OA
HETATM   12  C16 UNL     1      23.185  44.331  21.500  1.00  0.00     0.081 C 
HETATM   13  C17 UNL     1      24.594  44.432  21.974  1.00  0.00     0.029 C 
HETATM   14  C18 UNL     1      22.249  45.402  21.618  1.00  0.00     0.061 C 
HETATM   15  C19 UNL     1      23.431  44.019  20.007  1.00  0.00     0.181 C 
HETATM   16  C20 UNL     1      22.263  43.843  19.168  1.00  0.00     0.022 C 
HETATM   17  C21 UNL     1      22.204  44.996  18.189  1.00  0.00     0.021 C 
HETATM   18  C22 UNL     1      22.473  42.615  18.243  1.00  0.00     0.140 C 
HETATM   19  C23 UNL     1      21.808  41.469  18.966  1.00  0.00     0.007 C 
HETATM   20  C24 UNL     1      20.755  40.850  18.050  1.00  0.00     0.020 C 
HETATM   21  C25 UNL     1      22.763  40.338  19.290  1.00  0.00     0.020 C 
ENDROOT
BRANCH   1  22
HETATM   22  C2  UNL     1      21.867  46.318  23.990  1.00  0.00     0.018 C 
HETATM   23  C1  UNL     1      22.753  45.746  25.001  1.00  0.00     0.006 C 
ENDBRANCH   1  22
BRANCH   1  24
HETATM   24  C4  UNL     1      23.080  47.702  22.253  1.00  0.00     0.133 C 
HETATM   25  C5  UNL     1      23.191  48.138  20.841  1.00  0.00     0.040 C 
BRANCH  24  26
HETATM   26  O1  UNL     1      22.713  48.828  23.013  1.00  0.00    -0.395 OA
ATOM     27  H1  UNL     1      22.355  49.515  22.463  1.00  0.00     0.210 HD
ENDBRANCH  24  26
ENDBRANCH   1  24
BRANCH   6  28
HETATM   28  C9  UNL     1      18.966  44.983  20.322  1.00  0.00     0.008 C 
HETATM   29  C10 UNL     1      18.215  45.134  19.284  1.00  0.00    -0.087 C 
HETATM   30  C11 UNL     1      18.303  44.565  17.941  1.00  0.00     0.043 C 
HETATM   31  C12 UNL     1      17.006  46.079  19.468  1.00  0.00     0.043 C 
ENDBRANCH   6  28
BRANCH  15  32
HETATM   32  O6  UNL     1      24.292  42.934  19.961  1.00  0.00    -0.280 OA
BRANCH  32  33
HETATM   33  N1  UNL     1      25.389  43.140  19.190  1.00  0.00    -0.311 N 
ATOM     34  H12 UNL     1      25.782  44.070  19.039  1.00  0.00     0.184 HD
ATOM     35  H11 UNL     1      25.773  42.286  18.785  1.00  0.00     0.184 HD
ENDBRANCH  32  33
ENDBRANCH  15  32
BRANCH  18  36
HETATM   36  O7  UNL     1      21.911  42.783  17.006  1.00  0.00    -0.394 OA
ATOM     37  H7  UNL     1      22.269  43.529  16.540  1.00  0.00     0.210 HD
ENDBRANCH  18  36
TORSDOF 7
ENDMDL
MODEL 4
REMARK VINA RESULT: -6.126134070      2.720      5.178
REMARK  7 active torsions:
REMARK  status: ('A' for Active; 'I' for Inactive)
REMARK    1  A    between atoms: C2_2  and  C3_3 
REMARK    2  A    between atoms: C3_3  and  C4_4 
REMARK    3  A    between atoms: C4_4  and  O1_6 
REMARK    4  A    between atoms: C8_12  and  C9_13 
REMARK    5  A    between atoms: C19_25  and  O6_26 
REMARK    6  A    between atoms: O6_26  and  N1_27 
REMARK    7  A    between atoms: C22_32  and  O7_33 
ROOT
HETATM    1  C3  UNL     1      24.226  46.279  21.238  1.00  0.00     0.081 C 
HETATM    2  C6  UNL     1      24.614  47.500  20.359  1.00  0.00     0.271 C 
HETATM    3  O2  UNL     1      25.520  47.650  19.558  1.00  0.00    -0.264 OA
HETATM    4  O3  UNL     1      23.647  48.411  20.716  1.00  0.00    -0.310 OA
HETATM    5  C7  UNL     1      22.443  47.665  20.808  1.00  0.00     0.168 C 
HETATM    6  C8  UNL     1      21.545  48.205  19.738  1.00  0.00    -0.043 C 
HETATM    7  C13 UNL     1      20.518  47.383  19.173  1.00  0.00     0.061 C 
HETATM    8  C14 UNL     1      19.303  47.349  20.129  1.00  0.00     0.151 C 
HETATM    9  O4  UNL     1      19.604  46.786  21.356  1.00  0.00    -0.314 OA
HETATM   10  C15 UNL     1      20.725  46.106  21.836  1.00  0.00     0.271 C 
HETATM   11  O5  UNL     1      20.808  46.147  23.079  1.00  0.00    -0.264 OA
HETATM   12  C16 UNL     1      21.770  45.379  21.037  1.00  0.00     0.081 C 
HETATM   13  C17 UNL     1      21.951  44.058  21.702  1.00  0.00     0.029 C 
HETATM   14  C18 UNL     1      22.865  46.215  20.663  1.00  0.00     0.061 C 
HETATM   15  C19 UNL     1      21.000  44.935  19.773  1.00  0.00     0.181 C 
HETATM   16  C20 UNL     1      20.624  45.970  18.832  1.00  0.00     0.022 C 
HETATM   17  C21 UNL     1      21.419  45.765  17.559  1.00  0.00     0.021 C 
HETATM   18  C22 UNL     1      19.162  45.737  18.366  1.00  0.00     0.140 C 
HETATM   19  C23 UNL     1      18.327  46.614  19.268  1.00  0.00     0.007 C 
HETATM   20  C24 UNL     1      17.502  47.566  18.406  1.00  0.00     0.020 C 
HETATM   21  C25 UNL     1      17.312  45.834  20.078  1.00  0.00     0.020 C 
ENDROOT
BRANCH   1  22
HETATM   22  C2  UNL     1      24.486  46.871  22.548  1.00  0.00     0.018 C 
HETATM   23  C1  UNL     1      24.078  46.281  23.820  1.00  0.00     0.006 C 
ENDBRANCH   1  22
BRANCH   1  24
HETATM   24  C4  UNL     1      25.209  45.277  20.722  1.00  0.00     0.133 C 
HETATM   25  C5  UNL     1      25.502  44.067  21.527  1.00  0.00     0.040 C 
BRANCH  24  26
HETATM   26  O1  UNL     1      24.871  44.847  19.426  1.00  0.00    -0.395 OA
ATOM     27  H1  UNL     1      25.197  43.971  19.255  1.00  0.00     0.210 HD
ENDBRANCH  24  26
ENDBRANCH   1  24
BRANCH   6  28
HETATM   28  C9  UNL     1      22.209  49.282  18.990  1.00  0.00     0.008 C 
HETATM   29  C10 UNL     1      22.234  49.689  17.766  1.00  0.00    -0.087 C 
HETATM   30  C11 UNL     1      21.553  49.194  16.572  1.00  0.00     0.043 C 
HETATM   31  C12 UNL     1      23.138  50.911  17.489  1.00  0.00     0.043 C 
ENDBRANCH   6  28
BRANCH  15  32
HETATM   32  O6  UNL     1      19.918  44.185  20.205  1.00  0.00    -0.280 OA
BRANCH  32  33
HETATM   33  N1  UNL     1      19.782  43.001  19.559  1.00  0.00    -0.311 N 
ATOM     34  H12 UNL     1      20.460  42.675  18.870  1.00  0.00     0.184 HD
ATOM     35  H11 UNL     1      18.947  42.479  19.829  1.00  0.00     0.184 HD
ENDBRANCH  32  33
ENDBRANCH  15  32
BRANCH  18  36
HETATM   36  O7  UNL     1      18.964  46.081  17.057  1.00  0.00    -0.394 OA
ATOM     37  H7  UNL     1      18.549  46.931  16.960  1.00  0.00     0.210 HD
ENDBRANCH  18  36
TORSDOF 7
ENDMDL
MODEL 5
REMARK VINA RESULT: -6.116595632      2.361      5.444
REMARK  7 active torsions:
REMARK  status: ('A' for Active; 'I' for Inactive)
REMARK    1  A    between atoms: C2_2  and  C3_3 
REMARK    2  A    between atoms: C3_3  and  C4_4 
REMARK    3  A    between atoms: C4_4  and  O1_6 
REMARK    4  A    between atoms: C8_12  and  C9_13 
REMARK    5  A    between atoms: C19_25  and  O6_26 
REMARK    6  A    between atoms: O6_26  and  N1_27 
REMARK    7  A    between atoms: C22_32  and  O7_33 
ROOT
HETATM    1  C3  UNL     1      19.065  45.622  17.635  1.00  0.00     0.081 C 
HETATM    2  C6  UNL     1      19.504  44.166  17.316  1.00  0.00     0.271 C 
HETATM    3  O2  UNL     1      20.006  43.687  16.314  1.00  0.00    -0.264 OA
HETATM    4  O3  UNL     1      19.177  43.521  18.485  1.00  0.00    -0.310 OA
HETATM    5  C7  UNL     1      19.556  44.408  19.524  1.00  0.00     0.168 C 
HETATM    6  C8  UNL     1      20.644  43.712  20.281  1.00  0.00    -0.043 C 
HETATM    7  C13 UNL     1      21.619  44.468  21.008  1.00  0.00     0.061 C 
HETATM    8  C14 UNL     1      21.016  44.920  22.359  1.00  0.00     0.151 C 
HETATM    9  O4  UNL     1      19.926  45.758  22.204  1.00  0.00    -0.314 OA
HETATM   10  C15 UNL     1      19.374  46.397  21.091  1.00  0.00     0.271 C 
HETATM   11  O5  UNL     1      18.174  46.692  21.262  1.00  0.00    -0.264 OA
HETATM   12  C16 UNL     1      20.054  46.735  19.795  1.00  0.00     0.081 C 
HETATM   13  C17 UNL     1      19.705  48.154  19.506  1.00  0.00     0.029 C 
HETATM   14  C18 UNL     1      19.943  45.697  18.822  1.00  0.00     0.061 C 
HETATM   15  C19 UNL     1      21.533  46.905  20.207  1.00  0.00     0.181 C 
HETATM   16  C20 UNL     1      22.257  45.706  20.577  1.00  0.00     0.022 C 
HETATM   17  C21 UNL     1      23.316  45.447  19.526  1.00  0.00     0.021 C 
HETATM   18  C22 UNL     1      23.098  45.984  21.852  1.00  0.00     0.140 C 
HETATM   19  C23 UNL     1      22.235  45.505  22.995  1.00  0.00     0.007 C 
HETATM   20  C24 UNL     1      23.011  44.464  23.797  1.00  0.00     0.020 C 
HETATM   21  C25 UNL     1      21.903  46.601  23.986  1.00  0.00     0.020 C 
ENDROOT
BRANCH   1  22
HETATM   22  C2  UNL     1      17.627  45.388  17.749  1.00  0.00     0.018 C 
HETATM   23  C1  UNL     1      16.668  46.360  18.267  1.00  0.00     0.006 C 
ENDBRANCH   1  22
BRANCH   1  24
HETATM   24  C4  UNL     1      19.560  46.309  16.402  1.00  0.00     0.133 C 
HETATM   25  C5  UNL     1      18.976  47.615  16.015  1.00  0.00     0.040 C 
BRANCH  24  26
HETATM   26  O1  UNL     1      20.958  46.466  16.429  1.00  0.00    -0.395 OA
ATOM     27  H1  UNL     1      21.219  47.311  16.082  1.00  0.00     0.210 HD
ENDBRANCH  24  26
ENDBRANCH   1  24
BRANCH   6  28
HETATM   28  C9  UNL     1      20.930  42.395  19.694  1.00  0.00     0.008 C 
HETATM   29  C10 UNL     1      21.671  41.381  19.993  1.00  0.00    -0.087 C 
HETATM   30  C11 UNL     1      22.573  41.146  21.119  1.00  0.00     0.043 C 
HETATM   31  C12 UNL     1      21.615  40.199  19.000  1.00  0.00     0.043 C 
ENDBRANCH   6  28
BRANCH  15  32
HETATM   32  O6  UNL     1      21.565  47.876  21.195  1.00  0.00    -0.280 OA
BRANCH  32  33
HETATM   33  N1  UNL     1      22.486  48.847  20.978  1.00  0.00    -0.311 N 
ATOM     34  H12 UNL     1      23.399  48.649  20.567  1.00  0.00     0.184 HD
ATOM     35  H11 UNL     1      22.178  49.777  21.262  1.00  0.00     0.184 HD
ENDBRANCH  32  33
ENDBRANCH  15  32
BRANCH  18  36
HETATM   36  O7  UNL     1      24.294  45.318  21.852  1.00  0.00    -0.394 OA
ATOM     37  H7  UNL     1      24.558  45.040  22.721  1.00  0.00     0.210 HD
ENDBRANCH  18  36
TORSDOF 7
ENDMDL
