MODEL 1
REMARK VINA RESULT: -4.210632499      0.000      0.000
REMARK  4 active torsions:
REMARK  status: ('A' for Active; 'I' for Inactive)
REMARK    1  A    between atoms: C2_2  and  N1_3 
REMARK    2  A    between atoms: C3_5  and  C4_6 
REMARK    3  A    between atoms: C5_7  and  N2_8 
REMARK    4  A    between atoms: N3_10  and  N4_12 
ROOT
HETATM    1  C4  UNL     1      33.107  28.876  67.252  1.00  0.00     0.035 C 
HETATM    2  C5  UNL     1      32.080  29.174  68.016  1.00  0.00     0.110 C 
ENDROOT
BRANCH   2   3
HETATM    3  N2  UNL     1      31.557  30.495  67.981  1.00  0.00    -0.298 N 
HETATM    4  N3  UNL     1      30.570  30.791  67.247  1.00  0.00    -0.250 N 
ATOM      5  H3  UNL     1      30.206  31.744  67.232  1.00  0.00     0.207 HD
ATOM      6  H2  UNL     1      31.985  31.219  68.558  1.00  0.00     0.187 HD
BRANCH   4   7
HETATM    7  N4  UNL     1      29.990  29.810  66.464  1.00  0.00    -0.331 N 
ATOM      8  H42 UNL     1      30.508  28.953  66.270  1.00  0.00     0.178 HD
ATOM      9  H41 UNL     1      29.052  29.957  66.093  1.00  0.00     0.178 HD
ENDBRANCH   4   7
ENDBRANCH   2   3
BRANCH   1  10
HETATM   10  C3  UNL     1      33.643  27.531  67.285  1.00  0.00     0.084 C 
HETATM   11  N1  UNL     1      34.703  27.295  67.960  1.00  0.00    -0.399 N 
ATOM     12  H1  UNL     1      35.084  26.350  67.987  1.00  0.00     0.158 HD
BRANCH  11  13
HETATM   13  C2  UNL     1      35.363  28.350  68.683  1.00  0.00     0.114 C 
HETATM   14  C1  UNL     1      36.786  27.936  68.955  1.00  0.00     0.026 C 
ENDBRANCH  11  13
ENDBRANCH   1  10
TORSDOF 4
ENDMDL
MODEL 2
REMARK VINA RESULT: -4.158595027      1.368      1.724
REMARK  4 active torsions:
REMARK  status: ('A' for Active; 'I' for Inactive)
REMARK    1  A    between atoms: C2_2  and  N1_3 
REMARK    2  A    between atoms: C3_5  and  C4_6 
REMARK    3  A    between atoms: C5_7  and  N2_8 
REMARK    4  A    between atoms: N3_10  and  N4_12 
ROOT
HETATM    1  C4  UNL     1      31.449  29.172  67.859  1.00  0.00     0.035 C 
HETATM    2  C5  UNL     1      30.688  29.586  66.871  1.00  0.00     0.110 C 
ENDROOT
BRANCH   2   3
HETATM    3  N2  UNL     1      30.267  30.944  66.849  1.00  0.00    -0.298 N 
HETATM    4  N3  UNL     1      29.398  31.348  66.024  1.00  0.00    -0.250 N 
ATOM      5  H3  UNL     1      29.106  32.325  66.020  1.00  0.00     0.207 HD
ATOM      6  H2  UNL     1      30.673  31.605  67.511  1.00  0.00     0.187 HD
BRANCH   4   7
HETATM    7  N4  UNL     1      28.847  30.452  65.127  1.00  0.00    -0.331 N 
ATOM      8  H42 UNL     1      28.722  29.478  65.404  1.00  0.00     0.178 HD
ATOM      9  H41 UNL     1      28.573  30.777  64.200  1.00  0.00     0.178 HD
ENDBRANCH   4   7
ENDBRANCH   2   3
BRANCH   1  10
HETATM   10  C3  UNL     1      31.881  27.790  67.884  1.00  0.00     0.084 C 
HETATM   11  N1  UNL     1      33.131  27.526  67.949  1.00  0.00    -0.399 N 
ATOM     12  H1  UNL     1      33.441  26.554  67.967  1.00  0.00     0.158 HD
BRANCH  11  13
HETATM   13  C2  UNL     1      34.104  28.584  67.997  1.00  0.00     0.114 C 
HETATM   14  C1  UNL     1      35.427  28.009  68.431  1.00  0.00     0.026 C 
ENDBRANCH  11  13
ENDBRANCH   1  10
TORSDOF 4
ENDMDL
MODEL 3
REMARK VINA RESULT: -4.094058590      0.941      1.391
REMARK  4 active torsions:
REMARK  status: ('A' for Active; 'I' for Inactive)
REMARK    1  A    between atoms: C2_2  and  N1_3 
REMARK    2  A    between atoms: C3_5  and  C4_6 
REMARK    3  A    between atoms: C5_7  and  N2_8 
REMARK    4  A    between atoms: N3_10  and  N4_12 
ROOT
HETATM    1  C4  UNL     1      33.167  27.984  66.972  1.00  0.00     0.035 C 
HETATM    2  C5  UNL     1      31.915  27.929  67.367  1.00  0.00     0.110 C 
ENDROOT
BRANCH   2   3
HETATM    3  N2  UNL     1      30.985  28.866  66.841  1.00  0.00    -0.298 N 
HETATM    4  N3  UNL     1      30.949  30.060  67.256  1.00  0.00    -0.250 N 
ATOM      5  H3  UNL     1      30.275  30.721  66.869  1.00  0.00     0.207 HD
ATOM      6  H2  UNL     1      30.333  28.570  66.114  1.00  0.00     0.187 HD
BRANCH   4   7
HETATM    7  N4  UNL     1      31.833  30.461  68.241  1.00  0.00    -0.331 N 
ATOM      8  H42 UNL     1      31.528  30.466  69.214  1.00  0.00     0.178 HD
ATOM      9  H41 UNL     1      32.776  30.747  67.980  1.00  0.00     0.178 HD
ENDBRANCH   4   7
ENDBRANCH   2   3
BRANCH   1  10
HETATM   10  C3  UNL     1      34.117  27.031  67.506  1.00  0.00     0.084 C 
HETATM   11  N1  UNL     1      35.039  27.440  68.293  1.00  0.00    -0.399 N 
ATOM     12  H1  UNL     1      35.711  26.773  68.672  1.00  0.00     0.158 HD
BRANCH  11  13
HETATM   13  C2  UNL     1      35.138  28.830  68.649  1.00  0.00     0.114 C 
HETATM   14  C1  UNL     1      36.438  29.055  69.376  1.00  0.00     0.026 C 
ENDBRANCH  11  13
ENDBRANCH   1  10
TORSDOF 4
ENDMDL
MODEL 4
REMARK VINA RESULT: -4.009533295      1.830      4.761
REMARK  4 active torsions:
REMARK  status: ('A' for Active; 'I' for Inactive)
REMARK    1  A    between atoms: C2_2  and  N1_3 
REMARK    2  A    between atoms: C3_5  and  C4_6 
REMARK    3  A    between atoms: C5_7  and  N2_8 
REMARK    4  A    between atoms: N3_10  and  N4_12 
ROOT
HETATM    1  C4  UNL     1      33.741  27.798  67.180  1.00  0.00     0.035 C 
HETATM    2  C5  UNL     1      34.707  28.272  67.934  1.00  0.00     0.110 C 
ENDROOT
BRANCH   2   3
HETATM    3  N2  UNL     1      35.758  27.402  68.334  1.00  0.00    -0.298 N 
HETATM    4  N3  UNL     1      36.725  27.819  69.033  1.00  0.00    -0.250 N 
ATOM      5  H3  UNL     1      37.472  27.183  69.312  1.00  0.00     0.207 HD
ATOM      6  H2  UNL     1      35.731  26.422  68.052  1.00  0.00     0.187 HD
BRANCH   4   7
HETATM    7  N4  UNL     1      36.761  29.147  69.416  1.00  0.00    -0.331 N 
ATOM      8  H42 UNL     1      36.289  29.846  68.843  1.00  0.00     0.178 HD
ATOM      9  H41 UNL     1      37.260  29.409  70.266  1.00  0.00     0.178 HD
ENDBRANCH   4   7
ENDBRANCH   2   3
BRANCH   1  10
HETATM   10  C3  UNL     1      32.670  28.682  66.770  1.00  0.00     0.084 C 
HETATM   11  N1  UNL     1      31.510  28.544  67.292  1.00  0.00    -0.399 N 
ATOM     12  H1  UNL     1      30.752  29.163  67.007  1.00  0.00     0.158 HD
BRANCH  11  13
HETATM   13  C2  UNL     1      31.264  27.524  68.276  1.00  0.00     0.114 C 
HETATM   14  C1  UNL     1      31.350  28.141  69.648  1.00  0.00     0.026 C 
ENDBRANCH  11  13
ENDBRANCH   1  10
TORSDOF 4
ENDMDL
MODEL 5
REMARK VINA RESULT: -4.005243810      1.416      1.493
REMARK  4 active torsions:
REMARK  status: ('A' for Active; 'I' for Inactive)
REMARK    1  A    between atoms: C2_2  and  N1_3 
REMARK    2  A    between atoms: C3_5  and  C4_6 
REMARK    3  A    between atoms: C5_7  and  N2_8 
REMARK    4  A    between atoms: N3_10  and  N4_12 
ROOT
HETATM    1  C4  UNL     1      33.133  27.884  68.176  1.00  0.00     0.035 C 
HETATM    2  C5  UNL     1      31.965  27.356  67.888  1.00  0.00     0.110 C 
ENDROOT
BRANCH   2   3
HETATM    3  N2  UNL     1      30.791  27.947  68.428  1.00  0.00    -0.298 N 
HETATM    4  N3  UNL     1      30.216  28.913  67.849  1.00  0.00    -0.250 N 
ATOM      5  H3  UNL     1      29.375  29.327  68.249  1.00  0.00     0.207 HD
ATOM      6  H2  UNL     1      30.404  27.585  69.300  1.00  0.00     0.187 HD
BRANCH   4   7
HETATM    7  N4  UNL     1      30.741  29.404  66.667  1.00  0.00    -0.331 N 
ATOM      8  H42 UNL     1      31.336  28.804  66.097  1.00  0.00     0.178 HD
ATOM      9  H41 UNL     1      30.524  30.358  66.383  1.00  0.00     0.178 HD
ENDBRANCH   4   7
ENDBRANCH   2   3
BRANCH   1  10
HETATM   10  C3  UNL     1      34.332  27.285  67.626  1.00  0.00     0.084 C 
HETATM   11  N1  UNL     1      35.476  27.716  68.002  1.00  0.00    -0.399 N 
ATOM     12  H1  UNL     1      36.324  27.298  67.618  1.00  0.00     0.158 HD
BRANCH  11  13
HETATM   13  C2  UNL     1      35.580  28.784  68.960  1.00  0.00     0.114 C 
HETATM   14  C1  UNL     1      36.967  28.777  69.548  1.00  0.00     0.026 C 
ENDBRANCH  11  13
ENDBRANCH   1  10
TORSDOF 4
ENDMDL
