MODEL 1
REMARK VINA RESULT: -8.030740433      0.000      0.000
REMARK  12 active torsions:
REMARK  status: ('A' for Active; 'I' for Inactive)
REMARK    1  A    between atoms: O1_2  and  C2_3 
REMARK    2  A    between atoms: C2_3  and  O2_4 
REMARK    3  A    between atoms: O2_4  and  C3_5 
REMARK    4  A    between atoms: C3_5  and  C4_6 
REMARK    5  A    between atoms: C4_6  and  C5_7 
REMARK    6  A    between atoms: C5_7  and  C6_8 
REMARK    7  A    between atoms: C6_8  and  O3_9 
REMARK    8  A    between atoms: O3_9  and  C7_10 
REMARK    9  A    between atoms: C8_11  and  C9_12 
REMARK   10  A    between atoms: C10_15  and  N2_16 
REMARK   11  A    between atoms: C11_21  and  N4_22 
REMARK   12  A    between atoms: C12_29  and  N7_30 
ROOT
HETATM    1  C7  UNL     1      -9.668 -22.490  31.971  1.00  0.00     0.169 A 
HETATM    2  C8  UNL     1      -9.693 -21.635  33.023  1.00  0.00     0.133 A 
HETATM    3  N6  UNL     1     -10.779 -21.622  33.846  1.00  0.00    -0.185 N 
ATOM      4  H6  UNL     1     -10.793 -20.976  34.635  1.00  0.00     0.184 HD
HETATM    5  C12 UNL     1     -11.849 -22.447  33.648  1.00  0.00     0.679 A 
HETATM    6  N8  UNL     1     -11.808 -23.288  32.604  1.00  0.00    -0.154 N 
ATOM      7  H8  UNL     1     -12.601 -23.909  32.445  1.00  0.00     0.187 HD
HETATM    8  C13 UNL     1     -10.773 -23.344  31.765  1.00  0.00     0.295 A 
HETATM    9  O4  UNL     1     -10.813 -24.156  30.817  1.00  0.00    -0.264 OA
ENDROOT
BRANCH   2  10
HETATM   10  C9  UNL     1      -8.560 -20.734  33.327  1.00  0.00     0.166 A 
HETATM   11  N1  UNL     1      -7.578 -20.459  32.462  1.00  0.00    -0.173 N 
HETATM   12  C10 UNL     1      -6.571 -19.637  32.787  1.00  0.00     0.692 A 
ATOM     13  H1  UNL     1      -7.595 -20.885  31.536  1.00  0.00     0.186 HD
HETATM   14  N3  UNL     1      -6.510 -19.041  34.024  1.00  0.00    -0.023 N 
HETATM   15  C11 UNL     1      -7.473 -19.306  34.880  1.00  0.00     0.692 A 
ATOM     16  H3  UNL     1      -5.743 -18.414  34.270  1.00  0.00     0.203 HD
HETATM   17  N5  UNL     1      -8.480 -20.141  34.530  1.00  0.00    -0.173 N 
ATOM     18  H5  UNL     1      -9.213 -20.330  35.213  1.00  0.00     0.186 HD
BRANCH  12  19
HETATM   19  N2  UNL     1      -5.597 -19.360  31.989  1.00  0.00    -0.234 N 
ATOM     20  H22 UNL     1      -4.949 -20.126  31.806  1.00  0.00     0.174 HD
ATOM     21  H21 UNL     1      -5.473 -18.446  31.553  1.00  0.00     0.174 HD
ENDBRANCH  12  19
BRANCH  15  22
HETATM   22  N4  UNL     1      -7.429 -18.756  36.044  1.00  0.00    -0.234 N 
ATOM     23  H42 UNL     1      -7.498 -17.744  36.158  1.00  0.00     0.174 HD
ATOM     24  H41 UNL     1      -7.322 -19.356  36.862  1.00  0.00     0.174 HD
ENDBRANCH  15  22
ENDBRANCH   2  10
BRANCH   1  25
HETATM   25  O3  UNL     1      -8.661 -22.637  31.023  1.00  0.00    -0.344 OA
BRANCH  25  26
HETATM   26  C6  UNL     1      -8.805 -22.085  29.722  1.00  0.00     0.176 C 
BRANCH  26  27
HETATM   27  C5  UNL     1      -7.709 -22.464  28.770  1.00  0.00     0.029 C 
BRANCH  27  28
HETATM   28  C4  UNL     1      -6.326 -22.395  29.290  1.00  0.00     0.028 C 
BRANCH  28  29
HETATM   29  C3  UNL     1      -5.359 -22.291  28.119  1.00  0.00     0.170 C 
BRANCH  29  30
HETATM   30  O2  UNL     1      -5.377 -23.399  27.309  1.00  0.00    -0.367 OA
BRANCH  30  31
HETATM   31  C2  UNL     1      -5.082 -23.183  25.987  1.00  0.00     0.337 C 
BRANCH  31  32
HETATM   32  O1  UNL     1      -5.358 -24.276  25.169  1.00  0.00    -0.372 OA
HETATM   33  C1  UNL     1      -6.517 -23.984  24.453  1.00  0.00     0.204 C 
ENDBRANCH  31  32
ENDBRANCH  30  31
ENDBRANCH  29  30
ENDBRANCH  28  29
ENDBRANCH  27  28
ENDBRANCH  26  27
ENDBRANCH  25  26
ENDBRANCH   1  25
BRANCH   5  34
HETATM   34  N7  UNL     1     -12.859 -22.395  34.462  1.00  0.00    -0.234 N 
ATOM     35  H72 UNL     1     -12.745 -22.390  35.476  1.00  0.00     0.174 HD
ATOM     36  H71 UNL     1     -13.806 -22.356  34.087  1.00  0.00     0.174 HD
ENDBRANCH   5  34
TORSDOF 12
ENDMDL
MODEL 2
REMARK VINA RESULT: -7.999629602      0.159      1.574
REMARK  12 active torsions:
REMARK  status: ('A' for Active; 'I' for Inactive)
REMARK    1  A    between atoms: O1_2  and  C2_3 
REMARK    2  A    between atoms: C2_3  and  O2_4 
REMARK    3  A    between atoms: O2_4  and  C3_5 
REMARK    4  A    between atoms: C3_5  and  C4_6 
REMARK    5  A    between atoms: C4_6  and  C5_7 
REMARK    6  A    between atoms: C5_7  and  C6_8 
REMARK    7  A    between atoms: C6_8  and  O3_9 
REMARK    8  A    between atoms: O3_9  and  C7_10 
REMARK    9  A    between atoms: C8_11  and  C9_12 
REMARK   10  A    between atoms: C10_15  and  N2_16 
REMARK   11  A    between atoms: C11_21  and  N4_22 
REMARK   12  A    between atoms: C12_29  and  N7_30 
ROOT
HETATM    1  C7  UNL     1      -9.591 -22.477  32.047  1.00  0.00     0.169 A 
HETATM    2  C8  UNL     1      -9.691 -21.650  33.117  1.00  0.00     0.133 A 
HETATM    3  N6  UNL     1     -10.817 -21.685  33.884  1.00  0.00    -0.185 N 
ATOM      4  H6  UNL     1     -10.887 -21.060  34.686  1.00  0.00     0.184 HD
HETATM    5  C12 UNL     1     -11.854 -22.530  33.612  1.00  0.00     0.679 A 
HETATM    6  N8  UNL     1     -11.739 -23.343  32.551  1.00  0.00    -0.154 N 
ATOM      7  H8  UNL     1     -12.507 -23.980  32.338  1.00  0.00     0.187 HD
HETATM    8  C13 UNL     1     -10.662 -23.353  31.764  1.00  0.00     0.295 A 
HETATM    9  O4  UNL     1     -10.634 -24.140  30.797  1.00  0.00    -0.264 OA
ENDROOT
BRANCH   2  10
HETATM   10  C9  UNL     1      -8.599 -20.729  33.499  1.00  0.00     0.166 A 
HETATM   11  N1  UNL     1      -8.500 -20.153  34.701  1.00  0.00    -0.173 N 
HETATM   12  C10 UNL     1      -7.491 -19.322  34.997  1.00  0.00     0.692 A 
ATOM     13  H1  UNL     1      -9.208 -20.351  35.408  1.00  0.00     0.186 HD
HETATM   14  N3  UNL     1      -6.516 -19.030  34.074  1.00  0.00    -0.023 N 
HETATM   15  C11 UNL     1      -6.605 -19.593  32.888  1.00  0.00     0.692 A 
ATOM     16  H3  UNL     1      -5.747 -18.398  34.301  1.00  0.00     0.203 HD
HETATM   17  N5  UNL     1      -7.635 -20.429  32.612  1.00  0.00    -0.173 N 
ATOM     18  H5  UNL     1      -7.681 -20.851  31.685  1.00  0.00     0.186 HD
BRANCH  12  19
HETATM   19  N2  UNL     1      -7.369 -18.734  36.138  1.00  0.00    -0.234 N 
ATOM     20  H22 UNL     1      -7.332 -19.353  36.948  1.00  0.00     0.174 HD
ATOM     21  H21 UNL     1      -7.300 -17.722  36.242  1.00  0.00     0.174 HD
ENDBRANCH  12  19
BRANCH  15  22
HETATM   22  N4  UNL     1      -5.699 -19.329  32.013  1.00  0.00    -0.234 N 
ATOM     23  H42 UNL     1      -5.234 -18.421  31.985  1.00  0.00     0.174 HD
ATOM     24  H41 UNL     1      -5.449 -20.052  31.337  1.00  0.00     0.174 HD
ENDBRANCH  15  22
ENDBRANCH   2  10
BRANCH   1  25
HETATM   25  O3  UNL     1      -8.535 -22.575  31.148  1.00  0.00    -0.344 OA
BRANCH  25  26
HETATM   26  C6  UNL     1      -8.689 -22.151  29.801  1.00  0.00     0.176 C 
BRANCH  26  27
HETATM   27  C5  UNL     1      -7.530 -22.496  28.913  1.00  0.00     0.029 C 
BRANCH  27  28
HETATM   28  C4  UNL     1      -6.181 -22.182  29.431  1.00  0.00     0.028 C 
BRANCH  28  29
HETATM   29  C3  UNL     1      -5.176 -22.272  28.292  1.00  0.00     0.170 C 
BRANCH  29  30
HETATM   30  O2  UNL     1      -5.456 -23.287  27.410  1.00  0.00    -0.367 OA
BRANCH  30  31
HETATM   31  C2  UNL     1      -5.084 -23.071  26.108  1.00  0.00     0.337 C 
BRANCH  31  32
HETATM   32  O1  UNL     1      -5.260 -24.183  25.287  1.00  0.00    -0.372 OA
HETATM   33  C1  UNL     1      -6.414 -23.973  24.535  1.00  0.00     0.204 C 
ENDBRANCH  31  32
ENDBRANCH  30  31
ENDBRANCH  29  30
ENDBRANCH  28  29
ENDBRANCH  27  28
ENDBRANCH  26  27
ENDBRANCH  25  26
ENDBRANCH   1  25
BRANCH   5  34
HETATM   34  N7  UNL     1     -12.904 -22.524  34.374  1.00  0.00    -0.234 N 
ATOM     35  H72 UNL     1     -12.946 -21.992  35.244  1.00  0.00     0.174 HD
ATOM     36  H71 UNL     1     -13.725 -23.065  34.106  1.00  0.00     0.174 HD
ENDBRANCH   5  34
TORSDOF 12
ENDMDL
MODEL 3
REMARK VINA RESULT: -7.630645620      0.858      1.264
REMARK  12 active torsions:
REMARK  status: ('A' for Active; 'I' for Inactive)
REMARK    1  A    between atoms: O1_2  and  C2_3 
REMARK    2  A    between atoms: C2_3  and  O2_4 
REMARK    3  A    between atoms: O2_4  and  C3_5 
REMARK    4  A    between atoms: C3_5  and  C4_6 
REMARK    5  A    between atoms: C4_6  and  C5_7 
REMARK    6  A    between atoms: C5_7  and  C6_8 
REMARK    7  A    between atoms: C6_8  and  O3_9 
REMARK    8  A    between atoms: O3_9  and  C7_10 
REMARK    9  A    between atoms: C8_11  and  C9_12 
REMARK   10  A    between atoms: C10_15  and  N2_16 
REMARK   11  A    between atoms: C11_21  and  N4_22 
REMARK   12  A    between atoms: C12_29  and  N7_30 
ROOT
HETATM    1  C7  UNL     1      -9.678 -22.494  32.012  1.00  0.00     0.169 A 
HETATM    2  C8  UNL     1      -9.704 -21.642  33.066  1.00  0.00     0.133 A 
HETATM    3  N6  UNL     1     -10.790 -21.632  33.890  1.00  0.00    -0.185 N 
ATOM      4  H6  UNL     1     -10.804 -20.987  34.680  1.00  0.00     0.184 HD
HETATM    5  C12 UNL     1     -11.858 -22.458  33.691  1.00  0.00     0.679 A 
HETATM    6  N8  UNL     1     -11.817 -23.297  32.646  1.00  0.00    -0.154 N 
ATOM      7  H8  UNL     1     -12.609 -23.920  32.487  1.00  0.00     0.187 HD
HETATM    8  C13 UNL     1     -10.782 -23.350  31.806  1.00  0.00     0.295 A 
HETATM    9  O4  UNL     1     -10.822 -24.160  30.856  1.00  0.00    -0.264 OA
ENDROOT
BRANCH   2  10
HETATM   10  C9  UNL     1      -8.573 -20.738  33.370  1.00  0.00     0.166 A 
HETATM   11  N1  UNL     1      -7.588 -20.466  32.508  1.00  0.00    -0.173 N 
HETATM   12  C10 UNL     1      -6.583 -19.642  32.833  1.00  0.00     0.692 A 
ATOM     13  H1  UNL     1      -7.603 -20.895  31.582  1.00  0.00     0.186 HD
HETATM   14  N3  UNL     1      -6.526 -19.043  34.069  1.00  0.00    -0.023 N 
HETATM   15  C11 UNL     1      -7.491 -19.305  34.923  1.00  0.00     0.692 A 
ATOM     16  H3  UNL     1      -5.760 -18.415  34.315  1.00  0.00     0.203 HD
HETATM   17  N5  UNL     1      -8.496 -20.142  34.572  1.00  0.00    -0.173 N 
ATOM     18  H5  UNL     1      -9.231 -20.329  35.253  1.00  0.00     0.186 HD
BRANCH  12  19
HETATM   19  N2  UNL     1      -5.607 -19.367  32.038  1.00  0.00    -0.234 N 
ATOM     20  H22 UNL     1      -4.926 -20.115  31.904  1.00  0.00     0.174 HD
ATOM     21  H21 UNL     1      -5.511 -18.473  31.556  1.00  0.00     0.174 HD
ENDBRANCH  12  19
BRANCH  15  22
HETATM   22  N4  UNL     1      -7.451 -18.752  36.085  1.00  0.00    -0.234 N 
ATOM     23  H42 UNL     1      -6.680 -18.924  36.731  1.00  0.00     0.174 HD
ATOM     24  H41 UNL     1      -8.212 -18.128  36.353  1.00  0.00     0.174 HD
ENDBRANCH  15  22
ENDBRANCH   2  10
BRANCH   1  25
HETATM   25  O3  UNL     1      -8.672 -22.638  31.064  1.00  0.00    -0.344 OA
BRANCH  25  26
HETATM   26  C6  UNL     1      -8.761 -21.978  29.809  1.00  0.00     0.176 C 
BRANCH  26  27
HETATM   27  C5  UNL     1      -8.031 -22.672  28.697  1.00  0.00     0.029 C 
BRANCH  27  28
HETATM   28  C4  UNL     1      -8.830 -23.574  27.840  1.00  0.00     0.028 C 
BRANCH  28  29
HETATM   29  C3  UNL     1      -8.264 -23.549  26.427  1.00  0.00     0.170 C 
BRANCH  29  30
HETATM   30  O2  UNL     1      -6.994 -23.032  26.368  1.00  0.00    -0.367 OA
BRANCH  30  31
HETATM   31  C2  UNL     1      -6.103 -23.714  25.580  1.00  0.00     0.337 C 
BRANCH  31  32
HETATM   32  O1  UNL     1      -4.779 -23.578  25.991  1.00  0.00    -0.372 OA
HETATM   33  C1  UNL     1      -4.605 -22.265  26.423  1.00  0.00     0.204 C 
ENDBRANCH  31  32
ENDBRANCH  30  31
ENDBRANCH  29  30
ENDBRANCH  28  29
ENDBRANCH  27  28
ENDBRANCH  26  27
ENDBRANCH  25  26
ENDBRANCH   1  25
BRANCH   5  34
HETATM   34  N7  UNL     1     -12.868 -22.409  34.506  1.00  0.00    -0.234 N 
ATOM     35  H72 UNL     1     -13.834 -22.464  34.184  1.00  0.00     0.174 HD
ATOM     36  H71 UNL     1     -12.703 -22.314  35.508  1.00  0.00     0.174 HD
ENDBRANCH   5  34
TORSDOF 12
ENDMDL
MODEL 4
REMARK VINA RESULT: -7.613141995      1.660      4.403
REMARK  12 active torsions:
REMARK  status: ('A' for Active; 'I' for Inactive)
REMARK    1  A    between atoms: O1_2  and  C2_3 
REMARK    2  A    between atoms: C2_3  and  O2_4 
REMARK    3  A    between atoms: O2_4  and  C3_5 
REMARK    4  A    between atoms: C3_5  and  C4_6 
REMARK    5  A    between atoms: C4_6  and  C5_7 
REMARK    6  A    between atoms: C5_7  and  C6_8 
REMARK    7  A    between atoms: C6_8  and  O3_9 
REMARK    8  A    between atoms: O3_9  and  C7_10 
REMARK    9  A    between atoms: C8_11  and  C9_12 
REMARK   10  A    between atoms: C10_15  and  N2_16 
REMARK   11  A    between atoms: C11_21  and  N4_22 
REMARK   12  A    between atoms: C12_29  and  N7_30 
ROOT
HETATM    1  C7  UNL     1      -7.842 -20.459  33.171  1.00  0.00     0.169 A 
HETATM    2  C8  UNL     1      -8.870 -20.856  33.961  1.00  0.00     0.133 A 
HETATM    3  N6  UNL     1      -8.939 -20.402  35.245  1.00  0.00    -0.185 N 
ATOM      4  H6  UNL     1      -9.713 -20.706  35.835  1.00  0.00     0.184 HD
HETATM    5  C12 UNL     1      -8.004 -19.554  35.765  1.00  0.00     0.679 A 
HETATM    6  N8  UNL     1      -6.995 -19.169  34.970  1.00  0.00    -0.154 N 
ATOM      7  H8  UNL     1      -6.290 -18.535  35.347  1.00  0.00     0.187 HD
HETATM    8  C13 UNL     1      -6.875 -19.581  33.707  1.00  0.00     0.295 A 
HETATM    9  O4  UNL     1      -5.905 -19.175  33.034  1.00  0.00    -0.264 OA
ENDROOT
BRANCH   2  10
HETATM   10  C9  UNL     1      -9.941 -21.746  33.464  1.00  0.00     0.166 A 
HETATM   11  N1  UNL     1      -9.799 -22.564  32.415  1.00  0.00    -0.173 N 
HETATM   12  C10 UNL     1     -10.803 -23.350  32.002  1.00  0.00     0.692 A 
ATOM     13  H1  UNL     1      -8.908 -22.590  31.920  1.00  0.00     0.186 HD
HETATM   14  N3  UNL     1     -12.020 -23.347  32.642  1.00  0.00    -0.023 N 
HETATM   15  C11 UNL     1     -12.167 -22.545  33.674  1.00  0.00     0.692 A 
ATOM     16  H3  UNL     1     -12.783 -23.946  32.326  1.00  0.00     0.203 HD
HETATM   17  N5  UNL     1     -11.139 -21.759  34.073  1.00  0.00    -0.173 N 
ATOM     18  H5  UNL     1     -11.280 -21.146  34.876  1.00  0.00     0.186 HD
BRANCH  12  19
HETATM   19  N2  UNL     1     -10.713 -24.139  30.986  1.00  0.00    -0.234 N 
ATOM     20  H22 UNL     1     -10.163 -23.785  30.203  1.00  0.00     0.174 HD
ATOM     21  H21 UNL     1     -11.144 -25.063  30.955  1.00  0.00     0.174 HD
ENDBRANCH  12  19
BRANCH  15  22
HETATM   22  N4  UNL     1     -13.301 -22.530  34.283  1.00  0.00    -0.234 N 
ATOM     23  H42 UNL     1     -14.159 -22.254  33.806  1.00  0.00     0.174 HD
ATOM     24  H41 UNL     1     -13.329 -22.804  35.266  1.00  0.00     0.174 HD
ENDBRANCH  15  22
ENDBRANCH   2  10
BRANCH   1  25
HETATM   25  O3  UNL     1      -7.599 -20.823  31.852  1.00  0.00    -0.344 OA
BRANCH  25  26
HETATM   26  C6  UNL     1      -6.664 -21.848  31.544  1.00  0.00     0.176 C 
BRANCH  26  27
HETATM   27  C5  UNL     1      -5.586 -21.428  30.589  1.00  0.00     0.029 C 
BRANCH  27  28
HETATM   28  C4  UNL     1      -5.118 -22.448  29.626  1.00  0.00     0.028 C 
BRANCH  28  29
HETATM   29  C3  UNL     1      -6.240 -22.761  28.647  1.00  0.00     0.170 C 
BRANCH  29  30
HETATM   30  O2  UNL     1      -5.871 -23.662  27.679  1.00  0.00    -0.367 OA
BRANCH  30  31
HETATM   31  C2  UNL     1      -5.445 -23.126  26.491  1.00  0.00     0.337 C 
BRANCH  31  32
HETATM   32  O1  UNL     1      -5.276 -24.072  25.482  1.00  0.00    -0.372 OA
HETATM   33  C1  UNL     1      -6.321 -23.913  24.576  1.00  0.00     0.204 C 
ENDBRANCH  31  32
ENDBRANCH  30  31
ENDBRANCH  29  30
ENDBRANCH  28  29
ENDBRANCH  27  28
ENDBRANCH  26  27
ENDBRANCH  25  26
ENDBRANCH   1  25
BRANCH   5  34
HETATM   34  N7  UNL     1      -8.116 -19.151  36.993  1.00  0.00    -0.234 N 
ATOM     35  H72 UNL     1      -8.966 -18.714  37.351  1.00  0.00     0.174 HD
ATOM     36  H71 UNL     1      -7.334 -19.270  37.636  1.00  0.00     0.174 HD
ENDBRANCH   5  34
TORSDOF 12
ENDMDL
MODEL 5
REMARK VINA RESULT: -7.601247504      1.818      4.604
REMARK  12 active torsions:
REMARK  status: ('A' for Active; 'I' for Inactive)
REMARK    1  A    between atoms: O1_2  and  C2_3 
REMARK    2  A    between atoms: C2_3  and  O2_4 
REMARK    3  A    between atoms: O2_4  and  C3_5 
REMARK    4  A    between atoms: C3_5  and  C4_6 
REMARK    5  A    between atoms: C4_6  and  C5_7 
REMARK    6  A    between atoms: C5_7  and  C6_8 
REMARK    7  A    between atoms: C6_8  and  O3_9 
REMARK    8  A    between atoms: O3_9  and  C7_10 
REMARK    9  A    between atoms: C8_11  and  C9_12 
REMARK   10  A    between atoms: C10_15  and  N2_16 
REMARK   11  A    between atoms: C11_21  and  N4_22 
REMARK   12  A    between atoms: C12_29  and  N7_30 
ROOT
HETATM    1  C7  UNL     1      -7.793 -20.500  33.012  1.00  0.00     0.169 A 
HETATM    2  C8  UNL     1      -8.822 -20.831  33.831  1.00  0.00     0.133 A 
HETATM    3  N6  UNL     1      -8.875 -20.298  35.085  1.00  0.00    -0.185 N 
ATOM      4  H6  UNL     1      -9.650 -20.552  35.697  1.00  0.00     0.184 HD
HETATM    5  C12 UNL     1      -7.923 -19.435  35.546  1.00  0.00     0.679 A 
HETATM    6  N8  UNL     1      -6.913 -19.116  34.723  1.00  0.00    -0.154 N 
ATOM      7  H8  UNL     1      -6.196 -18.471  35.056  1.00  0.00     0.187 HD
HETATM    8  C13 UNL     1      -6.808 -19.607  33.488  1.00  0.00     0.295 A 
HETATM    9  O4  UNL     1      -5.837 -19.259  32.785  1.00  0.00    -0.264 OA
ENDROOT
BRANCH   2  10
HETATM   10  C9  UNL     1      -9.910 -21.733  33.396  1.00  0.00     0.166 A 
HETATM   11  N1  UNL     1      -9.812 -22.567  32.355  1.00  0.00    -0.173 N 
HETATM   12  C10 UNL     1     -10.830 -23.362  31.999  1.00  0.00     0.692 A 
ATOM     13  H1  UNL     1      -8.943 -22.598  31.822  1.00  0.00     0.186 HD
HETATM   14  N3  UNL     1     -12.017 -23.353  32.692  1.00  0.00    -0.023 N 
HETATM   15  C11 UNL     1     -12.121 -22.535  33.718  1.00  0.00     0.692 A 
ATOM     16  H3  UNL     1     -12.791 -23.959  32.420  1.00  0.00     0.203 HD
HETATM   17  N5  UNL     1     -11.080 -21.739  34.058  1.00  0.00    -0.173 N 
ATOM     18  H5  UNL     1     -11.188 -21.115  34.857  1.00  0.00     0.186 HD
BRANCH  12  19
HETATM   19  N2  UNL     1     -10.781 -24.167  30.993  1.00  0.00    -0.234 N 
ATOM     20  H22 UNL     1     -10.101 -23.927  30.272  1.00  0.00     0.174 HD
ATOM     21  H21 UNL     1     -11.366 -24.999  30.913  1.00  0.00     0.174 HD
ENDBRANCH  12  19
BRANCH  15  22
HETATM   22  N4  UNL     1     -13.228 -22.514  34.376  1.00  0.00    -0.234 N 
ATOM     23  H42 UNL     1     -13.890 -23.289  34.330  1.00  0.00     0.174 HD
ATOM     24  H41 UNL     1     -13.434 -21.699  34.954  1.00  0.00     0.174 HD
ENDBRANCH  15  22
ENDBRANCH   2  10
BRANCH   1  25
HETATM   25  O3  UNL     1      -7.565 -20.948  31.716  1.00  0.00    -0.344 OA
BRANCH  25  26
HETATM   26  C6  UNL     1      -6.566 -21.924  31.453  1.00  0.00     0.176 C 
BRANCH  26  27
HETATM   27  C5  UNL     1      -5.699 -21.611  30.270  1.00  0.00     0.029 C 
BRANCH  27  28
HETATM   28  C4  UNL     1      -5.264 -22.758  29.444  1.00  0.00     0.028 C 
BRANCH  28  29
HETATM   29  C3  UNL     1      -6.163 -22.860  28.220  1.00  0.00     0.170 C 
BRANCH  29  30
HETATM   30  O2  UNL     1      -7.165 -23.788  28.367  1.00  0.00    -0.367 OA
BRANCH  30  31
HETATM   31  C2  UNL     1      -8.445 -23.313  28.243  1.00  0.00     0.337 C 
BRANCH  31  32
HETATM   32  O1  UNL     1      -9.265 -24.123  27.459  1.00  0.00    -0.372 OA
HETATM   33  C1  UNL     1      -9.061 -23.765  26.129  1.00  0.00     0.204 C 
ENDBRANCH  31  32
ENDBRANCH  30  31
ENDBRANCH  29  30
ENDBRANCH  28  29
ENDBRANCH  27  28
ENDBRANCH  26  27
ENDBRANCH  25  26
ENDBRANCH   1  25
BRANCH   5  34
HETATM   34  N7  UNL     1      -8.020 -18.955  36.748  1.00  0.00    -0.234 N 
ATOM     35  H72 UNL     1      -8.325 -17.999  36.934  1.00  0.00     0.174 HD
ATOM     36  H71 UNL     1      -7.787 -19.545  37.547  1.00  0.00     0.174 HD
ENDBRANCH   5  34
TORSDOF 12
ENDMDL
