MODEL 1
REMARK VINA RESULT: -7.381457103      0.000      0.000
REMARK  11 active torsions:
REMARK  status: ('A' for Active; 'I' for Inactive)
REMARK    1  A    between atoms: C2_2  and  C3_3 
REMARK    2  A    between atoms: C3_3  and  N1_4 
REMARK    3  A    between atoms: N1_4  and  S1_6 
REMARK    4  A    between atoms: S1_6  and  C4_9 
REMARK    5  A    between atoms: C5_12  and  N3_13 
REMARK    6  A    between atoms: C7_20  and  N6_21 
REMARK    7  A    between atoms: N6_21  and  N7_23 
REMARK    8  A    between atoms: N8_25  and  N9_27 
REMARK    9  A    between atoms: N9_27  and  C8_29 
REMARK   10  A    between atoms: C8_29  and  C9_33 
REMARK   11  A    between atoms: C9_33  and  N11_34 
ROOT
HETATM    1  C4  UNL     1      -9.020 -21.235  33.927  1.00  0.00     0.195 A 
HETATM    2  N2  UNL     1     -10.237 -21.700  34.357  1.00  0.00    -0.177 N 
ATOM      3  H2  UNL     1     -10.516 -21.539  35.325  1.00  0.00     0.185 HD
HETATM    4  C5  UNL     1     -11.069 -22.361  33.538  1.00  0.00     0.678 A 
HETATM    5  N4  UNL     1     -10.702 -22.574  32.260  1.00  0.00    -0.177 N 
ATOM      6  H4  UNL     1     -11.342 -23.078  31.647  1.00  0.00     0.185 HD
HETATM    7  C6  UNL     1      -9.531 -22.153  31.758  1.00  0.00     0.163 A 
HETATM    8  N5  UNL     1      -9.132 -22.364  30.427  1.00  0.00    -0.080 NA
HETATM    9  C7  UNL     1      -8.679 -21.469  32.618  1.00  0.00     0.132 A 
ENDROOT
BRANCH   9  10
HETATM   10  N6  UNL     1      -7.445 -21.005  32.091  1.00  0.00    -0.279 N 
ATOM     11  H6  UNL     1      -7.334 -20.061  31.719  1.00  0.00     0.189 HD
BRANCH  10  12
HETATM   12  N7  UNL     1      -6.393 -21.921  32.114  1.00  0.00    -0.228 N 
HETATM   13  N8  UNL     1      -5.877 -22.323  31.051  1.00  0.00    -0.227 N 
ATOM     14  H8  UNL     1      -5.110 -22.994  31.083  1.00  0.00     0.210 HD
ATOM     15  H7  UNL     1      -6.042 -22.265  33.008  1.00  0.00     0.210 HD
BRANCH  13  16
HETATM   16  N9  UNL     1      -6.340 -21.864  29.826  1.00  0.00    -0.272 N 
ATOM     17  H9  UNL     1      -7.215 -21.349  29.729  1.00  0.00     0.190 HD
BRANCH  16  18
HETATM   18  C8  UNL     1      -5.490 -22.171  28.699  1.00  0.00     0.116 C 
HETATM   19  N10 UNL     1      -4.313 -21.688  28.568  1.00  0.00    -0.386 N 
ATOM     20 2H10 UNL     1      -3.924 -21.055  29.266  1.00  0.00     0.157 HD
ATOM     21 1H10 UNL     1      -3.714 -21.905  27.772  1.00  0.00     0.157 HD
BRANCH  18  22
HETATM   22  C9  UNL     1      -6.055 -23.090  27.687  1.00  0.00     0.308 C 
BRANCH  22  23
HETATM   23  N11 UNL     1      -7.354 -23.540  28.138  1.00  0.00    -0.072 N 
HETATM   24  C10 UNL     1      -8.266 -23.365  27.030  1.00  0.00     0.267 C 
ATOM     25 2H11 UNL     1      -7.344 -24.492  28.504  1.00  0.00     0.277 HD
ATOM     26 1H11 UNL     1      -7.666 -23.077  28.992  1.00  0.00     0.277 HD
ENDBRANCH  22  23
ENDBRANCH  18  22
ENDBRANCH  16  18
ENDBRANCH  13  16
ENDBRANCH  10  12
ENDBRANCH   9  10
BRANCH   1  27
HETATM   27  S1  UNL     1      -7.962 -20.396  35.028  1.00  0.00     0.277 S 
HETATM   28  O1  UNL     1      -7.807 -18.953  34.624  1.00  0.00    -0.199 OA
HETATM   29  O2  UNL     1      -6.612 -21.018  35.011  1.00  0.00    -0.199 OA
BRANCH  27  30
HETATM   30  N1  UNL     1      -8.570 -20.512  36.648  1.00  0.00    -0.314 N 
ATOM     31  H1  UNL     1      -9.275 -21.183  36.950  1.00  0.00     0.172 HD
BRANCH  30  32
HETATM   32  C3  UNL     1      -7.954 -19.541  37.509  1.00  0.00     0.132 C 
BRANCH  32  33
HETATM   33  C2  UNL     1      -7.321 -20.238  38.690  1.00  0.00     0.016 C 
HETATM   34  C1  UNL     1      -7.279 -21.717  38.385  1.00  0.00     0.006 C 
ENDBRANCH  32  33
ENDBRANCH  30  32
ENDBRANCH  27  30
ENDBRANCH   1  27
BRANCH   4  35
HETATM   35  N3  UNL     1     -12.220 -22.795  33.966  1.00  0.00    -0.234 N 
ATOM     36  H32 UNL     1     -12.472 -22.687  34.949  1.00  0.00     0.174 HD
ATOM     37  H31 UNL     1     -12.879 -23.242  33.329  1.00  0.00     0.174 HD
ENDBRANCH   4  35
TORSDOF 11
ENDMDL
MODEL 2
REMARK VINA RESULT: -7.164552041      2.086      6.072
REMARK  11 active torsions:
REMARK  status: ('A' for Active; 'I' for Inactive)
REMARK    1  A    between atoms: C2_2  and  C3_3 
REMARK    2  A    between atoms: C3_3  and  N1_4 
REMARK    3  A    between atoms: N1_4  and  S1_6 
REMARK    4  A    between atoms: S1_6  and  C4_9 
REMARK    5  A    between atoms: C5_12  and  N3_13 
REMARK    6  A    between atoms: C7_20  and  N6_21 
REMARK    7  A    between atoms: N6_21  and  N7_23 
REMARK    8  A    between atoms: N8_25  and  N9_27 
REMARK    9  A    between atoms: N9_27  and  C8_29 
REMARK   10  A    between atoms: C8_29  and  C9_33 
REMARK   11  A    between atoms: C9_33  and  N11_34 
ROOT
HETATM    1  C4  UNL     1      -7.893 -22.376  30.142  1.00  0.00     0.195 A 
HETATM    2  N2  UNL     1      -8.422 -22.847  28.966  1.00  0.00    -0.177 N 
ATOM      3  H2  UNL     1      -9.422 -23.043  28.915  1.00  0.00     0.185 HD
HETATM    4  C5  UNL     1      -7.659 -23.056  27.884  1.00  0.00     0.678 A 
HETATM    5  N4  UNL     1      -6.339 -22.798  27.949  1.00  0.00    -0.177 N 
ATOM      6  H4  UNL     1      -5.768 -22.961  27.120  1.00  0.00     0.185 HD
HETATM    7  C6  UNL     1      -5.741 -22.335  29.058  1.00  0.00     0.163 A 
HETATM    8  N5  UNL     1      -4.366 -22.057  29.145  1.00  0.00    -0.080 NA
HETATM    9  C7  UNL     1      -6.545 -22.122  30.173  1.00  0.00     0.132 A 
ENDROOT
BRANCH   9  10
HETATM   10  N6  UNL     1      -5.924 -21.617  31.346  1.00  0.00    -0.279 N 
ATOM     11  H6  UNL     1      -5.493 -22.229  32.039  1.00  0.00     0.189 HD
BRANCH  10  12
HETATM   12  N7  UNL     1      -5.939 -20.229  31.490  1.00  0.00    -0.228 N 
HETATM   13  N8  UNL     1      -6.334 -19.706  32.552  1.00  0.00    -0.227 N 
ATOM     14  H8  UNL     1      -6.342 -18.690  32.642  1.00  0.00     0.210 HD
ATOM     15  H7  UNL     1      -5.624 -19.637  30.721  1.00  0.00     0.210 HD
BRANCH  13  16
HETATM   16  N9  UNL     1      -6.764 -20.494  33.609  1.00  0.00    -0.272 N 
ATOM     17  H9  UNL     1      -6.735 -21.514  33.579  1.00  0.00     0.190 HD
BRANCH  16  18
HETATM   18  C8  UNL     1      -7.257 -19.764  34.754  1.00  0.00     0.116 C 
HETATM   19  N10 UNL     1      -6.605 -18.809  35.298  1.00  0.00    -0.386 N 
ATOM     20 2H10 UNL     1      -5.694 -18.523  34.940  1.00  0.00     0.157 HD
ATOM     21 1H10 UNL     1      -6.953 -18.294  36.107  1.00  0.00     0.157 HD
BRANCH  18  22
HETATM   22  C9  UNL     1      -8.578 -20.179  35.274  1.00  0.00     0.308 C 
BRANCH  22  23
HETATM   23  N11 UNL     1      -8.547 -21.601  35.544  1.00  0.00    -0.072 N 
HETATM   24  C10 UNL     1      -7.941 -21.765  36.847  1.00  0.00     0.267 C 
ATOM     25 2H11 UNL     1      -9.462 -22.044  35.468  1.00  0.00     0.277 HD
ATOM     26 1H11 UNL     1      -8.081 -22.139  34.814  1.00  0.00     0.277 HD
ENDBRANCH  22  23
ENDBRANCH  18  22
ENDBRANCH  16  18
ENDBRANCH  13  16
ENDBRANCH  10  12
ENDBRANCH   9  10
BRANCH   1  27
HETATM   27  S1  UNL     1      -8.917 -22.135  31.531  1.00  0.00     0.277 S 
HETATM   28  O1  UNL     1      -9.147 -20.666  31.775  1.00  0.00    -0.199 OA
HETATM   29  O2  UNL     1      -8.271 -22.700  32.745  1.00  0.00    -0.199 OA
BRANCH  27  30
HETATM   30  N1  UNL     1     -10.427 -22.958  31.312  1.00  0.00    -0.314 N 
ATOM     31  H1  UNL     1     -10.982 -22.922  30.457  1.00  0.00     0.172 HD
BRANCH  30  32
HETATM   32  C3  UNL     1     -10.797 -23.697  32.487  1.00  0.00     0.132 C 
BRANCH  32  33
HETATM   33  C2  UNL     1     -11.906 -22.975  33.214  1.00  0.00     0.016 C 
HETATM   34  C1  UNL     1     -13.211 -23.345  32.548  1.00  0.00     0.006 C 
ENDBRANCH  32  33
ENDBRANCH  30  32
ENDBRANCH  27  30
ENDBRANCH   1  27
BRANCH   4  35
HETATM   35  N3  UNL     1      -8.180 -23.504  26.777  1.00  0.00    -0.234 N 
ATOM     36  H32 UNL     1      -8.697 -22.872  26.164  1.00  0.00     0.174 HD
ATOM     37  H31 UNL     1      -8.078 -24.483  26.511  1.00  0.00     0.174 HD
ENDBRANCH   4  35
TORSDOF 11
ENDMDL
MODEL 3
REMARK VINA RESULT: -7.090801749      1.555      2.009
REMARK  11 active torsions:
REMARK  status: ('A' for Active; 'I' for Inactive)
REMARK    1  A    between atoms: C2_2  and  C3_3 
REMARK    2  A    between atoms: C3_3  and  N1_4 
REMARK    3  A    between atoms: N1_4  and  S1_6 
REMARK    4  A    between atoms: S1_6  and  C4_9 
REMARK    5  A    between atoms: C5_12  and  N3_13 
REMARK    6  A    between atoms: C7_20  and  N6_21 
REMARK    7  A    between atoms: N6_21  and  N7_23 
REMARK    8  A    between atoms: N8_25  and  N9_27 
REMARK    9  A    between atoms: N9_27  and  C8_29 
REMARK   10  A    between atoms: C8_29  and  C9_33 
REMARK   11  A    between atoms: C9_33  and  N11_34 
ROOT
HETATM    1  C4  UNL     1      -9.959 -21.689  33.286  1.00  0.00     0.195 A 
HETATM    2  N2  UNL     1     -11.045 -21.509  34.106  1.00  0.00    -0.177 N 
ATOM      3  H2  UNL     1     -11.009 -20.789  34.827  1.00  0.00     0.185 HD
HETATM    4  C5  UNL     1     -12.153 -22.257  33.982  1.00  0.00     0.678 A 
HETATM    5  N4  UNL     1     -12.202 -23.208  33.031  1.00  0.00    -0.177 N 
ATOM      6  H4  UNL     1     -13.049 -23.770  32.947  1.00  0.00     0.185 HD
HETATM    7  C6  UNL     1     -11.186 -23.448  32.188  1.00  0.00     0.163 A 
HETATM    8  N5  UNL     1     -11.220 -24.434  31.187  1.00  0.00    -0.080 NA
HETATM    9  C7  UNL     1     -10.045 -22.666  32.326  1.00  0.00     0.132 A 
ENDROOT
BRANCH   9  10
HETATM   10  N6  UNL     1      -8.971 -22.902  31.428  1.00  0.00    -0.279 N 
ATOM     11  H6  UNL     1      -8.189 -23.513  31.665  1.00  0.00     0.189 HD
BRANCH  10  12
HETATM   12  N7  UNL     1      -9.053 -22.247  30.199  1.00  0.00    -0.228 N 
HETATM   13  N8  UNL     1      -8.050 -21.687  29.710  1.00  0.00    -0.227 N 
ATOM     14  H8  UNL     1      -8.125 -21.210  28.812  1.00  0.00     0.210 HD
ATOM     15  H7  UNL     1      -9.940 -22.224  29.696  1.00  0.00     0.210 HD
BRANCH  13  16
HETATM   16  N9  UNL     1      -6.835 -21.709  30.379  1.00  0.00    -0.272 N 
ATOM     17  H9  UNL     1      -6.709 -21.291  31.301  1.00  0.00     0.190 HD
BRANCH  16  18
HETATM   18  C8  UNL     1      -5.761 -22.366  29.671  1.00  0.00     0.116 C 
HETATM   19  N10 UNL     1      -4.602 -22.545  30.182  1.00  0.00    -0.386 N 
ATOM     20 2H10 UNL     1      -4.389 -22.223  31.126  1.00  0.00     0.157 HD
ATOM     21 1H10 UNL     1      -3.844 -23.009  29.682  1.00  0.00     0.157 HD
BRANCH  18  22
HETATM   22  C9  UNL     1      -6.071 -22.834  28.302  1.00  0.00     0.308 C 
BRANCH  22  23
HETATM   23  N11 UNL     1      -5.083 -22.297  27.391  1.00  0.00    -0.072 N 
HETATM   24  C10 UNL     1      -5.190 -23.055  26.164  1.00  0.00     0.267 C 
ATOM     25 2H11 UNL     1      -5.171 -21.291  27.250  1.00  0.00     0.277 HD
ATOM     26 1H11 UNL     1      -4.139 -22.292  27.778  1.00  0.00     0.277 HD
ENDBRANCH  22  23
ENDBRANCH  18  22
ENDBRANCH  16  18
ENDBRANCH  13  16
ENDBRANCH  10  12
ENDBRANCH   9  10
BRANCH   1  27
HETATM   27  S1  UNL     1      -8.534 -20.709  33.491  1.00  0.00     0.277 S 
HETATM   28  O1  UNL     1      -8.340 -19.796  32.309  1.00  0.00    -0.199 OA
HETATM   29  O2  UNL     1      -7.330 -21.574  33.597  1.00  0.00    -0.199 OA
BRANCH  27  30
HETATM   30  N1  UNL     1      -8.645 -19.789  34.957  1.00  0.00    -0.314 N 
ATOM     31  H1  UNL     1      -9.456 -19.231  35.225  1.00  0.00     0.172 HD
BRANCH  30  32
HETATM   32  C3  UNL     1      -7.450 -19.911  35.745  1.00  0.00     0.132 C 
BRANCH  32  33
HETATM   33  C2  UNL     1      -7.804 -20.387  37.134  1.00  0.00     0.016 C 
HETATM   34  C1  UNL     1      -7.806 -21.898  37.117  1.00  0.00     0.006 C 
ENDBRANCH  32  33
ENDBRANCH  30  32
ENDBRANCH  27  30
ENDBRANCH   1  27
BRANCH   4  35
HETATM   35  N3  UNL     1     -13.173 -22.071  34.771  1.00  0.00    -0.234 N 
ATOM     36  H32 UNL     1     -14.121 -22.104  34.394  1.00  0.00     0.174 HD
ATOM     37  H31 UNL     1     -13.038 -21.893  35.766  1.00  0.00     0.174 HD
ENDBRANCH   4  35
TORSDOF 11
ENDMDL
MODEL 4
REMARK VINA RESULT: -7.079891536      1.381      2.165
REMARK  11 active torsions:
REMARK  status: ('A' for Active; 'I' for Inactive)
REMARK    1  A    between atoms: C2_2  and  C3_3 
REMARK    2  A    between atoms: C3_3  and  N1_4 
REMARK    3  A    between atoms: N1_4  and  S1_6 
REMARK    4  A    between atoms: S1_6  and  C4_9 
REMARK    5  A    between atoms: C5_12  and  N3_13 
REMARK    6  A    between atoms: C7_20  and  N6_21 
REMARK    7  A    between atoms: N6_21  and  N7_23 
REMARK    8  A    between atoms: N8_25  and  N9_27 
REMARK    9  A    between atoms: N9_27  and  C8_29 
REMARK   10  A    between atoms: C8_29  and  C9_33 
REMARK   11  A    between atoms: C9_33  and  N11_34 
ROOT
HETATM    1  C4  UNL     1      -9.590 -21.611  33.183  1.00  0.00     0.195 A 
HETATM    2  N2  UNL     1     -10.672 -21.708  34.023  1.00  0.00    -0.177 N 
ATOM      3  H2  UNL     1     -10.683 -21.162  34.884  1.00  0.00     0.185 HD
HETATM    4  C5  UNL     1     -11.714 -22.503  33.739  1.00  0.00     0.678 A 
HETATM    5  N4  UNL     1     -11.702 -23.225  32.602  1.00  0.00    -0.177 N 
ATOM      6  H4  UNL     1     -12.500 -23.826  32.397  1.00  0.00     0.185 HD
HETATM    7  C6  UNL     1     -10.685 -23.188  31.727  1.00  0.00     0.163 A 
HETATM    8  N5  UNL     1     -10.655 -23.931  30.534  1.00  0.00    -0.080 NA
HETATM    9  C7  UNL     1      -9.611 -22.359  32.033  1.00  0.00     0.132 A 
ENDROOT
BRANCH   9  10
HETATM   10  N6  UNL     1      -8.538 -22.301  31.104  1.00  0.00    -0.279 N 
ATOM     11  H6  UNL     1      -7.630 -22.722  31.298  1.00  0.00     0.189 HD
BRANCH  10  12
HETATM   12  N7  UNL     1      -8.806 -21.631  29.911  1.00  0.00    -0.228 N 
HETATM   13  N8  UNL     1      -8.284 -22.007  28.841  1.00  0.00    -0.227 N 
ATOM     14  H8  UNL     1      -8.487 -21.506  27.976  1.00  0.00     0.210 HD
ATOM     15  H7  UNL     1      -9.433 -20.826  29.911  1.00  0.00     0.210 HD
BRANCH  13  16
HETATM   16  N9  UNL     1      -7.430 -23.100  28.820  1.00  0.00    -0.272 N 
ATOM     17  H9  UNL     1      -7.645 -23.973  29.301  1.00  0.00     0.190 HD
BRANCH  16  18
HETATM   18  C8  UNL     1      -6.212 -22.908  28.066  1.00  0.00     0.116 C 
HETATM   19  N10 UNL     1      -6.067 -23.326  26.866  1.00  0.00    -0.386 N 
ATOM     20 2H10 UNL     1      -6.820 -23.822  26.388  1.00  0.00     0.157 HD
ATOM     21 1H10 UNL     1      -5.208 -23.190  26.335  1.00  0.00     0.157 HD
BRANCH  18  22
HETATM   22  C9  UNL     1      -5.121 -22.189  28.760  1.00  0.00     0.308 C 
BRANCH  22  23
HETATM   23  N11 UNL     1      -5.153 -22.537  30.165  1.00  0.00    -0.072 N 
HETATM   24  C10 UNL     1      -5.190 -21.295  30.903  1.00  0.00     0.267 C 
ATOM     25 2H11 UNL     1      -5.915 -23.170  30.405  1.00  0.00     0.277 HD
ATOM     26 1H11 UNL     1      -4.385 -23.148  30.445  1.00  0.00     0.277 HD
ENDBRANCH  22  23
ENDBRANCH  18  22
ENDBRANCH  16  18
ENDBRANCH  13  16
ENDBRANCH  10  12
ENDBRANCH   9  10
BRANCH   1  27
HETATM   27  S1  UNL     1      -8.248 -20.580  33.598  1.00  0.00     0.277 S 
HETATM   28  O1  UNL     1      -7.962 -19.605  32.485  1.00  0.00    -0.199 OA
HETATM   29  O2  UNL     1      -7.024 -21.396  33.811  1.00  0.00    -0.199 OA
BRANCH  27  30
HETATM   30  N1  UNL     1      -8.576 -19.735  35.076  1.00  0.00    -0.314 N 
ATOM     31  H1  UNL     1      -9.473 -19.306  35.306  1.00  0.00     0.172 HD
BRANCH  30  32
HETATM   32  C3  UNL     1      -7.425 -19.715  35.936  1.00  0.00     0.132 C 
BRANCH  32  33
HETATM   33  C2  UNL     1      -7.796 -20.261  37.294  1.00  0.00     0.016 C 
HETATM   34  C1  UNL     1      -7.719 -21.768  37.223  1.00  0.00     0.006 C 
ENDBRANCH  32  33
ENDBRANCH  30  32
ENDBRANCH  27  30
ENDBRANCH   1  27
BRANCH   4  35
HETATM   35  N3  UNL     1     -12.732 -22.582  34.548  1.00  0.00    -0.234 N 
ATOM     36  H32 UNL     1     -12.674 -22.173  35.481  1.00  0.00     0.174 HD
ATOM     37  H31 UNL     1     -13.592 -23.050  34.262  1.00  0.00     0.174 HD
ENDBRANCH   4  35
TORSDOF 11
ENDMDL
MODEL 5
REMARK VINA RESULT: -7.045825483      1.629      2.239
REMARK  11 active torsions:
REMARK  status: ('A' for Active; 'I' for Inactive)
REMARK    1  A    between atoms: C2_2  and  C3_3 
REMARK    2  A    between atoms: C3_3  and  N1_4 
REMARK    3  A    between atoms: N1_4  and  S1_6 
REMARK    4  A    between atoms: S1_6  and  C4_9 
REMARK    5  A    between atoms: C5_12  and  N3_13 
REMARK    6  A    between atoms: C7_20  and  N6_21 
REMARK    7  A    between atoms: N6_21  and  N7_23 
REMARK    8  A    between atoms: N8_25  and  N9_27 
REMARK    9  A    between atoms: N9_27  and  C8_29 
REMARK   10  A    between atoms: C8_29  and  C9_33 
REMARK   11  A    between atoms: C9_33  and  N11_34 
ROOT
HETATM    1  C4  UNL     1      -9.753 -21.623  33.306  1.00  0.00     0.195 A 
HETATM    2  N2  UNL     1     -10.854 -21.672  34.124  1.00  0.00    -0.177 N 
ATOM      3  H2  UNL     1     -10.866 -21.110  34.975  1.00  0.00     0.185 HD
HETATM    4  C5  UNL     1     -11.915 -22.439  33.832  1.00  0.00     0.678 A 
HETATM    5  N4  UNL     1     -11.902 -23.180  32.708  1.00  0.00    -0.177 N 
ATOM      6  H4  UNL     1     -12.714 -23.760  32.497  1.00  0.00     0.185 HD
HETATM    7  C6  UNL     1     -10.867 -23.190  31.854  1.00  0.00     0.163 A 
HETATM    8  N5  UNL     1     -10.836 -23.955  30.675  1.00  0.00    -0.080 NA
HETATM    9  C7  UNL     1      -9.774 -22.390  32.168  1.00  0.00     0.132 A 
ENDROOT
BRANCH   9  10
HETATM   10  N6  UNL     1      -8.681 -22.381  31.262  1.00  0.00    -0.279 N 
ATOM     11  H6  UNL     1      -7.895 -23.024  31.354  1.00  0.00     0.189 HD
BRANCH  10  12
HETATM   12  N7  UNL     1      -8.751 -21.438  30.237  1.00  0.00    -0.228 N 
HETATM   13  N8  UNL     1      -8.705 -21.794  29.041  1.00  0.00    -0.227 N 
ATOM     14  H8  UNL     1      -8.755 -21.093  28.302  1.00  0.00     0.210 HD
ATOM     15  H7  UNL     1      -8.841 -20.448  30.466  1.00  0.00     0.210 HD
BRANCH  13  16
HETATM   16  N9  UNL     1      -8.585 -23.136  28.710  1.00  0.00    -0.272 N 
ATOM     17  H9  UNL     1      -8.970 -23.881  29.292  1.00  0.00     0.190 HD
BRANCH  16  18
HETATM   18  C8  UNL     1      -7.873 -23.400  27.482  1.00  0.00     0.116 C 
HETATM   19  N10 UNL     1      -8.466 -23.693  26.387  1.00  0.00    -0.386 N 
ATOM     20 2H10 UNL     1      -9.483 -23.754  26.341  1.00  0.00     0.157 HD
ATOM     21 1H10 UNL     1      -7.963 -23.879  25.520  1.00  0.00     0.157 HD
BRANCH  18  22
HETATM   22  C9  UNL     1      -6.398 -23.311  27.550  1.00  0.00     0.308 C 
BRANCH  22  23
HETATM   23  N11 UNL     1      -5.860 -23.453  26.214  1.00  0.00    -0.072 N 
HETATM   24  C10 UNL     1      -4.744 -22.540  26.113  1.00  0.00     0.267 C 
ATOM     25 2H11 UNL     1      -5.614 -24.415  25.980  1.00  0.00     0.277 HD
ATOM     26 1H11 UNL     1      -6.558 -23.317  25.482  1.00  0.00     0.277 HD
ENDBRANCH  22  23
ENDBRANCH  18  22
ENDBRANCH  16  18
ENDBRANCH  13  16
ENDBRANCH  10  12
ENDBRANCH   9  10
BRANCH   1  27
HETATM   27  S1  UNL     1      -8.388 -20.627  33.731  1.00  0.00     0.277 S 
HETATM   28  O1  UNL     1      -8.131 -19.593  32.666  1.00  0.00    -0.199 OA
HETATM   29  O2  UNL     1      -7.166 -21.463  33.855  1.00  0.00    -0.199 OA
BRANCH  27  30
HETATM   30  N1  UNL     1      -8.658 -19.864  35.265  1.00  0.00    -0.314 N 
ATOM     31  H1  UNL     1      -9.566 -19.533  35.590  1.00  0.00     0.172 HD
BRANCH  30  32
HETATM   32  C3  UNL     1      -7.439 -19.759  36.019  1.00  0.00     0.132 C 
BRANCH  32  33
HETATM   33  C2  UNL     1      -7.663 -20.272  37.422  1.00  0.00     0.016 C 
HETATM   34  C1  UNL     1      -7.699 -21.781  37.361  1.00  0.00     0.006 C 
ENDBRANCH  32  33
ENDBRANCH  30  32
ENDBRANCH  27  30
ENDBRANCH   1  27
BRANCH   4  35
HETATM   35  N3  UNL     1     -12.951 -22.472  34.621  1.00  0.00    -0.234 N 
ATOM     36  H32 UNL     1     -13.870 -22.711  34.247  1.00  0.00     0.174 HD
ATOM     37  H31 UNL     1     -12.857 -22.262  35.615  1.00  0.00     0.174 HD
ENDBRANCH   4  35
TORSDOF 11
ENDMDL
