MODEL 1
REMARK VINA RESULT: -6.568976502      0.000      0.000
REMARK  12 active torsions:
REMARK  status: ('A' for Active; 'I' for Inactive)
REMARK    1  A    between atoms: N1_1  and  C1_5 
REMARK    2  A    between atoms: C1_5  and  C2_6 
REMARK    3  A    between atoms: C2_6  and  C3_7 
REMARK    4  A    between atoms: C2_6  and  N7_30 
REMARK    5  A    between atoms: C3_7  and  S1_8 
REMARK    6  A    between atoms: S1_8  and  S2_9 
REMARK    7  A    between atoms: S2_9  and  C4_10 
REMARK    8  A    between atoms: C4_10  and  C5_11 
REMARK    9  A    between atoms: C5_11  and  N2_12 
REMARK   10  A    between atoms: N2_12  and  C6_14 
REMARK   11  A    between atoms: C9_20  and  C10_21 
REMARK   12  A    between atoms: N5_23  and  O1_25 
ROOT
HETATM    1  N2  UNL     1      -9.640 -21.092  35.346  1.00  0.00    -0.395 N 
ATOM      2  H2  UNL     1      -9.784 -21.851  36.011  1.00  0.00     0.155 HD
ENDROOT
BRANCH   1   3
HETATM    3  C5  UNL     1      -8.751 -20.010  35.600  1.00  0.00     0.127 C 
BRANCH   3   4
HETATM    4  C4  UNL     1      -7.481 -20.588  36.199  1.00  0.00     0.105 C 
BRANCH   4   5
HETATM    5  S2  UNL     1      -7.317 -22.343  35.834  1.00  0.00    -0.096 SA
BRANCH   5   6
HETATM    6  S1  UNL     1      -6.608 -22.733  33.915  1.00  0.00    -0.096 SA
BRANCH   6   7
HETATM    7  C3  UNL     1      -6.891 -21.515  32.666  1.00  0.00     0.113 C 
BRANCH   7   8
HETATM    8  C2  UNL     1      -6.035 -21.634  31.447  1.00  0.00     0.119 C 
BRANCH   8   9
HETATM    9  C1  UNL     1      -5.241 -20.317  31.260  1.00  0.00     0.255 C 
BRANCH   9  10
HETATM   10  N1  UNL     1      -5.846 -19.279  32.109  1.00  0.00    -0.077 N 
ATOM     11  H13 UNL     1      -5.645 -18.336  31.777  1.00  0.00     0.274 HD
ATOM     12  H12 UNL     1      -6.862 -19.245  32.021  1.00  0.00     0.274 HD
ATOM     13  H11 UNL     1      -5.542 -19.427  33.071  1.00  0.00     0.274 HD
ENDBRANCH   9  10
ENDBRANCH   8   9
BRANCH   8  14
HETATM   14  N7  UNL     1      -6.851 -21.674  30.223  1.00  0.00    -0.360 N 
HETATM   15  C11 UNL     1      -6.636 -22.456  29.248  1.00  0.00     0.197 C 
HETATM   16  N8  UNL     1      -5.566 -23.371  29.273  1.00  0.00    -0.067 NA
HETATM   17  N9  UNL     1      -7.501 -22.391  28.123  1.00  0.00    -0.067 NA
ATOM     18  H7  UNL     1      -7.641 -21.032  30.154  1.00  0.00     0.162 HD
ENDBRANCH   8  14
ENDBRANCH   7   8
ENDBRANCH   6   7
ENDBRANCH   5   6
ENDBRANCH   4   5
ENDBRANCH   3   4
ENDBRANCH   1   3
BRANCH   1  19
HETATM   19  C6  UNL     1     -10.326 -21.034  34.072  1.00  0.00     0.284 C 
HETATM   20  C7  UNL     1     -11.731 -20.603  34.151  1.00  0.00     0.081 C 
HETATM   21  C8  UNL     1     -12.760 -21.668  34.392  1.00  0.00     0.239 C 
HETATM   22  N3  UNL     1     -12.428 -22.925  33.784  1.00  0.00    -0.039 N 
HETATM   23  C9  UNL     1     -11.440 -22.622  32.733  1.00  0.00     0.450 C 
ATOM     24  H32 UNL     1     -12.108 -23.627  34.451  1.00  0.00     0.280 HD
ATOM     25  H31 UNL     1     -13.240 -23.438  33.441  1.00  0.00     0.280 HD
HETATM   26  N6  UNL     1     -10.191 -22.272  33.359  1.00  0.00    -0.019 N 
ATOM     27  H62 UNL     1      -9.423 -22.244  32.688  1.00  0.00     0.282 HD
ATOM     28  H61 UNL     1      -9.841 -23.021  33.957  1.00  0.00     0.282 HD
BRANCH  23  29
HETATM   29  C10 UNL     1     -11.350 -23.785  31.832  1.00  0.00     0.171 C 
HETATM   30  N4  UNL     1     -12.258 -24.847  32.048  1.00  0.00    -0.082 NA
HETATM   31  N5  UNL     1     -10.519 -23.861  30.895  1.00  0.00    -0.256 N 
ATOM     32  H5  UNL     1     -10.535 -24.708  30.327  1.00  0.00     0.195 HD
BRANCH  31  33
HETATM   33  O1  UNL     1      -9.604 -22.921  30.571  1.00  0.00    -0.289 OA
ATOM     34  H1  UNL     1      -9.730 -22.215  29.948  1.00  0.00     0.244 HD
ENDBRANCH  31  33
ENDBRANCH  23  29
ENDBRANCH   1  19
TORSDOF 12
ENDMDL
MODEL 2
REMARK VINA RESULT: -6.529809206      2.028      2.916
REMARK  12 active torsions:
REMARK  status: ('A' for Active; 'I' for Inactive)
REMARK    1  A    between atoms: N1_1  and  C1_5 
REMARK    2  A    between atoms: C1_5  and  C2_6 
REMARK    3  A    between atoms: C2_6  and  C3_7 
REMARK    4  A    between atoms: C2_6  and  N7_30 
REMARK    5  A    between atoms: C3_7  and  S1_8 
REMARK    6  A    between atoms: S1_8  and  S2_9 
REMARK    7  A    between atoms: S2_9  and  C4_10 
REMARK    8  A    between atoms: C4_10  and  C5_11 
REMARK    9  A    between atoms: C5_11  and  N2_12 
REMARK   10  A    between atoms: N2_12  and  C6_14 
REMARK   11  A    between atoms: C9_20  and  C10_21 
REMARK   12  A    between atoms: N5_23  and  O1_25 
ROOT
HETATM    1  N2  UNL     1      -8.314 -22.014  34.642  1.00  0.00    -0.395 N 
ATOM      2  H2  UNL     1      -8.646 -22.452  35.501  1.00  0.00     0.155 HD
ENDROOT
BRANCH   1   3
HETATM    3  C5  UNL     1      -6.951 -21.659  34.442  1.00  0.00     0.127 C 
BRANCH   3   4
HETATM    4  C4  UNL     1      -6.557 -22.109  33.047  1.00  0.00     0.105 C 
BRANCH   4   5
HETATM    5  S2  UNL     1      -5.842 -20.760  32.093  1.00  0.00    -0.096 SA
BRANCH   5   6
HETATM    6  S1  UNL     1      -5.047 -21.360  30.265  1.00  0.00    -0.096 SA
BRANCH   6   7
HETATM    7  C3  UNL     1      -5.777 -22.756  29.464  1.00  0.00     0.113 C 
BRANCH   7   8
HETATM    8  C2  UNL     1      -6.505 -22.461  28.192  1.00  0.00     0.119 C 
BRANCH   8   9
HETATM    9  C1  UNL     1      -8.011 -22.758  28.394  1.00  0.00     0.255 C 
BRANCH   9  10
HETATM   10  N1  UNL     1      -8.485 -22.008  29.568  1.00  0.00    -0.077 N 
ATOM     11  H13 UNL     1      -7.731 -21.517  30.049  1.00  0.00     0.274 HD
ATOM     12  H12 UNL     1      -9.041 -21.192  29.312  1.00  0.00     0.274 HD
ATOM     13  H11 UNL     1      -8.989 -22.648  30.181  1.00  0.00     0.274 HD
ENDBRANCH   9  10
ENDBRANCH   8   9
BRANCH   8  14
HETATM   14  N7  UNL     1      -6.143 -23.419  27.135  1.00  0.00    -0.360 N 
HETATM   15  C11 UNL     1      -5.311 -23.178  26.209  1.00  0.00     0.197 C 
HETATM   16  N8  UNL     1      -4.653 -21.935  26.128  1.00  0.00    -0.067 NA
HETATM   17  N9  UNL     1      -5.053 -24.192  25.248  1.00  0.00    -0.067 NA
ATOM     18  H7  UNL     1      -6.590 -24.336  27.148  1.00  0.00     0.162 HD
ENDBRANCH   8  14
ENDBRANCH   7   8
ENDBRANCH   6   7
ENDBRANCH   5   6
ENDBRANCH   4   5
ENDBRANCH   3   4
ENDBRANCH   1   3
BRANCH   1  19
HETATM   19  C6  UNL     1      -9.195 -21.708  33.534  1.00  0.00     0.284 C 
HETATM   20  C7  UNL     1     -10.165 -20.633  33.802  1.00  0.00     0.081 C 
HETATM   21  C8  UNL     1     -11.470 -21.030  34.427  1.00  0.00     0.239 C 
HETATM   22  N3  UNL     1     -11.929 -22.323  34.007  1.00  0.00    -0.039 N 
HETATM   23  C9  UNL     1     -11.222 -22.620  32.749  1.00  0.00     0.450 C 
ATOM     24  H32 UNL     1     -11.814 -23.045  34.718  1.00  0.00     0.280 HD
ATOM     25  H31 UNL     1     -12.944 -22.387  33.927  1.00  0.00     0.280 HD
HETATM   26  N6  UNL     1      -9.841 -22.894  33.048  1.00  0.00    -0.019 N 
ATOM     27  H62 UNL     1      -9.350 -23.296  32.249  1.00  0.00     0.282 HD
ATOM     28  H61 UNL     1      -9.739 -23.677  33.695  1.00  0.00     0.282 HD
BRANCH  23  29
HETATM   29  C10 UNL     1     -11.918 -23.731  32.076  1.00  0.00     0.171 C 
HETATM   30  N4  UNL     1     -13.254 -23.990  32.462  1.00  0.00    -0.082 NA
HETATM   31  N5  UNL     1     -11.383 -24.435  31.187  1.00  0.00    -0.256 N 
ATOM     32  H5  UNL     1     -11.947 -25.181  30.782  1.00  0.00     0.195 HD
BRANCH  31  33
HETATM   33  O1  UNL     1     -10.124 -24.292  30.717  1.00  0.00    -0.289 OA
ATOM     34  H1  UNL     1      -9.433 -24.941  30.775  1.00  0.00     0.244 HD
ENDBRANCH  31  33
ENDBRANCH  23  29
ENDBRANCH   1  19
TORSDOF 12
ENDMDL
MODEL 3
REMARK VINA RESULT: -6.363302837      1.398      1.416
REMARK  12 active torsions:
REMARK  status: ('A' for Active; 'I' for Inactive)
REMARK    1  A    between atoms: N1_1  and  C1_5 
REMARK    2  A    between atoms: C1_5  and  C2_6 
REMARK    3  A    between atoms: C2_6  and  C3_7 
REMARK    4  A    between atoms: C2_6  and  N7_30 
REMARK    5  A    between atoms: C3_7  and  S1_8 
REMARK    6  A    between atoms: S1_8  and  S2_9 
REMARK    7  A    between atoms: S2_9  and  C4_10 
REMARK    8  A    between atoms: C4_10  and  C5_11 
REMARK    9  A    between atoms: C5_11  and  N2_12 
REMARK   10  A    between atoms: N2_12  and  C6_14 
REMARK   11  A    between atoms: C9_20  and  C10_21 
REMARK   12  A    between atoms: N5_23  and  O1_25 
ROOT
HETATM    1  N2  UNL     1      -9.569 -20.796  34.886  1.00  0.00    -0.395 N 
ATOM      2  H2  UNL     1      -9.680 -20.051  35.573  1.00  0.00     0.155 HD
ENDROOT
BRANCH   1   3
HETATM    3  C5  UNL     1      -8.598 -21.827  35.024  1.00  0.00     0.127 C 
BRANCH   3   4
HETATM    4  C4  UNL     1      -7.306 -21.183  35.493  1.00  0.00     0.105 C 
BRANCH   4   5
HETATM    5  S2  UNL     1      -6.904 -19.721  34.521  1.00  0.00    -0.096 SA
BRANCH   5   6
HETATM    6  S1  UNL     1      -6.445 -20.142  32.534  1.00  0.00    -0.096 SA
BRANCH   6   7
HETATM    7  C3  UNL     1      -6.774 -21.772  31.936  1.00  0.00     0.113 C 
BRANCH   7   8
HETATM    8  C2  UNL     1      -6.138 -22.118  30.629  1.00  0.00     0.119 C 
BRANCH   8   9
HETATM    9  C1  UNL     1      -5.061 -21.055  30.296  1.00  0.00     0.255 C 
BRANCH   9  10
HETATM   10  N1  UNL     1      -4.289 -21.516  29.132  1.00  0.00    -0.077 N 
ATOM     11  H13 UNL     1      -3.312 -21.228  29.172  1.00  0.00     0.274 HD
ATOM     12  H12 UNL     1      -4.138 -22.525  29.137  1.00  0.00     0.274 HD
ATOM     13  H11 UNL     1      -4.756 -21.195  28.284  1.00  0.00     0.274 HD
ENDBRANCH   9  10
ENDBRANCH   8   9
BRANCH   8  14
HETATM   14  N7  UNL     1      -7.085 -21.953  29.514  1.00  0.00    -0.360 N 
HETATM   15  C11 UNL     1      -7.201 -22.769  28.550  1.00  0.00     0.197 C 
HETATM   16  N8  UNL     1      -6.403 -23.928  28.479  1.00  0.00    -0.067 NA
HETATM   17  N9  UNL     1      -8.155 -22.489  27.536  1.00  0.00    -0.067 NA
ATOM     18  H7  UNL     1      -7.687 -21.130  29.518  1.00  0.00     0.162 HD
ENDBRANCH   8  14
ENDBRANCH   7   8
ENDBRANCH   6   7
ENDBRANCH   5   6
ENDBRANCH   4   5
ENDBRANCH   3   4
ENDBRANCH   1   3
BRANCH   1  19
HETATM   19  C6  UNL     1     -10.389 -20.884  33.695  1.00  0.00     0.284 C 
HETATM   20  C7  UNL     1     -11.811 -20.565  33.905  1.00  0.00     0.081 C 
HETATM   21  C8  UNL     1     -12.709 -21.692  34.324  1.00  0.00     0.239 C 
HETATM   22  N3  UNL     1     -12.332 -22.957  33.760  1.00  0.00    -0.039 N 
HETATM   23  C9  UNL     1     -11.494 -22.649  32.590  1.00  0.00     0.450 C 
ATOM     24  H32 UNL     1     -11.882 -23.582  34.429  1.00  0.00     0.280 HD
ATOM     25  H31 UNL     1     -13.128 -23.558  33.543  1.00  0.00     0.280 HD
HETATM   26  N6  UNL     1     -10.222 -22.154  33.048  1.00  0.00    -0.019 N 
ATOM     27  H62 UNL     1      -9.535 -22.111  32.295  1.00  0.00     0.282 HD
ATOM     28  H61 UNL     1      -9.744 -22.828  33.648  1.00  0.00     0.282 HD
BRANCH  23  29
HETATM   29  C10 UNL     1     -11.396 -23.861  31.756  1.00  0.00     0.171 C 
HETATM   30  N4  UNL     1     -12.228 -24.953  32.097  1.00  0.00    -0.082 NA
HETATM   31  N5  UNL     1     -10.625 -23.954  30.771  1.00  0.00    -0.256 N 
ATOM     32  H5  UNL     1     -10.630 -24.835  30.258  1.00  0.00     0.195 HD
BRANCH  31  33
HETATM   33  O1  UNL     1      -9.788 -22.990  30.329  1.00  0.00    -0.289 OA
ATOM     34  H1  UNL     1      -9.454 -22.907  29.444  1.00  0.00     0.244 HD
ENDBRANCH  31  33
ENDBRANCH  23  29
ENDBRANCH   1  19
TORSDOF 12
ENDMDL
MODEL 4
REMARK VINA RESULT: -6.316739596      2.536      6.506
REMARK  12 active torsions:
REMARK  status: ('A' for Active; 'I' for Inactive)
REMARK    1  A    between atoms: N1_1  and  C1_5 
REMARK    2  A    between atoms: C1_5  and  C2_6 
REMARK    3  A    between atoms: C2_6  and  C3_7 
REMARK    4  A    between atoms: C2_6  and  N7_30 
REMARK    5  A    between atoms: C3_7  and  S1_8 
REMARK    6  A    between atoms: S1_8  and  S2_9 
REMARK    7  A    between atoms: S2_9  and  C4_10 
REMARK    8  A    between atoms: C4_10  and  C5_11 
REMARK    9  A    between atoms: C5_11  and  N2_12 
REMARK   10  A    between atoms: N2_12  and  C6_14 
REMARK   11  A    between atoms: C9_20  and  C10_21 
REMARK   12  A    between atoms: N5_23  and  O1_25 
ROOT
HETATM    1  N2  UNL     1      -5.731 -22.295  30.826  1.00  0.00    -0.395 N 
ATOM      2  H2  UNL     1      -5.662 -23.288  31.045  1.00  0.00     0.155 HD
ENDROOT
BRANCH   1   3
HETATM    3  C5  UNL     1      -5.460 -21.279  31.784  1.00  0.00     0.127 C 
BRANCH   3   4
HETATM    4  C4  UNL     1      -6.449 -21.443  32.923  1.00  0.00     0.105 C 
BRANCH   4   5
HETATM    5  S2  UNL     1      -6.894 -19.855  33.647  1.00  0.00    -0.096 SA
BRANCH   5   6
HETATM    6  S1  UNL     1      -8.059 -20.020  35.365  1.00  0.00    -0.096 SA
BRANCH   6   7
HETATM    7  C3  UNL     1      -9.300 -21.277  35.406  1.00  0.00     0.113 C 
BRANCH   7   8
HETATM    8  C2  UNL     1     -10.382 -21.146  34.383  1.00  0.00     0.119 C 
BRANCH   8   9
HETATM    9  C1  UNL     1     -11.749 -21.418  35.059  1.00  0.00     0.255 C 
BRANCH   9  10
HETATM   10  N1  UNL     1     -12.812 -20.850  34.215  1.00  0.00    -0.077 N 
ATOM     11  H13 UNL     1     -12.490 -20.053  33.665  1.00  0.00     0.274 HD
ATOM     12  H12 UNL     1     -13.065 -21.462  33.440  1.00  0.00     0.274 HD
ATOM     13  H11 UNL     1     -13.609 -20.619  34.808  1.00  0.00     0.274 HD
ENDBRANCH   9  10
ENDBRANCH   8   9
BRANCH   8  14
HETATM   14  N7  UNL     1     -10.311 -22.230  33.389  1.00  0.00    -0.360 N 
HETATM   15  C11 UNL     1      -9.981 -22.065  32.176  1.00  0.00     0.197 C 
HETATM   16  N8  UNL     1      -9.647 -20.789  31.681  1.00  0.00    -0.067 NA
HETATM   17  N9  UNL     1      -9.954 -23.198  31.320  1.00  0.00    -0.067 NA
ATOM     18  H7  UNL     1     -10.542 -23.175  33.697  1.00  0.00     0.162 HD
ENDBRANCH   8  14
ENDBRANCH   7   8
ENDBRANCH   6   7
ENDBRANCH   5   6
ENDBRANCH   4   5
ENDBRANCH   3   4
ENDBRANCH   1   3
BRANCH   1  19
HETATM   19  C6  UNL     1      -6.114 -21.813  29.515  1.00  0.00     0.284 C 
HETATM   20  C7  UNL     1      -7.480 -22.178  29.102  1.00  0.00     0.081 C 
HETATM   21  C8  UNL     1      -7.654 -23.498  28.411  1.00  0.00     0.239 C 
HETATM   22  N3  UNL     1      -6.535 -23.860  27.589  1.00  0.00    -0.039 N 
HETATM   23  C9  UNL     1      -5.805 -22.610  27.318  1.00  0.00     0.450 C 
ATOM     24  H32 UNL     1      -5.951 -24.591  27.997  1.00  0.00     0.280 HD
ATOM     25  H31 UNL     1      -6.798 -24.368  26.744  1.00  0.00     0.280 HD
HETATM   26  N6  UNL     1      -5.144 -22.188  28.526  1.00  0.00    -0.019 N 
ATOM     27  H62 UNL     1      -4.470 -21.442  28.351  1.00  0.00     0.282 HD
ATOM     28  H61 UNL     1      -4.498 -22.897  28.874  1.00  0.00     0.282 HD
BRANCH  23  29
HETATM   29  C10 UNL     1      -4.888 -22.843  26.187  1.00  0.00     0.171 C 
HETATM   30  N4  UNL     1      -4.877 -24.136  25.616  1.00  0.00    -0.082 NA
HETATM   31  N5  UNL     1      -4.140 -21.952  25.719  1.00  0.00    -0.256 N 
ATOM     32  H5  UNL     1      -3.541 -22.212  24.936  1.00  0.00     0.195 HD
BRANCH  31  33
HETATM   33  O1  UNL     1      -4.057 -20.677  26.159  1.00  0.00    -0.289 OA
ATOM     34  H1  UNL     1      -4.763 -20.179  26.555  1.00  0.00     0.244 HD
ENDBRANCH  31  33
ENDBRANCH  23  29
ENDBRANCH   1  19
TORSDOF 12
ENDMDL
MODEL 5
REMARK VINA RESULT: -6.293640225      1.617      5.827
REMARK  12 active torsions:
REMARK  status: ('A' for Active; 'I' for Inactive)
REMARK    1  A    between atoms: N1_1  and  C1_5 
REMARK    2  A    between atoms: C1_5  and  C2_6 
REMARK    3  A    between atoms: C2_6  and  C3_7 
REMARK    4  A    between atoms: C2_6  and  N7_30 
REMARK    5  A    between atoms: C3_7  and  S1_8 
REMARK    6  A    between atoms: S1_8  and  S2_9 
REMARK    7  A    between atoms: S2_9  and  C4_10 
REMARK    8  A    between atoms: C4_10  and  C5_11 
REMARK    9  A    between atoms: C5_11  and  N2_12 
REMARK   10  A    between atoms: N2_12  and  C6_14 
REMARK   11  A    between atoms: C9_20  and  C10_21 
REMARK   12  A    between atoms: N5_23  and  O1_25 
ROOT
HETATM    1  N2  UNL     1      -6.492 -20.747  31.304  1.00  0.00    -0.395 N 
ATOM      2  H2  UNL     1      -6.695 -19.922  30.742  1.00  0.00     0.155 HD
ENDROOT
BRANCH   1   3
HETATM    3  C5  UNL     1      -6.353 -20.693  32.720  1.00  0.00     0.127 C 
BRANCH   3   4
HETATM    4  C4  UNL     1      -6.679 -22.071  33.268  1.00  0.00     0.105 C 
BRANCH   4   5
HETATM    5  S2  UNL     1      -7.027 -22.015  35.034  1.00  0.00    -0.096 SA
BRANCH   5   6
HETATM    6  S1  UNL     1      -8.492 -20.630  35.551  1.00  0.00    -0.096 SA
BRANCH   6   7
HETATM    7  C3  UNL     1     -10.182 -21.137  35.449  1.00  0.00     0.113 C 
BRANCH   7   8
HETATM    8  C2  UNL     1     -10.806 -21.028  34.095  1.00  0.00     0.119 C 
BRANCH   8   9
HETATM    9  C1  UNL     1     -12.345 -21.114  34.243  1.00  0.00     0.255 C 
BRANCH   9  10
HETATM   10  N1  UNL     1     -12.728 -22.530  34.355  1.00  0.00    -0.077 N 
ATOM     11  H13 UNL     1     -11.963 -23.117  34.687  1.00  0.00     0.274 HD
ATOM     12  H12 UNL     1     -13.379 -22.700  35.122  1.00  0.00     0.274 HD
ATOM     13  H11 UNL     1     -13.096 -22.840  33.455  1.00  0.00     0.274 HD
ENDBRANCH   9  10
ENDBRANCH   8   9
BRANCH   8  14
HETATM   14  N7  UNL     1     -10.511 -22.214  33.275  1.00  0.00    -0.360 N 
HETATM   15  C11 UNL     1      -9.964 -22.170  32.131  1.00  0.00     0.197 C 
HETATM   16  N8  UNL     1      -9.590 -20.943  31.550  1.00  0.00    -0.067 NA
HETATM   17  N9  UNL     1      -9.737 -23.392  31.442  1.00  0.00    -0.067 NA
ATOM     18  H7  UNL     1     -10.761 -23.128  33.650  1.00  0.00     0.162 HD
ENDBRANCH   8  14
ENDBRANCH   7   8
ENDBRANCH   6   7
ENDBRANCH   5   6
ENDBRANCH   4   5
ENDBRANCH   3   4
ENDBRANCH   1   3
BRANCH   1  19
HETATM   19  C6  UNL     1      -6.324 -22.063  30.723  1.00  0.00     0.284 C 
HETATM   20  C7  UNL     1      -4.935 -22.406  30.375  1.00  0.00     0.081 C 
HETATM   21  C8  UNL     1      -4.451 -21.999  29.014  1.00  0.00     0.239 C 
HETATM   22  N3  UNL     1      -5.476 -22.047  28.011  1.00  0.00    -0.039 N 
HETATM   23  C9  UNL     1      -6.527 -22.932  28.541  1.00  0.00     0.450 C 
ATOM     24  H32 UNL     1      -5.820 -21.126  27.737  1.00  0.00     0.280 HD
ATOM     25  H31 UNL     1      -5.132 -22.330  27.093  1.00  0.00     0.280 HD
HETATM   26  N6  UNL     1      -7.210 -22.250  29.610  1.00  0.00    -0.019 N 
ATOM     27  H62 UNL     1      -8.068 -22.731  29.882  1.00  0.00     0.282 HD
ATOM     28  H61 UNL     1      -7.623 -21.371  29.299  1.00  0.00     0.282 HD
BRANCH  23  29
HETATM   29  C10 UNL     1      -7.408 -23.327  27.427  1.00  0.00     0.171 C 
HETATM   30  N4  UNL     1      -6.919 -23.138  26.114  1.00  0.00    -0.082 NA
HETATM   31  N5  UNL     1      -8.548 -23.821  27.599  1.00  0.00    -0.256 N 
ATOM     32  H5  UNL     1      -9.081 -24.061  26.763  1.00  0.00     0.195 HD
BRANCH  31  33
HETATM   33  O1  UNL     1      -9.132 -24.065  28.792  1.00  0.00    -0.289 OA
ATOM     34  H1  UNL     1      -9.923 -23.651  29.118  1.00  0.00     0.244 HD
ENDBRANCH  31  33
ENDBRANCH  23  29
ENDBRANCH   1  19
TORSDOF 12
ENDMDL
