MODEL 1
REMARK VINA RESULT: -5.574373601      0.000      0.000
REMARK  14 active torsions:
REMARK  status: ('A' for Active; 'I' for Inactive)
REMARK    1  A    between atoms: C2_2  and  N1_3 
REMARK    2  A    between atoms: N1_3  and  C3_4 
REMARK    3  A    between atoms: C3_4  and  N2_5 
REMARK    4  A    between atoms: N2_5  and  C4_8 
REMARK    5  A    between atoms: C4_8  and  C5_9 
REMARK    6  A    between atoms: C5_9  and  O1_10 
REMARK    7  A    between atoms: C7_13  and  C8_14 
REMARK    8  A    between atoms: C8_14  and  C9_15 
REMARK    9  A    between atoms: C9_15  and  C10_16 
REMARK   10  A    between atoms: C10_16  and  O2_17 
REMARK   11  A    between atoms: C11_19  and  O3_20 
REMARK   12  A    between atoms: C12_22  and  O4_23 
REMARK   13  A    between atoms: C13_25  and  C14_26 
REMARK   14  A    between atoms: C14_26  and  O5_27 
ROOT
HETATM    1  N1  UNL     1      11.067  32.357  -6.104  1.00  0.00    -0.035 N 
HETATM    2  C6  UNL     1       9.720  32.384  -6.578  1.00  0.00     0.247 C 
HETATM    3  C7  UNL     1       9.361  33.504  -7.490  1.00  0.00     0.043 C 
HETATM    4  C11 UNL     1       9.754  34.805  -6.878  1.00  0.00     0.154 C 
HETATM    5  C12 UNL     1      11.185  34.795  -6.402  1.00  0.00     0.180 C 
HETATM    6  C13 UNL     1      11.495  33.598  -5.540  1.00  0.00     0.246 C 
ENDROOT
BRANCH   1   7
HETATM    7  C2  UNL     1      11.109  31.330  -5.065  1.00  0.00     0.236 C 
HETATM    8  C1  UNL     1       9.785  31.023  -4.451  1.00  0.00     0.035 C 
ENDBRANCH   1   7
BRANCH   1   9
HETATM    9  C3  UNL     1      11.896  31.865  -7.186  1.00  0.00     0.468 C 
BRANCH   9  10
HETATM   10  N2  UNL     1      12.448  30.538  -6.916  1.00  0.00    -0.049 N 
ATOM     11  H22 UNL     1      12.846  30.480  -5.978  1.00  0.00     0.279 HD
ATOM     12  H21 UNL     1      11.714  29.838  -6.816  1.00  0.00     0.279 HD
BRANCH  10  13
HETATM   13  C4  UNL     1      13.413  30.162  -7.934  1.00  0.00     0.260 C 
BRANCH  13  14
HETATM   14  C5  UNL     1      14.713  30.905  -7.842  1.00  0.00     0.191 C 
BRANCH  14  15
HETATM   15  O1  UNL     1      15.127  31.230  -9.133  1.00  0.00    -0.399 OA
ATOM     16  H1  UNL     1      14.761  32.076  -9.361  1.00  0.00     0.209 HD
ENDBRANCH  14  15
ENDBRANCH  13  14
ENDBRANCH  10  13
ENDBRANCH   9  10
ENDBRANCH   1   9
BRANCH   6  17
HETATM   17  C14 UNL     1      12.923  33.672  -5.140  1.00  0.00     0.200 C 
BRANCH  17  18
HETATM   18  O5  UNL     1      13.246  35.050  -5.015  1.00  0.00    -0.399 OA
ATOM     19  H5  UNL     1      14.016  35.105  -4.460  1.00  0.00     0.209 HD
ENDBRANCH  17  18
ENDBRANCH   6  17
BRANCH   3  20
HETATM   20  C8  UNL     1       7.845  33.515  -7.635  1.00  0.00     0.011 C 
BRANCH  20  21
HETATM   21  C9  UNL     1       7.394  33.124  -9.009  1.00  0.00     0.027 C 
BRANCH  21  22
HETATM   22  C10 UNL     1       7.048  34.403  -9.753  1.00  0.00     0.164 C 
BRANCH  22  23
HETATM   23  O2  UNL     1       8.175  35.124 -10.097  1.00  0.00    -0.401 OA
ATOM     24  H2  UNL     1       8.587  34.786 -10.884  1.00  0.00     0.209 HD
ENDBRANCH  22  23
ENDBRANCH  21  22
ENDBRANCH  20  21
ENDBRANCH   3  20
BRANCH   5  25
HETATM   25  O4  UNL     1      12.084  34.868  -7.454  1.00  0.00    -0.391 OA
ATOM     26  H4  UNL     1      12.943  34.542  -7.213  1.00  0.00     0.210 HD
ENDBRANCH   5  25
BRANCH   4  27
HETATM   27  O3  UNL     1       9.632  35.795  -7.868  1.00  0.00    -0.393 OA
ATOM     28  H3  UNL     1      10.251  36.486  -7.663  1.00  0.00     0.210 HD
ENDBRANCH   4  27
TORSDOF 14
ENDMDL
MODEL 2
REMARK VINA RESULT: -5.288741271      1.938      2.212
REMARK  14 active torsions:
REMARK  status: ('A' for Active; 'I' for Inactive)
REMARK    1  A    between atoms: C2_2  and  N1_3 
REMARK    2  A    between atoms: N1_3  and  C3_4 
REMARK    3  A    between atoms: C3_4  and  N2_5 
REMARK    4  A    between atoms: N2_5  and  C4_8 
REMARK    5  A    between atoms: C4_8  and  C5_9 
REMARK    6  A    between atoms: C5_9  and  O1_10 
REMARK    7  A    between atoms: C7_13  and  C8_14 
REMARK    8  A    between atoms: C8_14  and  C9_15 
REMARK    9  A    between atoms: C9_15  and  C10_16 
REMARK   10  A    between atoms: C10_16  and  O2_17 
REMARK   11  A    between atoms: C11_19  and  O3_20 
REMARK   12  A    between atoms: C12_22  and  O4_23 
REMARK   13  A    between atoms: C13_25  and  C14_26 
REMARK   14  A    between atoms: C14_26  and  O5_27 
ROOT
HETATM    1  N1  UNL     1       9.928  30.800  -6.804  1.00  0.00    -0.035 N 
HETATM    2  C6  UNL     1       8.721  31.293  -7.387  1.00  0.00     0.247 C 
HETATM    3  C7  UNL     1       8.784  32.650  -7.995  1.00  0.00     0.043 C 
HETATM    4  C11 UNL     1       9.358  33.619  -7.019  1.00  0.00     0.154 C 
HETATM    5  C12 UNL     1      10.650  33.119  -6.421  1.00  0.00     0.180 C 
HETATM    6  C13 UNL     1      10.529  31.715  -5.886  1.00  0.00     0.246 C 
ENDROOT
BRANCH   1   7
HETATM    7  C2  UNL     1       9.562  29.584  -6.082  1.00  0.00     0.236 C 
HETATM    8  C1  UNL     1       8.095  29.315  -6.036  1.00  0.00     0.035 C 
ENDBRANCH   1   7
BRANCH   1   9
HETATM    9  C3  UNL     1      10.790  30.376  -7.889  1.00  0.00     0.468 C 
BRANCH   9  10
HETATM   10  N2  UNL     1      11.062  28.939  -7.866  1.00  0.00    -0.049 N 
ATOM     11  H22 UNL     1      11.007  28.561  -6.920  1.00  0.00     0.279 HD
ATOM     12  H21 UNL     1      10.303  28.406  -8.289  1.00  0.00     0.279 HD
BRANCH  10  13
HETATM   13  C4  UNL     1      12.340  28.644  -8.489  1.00  0.00     0.260 C 
BRANCH  13  14
HETATM   14  C5  UNL     1      12.258  27.629  -9.590  1.00  0.00     0.191 C 
BRANCH  14  15
HETATM   15  O1  UNL     1      13.463  27.640 -10.290  1.00  0.00    -0.399 OA
ATOM     16  H1  UNL     1      13.270  27.616 -11.220  1.00  0.00     0.209 HD
ENDBRANCH  14  15
ENDBRANCH  13  14
ENDBRANCH  10  13
ENDBRANCH   9  10
ENDBRANCH   1   9
BRANCH   6  17
HETATM   17  C14 UNL     1      11.851  31.314  -5.340  1.00  0.00     0.200 C 
BRANCH  17  18
HETATM   18  O5  UNL     1      12.334  32.411  -4.579  1.00  0.00    -0.399 OA
ATOM     19  H5  UNL     1      12.080  32.257  -3.676  1.00  0.00     0.209 HD
ENDBRANCH  17  18
ENDBRANCH   6  17
BRANCH   3  20
HETATM   20  C8  UNL     1       7.356  33.094  -8.284  1.00  0.00     0.011 C 
BRANCH  20  21
HETATM   21  C9  UNL     1       7.027  33.062  -9.744  1.00  0.00     0.027 C 
BRANCH  21  22
HETATM   22  C10 UNL     1       6.963  34.501 -10.226  1.00  0.00     0.164 C 
BRANCH  22  23
HETATM   23  O2  UNL     1       8.167  35.158 -10.060  1.00  0.00    -0.401 OA
ATOM     24  H2  UNL     1       8.506  35.495 -10.881  1.00  0.00     0.209 HD
ENDBRANCH  22  23
ENDBRANCH  21  22
ENDBRANCH  20  21
ENDBRANCH   3  20
BRANCH   5  25
HETATM   25  O4  UNL     1      11.703  33.198  -7.318  1.00  0.00    -0.391 OA
ATOM     26  H4  UNL     1      11.579  33.895  -7.952  1.00  0.00     0.210 HD
ENDBRANCH   5  25
BRANCH   4  27
HETATM   27  O3  UNL     1       9.632  34.810  -7.712  1.00  0.00    -0.393 OA
ATOM     28  H3  UNL     1      10.573  34.867  -7.828  1.00  0.00     0.210 HD
ENDBRANCH   4  27
TORSDOF 14
ENDMDL
MODEL 3
REMARK VINA RESULT: -5.282720641      3.093      4.900
REMARK  14 active torsions:
REMARK  status: ('A' for Active; 'I' for Inactive)
REMARK    1  A    between atoms: C2_2  and  N1_3 
REMARK    2  A    between atoms: N1_3  and  C3_4 
REMARK    3  A    between atoms: C3_4  and  N2_5 
REMARK    4  A    between atoms: N2_5  and  C4_8 
REMARK    5  A    between atoms: C4_8  and  C5_9 
REMARK    6  A    between atoms: C5_9  and  O1_10 
REMARK    7  A    between atoms: C7_13  and  C8_14 
REMARK    8  A    between atoms: C8_14  and  C9_15 
REMARK    9  A    between atoms: C9_15  and  C10_16 
REMARK   10  A    between atoms: C10_16  and  O2_17 
REMARK   11  A    between atoms: C11_19  and  O3_20 
REMARK   12  A    between atoms: C12_22  and  O4_23 
REMARK   13  A    between atoms: C13_25  and  C14_26 
REMARK   14  A    between atoms: C14_26  and  O5_27 
ROOT
HETATM    1  N1  UNL     1       9.177  33.617  -6.848  1.00  0.00    -0.035 N 
HETATM    2  C6  UNL     1       8.084  33.143  -6.061  1.00  0.00     0.247 C 
HETATM    3  C7  UNL     1       7.641  34.022  -4.945  1.00  0.00     0.043 C 
HETATM    4  C11 UNL     1       8.808  34.396  -4.096  1.00  0.00     0.154 C 
HETATM    5  C12 UNL     1       9.957  34.925  -4.918  1.00  0.00     0.180 C 
HETATM    6  C13 UNL     1      10.306  34.017  -6.069  1.00  0.00     0.246 C 
ENDROOT
BRANCH   1   7
HETATM    7  C2  UNL     1       9.572  32.501  -7.705  1.00  0.00     0.236 C 
HETATM    8  C1  UNL     1       9.022  31.179  -7.284  1.00  0.00     0.035 C 
ENDBRANCH   1   7
BRANCH   1   9
HETATM    9  C3  UNL     1       8.661  34.639  -7.736  1.00  0.00     0.468 C 
BRANCH   9  10
HETATM   10  N2  UNL     1       8.453  34.151  -9.098  1.00  0.00    -0.049 N 
ATOM     11  H22 UNL     1       9.067  34.620  -9.764  1.00  0.00     0.279 HD
ATOM     12  H21 UNL     1       8.798  33.199  -9.214  1.00  0.00     0.279 HD
BRANCH  10  13
HETATM   13  C4  UNL     1       7.057  34.267  -9.482  1.00  0.00     0.260 C 
BRANCH  13  14
HETATM   14  C5  UNL     1       6.495  33.026 -10.108  1.00  0.00     0.191 C 
BRANCH  14  15
HETATM   15  O1  UNL     1       7.245  32.728 -11.245  1.00  0.00    -0.399 OA
ATOM     16  H1  UNL     1       7.609  33.537 -11.585  1.00  0.00     0.209 HD
ENDBRANCH  14  15
ENDBRANCH  13  14
ENDBRANCH  10  13
ENDBRANCH   9  10
ENDBRANCH   1   9
BRANCH   6  17
HETATM   17  C14 UNL     1      11.429  34.633  -6.820  1.00  0.00     0.200 C 
BRANCH  17  18
HETATM   18  O5  UNL     1      12.409  35.011  -5.863  1.00  0.00    -0.399 OA
ATOM     19  H5  UNL     1      13.208  35.198  -6.343  1.00  0.00     0.209 HD
ENDBRANCH  17  18
ENDBRANCH   6  17
BRANCH   3  20
HETATM   20  C8  UNL     1       6.688  33.218  -4.071  1.00  0.00     0.011 C 
BRANCH  20  21
HETATM   21  C9  UNL     1       5.279  33.722  -4.139  1.00  0.00     0.027 C 
BRANCH  21  22
HETATM   22  C10 UNL     1       5.039  34.561  -2.895  1.00  0.00     0.164 C 
BRANCH  22  23
HETATM   23  O2  UNL     1       5.413  35.878  -3.078  1.00  0.00    -0.401 OA
ATOM     24  H2  UNL     1       4.682  36.475  -2.965  1.00  0.00     0.209 HD
ENDBRANCH  22  23
ENDBRANCH  21  22
ENDBRANCH  20  21
ENDBRANCH   3  20
BRANCH   5  25
HETATM   25  O4  UNL     1       9.717  36.209  -5.380  1.00  0.00    -0.391 OA
ATOM     26  H4  UNL     1      10.206  36.400  -6.172  1.00  0.00     0.210 HD
ENDBRANCH   5  25
BRANCH   4  27
HETATM   27  O3  UNL     1       8.391  35.415  -3.223  1.00  0.00    -0.393 OA
ATOM     28  H3  UNL     1       7.943  35.004  -2.492  1.00  0.00     0.210 HD
ENDBRANCH   4  27
TORSDOF 14
ENDMDL
MODEL 4
REMARK VINA RESULT: -5.198913616      2.895      5.373
REMARK  14 active torsions:
REMARK  status: ('A' for Active; 'I' for Inactive)
REMARK    1  A    between atoms: C2_2  and  N1_3 
REMARK    2  A    between atoms: N1_3  and  C3_4 
REMARK    3  A    between atoms: C3_4  and  N2_5 
REMARK    4  A    between atoms: N2_5  and  C4_8 
REMARK    5  A    between atoms: C4_8  and  C5_9 
REMARK    6  A    between atoms: C5_9  and  O1_10 
REMARK    7  A    between atoms: C7_13  and  C8_14 
REMARK    8  A    between atoms: C8_14  and  C9_15 
REMARK    9  A    between atoms: C9_15  and  C10_16 
REMARK   10  A    between atoms: C10_16  and  O2_17 
REMARK   11  A    between atoms: C11_19  and  O3_20 
REMARK   12  A    between atoms: C12_22  and  O4_23 
REMARK   13  A    between atoms: C13_25  and  C14_26 
REMARK   14  A    between atoms: C14_26  and  O5_27 
ROOT
HETATM    1  N1  UNL     1       8.520  33.588  -6.732  1.00  0.00    -0.035 N 
HETATM    2  C6  UNL     1       8.411  34.542  -5.674  1.00  0.00     0.247 C 
HETATM    3  C7  UNL     1       9.638  35.323  -5.359  1.00  0.00     0.043 C 
HETATM    4  C11 UNL     1      10.790  34.400  -5.151  1.00  0.00     0.154 C 
HETATM    5  C12 UNL     1      10.930  33.409  -6.278  1.00  0.00     0.180 C 
HETATM    6  C13 UNL     1       9.633  32.705  -6.587  1.00  0.00     0.246 C 
ENDROOT
BRANCH   1   7
HETATM    7  C2  UNL     1       7.289  32.801  -6.694  1.00  0.00     0.236 C 
HETATM    8  C1  UNL     1       6.661  32.708  -5.344  1.00  0.00     0.035 C 
ENDBRANCH   1   7
BRANCH   1   9
HETATM    9  C3  UNL     1       8.486  34.322  -7.981  1.00  0.00     0.468 C 
BRANCH   9  10
HETATM   10  N2  UNL     1       7.181  34.260  -8.638  1.00  0.00    -0.049 N 
ATOM     11  H22 UNL     1       6.740  33.348  -8.514  1.00  0.00     0.279 HD
ATOM     12  H21 UNL     1       6.490  34.833  -8.156  1.00  0.00     0.279 HD
BRANCH  10  13
HETATM   13  C4  UNL     1       7.291  34.616 -10.042  1.00  0.00     0.260 C 
BRANCH  13  14
HETATM   14  C5  UNL     1       6.411  33.804 -10.944  1.00  0.00     0.191 C 
BRANCH  14  15
HETATM   15  O1  UNL     1       7.125  32.682 -11.362  1.00  0.00    -0.399 OA
ATOM     16  H1  UNL     1       6.578  32.182 -11.956  1.00  0.00     0.209 HD
ENDBRANCH  14  15
ENDBRANCH  13  14
ENDBRANCH  10  13
ENDBRANCH   9  10
ENDBRANCH   1   9
BRANCH   6  17
HETATM   17  C14 UNL     1       9.872  31.770  -7.716  1.00  0.00     0.200 C 
BRANCH  17  18
HETATM   18  O5  UNL     1      11.158  31.199  -7.516  1.00  0.00    -0.399 OA
ATOM     19  H5  UNL     1      11.556  31.106  -8.374  1.00  0.00     0.209 HD
ENDBRANCH  17  18
ENDBRANCH   6  17
BRANCH   3  20
HETATM   20  C8  UNL     1       9.399  36.048  -4.041  1.00  0.00     0.011 C 
BRANCH  20  21
HETATM   21  C9  UNL     1       7.984  35.930  -3.566  1.00  0.00     0.027 C 
BRANCH  21  22
HETATM   22  C10 UNL     1       7.694  37.142  -2.698  1.00  0.00     0.164 C 
BRANCH  22  23
HETATM   23  O2  UNL     1       8.228  37.011  -1.430  1.00  0.00    -0.401 OA
ATOM     24  H2  UNL     1       8.874  37.682  -1.244  1.00  0.00     0.209 HD
ENDBRANCH  22  23
ENDBRANCH  21  22
ENDBRANCH  20  21
ENDBRANCH   3  20
BRANCH   5  25
HETATM   25  O4  UNL     1      11.438  33.995  -7.426  1.00  0.00    -0.391 OA
ATOM     26  H4  UNL     1      11.096  33.590  -8.215  1.00  0.00     0.210 HD
ENDBRANCH   5  25
BRANCH   4  27
HETATM   27  O3  UNL     1      11.959  35.180  -5.110  1.00  0.00    -0.393 OA
ATOM     28  H3  UNL     1      12.474  34.890  -4.366  1.00  0.00     0.210 HD
ENDBRANCH   4  27
TORSDOF 14
ENDMDL
MODEL 5
REMARK VINA RESULT: -5.059323745      3.223      5.102
REMARK  14 active torsions:
REMARK  status: ('A' for Active; 'I' for Inactive)
REMARK    1  A    between atoms: C2_2  and  N1_3 
REMARK    2  A    between atoms: N1_3  and  C3_4 
REMARK    3  A    between atoms: C3_4  and  N2_5 
REMARK    4  A    between atoms: N2_5  and  C4_8 
REMARK    5  A    between atoms: C4_8  and  C5_9 
REMARK    6  A    between atoms: C5_9  and  O1_10 
REMARK    7  A    between atoms: C7_13  and  C8_14 
REMARK    8  A    between atoms: C8_14  and  C9_15 
REMARK    9  A    between atoms: C9_15  and  C10_16 
REMARK   10  A    between atoms: C10_16  and  O2_17 
REMARK   11  A    between atoms: C11_19  and  O3_20 
REMARK   12  A    between atoms: C12_22  and  O4_23 
REMARK   13  A    between atoms: C13_25  and  C14_26 
REMARK   14  A    between atoms: C14_26  and  O5_27 
ROOT
HETATM    1  N1  UNL     1       8.550  33.501  -5.688  1.00  0.00    -0.035 N 
HETATM    2  C6  UNL     1       7.905  33.976  -4.506  1.00  0.00     0.247 C 
HETATM    3  C7  UNL     1       8.082  35.419  -4.189  1.00  0.00     0.043 C 
HETATM    4  C11 UNL     1       9.531  35.769  -4.202  1.00  0.00     0.154 C 
HETATM    5  C12 UNL     1      10.214  35.297  -5.462  1.00  0.00     0.180 C 
HETATM    6  C13 UNL     1       9.935  33.845  -5.756  1.00  0.00     0.246 C 
ENDROOT
BRANCH   1   7
HETATM    7  C2  UNL     1       8.431  32.044  -5.657  1.00  0.00     0.236 C 
HETATM    8  C1  UNL     1       8.927  31.415  -4.398  1.00  0.00     0.035 C 
ENDBRANCH   1   7
BRANCH   1   9
HETATM    9  C3  UNL     1       7.760  33.941  -6.820  1.00  0.00     0.468 C 
BRANCH   9  10
HETATM   10  N2  UNL     1       7.265  32.830  -7.631  1.00  0.00    -0.049 N 
ATOM     11  H22 UNL     1       7.688  31.944  -7.353  1.00  0.00     0.279 HD
ATOM     12  H21 UNL     1       6.293  32.611  -7.417  1.00  0.00     0.279 HD
BRANCH  10  13
HETATM   13  C4  UNL     1       7.457  33.096  -9.046  1.00  0.00     0.260 C 
BRANCH  13  14
HETATM   14  C5  UNL     1       7.135  34.505  -9.447  1.00  0.00     0.191 C 
BRANCH  14  15
HETATM   15  O1  UNL     1       8.307  35.114  -9.895  1.00  0.00    -0.399 OA
ATOM     16  H1  UNL     1       8.731  35.530  -9.154  1.00  0.00     0.209 HD
ENDBRANCH  14  15
ENDBRANCH  13  14
ENDBRANCH  10  13
ENDBRANCH   9  10
ENDBRANCH   1   9
BRANCH   6  17
HETATM   17  C14 UNL     1      10.634  33.487  -7.016  1.00  0.00     0.200 C 
BRANCH  17  18
HETATM   18  O5  UNL     1      11.830  34.252  -7.059  1.00  0.00    -0.399 OA
ATOM     19  H5  UNL     1      12.368  33.888  -7.753  1.00  0.00     0.209 HD
ENDBRANCH  17  18
ENDBRANCH   6  17
BRANCH   3  20
HETATM   20  C8  UNL     1       7.577  35.646  -2.770  1.00  0.00     0.011 C 
BRANCH  20  21
HETATM   21  C9  UNL     1       6.249  36.338  -2.735  1.00  0.00     0.027 C 
BRANCH  21  22
HETATM   22  C10 UNL     1       6.518  37.831  -2.661  1.00  0.00     0.164 C 
BRANCH  22  23
HETATM   23  O2  UNL     1       7.650  38.118  -1.923  1.00  0.00    -0.401 OA
ATOM     24  H2  UNL     1       7.493  38.800  -1.280  1.00  0.00     0.209 HD
ENDBRANCH  22  23
ENDBRANCH  21  22
ENDBRANCH  20  21
ENDBRANCH   3  20
BRANCH   5  25
HETATM   25  O4  UNL     1       9.881  36.077  -6.557  1.00  0.00    -0.391 OA
ATOM     26  H4  UNL     1       9.215  35.668  -7.097  1.00  0.00     0.210 HD
ENDBRANCH   5  25
BRANCH   4  27
HETATM   27  O3  UNL     1       9.631  37.170  -4.152  1.00  0.00    -0.393 OA
ATOM     28  H3  UNL     1      10.117  37.397  -3.368  1.00  0.00     0.210 HD
ENDBRANCH   4  27
TORSDOF 14
ENDMDL
