MODEL 1
REMARK VINA RESULT: -6.474148142      0.000      0.000
REMARK  10 active torsions:
REMARK  status: ('A' for Active; 'I' for Inactive)
REMARK       I    between atoms: C1_4  and  N3_6 
REMARK    1  A    between atoms: N3_6  and  C2_7 
REMARK    2  A    between atoms: N3_6  and  C4_11 
REMARK    3  A    between atoms: C2_7  and  C3_8 
REMARK    4  A    between atoms: C3_8  and  O1_9 
REMARK    5  A    between atoms: C4_11  and  C5_12 
REMARK    6  A    between atoms: C5_12  and  S1_13 
REMARK    7  A    between atoms: S1_13  and  C6_15 
REMARK    8  A    between atoms: C6_15  and  C7_16 
REMARK    9  A    between atoms: C9_18  and  C10_19 
REMARK   10  A    between atoms: C10_19  and  O3_20 
ROOT
HETATM    1  S1  UNL     1       8.947  34.504  -5.008  1.00  0.00     0.017 S 
HETATM    2  O2  UNL     1       9.714  33.257  -4.294  1.00  0.00    -0.258 OA
ENDROOT
BRANCH   1   3
HETATM    3  C5  UNL     1       8.421  35.782  -3.965  1.00  0.00     0.128 C 
BRANCH   3   4
HETATM    4  C4  UNL     1       9.294  37.010  -4.042  1.00  0.00     0.138 C 
BRANCH   4   5
HETATM    5  N3  UNL     1       8.769  38.117  -3.280  1.00  0.00    -0.353 N 
HETATM    6  C1  UNL     1       9.390  38.426  -2.051  1.00  0.00     0.184 C 
HETATM    7  N1  UNL     1       9.194  37.699  -1.014  1.00  0.00    -0.374 N 
HETATM    8  N2  UNL     1      10.243  39.546  -1.952  1.00  0.00    -0.064 NA
ATOM      9  H12 UNL     1       9.643  37.923  -0.126  1.00  0.00     0.158 HD
ATOM     10  H11 UNL     1       8.577  36.889  -1.086  1.00  0.00     0.158 HD
BRANCH   5  11
HETATM   11  C2  UNL     1       7.655  38.919  -3.709  1.00  0.00     0.151 C 
BRANCH  11  12
HETATM   12  C3  UNL     1       6.340  38.473  -3.179  1.00  0.00     0.183 C 
BRANCH  12  13
HETATM   13  O1  UNL     1       6.270  38.310  -1.821  1.00  0.00    -0.399 OA
ATOM     14  H1  UNL     1       6.235  37.411  -1.515  1.00  0.00     0.209 HD
ENDBRANCH  12  13
ENDBRANCH  11  12
ENDBRANCH   5  11
ENDBRANCH   4   5
ENDBRANCH   3   4
ENDBRANCH   1   3
BRANCH   1  15
HETATM   15  C6  UNL     1       8.047  34.161  -6.430  1.00  0.00     0.122 C 
BRANCH  15  16
HETATM   16  C7  UNL     1       8.835  33.953  -7.699  1.00  0.00     0.091 C 
HETATM   17  C8  UNL     1       8.151  34.715  -8.858  1.00  0.00     0.042 C 
HETATM   18  C9  UNL     1       6.871  33.950  -9.095  1.00  0.00     0.108 C 
HETATM   19  N4  UNL     1       7.172  32.602  -8.607  1.00  0.00    -0.354 N 
HETATM   20  C11 UNL     1       8.556  32.556  -8.195  1.00  0.00     0.223 C 
ATOM     21  H4  UNL     1       6.513  31.825  -8.565  1.00  0.00     0.162 HD
HETATM   22  O4  UNL     1       9.320  31.566  -8.249  1.00  0.00    -0.273 OA
BRANCH  18  23
HETATM   23  C10 UNL     1       6.556  33.835 -10.573  1.00  0.00     0.189 C 
BRANCH  23  24
HETATM   24  O3  UNL     1       7.226  32.774 -11.161  1.00  0.00    -0.399 OA
ATOM     25  H3  UNL     1       7.023  32.698 -12.086  1.00  0.00     0.209 HD
ENDBRANCH  23  24
ENDBRANCH  18  23
ENDBRANCH  15  16
ENDBRANCH   1  15
TORSDOF 10
ENDMDL
MODEL 2
REMARK VINA RESULT: -6.447274745      1.388      1.623
REMARK  10 active torsions:
REMARK  status: ('A' for Active; 'I' for Inactive)
REMARK       I    between atoms: C1_4  and  N3_6 
REMARK    1  A    between atoms: N3_6  and  C2_7 
REMARK    2  A    between atoms: N3_6  and  C4_11 
REMARK    3  A    between atoms: C2_7  and  C3_8 
REMARK    4  A    between atoms: C3_8  and  O1_9 
REMARK    5  A    between atoms: C4_11  and  C5_12 
REMARK    6  A    between atoms: C5_12  and  S1_13 
REMARK    7  A    between atoms: S1_13  and  C6_15 
REMARK    8  A    between atoms: C6_15  and  C7_16 
REMARK    9  A    between atoms: C9_18  and  C10_19 
REMARK   10  A    between atoms: C10_19  and  O3_20 
ROOT
HETATM    1  S1  UNL     1       8.503  33.498  -4.197  1.00  0.00     0.017 S 
HETATM    2  O2  UNL     1       8.610  32.551  -2.875  1.00  0.00    -0.258 OA
ENDROOT
BRANCH   1   3
HETATM    3  C5  UNL     1       7.813  35.068  -3.966  1.00  0.00     0.128 C 
BRANCH   3   4
HETATM    4  C4  UNL     1       8.810  36.187  -4.129  1.00  0.00     0.138 C 
BRANCH   4   5
HETATM    5  N3  UNL     1       8.454  37.367  -3.379  1.00  0.00    -0.353 N 
HETATM    6  C1  UNL     1       9.129  38.569  -3.680  1.00  0.00     0.184 C 
HETATM    7  N1  UNL     1      10.334  38.761  -3.290  1.00  0.00    -0.374 N 
HETATM    8  N2  UNL     1       8.479  39.579  -4.421  1.00  0.00    -0.064 NA
ATOM      9  H12 UNL     1      10.823  39.630  -3.508  1.00  0.00     0.158 HD
ATOM     10  H11 UNL     1      10.805  38.031  -2.755  1.00  0.00     0.158 HD
BRANCH   5  11
HETATM   11  C2  UNL     1       7.448  37.381  -2.351  1.00  0.00     0.151 C 
BRANCH  11  12
HETATM   12  C3  UNL     1       6.156  37.985  -2.767  1.00  0.00     0.183 C 
BRANCH  12  13
HETATM   13  O1  UNL     1       5.472  38.658  -1.792  1.00  0.00    -0.399 OA
ATOM     14  H1  UNL     1       4.884  39.340  -2.096  1.00  0.00     0.209 HD
ENDBRANCH  12  13
ENDBRANCH  11  12
ENDBRANCH   5  11
ENDBRANCH   4   5
ENDBRANCH   3   4
ENDBRANCH   1   3
BRANCH   1  15
HETATM   15  C6  UNL     1       8.303  32.711  -5.711  1.00  0.00     0.122 C 
BRANCH  15  16
HETATM   16  C7  UNL     1       9.227  33.134  -6.825  1.00  0.00     0.091 C 
HETATM   17  C8  UNL     1       8.653  34.392  -7.517  1.00  0.00     0.042 C 
HETATM   18  C9  UNL     1       7.425  33.887  -8.236  1.00  0.00     0.108 C 
HETATM   19  N4  UNL     1       7.705  32.466  -8.453  1.00  0.00    -0.354 N 
HETATM   20  C11 UNL     1       9.038  32.177  -7.975  1.00  0.00     0.223 C 
ATOM     21  H4  UNL     1       7.065  31.792  -8.872  1.00  0.00     0.162 HD
HETATM   22  O4  UNL     1       9.828  31.321  -8.434  1.00  0.00    -0.273 OA
BRANCH  18  23
HETATM   23  C10 UNL     1       7.274  34.532  -9.600  1.00  0.00     0.189 C 
BRANCH  23  24
HETATM   24  O3  UNL     1       8.393  35.272  -9.945  1.00  0.00    -0.399 OA
ATOM     25  H3  UNL     1       8.280  35.714 -10.779  1.00  0.00     0.209 HD
ENDBRANCH  23  24
ENDBRANCH  18  23
ENDBRANCH  15  16
ENDBRANCH   1  15
TORSDOF 10
ENDMDL
MODEL 3
REMARK VINA RESULT: -6.418217528      1.035      1.350
REMARK  10 active torsions:
REMARK  status: ('A' for Active; 'I' for Inactive)
REMARK       I    between atoms: C1_4  and  N3_6 
REMARK    1  A    between atoms: N3_6  and  C2_7 
REMARK    2  A    between atoms: N3_6  and  C4_11 
REMARK    3  A    between atoms: C2_7  and  C3_8 
REMARK    4  A    between atoms: C3_8  and  O1_9 
REMARK    5  A    between atoms: C4_11  and  C5_12 
REMARK    6  A    between atoms: C5_12  and  S1_13 
REMARK    7  A    between atoms: S1_13  and  C6_15 
REMARK    8  A    between atoms: C6_15  and  C7_16 
REMARK    9  A    between atoms: C9_18  and  C10_19 
REMARK   10  A    between atoms: C10_19  and  O3_20 
ROOT
HETATM    1  S1  UNL     1       8.849  34.506  -5.006  1.00  0.00     0.017 S 
HETATM    2  O2  UNL     1       8.915  33.400  -3.811  1.00  0.00    -0.258 OA
ENDROOT
BRANCH   1   3
HETATM    3  C5  UNL     1       8.865  36.167  -4.518  1.00  0.00     0.128 C 
BRANCH   3   4
HETATM    4  C4  UNL     1       8.185  36.405  -3.193  1.00  0.00     0.138 C 
BRANCH   4   5
HETATM    5  N3  UNL     1       7.620  37.728  -3.085  1.00  0.00    -0.353 N 
HETATM    6  C1  UNL     1       8.481  38.831  -3.270  1.00  0.00     0.184 C 
HETATM    7  N1  UNL     1       9.310  39.177  -2.357  1.00  0.00    -0.374 N 
HETATM    8  N2  UNL     1       8.439  39.567  -4.473  1.00  0.00    -0.064 NA
ATOM      9  H12 UNL     1       9.933  39.974  -2.490  1.00  0.00     0.158 HD
ATOM     10  H11 UNL     1       9.341  38.644  -1.487  1.00  0.00     0.158 HD
BRANCH   5  11
HETATM   11  C2  UNL     1       6.232  37.978  -2.805  1.00  0.00     0.151 C 
BRANCH  11  12
HETATM   12  C3  UNL     1       5.450  36.764  -2.454  1.00  0.00     0.183 C 
BRANCH  12  13
HETATM   13  O1  UNL     1       4.094  36.933  -2.368  1.00  0.00    -0.399 OA
ATOM     14  H1  UNL     1       3.803  37.685  -1.865  1.00  0.00     0.209 HD
ENDBRANCH  12  13
ENDBRANCH  11  12
ENDBRANCH   5  11
ENDBRANCH   4   5
ENDBRANCH   3   4
ENDBRANCH   1   3
BRANCH   1  15
HETATM   15  C6  UNL     1       8.013  34.063  -6.440  1.00  0.00     0.122 C 
BRANCH  15  16
HETATM   16  C7  UNL     1       8.841  33.911  -7.690  1.00  0.00     0.091 C 
HETATM   17  C8  UNL     1       8.183  34.706  -8.841  1.00  0.00     0.042 C 
HETATM   18  C9  UNL     1       6.921  33.936  -9.145  1.00  0.00     0.108 C 
HETATM   19  N4  UNL     1       7.225  32.575  -8.698  1.00  0.00    -0.354 N 
HETATM   20  C11 UNL     1       8.596  32.529  -8.245  1.00  0.00     0.223 C 
ATOM     21  H4  UNL     1       6.575  31.789  -8.704  1.00  0.00     0.162 HD
HETATM   22  O4  UNL     1       9.374  31.551  -8.312  1.00  0.00    -0.273 OA
BRANCH  18  23
HETATM   23  C10 UNL     1       6.653  33.872 -10.636  1.00  0.00     0.189 C 
BRANCH  23  24
HETATM   24  O3  UNL     1       7.100  32.682 -11.188  1.00  0.00    -0.399 OA
ATOM     25  H3  UNL     1       6.617  31.935 -10.855  1.00  0.00     0.209 HD
ENDBRANCH  23  24
ENDBRANCH  18  23
ENDBRANCH  15  16
ENDBRANCH   1  15
TORSDOF 10
ENDMDL
MODEL 4
REMARK VINA RESULT: -6.392929797      2.103      7.729
REMARK  10 active torsions:
REMARK  status: ('A' for Active; 'I' for Inactive)
REMARK       I    between atoms: C1_4  and  N3_6 
REMARK    1  A    between atoms: N3_6  and  C2_7 
REMARK    2  A    between atoms: N3_6  and  C4_11 
REMARK    3  A    between atoms: C2_7  and  C3_8 
REMARK    4  A    between atoms: C3_8  and  O1_9 
REMARK    5  A    between atoms: C4_11  and  C5_12 
REMARK    6  A    between atoms: C5_12  and  S1_13 
REMARK    7  A    between atoms: S1_13  and  C6_15 
REMARK    8  A    between atoms: C6_15  and  C7_16 
REMARK    9  A    between atoms: C9_18  and  C10_19 
REMARK   10  A    between atoms: C10_19  and  O3_20 
ROOT
HETATM    1  S1  UNL     1       8.820  35.142  -4.636  1.00  0.00     0.017 S 
HETATM    2  O2  UNL     1       9.139  33.721  -3.906  1.00  0.00    -0.258 OA
ENDROOT
BRANCH   1   3
HETATM    3  C5  UNL     1       9.534  35.385  -6.193  1.00  0.00     0.128 C 
BRANCH   3   4
HETATM    4  C4  UNL     1       9.926  34.098  -6.876  1.00  0.00     0.138 C 
BRANCH   4   5
HETATM    5  N3  UNL     1       8.803  33.418  -7.474  1.00  0.00    -0.353 N 
HETATM    6  C1  UNL     1       8.888  32.018  -7.632  1.00  0.00     0.184 C 
HETATM    7  N1  UNL     1       9.612  31.503  -8.554  1.00  0.00    -0.374 N 
HETATM    8  N2  UNL     1       8.171  31.164  -6.766  1.00  0.00    -0.064 NA
ATOM      9  H12 UNL     1       9.673  30.491  -8.668  1.00  0.00     0.158 HD
ATOM     10  H11 UNL     1      10.130  32.120  -9.180  1.00  0.00     0.158 HD
BRANCH   5  11
HETATM   11  C2  UNL     1       7.608  34.089  -7.910  1.00  0.00     0.151 C 
BRANCH  11  12
HETATM   12  C3  UNL     1       7.554  34.353  -9.371  1.00  0.00     0.183 C 
BRANCH  12  13
HETATM   13  O1  UNL     1       8.395  35.330  -9.831  1.00  0.00    -0.399 OA
ATOM     14  H1  UNL     1       8.373  35.487 -10.767  1.00  0.00     0.209 HD
ENDBRANCH  12  13
ENDBRANCH  11  12
ENDBRANCH   5  11
ENDBRANCH   4   5
ENDBRANCH   3   4
ENDBRANCH   1   3
BRANCH   1  15
HETATM   15  C6  UNL     1       8.544  36.501  -3.621  1.00  0.00     0.122 C 
BRANCH  15  16
HETATM   16  C7  UNL     1       9.044  37.833  -4.118  1.00  0.00     0.091 C 
HETATM   17  C8  UNL     1      10.386  38.168  -3.426  1.00  0.00     0.042 C 
HETATM   18  C9  UNL     1      10.001  38.437  -1.991  1.00  0.00     0.108 C 
HETATM   19  N4  UNL     1       8.600  38.855  -2.075  1.00  0.00    -0.354 N 
HETATM   20  C11 UNL     1       8.215  38.913  -3.466  1.00  0.00     0.223 C 
ATOM     21  H4  UNL     1       7.996  39.069  -1.282  1.00  0.00     0.162 HD
HETATM   22  O4  UNL     1       7.382  39.692  -3.980  1.00  0.00    -0.273 OA
BRANCH  18  23
HETATM   23  C10 UNL     1      10.786  39.597  -1.412  1.00  0.00     0.189 C 
BRANCH  23  24
HETATM   24  O3  UNL     1      11.565  40.221  -2.373  1.00  0.00    -0.399 OA
ATOM     25  H3  UNL     1      12.413  40.477  -2.029  1.00  0.00     0.209 HD
ENDBRANCH  23  24
ENDBRANCH  18  23
ENDBRANCH  15  16
ENDBRANCH   1  15
TORSDOF 10
ENDMDL
MODEL 5
REMARK VINA RESULT: -6.306442563      1.914      2.550
REMARK  10 active torsions:
REMARK  status: ('A' for Active; 'I' for Inactive)
REMARK       I    between atoms: C1_4  and  N3_6 
REMARK    1  A    between atoms: N3_6  and  C2_7 
REMARK    2  A    between atoms: N3_6  and  C4_11 
REMARK    3  A    between atoms: C2_7  and  C3_8 
REMARK    4  A    between atoms: C3_8  and  O1_9 
REMARK    5  A    between atoms: C4_11  and  C5_12 
REMARK    6  A    between atoms: C5_12  and  S1_13 
REMARK    7  A    between atoms: S1_13  and  C6_15 
REMARK    8  A    between atoms: C6_15  and  C7_16 
REMARK    9  A    between atoms: C9_18  and  C10_19 
REMARK   10  A    between atoms: C10_19  and  O3_20 
ROOT
HETATM    1  S1  UNL     1       8.534  34.726  -4.338  1.00  0.00     0.017 S 
HETATM    2  O2  UNL     1       6.940  35.066  -4.336  1.00  0.00    -0.258 OA
ENDROOT
BRANCH   1   3
HETATM    3  C5  UNL     1       9.606  36.062  -4.085  1.00  0.00     0.128 C 
BRANCH   3   4
HETATM    4  C4  UNL     1       8.960  37.401  -4.343  1.00  0.00     0.138 C 
BRANCH   4   5
HETATM    5  N3  UNL     1       8.462  38.022  -3.140  1.00  0.00    -0.353 N 
HETATM    6  C1  UNL     1       7.116  38.446  -3.124  1.00  0.00     0.184 C 
HETATM    7  N1  UNL     1       6.754  39.504  -3.747  1.00  0.00    -0.374 N 
HETATM    8  N2  UNL     1       6.149  37.700  -2.418  1.00  0.00    -0.064 NA
ATOM      9  H12 UNL     1       5.781  39.811  -3.736  1.00  0.00     0.158 HD
ATOM     10  H11 UNL     1       7.453  40.044  -4.258  1.00  0.00     0.158 HD
BRANCH   5  11
HETATM   11  C2  UNL     1       9.262  38.226  -1.962  1.00  0.00     0.151 C 
BRANCH  11  12
HETATM   12  C3  UNL     1      10.336  39.241  -2.120  1.00  0.00     0.183 C 
BRANCH  12  13
HETATM   13  O1  UNL     1      10.612  39.992  -1.009  1.00  0.00    -0.399 OA
ATOM     14  H1  UNL     1      11.526  40.218  -0.881  1.00  0.00     0.209 HD
ENDBRANCH  12  13
ENDBRANCH  11  12
ENDBRANCH   5  11
ENDBRANCH   4   5
ENDBRANCH   3   4
ENDBRANCH   1   3
BRANCH   1  15
HETATM   15  C6  UNL     1       9.053  33.409  -5.310  1.00  0.00     0.122 C 
BRANCH  15  16
HETATM   16  C7  UNL     1       9.805  33.750  -6.571  1.00  0.00     0.091 C 
HETATM   17  C8  UNL     1       8.986  34.770  -7.397  1.00  0.00     0.042 C 
HETATM   18  C9  UNL     1       7.798  33.977  -7.886  1.00  0.00     0.108 C 
HETATM   19  N4  UNL     1       8.279  32.594  -7.893  1.00  0.00    -0.354 N 
HETATM   20  C11 UNL     1       9.675  32.584  -7.520  1.00  0.00     0.223 C 
ATOM     21  H4  UNL     1       7.720  31.773  -8.123  1.00  0.00     0.162 HD
HETATM   22  O4  UNL     1      10.549  31.779  -7.913  1.00  0.00    -0.273 OA
BRANCH  18  23
HETATM   23  C10 UNL     1       7.437  34.338  -9.313  1.00  0.00     0.189 C 
BRANCH  23  24
HETATM   24  O3  UNL     1       8.344  35.230  -9.863  1.00  0.00    -0.399 OA
ATOM     25  H3  UNL     1       9.071  34.783 -10.278  1.00  0.00     0.209 HD
ENDBRANCH  23  24
ENDBRANCH  18  23
ENDBRANCH  15  16
ENDBRANCH   1  15
TORSDOF 10
ENDMDL
