MODEL 1
REMARK VINA RESULT: -8.124194149      0.000      0.000
REMARK  15 active torsions:
REMARK  status: ('A' for Active; 'I' for Inactive)
REMARK    1  A    between atoms: C2_2  and  N1_4 
REMARK       I    between atoms: N1_4  and  C4_6 
REMARK    2  A    between atoms: C4_6  and  C5_8 
REMARK    3  A    between atoms: C5_8  and  C6_9 
REMARK    4  A    between atoms: C5_8  and  N3_27 
REMARK    5  A    between atoms: C6_9  and  C7_10 
REMARK    6  A    between atoms: C10_13  and  C11_14 
REMARK    7  A    between atoms: C11_14  and  C12_15 
REMARK    8  A    between atoms: C12_15  and  C13_16 
REMARK    9  A    between atoms: C13_16  and  C14_17 
REMARK   10  A    between atoms: C14_17  and  C15_18 
REMARK       I    between atoms: N3_27  and  C22_29 
REMARK   11  A    between atoms: C22_29  and  C23_31 
REMARK   12  A    between atoms: C23_31  and  C24_32 
REMARK   13  A    between atoms: C23_31  and  N4_34 
REMARK       I    between atoms: N4_34  and  C25_36 
REMARK   14  A    between atoms: C25_36  and  O5_38 
REMARK   15  A    between atoms: O5_38  and  C26_39 
ROOT
HETATM    1  C5  UNL     1      32.854  32.501  12.011  1.00  0.00     0.178 C 
ENDROOT
BRANCH   1   2
HETATM    2  C4  UNL     1      33.494  33.599  12.813  1.00  0.00     0.240 C 
HETATM    3  N1  UNL     1      34.582  33.359  13.667  1.00  0.00    -0.355 N 
ATOM      4  H1  UNL     1      34.927  32.401  13.724  1.00  0.00     0.162 HD
HETATM    5  O1  UNL     1      33.046  34.755  12.716  1.00  0.00    -0.271 OA
BRANCH   3   6
HETATM    6  C2  UNL     1      35.248  34.342  14.461  1.00  0.00     0.076 C 
HETATM    7  C1  UNL     1      35.920  33.769  15.686  1.00  0.00     0.032 C 
HETATM    8  C3  UNL     1      36.341  34.975  13.604  1.00  0.00     0.032 C 
ENDBRANCH   3   6
ENDBRANCH   1   2
BRANCH   1   9
HETATM    9  C6  UNL     1      31.686  31.927  12.714  1.00  0.00     0.059 C 
BRANCH   9  10
HETATM   10  C7  UNL     1      30.347  32.486  12.383  1.00  0.00     0.079 C 
HETATM   11  C8  UNL     1      29.965  32.594  10.954  1.00  0.00     0.025 C 
HETATM   12  C9  UNL     1      28.496  32.048  10.789  1.00  0.00     0.008 C 
HETATM   13  C10 UNL     1      28.568  30.651  11.259  1.00  0.00     0.003 C 
HETATM   14  C21 UNL     1      28.750  30.691  12.777  1.00  0.00     0.118 C 
HETATM   15  N2  UNL     1      29.306  31.917  13.229  1.00  0.00    -0.417 N 
ATOM     16  H2  UNL     1      28.997  32.368  14.090  1.00  0.00     0.153 HD
BRANCH  13  17
HETATM   17  C11 UNL     1      27.572  29.659  10.873  1.00  0.00     0.006 C 
BRANCH  17  18
HETATM   18  C12 UNL     1      26.750  29.789   9.649  1.00  0.00     0.000 C 
BRANCH  18  19
HETATM   19  C13 UNL     1      27.391  29.381   8.394  1.00  0.00     0.000 C 
BRANCH  19  20
HETATM   20  C14 UNL     1      27.736  27.938   8.226  1.00  0.00     0.004 C 
BRANCH  20  21
HETATM   21  C15 UNL     1      29.146  27.491   8.364  1.00  0.00    -0.014 C 
HETATM   22  C16 UNL     1      29.228  26.853   9.776  1.00  0.00     0.004 C 
HETATM   23  C17 UNL     1      30.444  25.977   9.783  1.00  0.00     0.000 C 
HETATM   24  C18 UNL     1      31.656  26.863   9.540  1.00  0.00     0.000 C 
HETATM   25  C19 UNL     1      31.255  28.311   9.445  1.00  0.00     0.000 C 
HETATM   26  C20 UNL     1      30.202  28.543   8.356  1.00  0.00     0.004 C 
ENDBRANCH  20  21
ENDBRANCH  19  20
ENDBRANCH  18  19
ENDBRANCH  17  18
ENDBRANCH  13  17
ENDBRANCH   9  10
ENDBRANCH   1   9
BRANCH   1  27
HETATM   27  N3  UNL     1      33.844  31.548  11.617  1.00  0.00    -0.346 N 
HETATM   28  C22 UNL     1      33.893  30.969  10.325  1.00  0.00     0.248 C 
HETATM   29  O2  UNL     1      33.054  31.258   9.449  1.00  0.00    -0.271 OA
ATOM     30  H3  UNL     1      34.551  31.272  12.299  1.00  0.00     0.163 HD
BRANCH  28  31
HETATM   31  C23 UNL     1      34.969  29.999  10.021  1.00  0.00     0.240 C 
BRANCH  31  32
HETATM   32  C24 UNL     1      36.292  30.709   9.862  1.00  0.00     0.266 C 
HETATM   33  O3  UNL     1      36.811  31.371  10.733  1.00  0.00    -0.304 OA
ENDBRANCH  31  32
BRANCH  31  34
HETATM   34  N4  UNL     1      34.716  29.230   8.838  1.00  0.00    -0.317 N 
HETATM   35  C25 UNL     1      35.108  27.880   8.733  1.00  0.00     0.362 C 
HETATM   36  O4  UNL     1      35.693  27.238   9.621  1.00  0.00    -0.238 OA
ATOM     37  H4  UNL     1      34.239  29.671   8.052  1.00  0.00     0.166 HD
BRANCH  35  38
HETATM   38  O5  UNL     1      34.822  27.215   7.549  1.00  0.00    -0.294 OA
BRANCH  38  39
HETATM   39  C26 UNL     1      35.674  27.135   6.442  1.00  0.00     0.061 C 
HETATM   40  C27 UNL     1      35.366  25.788   5.766  1.00  0.00     0.046 C 
HETATM   41  C28 UNL     1      37.140  27.172   6.784  1.00  0.00     0.046 C 
HETATM   42  C29 UNL     1      35.309  28.227   5.431  1.00  0.00     0.046 C 
ENDBRANCH  38  39
ENDBRANCH  35  38
ENDBRANCH  31  34
ENDBRANCH  28  31
ENDBRANCH   1  27
TORSDOF 15
ENDMDL
MODEL 2
REMARK VINA RESULT: -7.999114981      0.775      1.055
REMARK  15 active torsions:
REMARK  status: ('A' for Active; 'I' for Inactive)
REMARK    1  A    between atoms: C2_2  and  N1_4 
REMARK       I    between atoms: N1_4  and  C4_6 
REMARK    2  A    between atoms: C4_6  and  C5_8 
REMARK    3  A    between atoms: C5_8  and  C6_9 
REMARK    4  A    between atoms: C5_8  and  N3_27 
REMARK    5  A    between atoms: C6_9  and  C7_10 
REMARK    6  A    between atoms: C10_13  and  C11_14 
REMARK    7  A    between atoms: C11_14  and  C12_15 
REMARK    8  A    between atoms: C12_15  and  C13_16 
REMARK    9  A    between atoms: C13_16  and  C14_17 
REMARK   10  A    between atoms: C14_17  and  C15_18 
REMARK       I    between atoms: N3_27  and  C22_29 
REMARK   11  A    between atoms: C22_29  and  C23_31 
REMARK   12  A    between atoms: C23_31  and  C24_32 
REMARK   13  A    between atoms: C23_31  and  N4_34 
REMARK       I    between atoms: N4_34  and  C25_36 
REMARK   14  A    between atoms: C25_36  and  O5_38 
REMARK   15  A    between atoms: O5_38  and  C26_39 
ROOT
HETATM    1  C5  UNL     1      33.068  32.399  11.957  1.00  0.00     0.178 C 
ENDROOT
BRANCH   1   2
HETATM    2  C4  UNL     1      33.567  33.520  12.826  1.00  0.00     0.240 C 
HETATM    3  N1  UNL     1      34.625  33.344  13.731  1.00  0.00    -0.355 N 
ATOM      4  H1  UNL     1      35.049  32.418  13.778  1.00  0.00     0.162 HD
HETATM    5  O1  UNL     1      33.024  34.635  12.739  1.00  0.00    -0.271 OA
BRANCH   3   6
HETATM    6  C2  UNL     1      35.160  34.353  14.590  1.00  0.00     0.076 C 
HETATM    7  C1  UNL     1      35.853  33.796  15.810  1.00  0.00     0.032 C 
HETATM    8  C3  UNL     1      36.203  35.137  13.798  1.00  0.00     0.032 C 
ENDBRANCH   3   6
ENDBRANCH   1   2
BRANCH   1   9
HETATM    9  C6  UNL     1      31.950  31.673  12.597  1.00  0.00     0.059 C 
BRANCH   9  10
HETATM   10  C7  UNL     1      30.597  32.287  12.505  1.00  0.00     0.079 C 
HETATM   11  C8  UNL     1      30.061  32.607  11.159  1.00  0.00     0.025 C 
HETATM   12  C9  UNL     1      28.570  32.103  11.084  1.00  0.00     0.008 C 
HETATM   13  C10 UNL     1      28.658  30.651  11.336  1.00  0.00     0.003 C 
HETATM   14  C21 UNL     1      29.009  30.467  12.813  1.00  0.00     0.118 C 
HETATM   15  N2  UNL     1      29.642  31.608  13.372  1.00  0.00    -0.417 N 
ATOM     16  H2  UNL     1      29.442  31.931  14.319  1.00  0.00     0.153 HD
BRANCH  13  17
HETATM   17  C11 UNL     1      27.602  29.735  10.926  1.00  0.00     0.006 C 
BRANCH  17  18
HETATM   18  C12 UNL     1      26.799  29.942   9.699  1.00  0.00     0.000 C 
BRANCH  18  19
HETATM   19  C13 UNL     1      27.337  29.352   8.468  1.00  0.00     0.000 C 
BRANCH  19  20
HETATM   20  C14 UNL     1      27.654  27.892   8.477  1.00  0.00     0.004 C 
BRANCH  20  21
HETATM   21  C15 UNL     1      29.068  27.440   8.549  1.00  0.00    -0.014 C 
HETATM   22  C16 UNL     1      29.233  26.865   9.981  1.00  0.00     0.004 C 
HETATM   23  C17 UNL     1      30.443  25.981   9.953  1.00  0.00     0.000 C 
HETATM   24  C18 UNL     1      31.642  26.846   9.596  1.00  0.00     0.000 C 
HETATM   25  C19 UNL     1      31.243  28.291   9.460  1.00  0.00     0.000 C 
HETATM   26  C20 UNL     1      30.127  28.483   8.429  1.00  0.00     0.004 C 
ENDBRANCH  20  21
ENDBRANCH  19  20
ENDBRANCH  18  19
ENDBRANCH  17  18
ENDBRANCH  13  17
ENDBRANCH   9  10
ENDBRANCH   1   9
BRANCH   1  27
HETATM   27  N3  UNL     1      34.164  31.574  11.554  1.00  0.00    -0.346 N 
HETATM   28  C22 UNL     1      34.287  31.028  10.252  1.00  0.00     0.248 C 
HETATM   29  O2  UNL     1      33.425  31.234   9.375  1.00  0.00    -0.271 OA
ATOM     30  H3  UNL     1      34.895  31.370  12.236  1.00  0.00     0.163 HD
BRANCH  28  31
HETATM   31  C23 UNL     1      35.469  30.195   9.939  1.00  0.00     0.240 C 
BRANCH  31  32
HETATM   32  C24 UNL     1      36.739  30.998  10.094  1.00  0.00     0.266 C 
HETATM   33  O3  UNL     1      36.763  32.164  10.419  1.00  0.00    -0.304 OA
ENDBRANCH  31  32
BRANCH  31  34
HETATM   34  N4  UNL     1      35.435  29.642   8.617  1.00  0.00    -0.317 N 
HETATM   35  C25 UNL     1      35.160  28.278   8.390  1.00  0.00     0.362 C 
HETATM   36  O4  UNL     1      34.928  27.442   9.279  1.00  0.00    -0.238 OA
ATOM     37  H4  UNL     1      35.614  30.252   7.819  1.00  0.00     0.166 HD
BRANCH  35  38
HETATM   38  O5  UNL     1      35.148  27.832   7.076  1.00  0.00    -0.294 OA
BRANCH  38  39
HETATM   39  C26 UNL     1      34.048  27.893   6.213  1.00  0.00     0.061 C 
HETATM   40  C27 UNL     1      34.629  27.958   4.790  1.00  0.00     0.046 C 
HETATM   41  C28 UNL     1      33.163  29.094   6.421  1.00  0.00     0.046 C 
HETATM   42  C29 UNL     1      33.251  26.588   6.303  1.00  0.00     0.046 C 
ENDBRANCH  38  39
ENDBRANCH  35  38
ENDBRANCH  31  34
ENDBRANCH  28  31
ENDBRANCH   1  27
TORSDOF 15
ENDMDL
MODEL 3
REMARK VINA RESULT: -7.954061735      0.949      1.117
REMARK  15 active torsions:
REMARK  status: ('A' for Active; 'I' for Inactive)
REMARK    1  A    between atoms: C2_2  and  N1_4 
REMARK       I    between atoms: N1_4  and  C4_6 
REMARK    2  A    between atoms: C4_6  and  C5_8 
REMARK    3  A    between atoms: C5_8  and  C6_9 
REMARK    4  A    between atoms: C5_8  and  N3_27 
REMARK    5  A    between atoms: C6_9  and  C7_10 
REMARK    6  A    between atoms: C10_13  and  C11_14 
REMARK    7  A    between atoms: C11_14  and  C12_15 
REMARK    8  A    between atoms: C12_15  and  C13_16 
REMARK    9  A    between atoms: C13_16  and  C14_17 
REMARK   10  A    between atoms: C14_17  and  C15_18 
REMARK       I    between atoms: N3_27  and  C22_29 
REMARK   11  A    between atoms: C22_29  and  C23_31 
REMARK   12  A    between atoms: C23_31  and  C24_32 
REMARK   13  A    between atoms: C23_31  and  N4_34 
REMARK       I    between atoms: N4_34  and  C25_36 
REMARK   14  A    between atoms: C25_36  and  O5_38 
REMARK   15  A    between atoms: O5_38  and  C26_39 
ROOT
HETATM    1  C5  UNL     1      33.337  32.168  11.844  1.00  0.00     0.178 C 
ENDROOT
BRANCH   1   2
HETATM    2  C4  UNL     1      33.963  33.118  12.826  1.00  0.00     0.240 C 
HETATM    3  N1  UNL     1      33.425  34.390  13.076  1.00  0.00    -0.355 N 
ATOM      4  H1  UNL     1      32.584  34.650  12.560  1.00  0.00     0.162 HD
HETATM    5  O1  UNL     1      34.987  32.764  13.436  1.00  0.00    -0.271 OA
BRANCH   3   6
HETATM    6  C2  UNL     1      33.954  35.351  13.991  1.00  0.00     0.076 C 
HETATM    7  C1  UNL     1      35.120  36.133  13.433  1.00  0.00     0.032 C 
HETATM    8  C3  UNL     1      32.849  36.356  14.306  1.00  0.00     0.032 C 
ENDBRANCH   3   6
ENDBRANCH   1   2
BRANCH   1   9
HETATM    9  C6  UNL     1      32.146  31.504  12.415  1.00  0.00     0.059 C 
BRANCH   9  10
HETATM   10  C7  UNL     1      30.843  32.211  12.286  1.00  0.00     0.079 C 
HETATM   11  C8  UNL     1      30.294  32.431  10.926  1.00  0.00     0.025 C 
HETATM   12  C9  UNL     1      28.767  32.044  10.936  1.00  0.00     0.008 C 
HETATM   13  C10 UNL     1      28.749  30.624  11.339  1.00  0.00     0.003 C 
HETATM   14  C21 UNL     1      29.127  30.567  12.820  1.00  0.00     0.118 C 
HETATM   15  N2  UNL     1      29.864  31.705  13.241  1.00  0.00    -0.417 N 
ATOM     16  H2  UNL     1      29.717  32.141  14.151  1.00  0.00     0.153 HD
BRANCH  13  17
HETATM   17  C11 UNL     1      27.613  29.758  11.051  1.00  0.00     0.006 C 
BRANCH  17  18
HETATM   18  C12 UNL     1      26.779  29.914   9.838  1.00  0.00     0.000 C 
BRANCH  18  19
HETATM   19  C13 UNL     1      27.342  29.377   8.593  1.00  0.00     0.000 C 
BRANCH  19  20
HETATM   20  C14 UNL     1      27.733  27.936   8.572  1.00  0.00     0.004 C 
BRANCH  20  21
HETATM   21  C15 UNL     1      29.170  27.557   8.563  1.00  0.00    -0.014 C 
HETATM   22  C16 UNL     1      29.425  26.914   9.952  1.00  0.00     0.004 C 
HETATM   23  C17 UNL     1      30.676  26.099   9.826  1.00  0.00     0.000 C 
HETATM   24  C18 UNL     1      31.813  27.045   9.473  1.00  0.00     0.000 C 
HETATM   25  C19 UNL     1      31.335  28.472   9.436  1.00  0.00     0.000 C 
HETATM   26  C20 UNL     1      30.168  28.660   8.461  1.00  0.00     0.004 C 
ENDBRANCH  20  21
ENDBRANCH  19  20
ENDBRANCH  18  19
ENDBRANCH  17  18
ENDBRANCH  13  17
ENDBRANCH   9  10
ENDBRANCH   1   9
BRANCH   1  27
HETATM   27  N3  UNL     1      34.331  31.277  11.331  1.00  0.00    -0.346 N 
HETATM   28  C22 UNL     1      34.346  30.820   9.990  1.00  0.00     0.248 C 
HETATM   29  O2  UNL     1      33.472  31.169   9.173  1.00  0.00    -0.271 OA
ATOM     30  H3  UNL     1      35.066  30.956  11.961  1.00  0.00     0.163 HD
BRANCH  28  31
HETATM   31  C23 UNL     1      35.429  29.906   9.563  1.00  0.00     0.240 C 
BRANCH  31  32
HETATM   32  C24 UNL     1      36.662  30.690   9.180  1.00  0.00     0.266 C 
HETATM   33  O3  UNL     1      37.182  31.519   9.892  1.00  0.00    -0.304 OA
ENDBRANCH  31  32
BRANCH  31  34
HETATM   34  N4  UNL     1      35.057  29.069   8.461  1.00  0.00    -0.317 N 
HETATM   35  C25 UNL     1      35.270  27.675   8.482  1.00  0.00     0.362 C 
HETATM   36  O4  UNL     1      35.784  27.049   9.425  1.00  0.00    -0.238 OA
ATOM     37  H4  UNL     1      34.626  29.492   7.639  1.00  0.00     0.166 HD
BRANCH  35  38
HETATM   38  O5  UNL     1      34.878  26.945   7.370  1.00  0.00    -0.294 OA
BRANCH  38  39
HETATM   39  C26 UNL     1      35.643  26.768   6.211  1.00  0.00     0.061 C 
HETATM   40  C27 UNL     1      35.442  25.301   5.791  1.00  0.00     0.046 C 
HETATM   41  C28 UNL     1      37.117  27.012   6.397  1.00  0.00     0.046 C 
HETATM   42  C29 UNL     1      35.071  27.630   5.081  1.00  0.00     0.046 C 
ENDBRANCH  38  39
ENDBRANCH  35  38
ENDBRANCH  31  34
ENDBRANCH  28  31
ENDBRANCH   1  27
TORSDOF 15
ENDMDL
MODEL 4
REMARK VINA RESULT: -7.863613643      0.896      1.304
REMARK  15 active torsions:
REMARK  status: ('A' for Active; 'I' for Inactive)
REMARK    1  A    between atoms: C2_2  and  N1_4 
REMARK       I    between atoms: N1_4  and  C4_6 
REMARK    2  A    between atoms: C4_6  and  C5_8 
REMARK    3  A    between atoms: C5_8  and  C6_9 
REMARK    4  A    between atoms: C5_8  and  N3_27 
REMARK    5  A    between atoms: C6_9  and  C7_10 
REMARK    6  A    between atoms: C10_13  and  C11_14 
REMARK    7  A    between atoms: C11_14  and  C12_15 
REMARK    8  A    between atoms: C12_15  and  C13_16 
REMARK    9  A    between atoms: C13_16  and  C14_17 
REMARK   10  A    between atoms: C14_17  and  C15_18 
REMARK       I    between atoms: N3_27  and  C22_29 
REMARK   11  A    between atoms: C22_29  and  C23_31 
REMARK   12  A    between atoms: C23_31  and  C24_32 
REMARK   13  A    between atoms: C23_31  and  N4_34 
REMARK       I    between atoms: N4_34  and  C25_36 
REMARK   14  A    between atoms: C25_36  and  O5_38 
REMARK   15  A    between atoms: O5_38  and  C26_39 
ROOT
HETATM    1  C5  UNL     1      32.699  32.479  12.082  1.00  0.00     0.178 C 
ENDROOT
BRANCH   1   2
HETATM    2  C4  UNL     1      33.362  33.603  12.827  1.00  0.00     0.240 C 
HETATM    3  N1  UNL     1      34.480  33.393  13.649  1.00  0.00    -0.355 N 
ATOM      4  H1  UNL     1      34.831  32.438  13.724  1.00  0.00     0.162 HD
HETATM    5  O1  UNL     1      32.905  34.754  12.710  1.00  0.00    -0.271 OA
BRANCH   3   6
HETATM    6  C2  UNL     1      35.169  34.403  14.389  1.00  0.00     0.076 C 
HETATM    7  C1  UNL     1      35.866  33.874  15.620  1.00  0.00     0.032 C 
HETATM    8  C3  UNL     1      36.245  34.995  13.482  1.00  0.00     0.032 C 
ENDBRANCH   3   6
ENDBRANCH   1   2
BRANCH   1   9
HETATM    9  C6  UNL     1      31.560  31.922  12.843  1.00  0.00     0.059 C 
BRANCH   9  10
HETATM   10  C7  UNL     1      30.198  32.402  12.483  1.00  0.00     0.079 C 
HETATM   11  C8  UNL     1      29.873  32.581  11.047  1.00  0.00     0.025 C 
HETATM   12  C9  UNL     1      28.460  31.940  10.773  1.00  0.00     0.008 C 
HETATM   13  C10 UNL     1      28.618  30.523  11.154  1.00  0.00     0.003 C 
HETATM   14  C21 UNL     1      28.728  30.471  12.678  1.00  0.00     0.118 C 
HETATM   15  N2  UNL     1      29.167  31.700  13.237  1.00  0.00    -0.417 N 
ATOM     16  H2  UNL     1      28.785  32.067  14.109  1.00  0.00     0.153 HD
BRANCH  13  17
HETATM   17  C11 UNL     1      27.720  29.489  10.654  1.00  0.00     0.006 C 
BRANCH  17  18
HETATM   18  C12 UNL     1      26.778  29.723   9.536  1.00  0.00     0.000 C 
BRANCH  18  19
HETATM   19  C13 UNL     1      27.228  29.289   8.209  1.00  0.00     0.000 C 
BRANCH  19  20
HETATM   20  C14 UNL     1      27.667  27.869   8.054  1.00  0.00     0.004 C 
BRANCH  20  21
HETATM   21  C15 UNL     1      29.004  27.564   7.482  1.00  0.00    -0.014 C 
HETATM   22  C16 UNL     1      29.782  28.905   7.543  1.00  0.00     0.004 C 
HETATM   23  C17 UNL     1      31.238  28.564   7.443  1.00  0.00     0.000 C 
HETATM   24  C18 UNL     1      31.466  27.889   6.100  1.00  0.00     0.000 C 
HETATM   25  C19 UNL     1      30.195  27.849   5.294  1.00  0.00     0.000 C 
HETATM   26  C20 UNL     1      29.059  27.153   6.050  1.00  0.00     0.004 C 
ENDBRANCH  20  21
ENDBRANCH  19  20
ENDBRANCH  18  19
ENDBRANCH  17  18
ENDBRANCH  13  17
ENDBRANCH   9  10
ENDBRANCH   1   9
BRANCH   1  27
HETATM   27  N3  UNL     1      33.679  31.518  11.682  1.00  0.00    -0.346 N 
HETATM   28  C22 UNL     1      33.646  30.848  10.434  1.00  0.00     0.248 C 
HETATM   29  O2  UNL     1      32.739  31.060   9.605  1.00  0.00    -0.271 OA
ATOM     30  H3  UNL     1      34.440  31.304  12.327  1.00  0.00     0.163 HD
BRANCH  28  31
HETATM   31  C23 UNL     1      34.719  29.879  10.118  1.00  0.00     0.240 C 
BRANCH  31  32
HETATM   32  C24 UNL     1      36.050  30.582  10.000  1.00  0.00     0.266 C 
HETATM   33  O3  UNL     1      36.578  31.184  10.908  1.00  0.00    -0.304 OA
ENDBRANCH  31  32
BRANCH  31  34
HETATM   34  N4  UNL     1      34.477  29.146   8.910  1.00  0.00    -0.317 N 
HETATM   35  C25 UNL     1      34.968  27.837   8.726  1.00  0.00     0.362 C 
HETATM   36  O4  UNL     1      35.637  27.204   9.560  1.00  0.00    -0.238 OA
ATOM     37  H4  UNL     1      33.936  29.583   8.164  1.00  0.00     0.166 HD
BRANCH  35  38
HETATM   38  O5  UNL     1      34.686  27.206   7.523  1.00  0.00    -0.294 OA
BRANCH  38  39
HETATM   39  C26 UNL     1      35.518  27.203   6.398  1.00  0.00     0.061 C 
HETATM   40  C27 UNL     1      35.220  25.891   5.653  1.00  0.00     0.046 C 
HETATM   41  C28 UNL     1      36.990  27.246   6.715  1.00  0.00     0.046 C 
HETATM   42  C29 UNL     1      35.116  28.344   5.458  1.00  0.00     0.046 C 
ENDBRANCH  38  39
ENDBRANCH  35  38
ENDBRANCH  31  34
ENDBRANCH  28  31
ENDBRANCH   1  27
TORSDOF 15
ENDMDL
MODEL 5
REMARK VINA RESULT: -7.838614522      2.761      7.159
REMARK  15 active torsions:
REMARK  status: ('A' for Active; 'I' for Inactive)
REMARK    1  A    between atoms: C2_2  and  N1_4 
REMARK       I    between atoms: N1_4  and  C4_6 
REMARK    2  A    between atoms: C4_6  and  C5_8 
REMARK    3  A    between atoms: C5_8  and  C6_9 
REMARK    4  A    between atoms: C5_8  and  N3_27 
REMARK    5  A    between atoms: C6_9  and  C7_10 
REMARK    6  A    between atoms: C10_13  and  C11_14 
REMARK    7  A    between atoms: C11_14  and  C12_15 
REMARK    8  A    between atoms: C12_15  and  C13_16 
REMARK    9  A    between atoms: C13_16  and  C14_17 
REMARK   10  A    between atoms: C14_17  and  C15_18 
REMARK       I    between atoms: N3_27  and  C22_29 
REMARK   11  A    between atoms: C22_29  and  C23_31 
REMARK   12  A    between atoms: C23_31  and  C24_32 
REMARK   13  A    between atoms: C23_31  and  N4_34 
REMARK       I    between atoms: N4_34  and  C25_36 
REMARK   14  A    between atoms: C25_36  and  O5_38 
REMARK   15  A    between atoms: O5_38  and  C26_39 
ROOT
HETATM    1  C5  UNL     1      33.425  32.208  12.570  1.00  0.00     0.178 C 
ENDROOT
BRANCH   1   2
HETATM    2  C4  UNL     1      34.411  31.939  11.468  1.00  0.00     0.240 C 
HETATM    3  N1  UNL     1      34.030  31.338  10.259  1.00  0.00    -0.355 N 
ATOM      4  H1  UNL     1      33.047  31.087  10.153  1.00  0.00     0.162 HD
HETATM    5  O1  UNL     1      35.601  32.259  11.635  1.00  0.00    -0.271 OA
BRANCH   3   6
HETATM    6  C2  UNL     1      34.900  31.048   9.163  1.00  0.00     0.076 C 
HETATM    7  C1  UNL     1      35.445  29.640   9.186  1.00  0.00     0.032 C 
HETATM    8  C3  UNL     1      34.096  31.199   7.874  1.00  0.00     0.032 C 
ENDBRANCH   3   6
ENDBRANCH   1   2
BRANCH   1   9
HETATM    9  C6  UNL     1      32.192  31.409  12.401  1.00  0.00     0.059 C 
BRANCH   9  10
HETATM   10  C7  UNL     1      30.902  32.149  12.343  1.00  0.00     0.079 C 
HETATM   11  C8  UNL     1      30.324  32.449  11.011  1.00  0.00     0.025 C 
HETATM   12  C9  UNL     1      28.789  32.094  11.043  1.00  0.00     0.008 C 
HETATM   13  C10 UNL     1      28.750  30.657  11.375  1.00  0.00     0.003 C 
HETATM   14  C21 UNL     1      29.165  30.517  12.839  1.00  0.00     0.118 C 
HETATM   15  N2  UNL     1      29.937  31.616  13.297  1.00  0.00    -0.417 N 
ATOM     16  H2  UNL     1      29.824  32.007  14.232  1.00  0.00     0.153 HD
BRANCH  13  17
HETATM   17  C11 UNL     1      27.587  29.830  11.074  1.00  0.00     0.006 C 
BRANCH  17  18
HETATM   18  C12 UNL     1      26.810  29.972   9.822  1.00  0.00     0.000 C 
BRANCH  18  19
HETATM   19  C13 UNL     1      27.401  29.366   8.623  1.00  0.00     0.000 C 
BRANCH  19  20
HETATM   20  C14 UNL     1      27.932  27.974   8.738  1.00  0.00     0.004 C 
BRANCH  20  21
HETATM   21  C15 UNL     1      29.394  27.728   8.647  1.00  0.00    -0.014 C 
HETATM   22  C16 UNL     1      29.781  27.100  10.012  1.00  0.00     0.004 C 
HETATM   23  C17 UNL     1      31.093  26.403   9.809  1.00  0.00     0.000 C 
HETATM   24  C18 UNL     1      32.118  27.452   9.408  1.00  0.00     0.000 C 
HETATM   25  C19 UNL     1      31.512  28.830   9.415  1.00  0.00     0.000 C 
HETATM   26  C20 UNL     1      30.282  28.918   8.507  1.00  0.00     0.004 C 
ENDBRANCH  20  21
ENDBRANCH  19  20
ENDBRANCH  18  19
ENDBRANCH  17  18
ENDBRANCH  13  17
ENDBRANCH   9  10
ENDBRANCH   1   9
BRANCH   1  27
HETATM   27  N3  UNL     1      33.213  33.616  12.697  1.00  0.00    -0.346 N 
HETATM   28  C22 UNL     1      33.883  34.418  13.655  1.00  0.00     0.248 C 
HETATM   29  O2  UNL     1      34.701  33.928  14.458  1.00  0.00    -0.271 OA
ATOM     30  H3  UNL     1      32.548  34.066  12.068  1.00  0.00     0.163 HD
BRANCH  28  31
HETATM   31  C23 UNL     1      33.595  35.869  13.692  1.00  0.00     0.240 C 
BRANCH  31  32
HETATM   32  C24 UNL     1      34.792  36.634  14.206  1.00  0.00     0.266 C 
HETATM   33  O3  UNL     1      34.853  37.842  14.249  1.00  0.00    -0.304 OA
ENDBRANCH  31  32
BRANCH  31  34
HETATM   34  N4  UNL     1      32.459  36.197  14.502  1.00  0.00    -0.317 N 
HETATM   35  C25 UNL     1      31.237  36.612  13.934  1.00  0.00     0.362 C 
HETATM   36  O4  UNL     1      31.024  36.733  12.716  1.00  0.00    -0.238 OA
ATOM     37  H4  UNL     1      32.537  36.128  15.517  1.00  0.00     0.166 HD
BRANCH  35  38
HETATM   38  O5  UNL     1      30.192  36.910  14.797  1.00  0.00    -0.294 OA
BRANCH  38  39
HETATM   39  C26 UNL     1      29.889  38.185  15.288  1.00  0.00     0.061 C 
HETATM   40  C27 UNL     1      28.367  38.349  15.127  1.00  0.00     0.046 C 
HETATM   41  C28 UNL     1      30.569  39.310  14.554  1.00  0.00     0.046 C 
HETATM   42  C29 UNL     1      30.180  38.241  16.791  1.00  0.00     0.046 C 
ENDBRANCH  38  39
ENDBRANCH  35  38
ENDBRANCH  31  34
ENDBRANCH  28  31
ENDBRANCH   1  27
TORSDOF 15
ENDMDL
