MODEL 1
REMARK VINA RESULT: -6.143985326      0.000      0.000
REMARK  1 active torsions:
REMARK  status: ('A' for Active; 'I' for Inactive)
REMARK    1  A    between atoms: C4_9  and  C5_10 
ROOT
HETATM    1  C1  UNL     1      22.914  24.044  19.164  1.00  0.00     0.070 C 
HETATM    2  C2  UNL     1      23.370  24.253  17.778  1.00  0.00     0.034 A 
HETATM    3  N1  UNL     1      24.118  25.252  17.369  1.00  0.00    -0.338 N 
ATOM      4  H1  UNL     1      24.436  26.038  17.936  1.00  0.00     0.168 HD
HETATM    5  C3  UNL     1      24.385  25.056  16.096  1.00  0.00     0.156 A 
HETATM    6  S1  UNL     1      25.357  26.198  15.075  1.00  0.00    -0.013 SA
HETATM    7  N2  UNL     1      23.808  23.929  15.702  1.00  0.00    -0.334 N 
ATOM      8  H2  UNL     1      23.853  23.529  14.765  1.00  0.00     0.168 HD
HETATM    9  C4  UNL     1      23.143  23.397  16.767  1.00  0.00     0.061 A 
ENDROOT
BRANCH   9  10
HETATM   10  C5  UNL     1      22.290  22.235  16.588  1.00  0.00    -0.018 C 
HETATM   11  C6  UNL     1      22.983  20.971  16.989  1.00  0.00     0.039 C 
HETATM   12  C7  UNL     1      22.352  19.779  16.308  1.00  0.00     0.004 C 
HETATM   13  C8  UNL     1      20.859  19.758  16.640  1.00  0.00     0.004 C 
HETATM   14  C9  UNL     1      20.287  21.024  16.063  1.00  0.00     0.042 C 
HETATM   15  C10 UNL     1      20.872  22.249  16.821  1.00  0.00     0.201 C 
HETATM   16  F1  UNL     1      20.400  22.082  18.099  1.00  0.00    -0.245 F 
ENDBRANCH   9  10
TORSDOF 1
ENDMDL
MODEL 2
REMARK VINA RESULT: -5.942732424      3.096      4.899
REMARK  1 active torsions:
REMARK  status: ('A' for Active; 'I' for Inactive)
REMARK    1  A    between atoms: C4_9  and  C5_10 
ROOT
HETATM    1  C1  UNL     1      22.979  24.416  19.358  1.00  0.00     0.070 C 
HETATM    2  C2  UNL     1      22.639  23.587  18.188  1.00  0.00     0.034 A 
HETATM    3  N1  UNL     1      21.639  22.738  18.126  1.00  0.00    -0.338 N 
ATOM      4  H1  UNL     1      21.002  22.500  18.887  1.00  0.00     0.168 HD
HETATM    5  C3  UNL     1      21.605  22.250  16.905  1.00  0.00     0.156 A 
HETATM    6  S1  UNL     1      20.415  21.000  16.345  1.00  0.00    -0.013 SA
HETATM    7  N2  UNL     1      22.583  22.795  16.194  1.00  0.00    -0.334 N 
ATOM      8  H2  UNL     1      22.788  22.604  15.214  1.00  0.00     0.168 HD
HETATM    9  C4  UNL     1      23.267  23.655  17.002  1.00  0.00     0.061 A 
ENDROOT
BRANCH   9  10
HETATM   10  C5  UNL     1      24.489  24.282  16.530  1.00  0.00    -0.018 C 
HETATM   11  C6  UNL     1      25.478  23.273  16.040  1.00  0.00     0.039 C 
HETATM   12  C7  UNL     1      26.879  23.837  16.083  1.00  0.00     0.004 C 
HETATM   13  C8  UNL     1      26.912  25.131  15.269  1.00  0.00     0.004 C 
HETATM   14  C9  UNL     1      25.971  26.081  15.958  1.00  0.00     0.042 C 
HETATM   15  C10 UNL     1      24.516  25.543  15.841  1.00  0.00     0.201 C 
HETATM   16  F1  UNL     1      24.279  25.575  14.489  1.00  0.00    -0.245 F 
ENDBRANCH   9  10
TORSDOF 1
ENDMDL
MODEL 3
REMARK VINA RESULT: -5.885481220      3.770      5.719
REMARK  1 active torsions:
REMARK  status: ('A' for Active; 'I' for Inactive)
REMARK    1  A    between atoms: C4_9  and  C5_10 
ROOT
HETATM    1  C1  UNL     1      25.959  26.404  17.579  1.00  0.00     0.070 C 
HETATM    2  C2  UNL     1      24.865  25.459  17.290  1.00  0.00     0.034 A 
HETATM    3  N1  UNL     1      24.147  24.831  18.193  1.00  0.00    -0.338 N 
ATOM      4  H1  UNL     1      24.283  24.869  19.204  1.00  0.00     0.168 HD
HETATM    5  C3  UNL     1      23.221  24.145  17.561  1.00  0.00     0.156 A 
HETATM    6  S1  UNL     1      22.008  23.077  18.386  1.00  0.00    -0.013 SA
HETATM    7  N2  UNL     1      23.352  24.343  16.256  1.00  0.00    -0.334 N 
ATOM      8  H2  UNL     1      22.764  23.938  15.528  1.00  0.00     0.168 HD
HETATM    9  C4  UNL     1      24.409  25.181  16.057  1.00  0.00     0.061 A 
ENDROOT
BRANCH   9  10
HETATM   10  C5  UNL     1      24.880  25.454  14.711  1.00  0.00    -0.018 C 
HETATM   11  C6  UNL     1      24.995  26.922  14.449  1.00  0.00     0.039 C 
HETATM   12  C7  UNL     1      24.934  27.205  12.967  1.00  0.00     0.004 C 
HETATM   13  C8  UNL     1      26.030  26.400  12.268  1.00  0.00     0.004 C 
HETATM   14  C9  UNL     1      25.703  24.953  12.513  1.00  0.00     0.042 C 
HETATM   15  C10 UNL     1      25.848  24.639  14.030  1.00  0.00     0.201 C 
HETATM   16  F1  UNL     1      27.185  24.846  14.266  1.00  0.00    -0.245 F 
ENDBRANCH   9  10
TORSDOF 1
ENDMDL
MODEL 4
REMARK VINA RESULT: -5.840459526      3.656      5.562
REMARK  1 active torsions:
REMARK  status: ('A' for Active; 'I' for Inactive)
REMARK    1  A    between atoms: C4_9  and  C5_10 
ROOT
HETATM    1  C1  UNL     1      25.751  26.476  17.874  1.00  0.00     0.070 C 
HETATM    2  C2  UNL     1      24.779  25.474  17.402  1.00  0.00     0.034 A 
HETATM    3  N1  UNL     1      23.959  24.793  18.170  1.00  0.00    -0.338 N 
ATOM      4  H1  UNL     1      23.922  24.825  19.189  1.00  0.00     0.168 HD
HETATM    5  C3  UNL     1      23.194  24.063  17.388  1.00  0.00     0.156 A 
HETATM    6  S1  UNL     1      21.925  22.915  17.994  1.00  0.00    -0.013 SA
HETATM    7  N2  UNL     1      23.529  24.286  16.124  1.00  0.00    -0.334 N 
ATOM      8  H2  UNL     1      23.096  23.858  15.307  1.00  0.00     0.168 HD
HETATM    9  C4  UNL     1      24.552  25.187  16.109  1.00  0.00     0.061 A 
ENDROOT
BRANCH   9  10
HETATM   10  C5  UNL     1      25.225  25.505  14.862  1.00  0.00    -0.018 C 
HETATM   11  C6  UNL     1      25.056  24.419  13.847  1.00  0.00     0.039 C 
HETATM   12  C7  UNL     1      26.160  24.477  12.817  1.00  0.00     0.004 C 
HETATM   13  C8  UNL     1      26.170  25.869  12.186  1.00  0.00     0.004 C 
HETATM   14  C9  UNL     1      26.478  26.829  13.302  1.00  0.00     0.042 C 
HETATM   15  C10 UNL     1      25.302  26.834  14.320  1.00  0.00     0.201 C 
HETATM   16  F1  UNL     1      24.252  27.321  13.583  1.00  0.00    -0.245 F 
ENDBRANCH   9  10
TORSDOF 1
ENDMDL
MODEL 5
REMARK VINA RESULT: -5.814641607      3.090      5.105
REMARK  1 active torsions:
REMARK  status: ('A' for Active; 'I' for Inactive)
REMARK    1  A    between atoms: C4_9  and  C5_10 
ROOT
HETATM    1  C1  UNL     1      23.072  24.519  19.033  1.00  0.00     0.070 C 
HETATM    2  C2  UNL     1      22.729  23.571  17.958  1.00  0.00     0.034 A 
HETATM    3  N1  UNL     1      21.755  22.690  18.008  1.00  0.00    -0.338 N 
ATOM      4  H1  UNL     1      21.148  22.507  18.807  1.00  0.00     0.168 HD
HETATM    5  C3  UNL     1      21.704  22.086  16.840  1.00  0.00     0.156 A 
HETATM    6  S1  UNL     1      20.542  20.751  16.438  1.00  0.00    -0.013 SA
HETATM    7  N2  UNL     1      22.645  22.589  16.052  1.00  0.00    -0.334 N 
ATOM      8  H2  UNL     1      22.829  22.310  15.088  1.00  0.00     0.168 HD
HETATM    9  C4  UNL     1      23.321  23.543  16.753  1.00  0.00     0.061 A 
ENDROOT
BRANCH   9  10
HETATM   10  C5  UNL     1      24.508  24.159  16.186  1.00  0.00    -0.018 C 
HETATM   11  C6  UNL     1      24.212  25.504  15.603  1.00  0.00     0.039 C 
HETATM   12  C7  UNL     1      25.248  25.876  14.568  1.00  0.00     0.004 C 
HETATM   13  C8  UNL     1      26.632  25.812  15.215  1.00  0.00     0.004 C 
HETATM   14  C9  UNL     1      26.832  24.380  15.629  1.00  0.00     0.042 C 
HETATM   15  C10 UNL     1      25.821  24.021  16.756  1.00  0.00     0.201 C 
HETATM   16  F1  UNL     1      26.195  24.845  17.787  1.00  0.00    -0.245 F 
ENDBRANCH   9  10
TORSDOF 1
ENDMDL
