MODEL 1
REMARK VINA RESULT: -8.121922575      0.000      0.000
REMARK  1 active torsions:
REMARK  status: ('A' for Active; 'I' for Inactive)
REMARK    1  A    between atoms: N1_1  and  C1_4 
ROOT
HETATM    1  C1  UNL     1      22.144  12.161  33.317  1.00  0.00     0.077 A 
HETATM    2  C2  UNL     1      21.312  11.037  33.507  1.00  0.00     0.131 A 
HETATM    3  O1  UNL     1      20.037  10.966  33.807  1.00  0.00    -0.305 OA
HETATM    4  C3  UNL     1      19.640   9.700  33.894  1.00  0.00     0.088 A 
HETATM    5  C4  UNL     1      18.430   9.106  34.175  1.00  0.00     0.038 A 
HETATM    6  C5  UNL     1      18.319   7.737  34.196  1.00  0.00     0.003 A 
HETATM    7  C6  UNL     1      19.433   6.980  33.931  1.00  0.00     0.001 A 
HETATM    8  C7  UNL     1      20.639   7.572  33.649  1.00  0.00     0.017 A 
HETATM    9  C8  UNL     1      20.757   8.930  33.628  1.00  0.00     0.027 A 
HETATM   10  C9  UNL     1      21.834   9.787  33.379  1.00  0.00     0.083 A 
HETATM   11  N2  UNL     1      23.109   9.533  33.078  1.00  0.00    -0.339 N 
ATOM     12  H2  UNL     1      23.450   8.576  32.993  1.00  0.00     0.167 HD
HETATM   13  C10 UNL     1      23.938  10.596  32.889  1.00  0.00     0.120 A 
HETATM   14  N3  UNL     1      25.239  10.655  32.583  1.00  0.00    -0.341 N 
ATOM     15  H3  UNL     1      25.848   9.850  32.436  1.00  0.00     0.167 HD
HETATM   16  C11 UNL     1      25.620  11.941  32.500  1.00  0.00     0.045 A 
HETATM   17  C12 UNL     1      26.823  12.551  32.220  1.00  0.00     0.030 A 
HETATM   18  C13 UNL     1      26.989  13.907  32.187  1.00  0.00     0.002 A 
HETATM   19  C14 UNL     1      25.908  14.711  32.444  1.00  0.00     0.001 A 
HETATM   20  C15 UNL     1      24.666  14.135  32.733  1.00  0.00     0.015 A 
HETATM   21  C16 UNL     1      24.526  12.770  32.760  1.00  0.00     0.007 A 
HETATM   22  C17 UNL     1      23.465  11.885  33.005  1.00  0.00     0.050 A 
ENDROOT
BRANCH   1  23
HETATM   23  N1  UNL     1      21.635  13.277  33.441  1.00  0.00    -0.396 N 
ATOM     24  H12 UNL     1      21.568  13.999  32.723  1.00  0.00     0.156 HD
ATOM     25  H11 UNL     1      21.234  13.517  34.349  1.00  0.00     0.156 HD
ENDBRANCH   1  23
TORSDOF 1
ENDMDL
MODEL 2
REMARK VINA RESULT: -7.859494283      1.069      2.372
REMARK  1 active torsions:
REMARK  status: ('A' for Active; 'I' for Inactive)
REMARK    1  A    between atoms: N1_1  and  C1_4 
ROOT
HETATM    1  C1  UNL     1      23.685  10.070  33.006  1.00  0.00     0.077 A 
HETATM    2  C2  UNL     1      22.405   9.560  33.308  1.00  0.00     0.131 A 
HETATM    3  O1  UNL     1      21.991   8.321  33.423  1.00  0.00    -0.305 OA
HETATM    4  C3  UNL     1      20.695   8.279  33.720  1.00  0.00     0.088 A 
HETATM    5  C4  UNL     1      19.809   7.248  33.940  1.00  0.00     0.038 A 
HETATM    6  C5  UNL     1      18.495   7.518  34.235  1.00  0.00     0.003 A 
HETATM    7  C6  UNL     1      18.088   8.827  34.305  1.00  0.00     0.001 A 
HETATM    8  C7  UNL     1      18.971   9.854  34.086  1.00  0.00     0.017 A 
HETATM    9  C8  UNL     1      20.278   9.595  33.793  1.00  0.00     0.027 A 
HETATM   10  C9  UNL     1      21.375  10.421  33.528  1.00  0.00     0.083 A 
HETATM   11  N2  UNL     1      21.484  11.750  33.480  1.00  0.00    -0.339 N 
ATOM     12  H2  UNL     1      20.679  12.351  33.654  1.00  0.00     0.167 HD
HETATM   13  C10 UNL     1      22.706  12.274  33.192  1.00  0.00     0.120 A 
HETATM   14  N3  UNL     1      23.117  13.543  33.077  1.00  0.00    -0.341 N 
ATOM     15  H3  UNL     1      22.527  14.366  33.197  1.00  0.00     0.167 HD
HETATM   16  C11 UNL     1      24.426  13.562  32.777  1.00  0.00     0.045 A 
HETATM   17  C12 UNL     1      25.326  14.581  32.554  1.00  0.00     0.030 A 
HETATM   18  C13 UNL     1      26.643  14.370  32.257  1.00  0.00     0.002 A 
HETATM   19  C14 UNL     1      27.103  13.080  32.175  1.00  0.00     0.001 A 
HETATM   20  C15 UNL     1      26.225  12.014  32.394  1.00  0.00     0.015 A 
HETATM   21  C16 UNL     1      24.905  12.253  32.691  1.00  0.00     0.007 A 
HETATM   22  C17 UNL     1      23.787  11.451  32.960  1.00  0.00     0.050 A 
ENDROOT
BRANCH   1  23
HETATM   23  N1  UNL     1      24.594   9.259  32.814  1.00  0.00    -0.396 N 
ATOM     24  H12 UNL     1      24.871   8.497  33.433  1.00  0.00     0.156 HD
ATOM     25  H11 UNL     1      25.131   9.345  31.950  1.00  0.00     0.156 HD
ENDBRANCH   1  23
TORSDOF 1
ENDMDL
MODEL 3
REMARK VINA RESULT: -7.768057698      1.392      6.932
REMARK  1 active torsions:
REMARK  status: ('A' for Active; 'I' for Inactive)
REMARK    1  A    between atoms: N1_1  and  C1_4 
ROOT
HETATM    1  C1  UNL     1      23.133   9.687  33.133  1.00  0.00     0.077 A 
HETATM    2  C2  UNL     1      23.986  10.792  32.927  1.00  0.00     0.131 A 
HETATM    3  O1  UNL     1      25.277  10.836  32.701  1.00  0.00    -0.305 OA
HETATM    4  C3  UNL     1      25.692  12.092  32.562  1.00  0.00     0.088 A 
HETATM    5  C4  UNL     1      26.923  12.660  32.318  1.00  0.00     0.038 A 
HETATM    6  C5  UNL     1      27.049  14.024  32.225  1.00  0.00     0.003 A 
HETATM    7  C6  UNL     1      25.929  14.803  32.378  1.00  0.00     0.001 A 
HETATM    8  C7  UNL     1      24.703  14.238  32.620  1.00  0.00     0.017 A 
HETATM    9  C8  UNL     1      24.570  12.884  32.715  1.00  0.00     0.027 A 
HETATM   10  C9  UNL     1      23.471  12.051  32.950  1.00  0.00     0.083 A 
HETATM   11  N2  UNL     1      22.183  12.331  33.158  1.00  0.00    -0.339 N 
ATOM     12  H2  UNL     1      21.847  13.294  33.165  1.00  0.00     0.167 HD
HETATM   13  C10 UNL     1      21.334  11.287  33.361  1.00  0.00     0.120 A 
HETATM   14  N3  UNL     1      20.016  11.255  33.591  1.00  0.00    -0.341 N 
ATOM     15  H3  UNL     1      19.408  12.072  33.653  1.00  0.00     0.167 HD
HETATM   16  C11 UNL     1      19.618   9.979  33.728  1.00  0.00     0.045 A 
HETATM   17  C12 UNL     1      18.394   9.395  33.971  1.00  0.00     0.030 A 
HETATM   18  C13 UNL     1      18.212   8.044  34.074  1.00  0.00     0.002 A 
HETATM   19  C14 UNL     1      19.298   7.219  33.928  1.00  0.00     0.001 A 
HETATM   20  C15 UNL     1      20.561   7.768  33.680  1.00  0.00     0.015 A 
HETATM   21  C16 UNL     1      20.717   9.129  33.582  1.00  0.00     0.007 A 
HETATM   22  C17 UNL     1      21.799   9.990  33.348  1.00  0.00     0.050 A 
ENDROOT
BRANCH   1  23
HETATM   23  N1  UNL     1      23.637   8.562  33.105  1.00  0.00    -0.396 N 
ATOM     24  H12 UNL     1      23.371   7.791  32.492  1.00  0.00     0.156 HD
ATOM     25  H11 UNL     1      24.400   8.368  33.754  1.00  0.00     0.156 HD
ENDBRANCH   1  23
TORSDOF 1
ENDMDL
MODEL 4
REMARK VINA RESULT: -7.734736990      1.174      6.517
REMARK  1 active torsions:
REMARK  status: ('A' for Active; 'I' for Inactive)
REMARK    1  A    between atoms: N1_1  and  C1_4 
ROOT
HETATM    1  C1  UNL     1      21.491  11.838  33.380  1.00  0.00     0.077 A 
HETATM    2  C2  UNL     1      22.778  12.347  33.108  1.00  0.00     0.131 A 
HETATM    3  O1  UNL     1      23.189  13.585  32.968  1.00  0.00    -0.305 OA
HETATM    4  C3  UNL     1      24.494  13.626  32.714  1.00  0.00     0.088 A 
HETATM    5  C4  UNL     1      25.382  14.656  32.493  1.00  0.00     0.038 A 
HETATM    6  C5  UNL     1      26.706  14.386  32.250  1.00  0.00     0.003 A 
HETATM    7  C6  UNL     1      27.122  13.077  32.232  1.00  0.00     0.001 A 
HETATM    8  C7  UNL     1      26.237  12.052  32.453  1.00  0.00     0.017 A 
HETATM    9  C8  UNL     1      24.920  12.312  32.695  1.00  0.00     0.027 A 
HETATM   10  C9  UNL     1      23.819  11.487  32.948  1.00  0.00     0.083 A 
HETATM   11  N2  UNL     1      23.716  10.159  33.032  1.00  0.00    -0.339 N 
ATOM     12  H2  UNL     1      24.529   9.558  32.904  1.00  0.00     0.167 HD
HETATM   13  C10 UNL     1      22.487   9.636  33.294  1.00  0.00     0.120 A 
HETATM   14  N3  UNL     1      22.080   8.369  33.435  1.00  0.00    -0.341 N 
ATOM     15  H3  UNL     1      22.678   7.546  33.359  1.00  0.00     0.167 HD
HETATM   16  C11 UNL     1      20.761   8.350  33.690  1.00  0.00     0.045 A 
HETATM   17  C12 UNL     1      19.860   7.332  33.914  1.00  0.00     0.030 A 
HETATM   18  C13 UNL     1      18.532   7.544  34.159  1.00  0.00     0.002 A 
HETATM   19  C14 UNL     1      18.064   8.833  34.188  1.00  0.00     0.001 A 
HETATM   20  C15 UNL     1      18.943   9.898  33.967  1.00  0.00     0.015 A 
HETATM   21  C16 UNL     1      20.273   9.658  33.722  1.00  0.00     0.007 A 
HETATM   22  C17 UNL     1      21.395  10.459  33.466  1.00  0.00     0.050 A 
ENDROOT
BRANCH   1  23
HETATM   23  N1  UNL     1      20.572  12.650  33.519  1.00  0.00    -0.396 N 
ATOM     24  H12 UNL     1      20.580  13.631  33.241  1.00  0.00     0.156 HD
ATOM     25  H11 UNL     1      19.710  12.319  33.954  1.00  0.00     0.156 HD
ENDBRANCH   1  23
TORSDOF 1
ENDMDL
MODEL 5
REMARK VINA RESULT: -7.372422058      1.791      6.410
REMARK  1 active torsions:
REMARK  status: ('A' for Active; 'I' for Inactive)
REMARK    1  A    between atoms: N1_1  and  C1_4 
ROOT
HETATM    1  C1  UNL     1      21.588  11.702  32.957  1.00  0.00     0.077 A 
HETATM    2  C2  UNL     1      22.798  11.760  32.233  1.00  0.00     0.131 A 
HETATM    3  O1  UNL     1      23.440  12.789  31.734  1.00  0.00    -0.305 OA
HETATM    4  C3  UNL     1      24.553  12.401  31.118  1.00  0.00     0.088 A 
HETATM    5  C4  UNL     1      25.549  13.078  30.450  1.00  0.00     0.038 A 
HETATM    6  C5  UNL     1      26.604  12.392  29.902  1.00  0.00     0.003 A 
HETATM    7  C6  UNL     1      26.644  11.026  30.035  1.00  0.00     0.001 A 
HETATM    8  C7  UNL     1      25.653  10.351  30.701  1.00  0.00     0.017 A 
HETATM    9  C8  UNL     1      24.601  11.026  31.248  1.00  0.00     0.027 A 
HETATM   10  C9  UNL     1      23.474  10.610  31.964  1.00  0.00     0.083 A 
HETATM   11  N2  UNL     1      23.071   9.396  32.343  1.00  0.00    -0.339 N 
ATOM     12  H2  UNL     1      23.615   8.565  32.115  1.00  0.00     0.167 HD
HETATM   13  C10 UNL     1      21.907   9.306  33.043  1.00  0.00     0.120 A 
HETATM   14  N3  UNL     1      21.262   8.248  33.548  1.00  0.00    -0.341 N 
ATOM     15  H3  UNL     1      21.571   7.279  33.475  1.00  0.00     0.167 HD
HETATM   16  C11 UNL     1      20.141   8.661  34.164  1.00  0.00     0.045 A 
HETATM   17  C12 UNL     1      19.137   8.000  34.836  1.00  0.00     0.030 A 
HETATM   18  C13 UNL     1      18.065   8.633  35.399  1.00  0.00     0.002 A 
HETATM   19  C14 UNL     1      17.976   9.997  35.297  1.00  0.00     0.001 A 
HETATM   20  C15 UNL     1      18.973  10.711  34.623  1.00  0.00     0.015 A 
HETATM   21  C16 UNL     1      20.040  10.051  34.066  1.00  0.00     0.007 A 
HETATM   22  C17 UNL     1      21.180  10.437  33.345  1.00  0.00     0.050 A 
ENDROOT
BRANCH   1  23
HETATM   23  N1  UNL     1      21.005  12.765  33.182  1.00  0.00    -0.396 N 
ATOM     24  H12 UNL     1      21.414  13.612  33.577  1.00  0.00     0.156 HD
ATOM     25  H11 UNL     1      20.012  12.818  32.952  1.00  0.00     0.156 HD
ENDBRANCH   1  23
TORSDOF 1
ENDMDL
