MODEL 1
REMARK VINA RESULT: -4.378632217      0.000      0.000
REMARK  0 active torsions:
REMARK  status: ('A' for Active; 'I' for Inactive)
ROOT
HETATM    1  C1  UNL     1      25.983   5.499   5.979  1.00  0.00     0.018 C 
HETATM    2  C2  UNL     1      25.523   5.089   4.610  1.00  0.00     0.013 C 
HETATM    3  C3  UNL     1      26.569   5.212   3.555  1.00  0.00     0.093 C 
HETATM    4  S1  UNL     1      27.375   6.854   3.613  1.00  0.00    -0.066 SA
HETATM    5  N1  UNL     1      27.583   7.245   5.318  1.00  0.00    -0.179 NA
HETATM    6  C4  UNL     1      26.398   6.931   6.087  1.00  0.00     0.122 C 
ENDROOT
TORSDOF 0
ENDMDL
MODEL 2
REMARK VINA RESULT: -4.301810286      1.795      2.236
REMARK  0 active torsions:
REMARK  status: ('A' for Active; 'I' for Inactive)
ROOT
HETATM    1  C1  UNL     1      26.255   6.729   6.038  1.00  0.00     0.018 C 
HETATM    2  C2  UNL     1      27.423   7.173   5.205  1.00  0.00     0.013 C 
HETATM    3  C3  UNL     1      27.254   6.935   3.744  1.00  0.00     0.093 C 
HETATM    4  S1  UNL     1      26.711   5.219   3.414  1.00  0.00    -0.066 SA
HETATM    5  N1  UNL     1      25.534   4.822   4.664  1.00  0.00    -0.179 NA
HETATM    6  C4  UNL     1      25.973   5.262   5.971  1.00  0.00     0.122 C 
ENDROOT
TORSDOF 0
ENDMDL
MODEL 3
REMARK VINA RESULT: -4.158073619      1.366      2.269
REMARK  0 active torsions:
REMARK  status: ('A' for Active; 'I' for Inactive)
ROOT
HETATM    1  C1  UNL     1      25.535   5.103   5.192  1.00  0.00     0.018 C 
HETATM    2  C2  UNL     1      26.294   6.065   6.059  1.00  0.00     0.013 C 
HETATM    3  C3  UNL     1      26.762   7.287   5.346  1.00  0.00     0.093 C 
HETATM    4  S1  UNL     1      27.615   6.854   3.786  1.00  0.00    -0.066 SA
HETATM    5  N1  UNL     1      26.696   5.533   3.069  1.00  0.00    -0.179 NA
HETATM    6  C4  UNL     1      26.326   4.541   4.055  1.00  0.00     0.122 C 
ENDROOT
TORSDOF 0
ENDMDL
MODEL 4
REMARK VINA RESULT: -4.096324504      1.796      2.521
REMARK  0 active torsions:
REMARK  status: ('A' for Active; 'I' for Inactive)
ROOT
HETATM    1  C1  UNL     1      27.566   7.278   5.212  1.00  0.00     0.018 C 
HETATM    2  C2  UNL     1      26.416   6.898   6.099  1.00  0.00     0.013 C 
HETATM    3  C3  UNL     1      26.035   5.460   6.018  1.00  0.00     0.093 C 
HETATM    4  S1  UNL     1      25.845   4.924   4.279  1.00  0.00    -0.066 SA
HETATM    5  N1  UNL     1      27.148   5.696   3.377  1.00  0.00    -0.179 NA
HETATM    6  C4  UNL     1      27.309   7.084   3.752  1.00  0.00     0.122 C 
ENDROOT
TORSDOF 0
ENDMDL
MODEL 5
REMARK VINA RESULT: -4.015047738      1.487      2.458
REMARK  0 active torsions:
REMARK  status: ('A' for Active; 'I' for Inactive)
ROOT
HETATM    1  C1  UNL     1      26.992   5.021   2.609  1.00  0.00     0.018 C 
HETATM    2  C2  UNL     1      26.467   4.372   3.857  1.00  0.00     0.013 C 
HETATM    3  C3  UNL     1      25.723   5.299   4.756  1.00  0.00     0.093 C 
HETATM    4  S1  UNL     1      26.672   6.834   5.055  1.00  0.00    -0.066 SA
HETATM    5  N1  UNL     1      27.411   7.268   3.515  1.00  0.00    -0.179 NA
HETATM    6  C4  UNL     1      27.982   6.115   2.852  1.00  0.00     0.122 C 
ENDROOT
TORSDOF 0
ENDMDL
