MODEL 1
REMARK VINA RESULT: -6.208256430      0.000      0.000
REMARK  0 active torsions:
REMARK  status: ('A' for Active; 'I' for Inactive)
ROOT
HETATM    1  C1  UNL     1      28.049   7.206   2.020  1.00  0.00     0.124 C 
HETATM    2  N1  UNL     1      27.549   6.629   3.154  1.00  0.00    -0.337 N 
HETATM    3  C2  UNL     1      27.066   7.449   4.223  1.00  0.00     0.089 C 
HETATM    4  C3  UNL     1      27.008   6.999   5.599  1.00  0.00    -0.009 C 
HETATM    5  C4  UNL     1      25.785   6.318   6.188  1.00  0.00     0.040 C 
HETATM    6  C5  UNL     1      25.410   5.026   5.386  1.00  0.00     0.088 C 
HETATM    7  C6  UNL     1      26.066   5.113   4.144  1.00  0.00    -0.125 C 
HETATM    8  C7  UNL     1      26.796   5.359   2.961  1.00  0.00     0.343 C 
HETATM    9  F1  UNL     1      27.812   4.440   2.620  1.00  0.00    -0.213 F 
ENDROOT
TORSDOF 0
ENDMDL
MODEL 2
REMARK VINA RESULT: -5.913093782      1.571      2.353
REMARK  0 active torsions:
REMARK  status: ('A' for Active; 'I' for Inactive)
ROOT
HETATM    1  C1  UNL     1      27.923   6.216   1.980  1.00  0.00     0.124 C 
HETATM    2  N1  UNL     1      27.145   6.371   3.093  1.00  0.00    -0.337 N 
HETATM    3  C2  UNL     1      26.539   5.230   3.709  1.00  0.00     0.089 C 
HETATM    4  C3  UNL     1      25.343   5.315   4.523  1.00  0.00    -0.009 C 
HETATM    5  C4  UNL     1      25.386   5.523   6.026  1.00  0.00     0.040 C 
HETATM    6  C5  UNL     1      26.151   6.838   6.397  1.00  0.00     0.088 C 
HETATM    7  C6  UNL     1      26.901   7.208   5.265  1.00  0.00    -0.125 C 
HETATM    8  C7  UNL     1      27.575   7.431   4.046  1.00  0.00     0.343 C 
HETATM    9  F1  UNL     1      27.280   8.621   3.346  1.00  0.00    -0.213 F 
ENDROOT
TORSDOF 0
ENDMDL
MODEL 3
REMARK VINA RESULT: -5.834835707      1.355      1.892
REMARK  0 active torsions:
REMARK  status: ('A' for Active; 'I' for Inactive)
ROOT
HETATM    1  C1  UNL     1      28.378   8.820   4.803  1.00  0.00     0.124 C 
HETATM    2  N1  UNL     1      27.716   7.624   4.848  1.00  0.00    -0.337 N 
HETATM    3  C2  UNL     1      26.737   7.383   5.863  1.00  0.00     0.089 C 
HETATM    4  C3  UNL     1      26.375   6.054   6.311  1.00  0.00    -0.009 C 
HETATM    5  C4  UNL     1      25.245   5.256   5.683  1.00  0.00     0.040 C 
HETATM    6  C5  UNL     1      25.475   5.054   4.147  1.00  0.00     0.088 C 
HETATM    7  C6  UNL     1      26.436   6.001   3.750  1.00  0.00    -0.125 C 
HETATM    8  C7  UNL     1      27.408   7.002   3.531  1.00  0.00     0.343 C 
HETATM    9  F1  UNL     1      28.677   6.589   3.073  1.00  0.00    -0.213 F 
ENDROOT
TORSDOF 0
ENDMDL
MODEL 4
REMARK VINA RESULT: -5.666908089      1.367      2.312
REMARK  0 active torsions:
REMARK  status: ('A' for Active; 'I' for Inactive)
ROOT
HETATM    1  C1  UNL     1      27.532   4.466   1.835  1.00  0.00     0.124 C 
HETATM    2  N1  UNL     1      27.011   5.303   2.782  1.00  0.00    -0.337 N 
HETATM    3  C2  UNL     1      26.303   4.765   3.903  1.00  0.00     0.089 C 
HETATM    4  C3  UNL     1      25.311   5.517   4.646  1.00  0.00    -0.009 C 
HETATM    5  C4  UNL     1      25.661   6.358   5.861  1.00  0.00     0.040 C 
HETATM    6  C5  UNL     1      26.731   7.447   5.512  1.00  0.00     0.088 C 
HETATM    7  C6  UNL     1      27.329   7.057   4.299  1.00  0.00    -0.125 C 
HETATM    8  C7  UNL     1      27.810   6.523   3.084  1.00  0.00     0.343 C 
HETATM    9  F1  UNL     1      27.645   7.302   1.919  1.00  0.00    -0.213 F 
ENDROOT
TORSDOF 0
ENDMDL
MODEL 5
REMARK VINA RESULT: -5.491396840      1.875      3.766
REMARK  0 active torsions:
REMARK  status: ('A' for Active; 'I' for Inactive)
ROOT
HETATM    1  C1  UNL     1      25.215   5.551   6.234  1.00  0.00     0.124 C 
HETATM    2  N1  UNL     1      26.142   5.698   5.240  1.00  0.00    -0.337 N 
HETATM    3  C2  UNL     1      25.963   5.029   3.988  1.00  0.00     0.089 C 
HETATM    4  C3  UNL     1      27.063   4.698   3.104  1.00  0.00    -0.009 C 
HETATM    5  C4  UNL     1      27.544   5.633   2.008  1.00  0.00     0.040 C 
HETATM    6  C5  UNL     1      27.973   7.022   2.591  1.00  0.00     0.088 C 
HETATM    7  C6  UNL     1      27.410   7.116   3.877  1.00  0.00    -0.125 C 
HETATM    8  C7  UNL     1      26.782   7.038   5.139  1.00  0.00     0.343 C 
HETATM    9  F1  UNL     1      27.607   7.080   6.282  1.00  0.00    -0.213 F 
ENDROOT
TORSDOF 0
ENDMDL
