MODEL 1
REMARK VINA RESULT: -7.886336110      0.000      0.000
REMARK  2 active torsions:
REMARK  status: ('A' for Active; 'I' for Inactive)
REMARK    1  A    between atoms: C7_8  and  S1_9 
REMARK    2  A    between atoms: S1_9  and  N2_10 
ROOT
HETATM    1  N1  UNL     1      -1.981 -29.723  33.618  1.00  0.00    -0.191 NA
HETATM    2  C1  UNL     1      -1.001 -29.664  34.223  1.00  0.00     0.099 C 
HETATM    3  C2  UNL     1       0.217 -29.618  34.973  1.00  0.00     0.046 A 
HETATM    4  C3  UNL     1       0.589 -30.617  35.839  1.00  0.00     0.024 A 
HETATM    5  C4  UNL     1       1.795 -30.551  36.555  1.00  0.00     0.016 A 
HETATM    6  C5  UNL     1       2.567 -29.452  36.341  1.00  0.00     0.005 A 
HETATM    7  C6  UNL     1       3.782 -29.105  36.864  1.00  0.00     0.029 A 
HETATM    8  C7  UNL     1       4.527 -29.898  37.706  1.00  0.00     0.092 C 
HETATM    9  C8  UNL     1       5.413 -29.348  38.651  1.00  0.00     0.027 C 
HETATM   10  C9  UNL     1       6.066 -28.124  38.684  1.00  0.00     0.016 C 
HETATM   11  C10 UNL     1       6.181 -27.221  37.647  1.00  0.00     0.005 A 
HETATM   12  C11 UNL     1       5.312 -27.085  36.556  1.00  0.00     0.071 A 
HETATM   13  N3  UNL     1       5.775 -26.100  35.772  1.00  0.00    -0.353 N 
ATOM     14  H3  UNL     1       5.349 -25.776  34.905  1.00  0.00     0.166 HD
HETATM   15  C12 UNL     1       6.914 -25.606  36.335  1.00  0.00     0.043 A 
HETATM   16  C13 UNL     1       7.752 -24.606  35.929  1.00  0.00     0.030 A 
HETATM   17  C14 UNL     1       8.849 -24.316  36.714  1.00  0.00     0.002 A 
HETATM   18  C15 UNL     1       9.130 -24.984  37.872  1.00  0.00     0.001 A 
HETATM   19  C16 UNL     1       8.279 -26.002  38.287  1.00  0.00     0.014 A 
HETATM   20  C17 UNL     1       7.184 -26.290  37.502  1.00  0.00     0.003 A 
HETATM   21  C18 UNL     1       4.171 -27.792  36.280  1.00  0.00     0.073 A 
HETATM   22  N4  UNL     1       3.180 -27.459  35.460  1.00  0.00    -0.353 N 
ATOM     23  H4  UNL     1       3.145 -26.606  34.902  1.00  0.00     0.166 HD
HETATM   24  C19 UNL     1       2.223 -28.419  35.473  1.00  0.00     0.045 A 
HETATM   25  C20 UNL     1       1.031 -28.525  34.793  1.00  0.00     0.053 A 
ENDROOT
BRANCH   8  26
HETATM   26  S1  UNL     1       4.340 -31.582  37.577  1.00  0.00     0.257 S 
HETATM   27  O1  UNL     1       3.298 -32.232  38.465  1.00  0.00    -0.201 OA
HETATM   28  O2  UNL     1       4.637 -32.255  36.309  1.00  0.00    -0.201 OA
BRANCH  26  29
HETATM   29  N2  UNL     1       5.732 -32.189  38.524  1.00  0.00    -0.324 N 
ATOM     30  H22 UNL     1       6.445 -31.649  39.016  1.00  0.00     0.169 HD
ATOM     31  H21 UNL     1       5.623 -33.200  38.441  1.00  0.00     0.169 HD
ENDBRANCH  26  29
ENDBRANCH   8  26
TORSDOF 2
ENDMDL
MODEL 2
REMARK VINA RESULT: -7.799584314      2.423      4.427
REMARK  2 active torsions:
REMARK  status: ('A' for Active; 'I' for Inactive)
REMARK    1  A    between atoms: C7_8  and  S1_9 
REMARK    2  A    between atoms: S1_9  and  N2_10 
ROOT
HETATM    1  N1  UNL     1       3.618 -35.453  40.261  1.00  0.00    -0.191 NA
HETATM    2  C1  UNL     1       3.677 -34.466  39.666  1.00  0.00     0.099 C 
HETATM    3  C2  UNL     1       3.726 -33.243  38.924  1.00  0.00     0.046 A 
HETATM    4  C3  UNL     1       2.870 -32.978  37.883  1.00  0.00     0.024 A 
HETATM    5  C4  UNL     1       2.933 -31.765  37.178  1.00  0.00     0.016 A 
HETATM    6  C5  UNL     1       3.878 -30.876  37.585  1.00  0.00     0.005 A 
HETATM    7  C6  UNL     1       4.178 -29.625  37.123  1.00  0.00     0.029 A 
HETATM    8  C7  UNL     1       3.478 -28.965  36.139  1.00  0.00     0.092 C 
HETATM    9  C8  UNL     1       4.091 -28.014  35.303  1.00  0.00     0.027 C 
HETATM   10  C9  UNL     1       5.218 -27.226  35.492  1.00  0.00     0.016 C 
HETATM   11  C10 UNL     1       5.892 -27.021  36.678  1.00  0.00     0.005 A 
HETATM   12  C11 UNL     1       5.919 -27.880  37.785  1.00  0.00     0.071 A 
HETATM   13  N3  UNL     1       6.682 -27.316  38.734  1.00  0.00    -0.353 N 
ATOM     14  H3  UNL     1       6.884 -27.712  39.651  1.00  0.00     0.166 HD
HETATM   15  C12 UNL     1       7.141 -26.124  38.260  1.00  0.00     0.043 A 
HETATM   16  C13 UNL     1       7.947 -25.182  38.836  1.00  0.00     0.030 A 
HETATM   17  C14 UNL     1       8.252 -24.052  38.107  1.00  0.00     0.002 A 
HETATM   18  C15 UNL     1       7.785 -23.836  36.842  1.00  0.00     0.001 A 
HETATM   19  C16 UNL     1       6.965 -24.792  36.254  1.00  0.00     0.014 A 
HETATM   20  C17 UNL     1       6.661 -25.921  36.983  1.00  0.00     0.003 A 
HETATM   21  C18 UNL     1       5.306 -29.096  37.937  1.00  0.00     0.073 A 
HETATM   22  N4  UNL     1       5.589 -30.051  38.816  1.00  0.00    -0.353 N 
ATOM     23  H4  UNL     1       6.322 -29.996  39.524  1.00  0.00     0.166 HD
HETATM   24  C19 UNL     1       4.763 -31.110  38.634  1.00  0.00     0.045 A 
HETATM   25  C20 UNL     1       4.667 -32.313  39.296  1.00  0.00     0.053 A 
ENDROOT
BRANCH   8  26
HETATM   26  S1  UNL     1       1.831 -29.343  35.953  1.00  0.00     0.257 S 
HETATM   27  O1  UNL     1       1.485 -30.503  35.041  1.00  0.00    -0.201 OA
HETATM   28  O2  UNL     1       0.888 -29.055  37.039  1.00  0.00    -0.201 OA
BRANCH  26  29
HETATM   29  N2  UNL     1       1.285 -28.088  34.799  1.00  0.00    -0.324 N 
ATOM     30  H22 UNL     1       0.331 -27.866  34.512  1.00  0.00     0.169 HD
ATOM     31  H21 UNL     1       2.167 -27.663  34.511  1.00  0.00     0.169 HD
ENDBRANCH  26  29
ENDBRANCH   8  26
TORSDOF 2
ENDMDL
MODEL 3
REMARK VINA RESULT: -7.788371843      1.088      1.088
REMARK  2 active torsions:
REMARK  status: ('A' for Active; 'I' for Inactive)
REMARK    1  A    between atoms: C7_8  and  S1_9 
REMARK    2  A    between atoms: S1_9  and  N2_10 
ROOT
HETATM    1  N1  UNL     1      -1.805 -28.908  33.808  1.00  0.00    -0.191 NA
HETATM    2  C1  UNL     1      -0.833 -29.011  34.420  1.00  0.00     0.099 C 
HETATM    3  C2  UNL     1       0.369 -29.164  35.182  1.00  0.00     0.046 A 
HETATM    4  C3  UNL     1       0.484 -30.076  36.203  1.00  0.00     0.024 A 
HETATM    5  C4  UNL     1       1.679 -30.212  36.928  1.00  0.00     0.016 A 
HETATM    6  C5  UNL     1       2.706 -29.399  36.562  1.00  0.00     0.005 A 
HETATM    7  C6  UNL     1       3.978 -29.300  37.052  1.00  0.00     0.029 A 
HETATM    8  C7  UNL     1       4.508 -30.115  38.026  1.00  0.00     0.092 C 
HETATM    9  C8  UNL     1       5.523 -29.672  38.894  1.00  0.00     0.027 C 
HETATM   10  C9  UNL     1       6.472 -28.669  38.750  1.00  0.00     0.016 C 
HETATM   11  C10 UNL     1       6.798 -28.003  37.587  1.00  0.00     0.005 A 
HETATM   12  C11 UNL     1       5.974 -27.820  36.468  1.00  0.00     0.071 A 
HETATM   13  N3  UNL     1       6.663 -27.125  35.550  1.00  0.00    -0.353 N 
ATOM     14  H3  UNL     1       6.319 -26.843  34.632  1.00  0.00     0.166 HD
HETATM   15  C12 UNL     1       7.901 -26.861  36.055  1.00  0.00     0.043 A 
HETATM   16  C13 UNL     1       8.962 -26.188  35.517  1.00  0.00     0.030 A 
HETATM   17  C14 UNL     1      10.111 -26.073  36.272  1.00  0.00     0.002 A 
HETATM   18  C15 UNL     1      10.230 -26.599  37.527  1.00  0.00     0.001 A 
HETATM   19  C16 UNL     1       9.152 -27.283  38.077  1.00  0.00     0.014 A 
HETATM   20  C17 UNL     1       8.005 -27.398  37.321  1.00  0.00     0.003 A 
HETATM   21  C18 UNL     1       4.684 -28.242  36.279  1.00  0.00     0.073 A 
HETATM   22  N4  UNL     1       3.799 -27.797  35.394  1.00  0.00    -0.353 N 
ATOM     23  H4  UNL     1       3.976 -27.063  34.708  1.00  0.00     0.166 HD
HETATM   24  C19 UNL     1       2.626 -28.462  35.535  1.00  0.00     0.045 A 
HETATM   25  C20 UNL     1       1.435 -28.362  34.852  1.00  0.00     0.053 A 
ENDROOT
BRANCH   8  26
HETATM   26  S1  UNL     1       3.887 -31.692  38.159  1.00  0.00     0.257 S 
HETATM   27  O1  UNL     1       2.668 -31.884  39.038  1.00  0.00    -0.201 OA
HETATM   28  O2  UNL     1       4.058 -32.640  37.053  1.00  0.00    -0.201 OA
BRANCH  26  29
HETATM   29  N2  UNL     1       5.021 -32.446  39.322  1.00  0.00    -0.324 N 
ATOM     30  H22 UNL     1       5.313 -32.097  40.235  1.00  0.00     0.169 HD
ATOM     31  H21 UNL     1       5.290 -33.301  38.835  1.00  0.00     0.169 HD
ENDBRANCH  26  29
ENDBRANCH   8  26
TORSDOF 2
ENDMDL
MODEL 4
REMARK VINA RESULT: -7.523499908      3.094      4.099
REMARK  2 active torsions:
REMARK  status: ('A' for Active; 'I' for Inactive)
REMARK    1  A    between atoms: C7_8  and  S1_9 
REMARK    2  A    between atoms: S1_9  and  N2_10 
ROOT
HETATM    1  N1  UNL     1       0.258 -35.441  34.676  1.00  0.00    -0.191 NA
HETATM    2  C1  UNL     1       0.509 -34.406  35.120  1.00  0.00     0.099 C 
HETATM    3  C2  UNL     1       0.798 -33.122  35.682  1.00  0.00     0.046 A 
HETATM    4  C3  UNL     1      -0.179 -32.188  35.927  1.00  0.00     0.024 A 
HETATM    5  C4  UNL     1       0.131 -30.940  36.489  1.00  0.00     0.016 A 
HETATM    6  C5  UNL     1       1.441 -30.712  36.777  1.00  0.00     0.005 A 
HETATM    7  C6  UNL     1       2.052 -29.624  37.333  1.00  0.00     0.029 A 
HETATM    8  C7  UNL     1       1.393 -28.511  37.803  1.00  0.00     0.092 C 
HETATM    9  C8  UNL     1       1.999 -27.240  37.816  1.00  0.00     0.027 C 
HETATM   10  C9  UNL     1       3.336 -26.869  37.841  1.00  0.00     0.016 C 
HETATM   11  C10 UNL     1       4.416 -27.688  38.098  1.00  0.00     0.005 A 
HETATM   12  C11 UNL     1       4.478 -29.075  37.906  1.00  0.00     0.071 A 
HETATM   13  N3  UNL     1       5.697 -29.494  38.278  1.00  0.00    -0.353 N 
ATOM     14  H3  UNL     1       6.032 -30.457  38.250  1.00  0.00     0.166 HD
HETATM   15  C12 UNL     1       6.411 -28.413  38.700  1.00  0.00     0.043 A 
HETATM   16  C13 UNL     1       7.690 -28.313  39.171  1.00  0.00     0.030 A 
HETATM   17  C14 UNL     1       8.156 -27.065  39.529  1.00  0.00     0.002 A 
HETATM   18  C15 UNL     1       7.398 -25.933  39.432  1.00  0.00     0.001 A 
HETATM   19  C16 UNL     1       6.097 -26.032  38.952  1.00  0.00     0.014 A 
HETATM   20  C17 UNL     1       5.632 -27.280  38.596  1.00  0.00     0.003 A 
HETATM   21  C18 UNL     1       3.509 -29.915  37.423  1.00  0.00     0.073 A 
HETATM   22  N4  UNL     1       3.659 -31.138  36.928  1.00  0.00    -0.353 N 
ATOM     23  H4  UNL     1       4.548 -31.632  36.849  1.00  0.00     0.166 HD
HETATM   24  C19 UNL     1       2.458 -31.634  36.542  1.00  0.00     0.045 A 
HETATM   25  C20 UNL     1       2.109 -32.844  35.988  1.00  0.00     0.053 A 
ENDROOT
BRANCH   8  26
HETATM   26  S1  UNL     1      -0.198 -28.713  38.365  1.00  0.00     0.257 S 
HETATM   27  O1  UNL     1      -1.319 -28.421  37.388  1.00  0.00    -0.201 OA
HETATM   28  O2  UNL     1      -0.481 -29.691  39.420  1.00  0.00    -0.201 OA
BRANCH  26  29
HETATM   29  N2  UNL     1      -0.452 -27.222  39.322  1.00  0.00    -0.324 N 
ATOM     30  H22 UNL     1       0.182 -26.787  39.993  1.00  0.00     0.169 HD
ATOM     31  H21 UNL     1      -1.382 -26.930  39.021  1.00  0.00     0.169 HD
ENDBRANCH  26  29
ENDBRANCH   8  26
TORSDOF 2
ENDMDL
MODEL 5
REMARK VINA RESULT: -7.438639274      5.133      9.717
REMARK  2 active torsions:
REMARK  status: ('A' for Active; 'I' for Inactive)
REMARK    1  A    between atoms: C7_8  and  S1_9 
REMARK    2  A    between atoms: S1_9  and  N2_10 
ROOT
HETATM    1  N1  UNL     1      12.439 -18.459  39.674  1.00  0.00    -0.191 NA
HETATM    2  C1  UNL     1      12.110 -19.463  39.210  1.00  0.00     0.099 C 
HETATM    3  C2  UNL     1      11.727 -20.716  38.636  1.00  0.00     0.046 A 
HETATM    4  C3  UNL     1      12.579 -21.464  37.860  1.00  0.00     0.024 A 
HETATM    5  C4  UNL     1      12.180 -22.696  37.318  1.00  0.00     0.016 A 
HETATM    6  C5  UNL     1      10.915 -23.104  37.606  1.00  0.00     0.005 A 
HETATM    7  C6  UNL     1      10.245 -24.241  37.248  1.00  0.00     0.029 A 
HETATM    8  C7  UNL     1      10.797 -25.285  36.542  1.00  0.00     0.092 C 
HETATM    9  C8  UNL     1      10.018 -26.114  35.714  1.00  0.00     0.027 C 
HETATM   10  C9  UNL     1       8.662 -26.410  35.737  1.00  0.00     0.016 C 
HETATM   11  C10 UNL     1       7.772 -26.128  36.753  1.00  0.00     0.005 A 
HETATM   12  C11 UNL     1       7.889 -25.108  37.708  1.00  0.00     0.071 A 
HETATM   13  N3  UNL     1       6.823 -25.171  38.520  1.00  0.00    -0.353 N 
ATOM     14  H3  UNL     1       6.636 -24.554  39.310  1.00  0.00     0.166 HD
HETATM   15  C12 UNL     1       6.033 -26.202  38.108  1.00  0.00     0.043 A 
HETATM   16  C13 UNL     1       4.846 -26.672  38.597  1.00  0.00     0.030 A 
HETATM   17  C14 UNL     1       4.262 -27.750  37.966  1.00  0.00     0.002 A 
HETATM   18  C15 UNL     1       4.816 -28.363  36.878  1.00  0.00     0.001 A 
HETATM   19  C16 UNL     1       6.023 -27.887  36.378  1.00  0.00     0.014 A 
HETATM   20  C17 UNL     1       6.605 -26.810  37.010  1.00  0.00     0.003 A 
HETATM   21  C18 UNL     1       8.882 -24.174  37.842  1.00  0.00     0.073 A 
HETATM   22  N4  UNL     1       8.839 -23.024  38.506  1.00  0.00    -0.353 N 
ATOM     23  H4  UNL     1       8.033 -22.680  39.028  1.00  0.00     0.166 HD
HETATM   24  C19 UNL     1      10.023 -22.374  38.387  1.00  0.00     0.045 A 
HETATM   25  C20 UNL     1      10.456 -21.171  38.896  1.00  0.00     0.053 A 
ENDROOT
BRANCH   8  26
HETATM   26  S1  UNL     1      12.470 -25.543  36.692  1.00  0.00     0.257 S 
HETATM   27  O1  UNL     1      12.958 -26.976  36.623  1.00  0.00    -0.201 OA
HETATM   28  O2  UNL     1      13.411 -24.505  36.260  1.00  0.00    -0.201 OA
BRANCH  26  29
HETATM   29  N2  UNL     1      12.717 -25.396  38.459  1.00  0.00    -0.324 N 
ATOM     30  H22 UNL     1      13.031 -24.581  38.986  1.00  0.00     0.169 HD
ATOM     31  H21 UNL     1      12.464 -26.327  38.789  1.00  0.00     0.169 HD
ENDBRANCH  26  29
ENDBRANCH   8  26
TORSDOF 2
ENDMDL
