MODEL 1
REMARK VINA RESULT: -6.484092959      0.000      0.000
REMARK  5 active torsions:
REMARK  status: ('A' for Active; 'I' for Inactive)
REMARK    1  A    between atoms: C2_2  and  C4_4 
REMARK    2  A    between atoms: C4_4  and  C5_5 
REMARK    3  A    between atoms: C5_5  and  N1_6 
REMARK       I    between atoms: N1_6  and  C6_8 
REMARK    4  A    between atoms: C6_8  and  C7_10 
REMARK    5  A    between atoms: C7_10  and  C8_11 
ROOT
HETATM    1  C8  UNL     1     -25.291 151.045  51.427  1.00  0.00    -0.031 C 
HETATM    2  C9  UNL     1     -26.322 152.134  51.817  1.00  0.00     0.014 C 
HETATM    3  C10 UNL     1     -26.707 152.970  50.642  1.00  0.00    -0.013 C 
HETATM    4  C11 UNL     1     -27.307 152.090  49.569  1.00  0.00     0.009 C 
HETATM    5  C12 UNL     1     -26.244 151.160  49.094  1.00  0.00    -0.013 C 
HETATM    6  C13 UNL     1     -24.988 151.869  48.637  1.00  0.00     0.009 C 
HETATM    7  C14 UNL     1     -24.448 152.658  49.800  1.00  0.00    -0.013 C 
HETATM    8  C15 UNL     1     -25.465 153.696  50.166  1.00  0.00     0.009 C 
HETATM    9  C16 UNL     1     -24.077 151.766  50.978  1.00  0.00     0.014 C 
HETATM   10  C17 UNL     1     -25.847 150.256  50.255  1.00  0.00     0.014 C 
ENDROOT
BRANCH   1  11
HETATM   11  C7  UNL     1     -25.138 150.154  52.592  1.00  0.00     0.112 C 
BRANCH  11  12
HETATM   12  C6  UNL     1     -24.514 150.663  53.798  1.00  0.00     0.218 C 
HETATM   13  N1  UNL     1     -25.158 150.518  55.055  1.00  0.00    -0.361 N 
ATOM     14  H1  UNL     1     -26.064 150.050  55.090  1.00  0.00     0.162 HD
HETATM   15  O1  UNL     1     -23.415 151.235  53.781  1.00  0.00    -0.274 OA
BRANCH  13  16
HETATM   16  C5  UNL     1     -24.579 151.009  56.289  1.00  0.00     0.123 C 
BRANCH  16  17
HETATM   17  C4  UNL     1     -25.615 151.627  57.178  1.00  0.00     0.023 C 
BRANCH  17  18
HETATM   18  C2  UNL     1     -25.136 152.846  57.894  1.00  0.00    -0.021 C 
HETATM   19  C1  UNL     1     -24.528 153.881  57.005  1.00  0.00     0.009 C 
HETATM   20  C3  UNL     1     -26.312 153.441  58.642  1.00  0.00     0.009 C 
ENDBRANCH  17  18
ENDBRANCH  16  17
ENDBRANCH  13  16
ENDBRANCH  11  12
ENDBRANCH   1  11
TORSDOF 5
ENDMDL
MODEL 2
REMARK VINA RESULT: -6.468416670      0.573      1.801
REMARK  5 active torsions:
REMARK  status: ('A' for Active; 'I' for Inactive)
REMARK    1  A    between atoms: C2_2  and  C4_4 
REMARK    2  A    between atoms: C4_4  and  C5_5 
REMARK    3  A    between atoms: C5_5  and  N1_6 
REMARK       I    between atoms: N1_6  and  C6_8 
REMARK    4  A    between atoms: C6_8  and  C7_10 
REMARK    5  A    between atoms: C7_10  and  C8_11 
ROOT
HETATM    1  C8  UNL     1     -25.373 151.090  51.448  1.00  0.00    -0.031 C 
HETATM    2  C9  UNL     1     -25.997 150.303  50.268  1.00  0.00     0.014 C 
HETATM    3  C10 UNL     1     -26.254 151.187  49.094  1.00  0.00    -0.013 C 
HETATM    4  C11 UNL     1     -24.953 151.807  48.634  1.00  0.00     0.009 C 
HETATM    5  C12 UNL     1     -24.459 152.692  49.727  1.00  0.00    -0.013 C 
HETATM    6  C13 UNL     1     -25.476 153.720  50.172  1.00  0.00     0.009 C 
HETATM    7  C14 UNL     1     -26.695 152.987  50.665  1.00  0.00    -0.013 C 
HETATM    8  C15 UNL     1     -27.274 152.225  49.512  1.00  0.00     0.009 C 
HETATM    9  C16 UNL     1     -26.385 152.092  51.858  1.00  0.00     0.014 C 
HETATM   10  C17 UNL     1     -24.145 151.823  50.939  1.00  0.00     0.014 C 
ENDROOT
BRANCH   1  11
HETATM   11  C7  UNL     1     -24.971 150.102  52.466  1.00  0.00     0.112 C 
BRANCH  11  12
HETATM   12  C6  UNL     1     -24.718 150.546  53.824  1.00  0.00     0.218 C 
HETATM   13  N1  UNL     1     -25.568 150.131  54.883  1.00  0.00    -0.361 N 
ATOM     14  H1  UNL     1     -26.354 149.518  54.669  1.00  0.00     0.162 HD
HETATM   15  O1  UNL     1     -23.770 151.290  54.109  1.00  0.00    -0.274 OA
BRANCH  13  16
HETATM   16  C5  UNL     1     -25.360 150.545  56.256  1.00  0.00     0.123 C 
BRANCH  16  17
HETATM   17  C4  UNL     1     -26.581 151.201  56.826  1.00  0.00     0.023 C 
BRANCH  17  18
HETATM   18  C2  UNL     1     -26.279 152.214  57.879  1.00  0.00    -0.021 C 
HETATM   19  C1  UNL     1     -25.016 152.978  57.650  1.00  0.00     0.009 C 
HETATM   20  C3  UNL     1     -27.450 153.171  57.959  1.00  0.00     0.009 C 
ENDBRANCH  17  18
ENDBRANCH  16  17
ENDBRANCH  13  16
ENDBRANCH  11  12
ENDBRANCH   1  11
TORSDOF 5
ENDMDL
MODEL 3
REMARK VINA RESULT: -6.227729778      1.555      2.744
REMARK  5 active torsions:
REMARK  status: ('A' for Active; 'I' for Inactive)
REMARK    1  A    between atoms: C2_2  and  C4_4 
REMARK    2  A    between atoms: C4_4  and  C5_5 
REMARK    3  A    between atoms: C5_5  and  N1_6 
REMARK       I    between atoms: N1_6  and  C6_8 
REMARK    4  A    between atoms: C6_8  and  C7_10 
REMARK    5  A    between atoms: C7_10  and  C8_11 
ROOT
HETATM    1  C8  UNL     1     -24.894 151.893  51.147  1.00  0.00    -0.031 C 
HETATM    2  C9  UNL     1     -24.228 151.461  49.816  1.00  0.00     0.014 C 
HETATM    3  C10 UNL     1     -24.952 152.016  48.635  1.00  0.00    -0.013 C 
HETATM    4  C11 UNL     1     -24.959 153.526  48.710  1.00  0.00     0.009 C 
HETATM    5  C12 UNL     1     -25.749 153.920  49.911  1.00  0.00    -0.013 C 
HETATM    6  C13 UNL     1     -27.140 153.324  49.935  1.00  0.00     0.009 C 
HETATM    7  C14 UNL     1     -27.005 151.824  49.922  1.00  0.00    -0.013 C 
HETATM    8  C15 UNL     1     -26.350 151.431  48.634  1.00  0.00     0.009 C 
HETATM    9  C16 UNL     1     -26.254 151.303  51.141  1.00  0.00     0.014 C 
HETATM   10  C17 UNL     1     -25.024 153.406  51.148  1.00  0.00     0.014 C 
ENDROOT
BRANCH   1  11
HETATM   11  C7  UNL     1     -23.996 151.474  52.239  1.00  0.00     0.112 C 
BRANCH  11  12
HETATM   12  C6  UNL     1     -24.528 150.679  53.329  1.00  0.00     0.218 C 
HETATM   13  N1  UNL     1     -24.188 150.986  54.673  1.00  0.00    -0.361 N 
ATOM     14  H1  UNL     1     -23.564 151.773  54.853  1.00  0.00     0.162 HD
HETATM   15  O1  UNL     1     -25.287 149.718  53.136  1.00  0.00    -0.274 OA
BRANCH  13  16
HETATM   16  C5  UNL     1     -24.690 150.224  55.797  1.00  0.00     0.123 C 
BRANCH  16  17
HETATM   17  C4  UNL     1     -25.785 150.954  56.515  1.00  0.00     0.023 C 
BRANCH  17  18
HETATM   18  C2  UNL     1     -27.152 150.612  56.023  1.00  0.00    -0.021 C 
HETATM   19  C1  UNL     1     -27.443 149.148  55.985  1.00  0.00     0.009 C 
HETATM   20  C3  UNL     1     -28.159 151.311  56.915  1.00  0.00     0.009 C 
ENDBRANCH  17  18
ENDBRANCH  16  17
ENDBRANCH  13  16
ENDBRANCH  11  12
ENDBRANCH   1  11
TORSDOF 5
ENDMDL
MODEL 4
REMARK VINA RESULT: -6.155883699      1.339      6.882
REMARK  5 active torsions:
REMARK  status: ('A' for Active; 'I' for Inactive)
REMARK    1  A    between atoms: C2_2  and  C4_4 
REMARK    2  A    between atoms: C4_4  and  C5_5 
REMARK    3  A    between atoms: C5_5  and  N1_6 
REMARK       I    between atoms: N1_6  and  C6_8 
REMARK    4  A    between atoms: C6_8  and  C7_10 
REMARK    5  A    between atoms: C7_10  and  C8_11 
ROOT
HETATM    1  C8  UNL     1     -24.978 151.973  57.185  1.00  0.00    -0.031 C 
HETATM    2  C9  UNL     1     -24.800 151.834  58.717  1.00  0.00     0.014 C 
HETATM    3  C10 UNL     1     -25.675 152.788  59.460  1.00  0.00    -0.013 C 
HETATM    4  C11 UNL     1     -27.122 152.524  59.110  1.00  0.00     0.009 C 
HETATM    5  C12 UNL     1     -27.305 152.826  57.662  1.00  0.00    -0.013 C 
HETATM    6  C13 UNL     1     -26.852 154.218  57.279  1.00  0.00     0.009 C 
HETATM    7  C14 UNL     1     -25.389 154.341  57.613  1.00  0.00    -0.013 C 
HETATM    8  C15 UNL     1     -25.239 154.192  59.096  1.00  0.00     0.009 C 
HETATM    9  C16 UNL     1     -24.536 153.345  56.839  1.00  0.00     0.014 C 
HETATM   10  C17 UNL     1     -26.456 151.846  56.861  1.00  0.00     0.014 C 
ENDROOT
BRANCH   1  11
HETATM   11  C7  UNL     1     -24.239 150.862  56.558  1.00  0.00     0.112 C 
BRANCH  11  12
HETATM   12  C6  UNL     1     -23.617 151.065  55.264  1.00  0.00     0.218 C 
HETATM   13  N1  UNL     1     -24.416 151.216  54.099  1.00  0.00    -0.361 N 
ATOM     14  H1  UNL     1     -25.431 151.180  54.193  1.00  0.00     0.162 HD
HETATM   15  O1  UNL     1     -22.387 151.113  55.123  1.00  0.00    -0.274 OA
BRANCH  13  16
HETATM   16  C5  UNL     1     -23.845 151.420  52.784  1.00  0.00     0.123 C 
BRANCH  16  17
HETATM   17  C4  UNL     1     -24.903 151.471  51.723  1.00  0.00     0.023 C 
BRANCH  17  18
HETATM   18  C2  UNL     1     -24.508 152.263  50.522  1.00  0.00    -0.021 C 
HETATM   19  C1  UNL     1     -24.698 151.547  49.225  1.00  0.00     0.009 C 
HETATM   20  C3  UNL     1     -25.313 153.547  50.522  1.00  0.00     0.009 C 
ENDBRANCH  17  18
ENDBRANCH  16  17
ENDBRANCH  13  16
ENDBRANCH  11  12
ENDBRANCH   1  11
TORSDOF 5
ENDMDL
MODEL 5
REMARK VINA RESULT: -6.001698882      1.378      7.051
REMARK  5 active torsions:
REMARK  status: ('A' for Active; 'I' for Inactive)
REMARK    1  A    between atoms: C2_2  and  C4_4 
REMARK    2  A    between atoms: C4_4  and  C5_5 
REMARK    3  A    between atoms: C5_5  and  N1_6 
REMARK       I    between atoms: N1_6  and  C6_8 
REMARK    4  A    between atoms: C6_8  and  C7_10 
REMARK    5  A    between atoms: C7_10  and  C8_11 
ROOT
HETATM    1  C8  UNL     1     -25.280 152.130  57.550  1.00  0.00    -0.031 C 
HETATM    2  C9  UNL     1     -24.666 153.464  57.056  1.00  0.00     0.014 C 
HETATM    3  C10 UNL     1     -25.365 154.643  57.646  1.00  0.00    -0.013 C 
HETATM    4  C11 UNL     1     -25.266 154.588  59.154  1.00  0.00     0.009 C 
HETATM    5  C12 UNL     1     -26.010 153.382  59.617  1.00  0.00    -0.013 C 
HETATM    6  C13 UNL     1     -27.438 153.331  59.120  1.00  0.00     0.009 C 
HETATM    7  C14 UNL     1     -27.408 153.326  57.614  1.00  0.00    -0.013 C 
HETATM    8  C15 UNL     1     -26.800 154.618  57.160  1.00  0.00     0.009 C 
HETATM    9  C16 UNL     1     -26.678 152.111  57.057  1.00  0.00     0.014 C 
HETATM   10  C17 UNL     1     -25.304 152.148  59.069  1.00  0.00     0.014 C 
ENDROOT
BRANCH   1  11
HETATM   11  C7  UNL     1     -24.399 151.045  57.084  1.00  0.00     0.112 C 
BRANCH  11  12
HETATM   12  C6  UNL     1     -23.737 151.171  55.800  1.00  0.00     0.218 C 
HETATM   13  N1  UNL     1     -24.482 151.062  54.595  1.00  0.00    -0.361 N 
ATOM     14  H1  UNL     1     -25.486 150.894  54.654  1.00  0.00     0.162 HD
HETATM   15  O1  UNL     1     -22.519 151.374  55.702  1.00  0.00    -0.274 OA
BRANCH  13  16
HETATM   16  C5  UNL     1     -23.869 151.178  53.288  1.00  0.00     0.123 C 
BRANCH  16  17
HETATM   17  C4  UNL     1     -24.898 151.325  52.207  1.00  0.00     0.023 C 
BRANCH  17  18
HETATM   18  C2  UNL     1     -24.395 152.041  50.997  1.00  0.00    -0.021 C 
HETATM   19  C1  UNL     1     -24.484 151.248  49.734  1.00  0.00     0.009 C 
HETATM   20  C3  UNL     1     -25.184 153.326  50.853  1.00  0.00     0.009 C 
ENDBRANCH  17  18
ENDBRANCH  16  17
ENDBRANCH  13  16
ENDBRANCH  11  12
ENDBRANCH   1  11
TORSDOF 5
ENDMDL
