MODEL 1
REMARK VINA RESULT: -8.106777206      0.000      0.000
REMARK  9 active torsions:
REMARK  status: ('A' for Active; 'I' for Inactive)
REMARK    1  A    between atoms: C2_2  and  N1_3 
REMARK    2  A    between atoms: C2_2  and  C13_23 
REMARK       I    between atoms: N1_3  and  C3_4 
REMARK       I    between atoms: C3_4  and  N2_6 
REMARK    3  A    between atoms: N2_6  and  C4_8 
REMARK    4  A    between atoms: C7_11  and  N3_12 
REMARK       I    between atoms: N3_12  and  C8_14 
REMARK    5  A    between atoms: C8_14  and  C9_16 
REMARK    6  A    between atoms: C9_16  and  C10_17 
REMARK    7  A    between atoms: C10_17  and  C11_18 
REMARK    8  A    between atoms: C18_28  and  C19_29 
REMARK    9  A    between atoms: C20_30  and  C21_31 
ROOT
HETATM    1  N1  UNL     1       6.543   5.535  17.763  1.00  0.00    -0.391 NA
HETATM    2  C3  UNL     1       6.839   6.340  18.808  1.00  0.00     0.393 C 
HETATM    3  O1  UNL     1       6.157   7.308  19.242  1.00  0.00    -0.230 OA
HETATM    4  N2  UNL     1       8.064   6.158  19.592  1.00  0.00    -0.296 N 
ATOM      5  H2  UNL     1       8.719   5.409  19.366  1.00  0.00     0.172 HD
ENDROOT
BRANCH   4   6
HETATM    6  C4  UNL     1       8.317   7.028  20.652  1.00  0.00     0.052 A 
HETATM    7  C5  UNL     1       7.803   6.750  21.928  1.00  0.00     0.035 A 
HETATM    8  C6  UNL     1       8.009   7.562  23.010  1.00  0.00     0.051 A 
HETATM    9  C7  UNL     1       8.770   8.718  22.807  1.00  0.00     0.107 A 
HETATM   10  N4  UNL     1       9.254   8.972  21.573  1.00  0.00    -0.350 N 
HETATM   11  C12 UNL     1       9.072   8.200  20.506  1.00  0.00     0.119 A 
ATOM     12  H4  UNL     1       9.803   9.823  21.449  1.00  0.00     0.166 HD
BRANCH   9  13
HETATM   13  N3  UNL     1       8.981   9.451  23.798  1.00  0.00    -0.313 N 
HETATM   14  C8  UNL     1      10.098   9.391  24.638  1.00  0.00     0.223 C 
HETATM   15  O2  UNL     1      10.962  10.315  24.478  1.00  0.00    -0.273 OA
ATOM     16  H3  UNL     1       8.276  10.156  24.013  1.00  0.00     0.170 HD
BRANCH  14  17
HETATM   17  C9  UNL     1      10.273   8.333  25.647  1.00  0.00     0.104 C 
BRANCH  17  18
HETATM   18  C10 UNL     1      11.681   8.205  26.121  1.00  0.00     0.020 C 
BRANCH  18  19
HETATM   19  C11 UNL     1      11.798   7.159  27.182  1.00  0.00     0.085 C 
HETATM   20 BR1  UNL     1      10.026   6.407  27.512  1.00  0.00    -0.097 Br
ENDBRANCH  18  19
ENDBRANCH  17  18
ENDBRANCH  14  17
ENDBRANCH   9  13
ENDBRANCH   4   6
BRANCH   1  21
HETATM   21  C2  UNL     1       6.240   4.711  16.692  1.00  0.00     0.170 C 
HETATM   22  C1  UNL     1       4.739   4.598  16.513  1.00  0.00     0.048 C 
BRANCH  21  23
HETATM   23  C13 UNL     1       6.928   3.359  16.735  1.00  0.00     0.037 C 
HETATM   24  C14 UNL     1       8.224   3.306  17.445  1.00  0.00     0.009 C 
HETATM   25  C15 UNL     1       8.882   1.977  17.012  1.00  0.00     0.001 C 
HETATM   26  C16 UNL     1       7.994   0.802  17.233  1.00  0.00     0.001 C 
HETATM   27  C17 UNL     1       6.593   0.981  16.748  1.00  0.00     0.018 C 
HETATM   28  C18 UNL     1       6.047   2.288  17.337  1.00  0.00     0.072 C 
BRANCH  28  29
HETATM   29  C19 UNL     1       6.250   2.141  18.795  1.00  0.00    -0.099 C 
HETATM   30  C20 UNL     1       6.401   2.018  20.000  1.00  0.00    -0.075 C 
BRANCH  30  31
HETATM   31  C21 UNL     1       6.613   1.867  21.449  1.00  0.00     0.315 C 
HETATM   32  F1  UNL     1       5.376   1.528  22.000  1.00  0.00    -0.242 F 
ENDBRANCH  30  31
ENDBRANCH  28  29
ENDBRANCH  21  23
ENDBRANCH   1  21
TORSDOF 9
ENDMDL
MODEL 2
REMARK VINA RESULT: -7.832505134      1.482      1.900
REMARK  9 active torsions:
REMARK  status: ('A' for Active; 'I' for Inactive)
REMARK    1  A    between atoms: C2_2  and  N1_3 
REMARK    2  A    between atoms: C2_2  and  C13_23 
REMARK       I    between atoms: N1_3  and  C3_4 
REMARK       I    between atoms: C3_4  and  N2_6 
REMARK    3  A    between atoms: N2_6  and  C4_8 
REMARK    4  A    between atoms: C7_11  and  N3_12 
REMARK       I    between atoms: N3_12  and  C8_14 
REMARK    5  A    between atoms: C8_14  and  C9_16 
REMARK    6  A    between atoms: C9_16  and  C10_17 
REMARK    7  A    between atoms: C10_17  and  C11_18 
REMARK    8  A    between atoms: C18_28  and  C19_29 
REMARK    9  A    between atoms: C20_30  and  C21_31 
ROOT
HETATM    1  N1  UNL     1       6.436   6.024  17.496  1.00  0.00    -0.391 NA
HETATM    2  C3  UNL     1       6.775   6.757  18.580  1.00  0.00     0.393 C 
HETATM    3  O1  UNL     1       6.238   7.828  18.975  1.00  0.00    -0.230 OA
HETATM    4  N2  UNL     1       7.874   6.357  19.462  1.00  0.00    -0.296 N 
ATOM      5  H2  UNL     1       8.406   5.505  19.276  1.00  0.00     0.172 HD
ENDROOT
BRANCH   4   6
HETATM    6  C4  UNL     1       8.181   7.161  20.559  1.00  0.00     0.052 A 
HETATM    7  C5  UNL     1       7.605   6.893  21.811  1.00  0.00     0.035 A 
HETATM    8  C6  UNL     1       7.858   7.644  22.927  1.00  0.00     0.051 A 
HETATM    9  C7  UNL     1       8.735   8.724  22.785  1.00  0.00     0.107 A 
HETATM   10  N4  UNL     1       9.278   8.970  21.574  1.00  0.00    -0.350 N 
HETATM   11  C12 UNL     1       9.052   8.256  20.475  1.00  0.00     0.119 A 
ATOM     12  H4  UNL     1       9.912   9.766  21.495  1.00  0.00     0.166 HD
BRANCH   9  13
HETATM   13  N3  UNL     1       8.988   9.399  23.807  1.00  0.00    -0.313 N 
HETATM   14  C8  UNL     1      10.145   9.300  24.589  1.00  0.00     0.223 C 
HETATM   15  O2  UNL     1      10.994  10.239  24.444  1.00  0.00    -0.273 OA
ATOM     16  H3  UNL     1       8.290  10.083  24.096  1.00  0.00     0.170 HD
BRANCH  14  17
HETATM   17  C9  UNL     1      10.374   8.184  25.523  1.00  0.00     0.104 C 
BRANCH  17  18
HETATM   18  C10 UNL     1      11.695   8.260  26.210  1.00  0.00     0.020 C 
BRANCH  18  19
HETATM   19  C11 UNL     1      11.861   7.137  27.181  1.00  0.00     0.085 C 
HETATM   20 BR1  UNL     1      10.106   6.356  27.534  1.00  0.00    -0.097 Br
ENDBRANCH  18  19
ENDBRANCH  17  18
ENDBRANCH  14  17
ENDBRANCH   9  13
ENDBRANCH   4   6
BRANCH   1  21
HETATM   21  C2  UNL     1       6.090   5.274  16.385  1.00  0.00     0.170 C 
HETATM   22  C1  UNL     1       4.978   5.951  15.608  1.00  0.00     0.048 C 
BRANCH  21  23
HETATM   23  C13 UNL     1       5.789   3.818  16.688  1.00  0.00     0.037 C 
HETATM   24  C14 UNL     1       6.378   2.822  15.768  1.00  0.00     0.009 C 
HETATM   25  C15 UNL     1       5.619   1.504  16.040  1.00  0.00     0.001 C 
HETATM   26  C16 UNL     1       5.641   1.121  17.480  1.00  0.00     0.001 C 
HETATM   27  C17 UNL     1       5.305   2.229  18.423  1.00  0.00     0.018 C 
HETATM   28  C18 UNL     1       6.202   3.428  18.089  1.00  0.00     0.072 C 
BRANCH  28  29
HETATM   29  C19 UNL     1       7.575   2.880  18.143  1.00  0.00    -0.099 C 
HETATM   30  C20 UNL     1       8.705   2.420  18.201  1.00  0.00    -0.075 C 
BRANCH  30  31
HETATM   31  C21 UNL     1      10.071   1.875  18.242  1.00  0.00     0.315 C 
HETATM   32  F1  UNL     1       9.958   0.545  18.650  1.00  0.00    -0.242 F 
ENDBRANCH  30  31
ENDBRANCH  28  29
ENDBRANCH  21  23
ENDBRANCH   1  21
TORSDOF 9
ENDMDL
MODEL 3
REMARK VINA RESULT: -7.815058520      1.996      2.504
REMARK  9 active torsions:
REMARK  status: ('A' for Active; 'I' for Inactive)
REMARK    1  A    between atoms: C2_2  and  N1_3 
REMARK    2  A    between atoms: C2_2  and  C13_23 
REMARK       I    between atoms: N1_3  and  C3_4 
REMARK       I    between atoms: C3_4  and  N2_6 
REMARK    3  A    between atoms: N2_6  and  C4_8 
REMARK    4  A    between atoms: C7_11  and  N3_12 
REMARK       I    between atoms: N3_12  and  C8_14 
REMARK    5  A    between atoms: C8_14  and  C9_16 
REMARK    6  A    between atoms: C9_16  and  C10_17 
REMARK    7  A    between atoms: C10_17  and  C11_18 
REMARK    8  A    between atoms: C18_28  and  C19_29 
REMARK    9  A    between atoms: C20_30  and  C21_31 
ROOT
HETATM    1  N1  UNL     1       5.452   3.836  20.028  1.00  0.00    -0.391 NA
HETATM    2  C3  UNL     1       6.249   4.742  20.637  1.00  0.00     0.393 C 
HETATM    3  O1  UNL     1       7.487   4.641  20.857  1.00  0.00    -0.230 OA
HETATM    4  N2  UNL     1       5.721   6.013  21.137  1.00  0.00    -0.296 N 
ATOM      5  H2  UNL     1       4.733   6.245  21.029  1.00  0.00     0.172 HD
ENDROOT
BRANCH   4   6
HETATM    6  C4  UNL     1       6.594   6.902  21.765  1.00  0.00     0.052 A 
HETATM    7  C5  UNL     1       6.655   6.957  23.167  1.00  0.00     0.035 A 
HETATM    8  C6  UNL     1       7.484   7.807  23.846  1.00  0.00     0.051 A 
HETATM    9  C7  UNL     1       8.296   8.652  23.085  1.00  0.00     0.107 A 
HETATM   10  N4  UNL     1       8.223   8.590  21.738  1.00  0.00    -0.350 N 
HETATM   11  C12 UNL     1       7.430   7.773  21.053  1.00  0.00     0.119 A 
ATOM     12  H4  UNL     1       8.823   9.220  21.205  1.00  0.00     0.166 HD
BRANCH   9  13
HETATM   13  N3  UNL     1       9.073   9.415  23.701  1.00  0.00    -0.313 N 
HETATM   14  C8  UNL     1      10.275   9.041  24.313  1.00  0.00     0.223 C 
HETATM   15  O2  UNL     1      11.338   9.377  23.695  1.00  0.00    -0.273 OA
ATOM     16  H3  UNL     1       8.807  10.398  23.763  1.00  0.00     0.170 HD
BRANCH  14  17
HETATM   17  C9  UNL     1      10.317   8.308  25.589  1.00  0.00     0.104 C 
BRANCH  17  18
HETATM   18  C10 UNL     1      11.664   8.324  26.227  1.00  0.00     0.020 C 
BRANCH  18  19
HETATM   19  C11 UNL     1      11.819   7.188  27.185  1.00  0.00     0.085 C 
HETATM   20 BR1  UNL     1      10.071   6.360  27.455  1.00  0.00    -0.097 Br
ENDBRANCH  18  19
ENDBRANCH  17  18
ENDBRANCH  14  17
ENDBRANCH   9  13
ENDBRANCH   4   6
BRANCH   1  21
HETATM   21  C2  UNL     1       4.634   2.908  19.406  1.00  0.00     0.170 C 
HETATM   22  C1  UNL     1       4.412   1.705  20.301  1.00  0.00     0.048 C 
BRANCH  21  23
HETATM   23  C13 UNL     1       5.085   2.522  18.009  1.00  0.00     0.037 C 
HETATM   24  C14 UNL     1       6.153   3.354  17.412  1.00  0.00     0.009 C 
HETATM   25  C15 UNL     1       6.142   3.024  15.903  1.00  0.00     0.001 C 
HETATM   26  C16 UNL     1       6.260   1.563  15.637  1.00  0.00     0.001 C 
HETATM   27  C17 UNL     1       5.354   0.707  16.459  1.00  0.00     0.018 C 
HETATM   28  C18 UNL     1       5.547   1.085  17.933  1.00  0.00     0.072 C 
BRANCH  28  29
HETATM   29  C19 UNL     1       7.003   0.945  18.155  1.00  0.00    -0.099 C 
HETATM   30  C20 UNL     1       8.203   0.832  18.354  1.00  0.00    -0.075 C 
BRANCH  30  31
HETATM   31  C21 UNL     1       9.652   0.686  18.564  1.00  0.00     0.315 C 
HETATM   32  F1  UNL     1      10.226   1.921  18.257  1.00  0.00    -0.242 F 
ENDBRANCH  30  31
ENDBRANCH  28  29
ENDBRANCH  21  23
ENDBRANCH   1  21
TORSDOF 9
ENDMDL
MODEL 4
REMARK VINA RESULT: -7.684258602      3.159      3.893
REMARK  9 active torsions:
REMARK  status: ('A' for Active; 'I' for Inactive)
REMARK    1  A    between atoms: C2_2  and  N1_3 
REMARK    2  A    between atoms: C2_2  and  C13_23 
REMARK       I    between atoms: N1_3  and  C3_4 
REMARK       I    between atoms: C3_4  and  N2_6 
REMARK    3  A    between atoms: N2_6  and  C4_8 
REMARK    4  A    between atoms: C7_11  and  N3_12 
REMARK       I    between atoms: N3_12  and  C8_14 
REMARK    5  A    between atoms: C8_14  and  C9_16 
REMARK    6  A    between atoms: C9_16  and  C10_17 
REMARK    7  A    between atoms: C10_17  and  C11_18 
REMARK    8  A    between atoms: C18_28  and  C19_29 
REMARK    9  A    between atoms: C20_30  and  C21_31 
ROOT
HETATM    1  N1  UNL     1       7.276   4.468  17.309  1.00  0.00    -0.391 NA
HETATM    2  C3  UNL     1       6.990   5.405  18.240  1.00  0.00     0.393 C 
HETATM    3  O1  UNL     1       6.815   6.640  18.051  1.00  0.00    -0.230 OA
HETATM    4  N2  UNL     1       6.849   5.059  19.657  1.00  0.00    -0.296 N 
ATOM      5  H2  UNL     1       6.958   4.093  19.969  1.00  0.00     0.172 HD
ENDROOT
BRANCH   4   6
HETATM    6  C4  UNL     1       6.564   6.073  20.570  1.00  0.00     0.052 A 
HETATM    7  C5  UNL     1       7.590   6.626  21.352  1.00  0.00     0.035 A 
HETATM    8  C6  UNL     1       7.379   7.619  22.270  1.00  0.00     0.051 A 
HETATM    9  C7  UNL     1       6.069   8.085  22.418  1.00  0.00     0.107 A 
HETATM   10  N4  UNL     1       5.093   7.541  21.661  1.00  0.00    -0.350 N 
HETATM   11  C12 UNL     1       5.270   6.578  20.761  1.00  0.00     0.119 A 
ATOM     12  H4  UNL     1       4.145   7.895  21.790  1.00  0.00     0.166 HD
BRANCH   9  13
HETATM   13  N3  UNL     1       5.875   9.009  23.238  1.00  0.00    -0.313 N 
HETATM   14  C8  UNL     1       5.638   8.852  24.608  1.00  0.00     0.223 C 
HETATM   15  O2  UNL     1       6.616   9.136  25.375  1.00  0.00    -0.273 OA
ATOM     16  H3  UNL     1       5.891   9.963  22.876  1.00  0.00     0.170 HD
BRANCH  14  17
HETATM   17  C9  UNL     1       4.344   8.390  25.139  1.00  0.00     0.104 C 
BRANCH  17  18
HETATM   18  C10 UNL     1       3.488   9.502  25.641  1.00  0.00     0.020 C 
BRANCH  18  19
HETATM   19  C11 UNL     1       2.191   9.560  24.901  1.00  0.00     0.085 C 
HETATM   20 BR1  UNL     1       2.469  10.545  23.238  1.00  0.00    -0.097 Br
ENDBRANCH  18  19
ENDBRANCH  17  18
ENDBRANCH  14  17
ENDBRANCH   9  13
ENDBRANCH   4   6
BRANCH   1  21
HETATM   21  C2  UNL     1       7.569   3.508  16.355  1.00  0.00     0.170 C 
HETATM   22  C1  UNL     1       6.319   3.107  15.598  1.00  0.00     0.048 C 
BRANCH  21  23
HETATM   23  C13 UNL     1       8.336   2.314  16.892  1.00  0.00     0.037 C 
HETATM   24  C14 UNL     1       9.334   2.596  17.947  1.00  0.00     0.009 C 
HETATM   25  C15 UNL     1      10.224   1.336  18.026  1.00  0.00     0.001 C 
HETATM   26  C16 UNL     1       9.432   0.090  18.226  1.00  0.00     0.001 C 
HETATM   27  C17 UNL     1       8.251  -0.048  17.322  1.00  0.00     0.018 C 
HETATM   28  C18 UNL     1       7.419   1.237  17.425  1.00  0.00     0.072 C 
BRANCH  28  29
HETATM   29  C19 UNL     1       7.155   1.383  18.873  1.00  0.00    -0.099 C 
HETATM   30  C20 UNL     1       6.930   1.517  20.066  1.00  0.00    -0.075 C 
BRANCH  30  31
HETATM   31  C21 UNL     1       6.667   1.649  21.508  1.00  0.00     0.315 C 
HETATM   32  F1  UNL     1       5.287   1.520  21.675  1.00  0.00    -0.242 F 
ENDBRANCH  30  31
ENDBRANCH  28  29
ENDBRANCH  21  23
ENDBRANCH   1  21
TORSDOF 9
ENDMDL
MODEL 5
REMARK VINA RESULT: -7.530039840      3.332      4.041
REMARK  9 active torsions:
REMARK  status: ('A' for Active; 'I' for Inactive)
REMARK    1  A    between atoms: C2_2  and  N1_3 
REMARK    2  A    between atoms: C2_2  and  C13_23 
REMARK       I    between atoms: N1_3  and  C3_4 
REMARK       I    between atoms: C3_4  and  N2_6 
REMARK    3  A    between atoms: N2_6  and  C4_8 
REMARK    4  A    between atoms: C7_11  and  N3_12 
REMARK       I    between atoms: N3_12  and  C8_14 
REMARK    5  A    between atoms: C8_14  and  C9_16 
REMARK    6  A    between atoms: C9_16  and  C10_17 
REMARK    7  A    between atoms: C10_17  and  C11_18 
REMARK    8  A    between atoms: C18_28  and  C19_29 
REMARK    9  A    between atoms: C20_30  and  C21_31 
ROOT
HETATM    1  N1  UNL     1       7.160   4.579  17.433  1.00  0.00    -0.391 NA
HETATM    2  C3  UNL     1       6.808   5.486  18.370  1.00  0.00     0.393 C 
HETATM    3  O1  UNL     1       6.733   6.738  18.231  1.00  0.00    -0.230 OA
HETATM    4  N2  UNL     1       6.458   5.081  19.734  1.00  0.00    -0.296 N 
ATOM      5  H2  UNL     1       6.466   4.097  20.003  1.00  0.00     0.172 HD
ENDROOT
BRANCH   4   6
HETATM    6  C4  UNL     1       6.112   6.066  20.659  1.00  0.00     0.052 A 
HETATM    7  C5  UNL     1       4.771   6.455  20.806  1.00  0.00     0.035 A 
HETATM    8  C6  UNL     1       4.364   7.417  21.690  1.00  0.00     0.051 A 
HETATM    9  C7  UNL     1       5.351   8.028  22.469  1.00  0.00     0.107 A 
HETATM   10  N4  UNL     1       6.637   7.646  22.313  1.00  0.00    -0.350 N 
HETATM   11  C12 UNL     1       7.059   6.713  21.465  1.00  0.00     0.119 A 
ATOM     12  H4  UNL     1       7.339   8.110  22.891  1.00  0.00     0.166 HD
BRANCH   9  13
HETATM   13  N3  UNL     1       4.982   8.892  23.295  1.00  0.00    -0.313 N 
HETATM   14  C8  UNL     1       4.939   8.731  24.685  1.00  0.00     0.223 C 
HETATM   15  O2  UNL     1       5.865   9.315  25.338  1.00  0.00    -0.273 OA
ATOM     16  H3  UNL     1       4.685   9.794  22.923  1.00  0.00     0.170 HD
BRANCH  14  17
HETATM   17  C9  UNL     1       3.894   7.941  25.358  1.00  0.00     0.104 C 
BRANCH  17  18
HETATM   18  C10 UNL     1       2.567   8.619  25.372  1.00  0.00     0.020 C 
BRANCH  18  19
HETATM   19  C11 UNL     1       1.457   7.633  25.202  1.00  0.00     0.085 C 
HETATM   20 BR1  UNL     1       2.215   5.950  24.563  1.00  0.00    -0.097 Br
ENDBRANCH  18  19
ENDBRANCH  17  18
ENDBRANCH  14  17
ENDBRANCH   9  13
ENDBRANCH   4   6
BRANCH   1  21
HETATM   21  C2  UNL     1       7.522   3.650  16.472  1.00  0.00     0.170 C 
HETATM   22  C1  UNL     1       6.309   3.199  15.681  1.00  0.00     0.048 C 
BRANCH  21  23
HETATM   23  C13 UNL     1       8.335   2.486  17.009  1.00  0.00     0.037 C 
HETATM   24  C14 UNL     1       9.292   2.801  18.092  1.00  0.00     0.009 C 
HETATM   25  C15 UNL     1      10.242   1.585  18.174  1.00  0.00     0.001 C 
HETATM   26  C16 UNL     1       9.509   0.298  18.335  1.00  0.00     0.001 C 
HETATM   27  C17 UNL     1       8.359   0.117  17.401  1.00  0.00     0.018 C 
HETATM   28  C18 UNL     1       7.461   1.356  17.503  1.00  0.00     0.072 C 
BRANCH  28  29
HETATM   29  C19 UNL     1       7.156   1.465  18.947  1.00  0.00    -0.099 C 
HETATM   30  C20 UNL     1       6.891   1.546  20.136  1.00  0.00    -0.075 C 
BRANCH  30  31
HETATM   31  C21 UNL     1       6.600   1.655  21.574  1.00  0.00     0.315 C 
HETATM   32  F1  UNL     1       5.214   1.542  21.710  1.00  0.00    -0.242 F 
ENDBRANCH  30  31
ENDBRANCH  28  29
ENDBRANCH  21  23
ENDBRANCH   1  21
TORSDOF 9
ENDMDL
