MODEL 1
REMARK VINA RESULT: -7.422100282      0.000      0.000
REMARK  9 active torsions:
REMARK  status: ('A' for Active; 'I' for Inactive)
REMARK    1  A    between atoms: C2_2  and  C4_4 
REMARK    2  A    between atoms: C4_4  and  C5_5 
REMARK    3  A    between atoms: N2_9  and  C7_11 
REMARK    4  A    between atoms: C13_17  and  C14_18 
REMARK    5  A    between atoms: C14_18  and  C15_19 
REMARK    6  A    between atoms: C15_19  and  C16_20 
REMARK    7  A    between atoms: C17_21  and  C18_22 
REMARK    8  A    between atoms: C18_22  and  N3_23 
REMARK    9  A    between atoms: C22_27  and  O1_28 
ROOT
HETATM    1  C5  UNL     1       8.904   8.423  22.101  1.00  0.00     0.175 C 
HETATM    2  N1  UNL     1       8.136   7.190  22.062  1.00  0.00    -0.365 N 
ATOM      3  H1  UNL     1       7.908   6.735  22.946  1.00  0.00     0.161 HD
HETATM    4  C6  UNL     1       7.684   6.580  20.848  1.00  0.00     0.097 C 
HETATM    5  N2  UNL     1       7.553   5.346  20.789  1.00  0.00    -0.369 N 
ATOM      6  H2  UNL     1       7.796   4.882  21.664  1.00  0.00     0.161 HD
HETATM    7  C13 UNL     1       7.414   7.531  19.738  1.00  0.00     0.152 C 
HETATM    8  N4  UNL     1       8.479   8.510  19.633  1.00  0.00    -0.348 N 
ATOM      9  H4  UNL     1       8.867   8.757  18.723  1.00  0.00     0.163 HD
HETATM   10  C25 UNL     1       8.971   9.115  20.811  1.00  0.00     0.241 C 
HETATM   11  O2  UNL     1       9.470  10.266  20.719  1.00  0.00    -0.271 OA
ENDROOT
BRANCH   7  12
HETATM   12  C14 UNL     1       6.143   8.353  19.992  1.00  0.00     0.045 C 
BRANCH  12  13
HETATM   13  C15 UNL     1       4.984   7.408  19.753  1.00  0.00     0.096 C 
BRANCH  13  14
HETATM   14  C16 UNL     1       4.107   7.523  20.940  1.00  0.00    -0.105 C 
HETATM   15  C17 UNL     1       3.407   7.632  21.910  1.00  0.00    -0.079 C 
BRANCH  15  16
HETATM   16  C18 UNL     1       2.553   7.791  23.110  1.00  0.00     0.330 C 
BRANCH  16  17
HETATM   17  N3  UNL     1       3.397   7.484  24.246  1.00  0.00    -0.061 N 
HETATM   18  C19 UNL     1       3.859   6.100  24.116  1.00  0.00     0.273 C 
HETATM   19  C20 UNL     1       4.551   8.331  24.196  1.00  0.00     0.240 C 
HETATM   20  C21 UNL     1       4.627   9.338  25.302  1.00  0.00     0.059 C 
HETATM   21  C22 UNL     1       3.309   9.948  25.656  1.00  0.00     0.121 C 
HETATM   22  C23 UNL     1       2.194   8.961  25.793  1.00  0.00     0.059 C 
HETATM   23  C24 UNL     1       2.687   7.570  25.495  1.00  0.00     0.240 C 
BRANCH  21  24
HETATM   24  O1  UNL     1       2.972  11.013  24.799  1.00  0.00    -0.395 OA
ATOM     25  H1  UNL     1       2.411  11.652  25.226  1.00  0.00     0.210 HD
ENDBRANCH  21  24
ENDBRANCH  16  17
ENDBRANCH  15  16
ENDBRANCH  13  14
ENDBRANCH  12  13
ENDBRANCH   7  12
BRANCH   5  26
HETATM   26  C7  UNL     1       7.144   4.439  19.786  1.00  0.00     0.028 C 
HETATM   27  C8  UNL     1       7.587   4.848  18.390  1.00  0.00     0.038 C 
HETATM   28  C9  UNL     1       7.744   3.033  20.040  1.00  0.00     0.030 C 
HETATM   29  C10 UNL     1       6.791   2.395  21.024  1.00  0.00     0.002 C 
HETATM   30  C11 UNL     1       5.529   3.223  21.013  1.00  0.00     0.002 C 
HETATM   31  C12 UNL     1       5.683   4.103  19.777  1.00  0.00     0.030 C 
ENDBRANCH   5  26
BRANCH   1  32
HETATM   32  C4  UNL     1       8.378   9.215  23.248  1.00  0.00     0.038 C 
BRANCH  32  33
HETATM   33  C2  UNL     1       9.234   9.315  24.455  1.00  0.00    -0.020 C 
HETATM   34  C1  UNL     1      10.679   8.925  24.193  1.00  0.00     0.009 C 
HETATM   35  C3  UNL     1       8.713   8.239  25.436  1.00  0.00     0.009 C 
ENDBRANCH  32  33
ENDBRANCH   1  32
TORSDOF 9
ENDMDL
MODEL 2
REMARK VINA RESULT: -7.399138862      3.164      6.007
REMARK  9 active torsions:
REMARK  status: ('A' for Active; 'I' for Inactive)
REMARK    1  A    between atoms: C2_2  and  C4_4 
REMARK    2  A    between atoms: C4_4  and  C5_5 
REMARK    3  A    between atoms: N2_9  and  C7_11 
REMARK    4  A    between atoms: C13_17  and  C14_18 
REMARK    5  A    between atoms: C14_18  and  C15_19 
REMARK    6  A    between atoms: C15_19  and  C16_20 
REMARK    7  A    between atoms: C17_21  and  C18_22 
REMARK    8  A    between atoms: C18_22  and  N3_23 
REMARK    9  A    between atoms: C22_27  and  O1_28 
ROOT
HETATM    1  C5  UNL     1       6.779   1.505  17.125  1.00  0.00     0.175 C 
HETATM    2  N1  UNL     1       6.366   1.733  18.499  1.00  0.00    -0.365 N 
ATOM      3  H1  UNL     1       6.674   1.073  19.213  1.00  0.00     0.161 HD
HETATM    4  C6  UNL     1       5.549   2.837  18.904  1.00  0.00     0.097 C 
HETATM    5  N2  UNL     1       4.787   2.716  19.878  1.00  0.00    -0.369 N 
ATOM      6  H2  UNL     1       4.834   1.790  20.302  1.00  0.00     0.161 HD
HETATM    7  C13 UNL     1       5.703   4.062  18.076  1.00  0.00     0.152 C 
HETATM    8  N4  UNL     1       5.714   3.726  16.666  1.00  0.00    -0.348 N 
ATOM      9  H4  UNL     1       5.171   4.274  15.998  1.00  0.00     0.163 HD
HETATM   10  C25 UNL     1       6.487   2.627  16.229  1.00  0.00     0.241 C 
HETATM   11  O2  UNL     1       6.918   2.640  15.048  1.00  0.00    -0.271 OA
ENDROOT
BRANCH   7  12
HETATM   12  C14 UNL     1       7.050   4.752  18.331  1.00  0.00     0.045 C 
BRANCH  12  13
HETATM   13  C15 UNL     1       6.741   6.231  18.447  1.00  0.00     0.096 C 
BRANCH  13  14
HETATM   14  C16 UNL     1       7.279   6.662  19.757  1.00  0.00    -0.105 C 
HETATM   15  C17 UNL     1       7.715   6.992  20.826  1.00  0.00    -0.079 C 
BRANCH  15  16
HETATM   16  C18 UNL     1       8.261   7.375  22.149  1.00  0.00     0.330 C 
BRANCH  16  17
HETATM   17  N3  UNL     1       7.518   8.547  22.565  1.00  0.00    -0.061 N 
HETATM   18  C19 UNL     1       7.720   9.598  21.565  1.00  0.00     0.273 C 
HETATM   19  C20 UNL     1       6.124   8.221  22.575  1.00  0.00     0.240 C 
HETATM   20  C21 UNL     1       5.503   8.207  23.937  1.00  0.00     0.059 C 
HETATM   21  C22 UNL     1       6.379   7.620  24.996  1.00  0.00     0.121 C 
HETATM   22  C23 UNL     1       7.790   8.114  24.965  1.00  0.00     0.059 C 
HETATM   23  C24 UNL     1       7.984   9.073  23.821  1.00  0.00     0.240 C 
BRANCH  21  24
HETATM   24  O1  UNL     1       6.309   6.214  25.022  1.00  0.00    -0.395 OA
ATOM     25  H1  UNL     1       7.077   5.810  24.635  1.00  0.00     0.210 HD
ENDBRANCH  21  24
ENDBRANCH  16  17
ENDBRANCH  15  16
ENDBRANCH  13  14
ENDBRANCH  12  13
ENDBRANCH   7  12
BRANCH   5  26
HETATM   26  C7  UNL     1       3.868   3.569  20.531  1.00  0.00     0.028 C 
HETATM   27  C8  UNL     1       2.589   3.793  19.740  1.00  0.00     0.038 C 
HETATM   28  C9  UNL     1       3.438   2.970  21.894  1.00  0.00     0.030 C 
HETATM   29  C10 UNL     1       4.532   3.395  22.848  1.00  0.00     0.002 C 
HETATM   30  C11 UNL     1       5.309   4.493  22.163  1.00  0.00     0.002 C 
HETATM   31  C12 UNL     1       4.423   4.885  20.985  1.00  0.00     0.030 C 
ENDBRANCH   5  26
BRANCH   1  32
HETATM   32  C4  UNL     1       8.197   1.052  17.177  1.00  0.00     0.038 C 
BRANCH  32  33
HETATM   33  C2  UNL     1       9.002   1.471  18.349  1.00  0.00    -0.020 C 
HETATM   34  C1  UNL     1       9.756   2.770  18.119  1.00  0.00     0.009 C 
HETATM   35  C3  UNL     1      10.108   0.403  18.511  1.00  0.00     0.009 C 
ENDBRANCH  32  33
ENDBRANCH   1  32
TORSDOF 9
ENDMDL
MODEL 3
REMARK VINA RESULT: -7.369689503      3.558      6.566
REMARK  9 active torsions:
REMARK  status: ('A' for Active; 'I' for Inactive)
REMARK    1  A    between atoms: C2_2  and  C4_4 
REMARK    2  A    between atoms: C4_4  and  C5_5 
REMARK    3  A    between atoms: N2_9  and  C7_11 
REMARK    4  A    between atoms: C13_17  and  C14_18 
REMARK    5  A    between atoms: C14_18  and  C15_19 
REMARK    6  A    between atoms: C15_19  and  C16_20 
REMARK    7  A    between atoms: C17_21  and  C18_22 
REMARK    8  A    between atoms: C18_22  and  N3_23 
REMARK    9  A    between atoms: C22_27  and  O1_28 
ROOT
HETATM    1  C5  UNL     1       4.064   3.764  15.886  1.00  0.00     0.175 C 
HETATM    2  N1  UNL     1       5.352   3.182  16.224  1.00  0.00    -0.365 N 
ATOM      3  H1  UNL     1       5.826   2.616  15.520  1.00  0.00     0.161 HD
HETATM    4  C6  UNL     1       5.990   3.360  17.493  1.00  0.00     0.097 C 
HETATM    5  N2  UNL     1       6.731   2.470  17.942  1.00  0.00    -0.369 N 
ATOM      6  H2  UNL     1       6.806   1.667  17.317  1.00  0.00     0.161 HD
HETATM    7  C13 UNL     1       5.677   4.645  18.171  1.00  0.00     0.152 C 
HETATM    8  N4  UNL     1       4.257   4.930  18.095  1.00  0.00    -0.348 N 
ATOM      9  H4  UNL     1       3.751   5.262  18.916  1.00  0.00     0.163 HD
HETATM   10  C25 UNL     1       3.586   4.743  16.866  1.00  0.00     0.241 C 
HETATM   11  O2  UNL     1       2.564   5.439  16.639  1.00  0.00    -0.271 OA
ENDROOT
BRANCH   7  12
HETATM   12  C14 UNL     1       6.359   5.832  17.477  1.00  0.00     0.045 C 
BRANCH  12  13
HETATM   13  C15 UNL     1       5.924   7.065  18.242  1.00  0.00     0.096 C 
BRANCH  13  14
HETATM   14  C16 UNL     1       6.665   7.037  19.523  1.00  0.00    -0.105 C 
HETATM   15  C17 UNL     1       7.260   6.996  20.565  1.00  0.00    -0.079 C 
BRANCH  15  16
HETATM   16  C18 UNL     1       7.994   6.918  21.850  1.00  0.00     0.330 C 
BRANCH  16  17
HETATM   17  N3  UNL     1       7.828   8.210  22.485  1.00  0.00    -0.061 N 
HETATM   18  C19 UNL     1       8.264   9.244  21.543  1.00  0.00     0.273 C 
HETATM   19  C20 UNL     1       6.433   8.416  22.738  1.00  0.00     0.240 C 
HETATM   20  C21 UNL     1       6.067   8.438  24.189  1.00  0.00     0.059 C 
HETATM   21  C22 UNL     1       6.800   7.431  25.015  1.00  0.00     0.121 C 
HETATM   22  C23 UNL     1       8.271   7.377  24.750  1.00  0.00     0.059 C 
HETATM   23  C24 UNL     1       8.643   8.349  23.663  1.00  0.00     0.240 C 
BRANCH  21  24
HETATM   24  O1  UNL     1       6.202   6.158  24.953  1.00  0.00    -0.395 OA
ATOM     25  H1  UNL     1       5.778   6.003  24.116  1.00  0.00     0.210 HD
ENDBRANCH  21  24
ENDBRANCH  16  17
ENDBRANCH  15  16
ENDBRANCH  13  14
ENDBRANCH  12  13
ENDBRANCH   7  12
BRANCH   5  26
HETATM   26  C7  UNL     1       7.495   2.315  19.121  1.00  0.00     0.028 C 
HETATM   27  C8  UNL     1       6.664   1.896  20.324  1.00  0.00     0.038 C 
HETATM   28  C9  UNL     1       8.576   1.221  18.935  1.00  0.00     0.030 C 
HETATM   29  C10 UNL     1       9.725   1.945  18.269  1.00  0.00     0.002 C 
HETATM   30  C11 UNL     1       9.470   3.423  18.438  1.00  0.00     0.002 C 
HETATM   31  C12 UNL     1       8.362   3.483  19.485  1.00  0.00     0.030 C 
ENDBRANCH   5  26
BRANCH   1  32
HETATM   32  C4  UNL     1       4.169   4.237  14.478  1.00  0.00     0.038 C 
BRANCH  32  33
HETATM   33  C2  UNL     1       5.526   4.321  13.887  1.00  0.00    -0.020 C 
HETATM   34  C1  UNL     1       6.043   5.746  13.784  1.00  0.00     0.009 C 
HETATM   35  C3  UNL     1       5.382   3.853  12.420  1.00  0.00     0.009 C 
ENDBRANCH  32  33
ENDBRANCH   1  32
TORSDOF 9
ENDMDL
MODEL 4
REMARK VINA RESULT: -7.243979966      0.713      1.121
REMARK  9 active torsions:
REMARK  status: ('A' for Active; 'I' for Inactive)
REMARK    1  A    between atoms: C2_2  and  C4_4 
REMARK    2  A    between atoms: C4_4  and  C5_5 
REMARK    3  A    between atoms: N2_9  and  C7_11 
REMARK    4  A    between atoms: C13_17  and  C14_18 
REMARK    5  A    between atoms: C14_18  and  C15_19 
REMARK    6  A    between atoms: C15_19  and  C16_20 
REMARK    7  A    between atoms: C17_21  and  C18_22 
REMARK    8  A    between atoms: C18_22  and  N3_23 
REMARK    9  A    between atoms: C22_27  and  O1_28 
ROOT
HETATM    1  C5  UNL     1       9.023   8.725  21.501  1.00  0.00     0.175 C 
HETATM    2  N1  UNL     1       8.438   7.400  21.381  1.00  0.00    -0.365 N 
ATOM      3  H1  UNL     1       8.484   6.777  22.188  1.00  0.00     0.161 HD
HETATM    4  C6  UNL     1       7.802   6.923  20.191  1.00  0.00     0.097 C 
HETATM    5  N2  UNL     1       7.826   5.710  19.922  1.00  0.00    -0.369 N 
ATOM      6  H2  UNL     1       8.325   5.161  20.622  1.00  0.00     0.161 HD
HETATM    7  C13 UNL     1       7.158   7.977  19.365  1.00  0.00     0.152 C 
HETATM    8  N4  UNL     1       8.030   9.129  19.237  1.00  0.00    -0.348 N 
ATOM      9  H4  UNL     1       8.160   9.581  18.332  1.00  0.00     0.163 HD
HETATM   10  C25 UNL     1       8.697   9.615  20.383  1.00  0.00     0.241 C 
HETATM   11  O2  UNL     1       9.003  10.833  20.417  1.00  0.00    -0.271 OA
ENDROOT
BRANCH   7  12
HETATM   12  C14 UNL     1       5.883   8.517  20.028  1.00  0.00     0.045 C 
BRANCH  12  13
HETATM   13  C15 UNL     1       4.854   7.411  19.908  1.00  0.00     0.096 C 
BRANCH  13  14
HETATM   14  C16 UNL     1       3.947   7.566  21.066  1.00  0.00    -0.105 C 
HETATM   15  C17 UNL     1       3.209   7.671  22.008  1.00  0.00    -0.079 C 
BRANCH  15  16
HETATM   16  C18 UNL     1       2.305   7.775  23.177  1.00  0.00     0.330 C 
BRANCH  16  17
HETATM   17  N3  UNL     1       3.118   7.478  24.339  1.00  0.00    -0.061 N 
HETATM   18  C19 UNL     1       3.490   6.061  24.290  1.00  0.00     0.273 C 
HETATM   19  C20 UNL     1       4.325   8.244  24.257  1.00  0.00     0.240 C 
HETATM   20  C21 UNL     1       4.456   9.304  25.307  1.00  0.00     0.059 C 
HETATM   21  C22 UNL     1       3.179  10.017  25.610  1.00  0.00     0.121 C 
HETATM   22  C23 UNL     1       2.001   9.113  25.788  1.00  0.00     0.059 C 
HETATM   23  C24 UNL     1       2.404   7.679  25.572  1.00  0.00     0.240 C 
BRANCH  21  24
HETATM   24  O1  UNL     1       2.919  11.052  24.693  1.00  0.00    -0.395 OA
ATOM     25  H1  UNL     1       3.036  10.771  23.792  1.00  0.00     0.210 HD
ENDBRANCH  21  24
ENDBRANCH  16  17
ENDBRANCH  15  16
ENDBRANCH  13  14
ENDBRANCH  12  13
ENDBRANCH   7  12
BRANCH   5  26
HETATM   26  C7  UNL     1       7.320   4.918  18.866  1.00  0.00     0.028 C 
HETATM   27  C8  UNL     1       6.712   5.737  17.738  1.00  0.00     0.038 C 
HETATM   28  C9  UNL     1       8.448   4.068  18.229  1.00  0.00     0.030 C 
HETATM   29  C10 UNL     1       8.541   2.849  19.118  1.00  0.00     0.002 C 
HETATM   30  C11 UNL     1       7.285   2.819  19.955  1.00  0.00     0.002 C 
HETATM   31  C12 UNL     1       6.370   3.832  19.274  1.00  0.00     0.030 C 
ENDBRANCH   5  26
BRANCH   1  32
HETATM   32  C4  UNL     1       8.677   9.220  22.862  1.00  0.00     0.038 C 
BRANCH  32  33
HETATM   33  C2  UNL     1       9.125   8.405  24.018  1.00  0.00    -0.020 C 
HETATM   34  C1  UNL     1       8.167   8.468  25.195  1.00  0.00     0.009 C 
HETATM   35  C3  UNL     1      10.420   9.072  24.534  1.00  0.00     0.009 C 
ENDBRANCH  32  33
ENDBRANCH   1  32
TORSDOF 9
ENDMDL
MODEL 5
REMARK VINA RESULT: -7.217511761      2.185      5.055
REMARK  9 active torsions:
REMARK  status: ('A' for Active; 'I' for Inactive)
REMARK    1  A    between atoms: C2_2  and  C4_4 
REMARK    2  A    between atoms: C4_4  and  C5_5 
REMARK    3  A    between atoms: N2_9  and  C7_11 
REMARK    4  A    between atoms: C13_17  and  C14_18 
REMARK    5  A    between atoms: C14_18  and  C15_19 
REMARK    6  A    between atoms: C15_19  and  C16_20 
REMARK    7  A    between atoms: C17_21  and  C18_22 
REMARK    8  A    between atoms: C18_22  and  N3_23 
REMARK    9  A    between atoms: C22_27  and  O1_28 
ROOT
HETATM    1  C5  UNL     1       7.167   4.309  20.678  1.00  0.00     0.175 C 
HETATM    2  N1  UNL     1       7.898   5.299  21.450  1.00  0.00    -0.365 N 
ATOM      3  H1  UNL     1       8.916   5.300  21.395  1.00  0.00     0.161 HD
HETATM    4  C6  UNL     1       7.263   6.275  22.284  1.00  0.00     0.097 C 
HETATM    5  N2  UNL     1       7.847   6.694  23.297  1.00  0.00    -0.369 N 
ATOM      6  H2  UNL     1       8.766   6.271  23.425  1.00  0.00     0.161 HD
HETATM    7  C13 UNL     1       5.911   6.694  21.832  1.00  0.00     0.152 C 
HETATM    8  N4  UNL     1       5.123   5.541  21.440  1.00  0.00    -0.348 N 
ATOM      9  H4  UNL     1       4.152   5.452  21.738  1.00  0.00     0.163 HD
HETATM   10  C25 UNL     1       5.721   4.544  20.638  1.00  0.00     0.241 C 
HETATM   11  O2  UNL     1       4.976   3.862  19.889  1.00  0.00    -0.271 OA
ENDROOT
BRANCH   7  12
HETATM   12  C14 UNL     1       5.981   7.574  20.576  1.00  0.00     0.045 C 
BRANCH  12  13
HETATM   13  C15 UNL     1       6.019   9.004  21.073  1.00  0.00     0.096 C 
BRANCH  13  14
HETATM   14  C16 UNL     1       4.650   9.316  21.537  1.00  0.00    -0.105 C 
HETATM   15  C17 UNL     1       3.543   9.588  21.918  1.00  0.00    -0.079 C 
BRANCH  15  16
HETATM   16  C18 UNL     1       2.184   9.951  22.383  1.00  0.00     0.330 C 
BRANCH  16  17
HETATM   17  N3  UNL     1       1.665   8.778  23.056  1.00  0.00    -0.061 N 
HETATM   18  C19 UNL     1       1.311   7.783  22.040  1.00  0.00     0.273 C 
HETATM   19  C20 UNL     1       2.708   8.218  23.862  1.00  0.00     0.240 C 
HETATM   20  C21 UNL     1       2.465   8.309  25.337  1.00  0.00     0.059 C 
HETATM   21  C22 UNL     1       1.843   9.597  25.769  1.00  0.00     0.121 C 
HETATM   22  C23 UNL     1       0.689  10.034  24.924  1.00  0.00     0.059 C 
HETATM   23  C24 UNL     1       0.466   9.059  23.799  1.00  0.00     0.240 C 
BRANCH  21  24
HETATM   24  O1  UNL     1       2.799  10.619  25.931  1.00  0.00    -0.395 OA
ATOM     25  H1  UNL     1       2.613  11.373  25.383  1.00  0.00     0.210 HD
ENDBRANCH  21  24
ENDBRANCH  16  17
ENDBRANCH  15  16
ENDBRANCH  13  14
ENDBRANCH  12  13
ENDBRANCH   7  12
BRANCH   5  26
HETATM   26  C7  UNL     1       7.527   7.623  24.313  1.00  0.00     0.028 C 
HETATM   27  C8  UNL     1       6.134   7.428  24.889  1.00  0.00     0.038 C 
HETATM   28  C9  UNL     1       8.513   7.496  25.502  1.00  0.00     0.030 C 
HETATM   29  C10 UNL     1       9.701   8.334  25.091  1.00  0.00     0.002 C 
HETATM   30  C11 UNL     1       9.251   9.199  23.938  1.00  0.00     0.002 C 
HETATM   31  C12 UNL     1       7.732   9.065  23.956  1.00  0.00     0.030 C 
ENDBRANCH   5  26
BRANCH   1  32
HETATM   32  C4  UNL     1       7.855   4.205  19.361  1.00  0.00     0.038 C 
BRANCH  32  33
HETATM   33  C2  UNL     1       8.731   3.028  19.142  1.00  0.00    -0.020 C 
HETATM   34  C1  UNL     1       9.260   2.937  17.720  1.00  0.00     0.009 C 
HETATM   35  C3  UNL     1       7.824   1.786  19.300  1.00  0.00     0.009 C 
ENDBRANCH  32  33
ENDBRANCH   1  32
TORSDOF 9
ENDMDL
