MODEL 1
REMARK VINA RESULT: -8.550458712      0.000      0.000
REMARK  7 active torsions:
REMARK  status: ('A' for Active; 'I' for Inactive)
REMARK       I    between atoms: C2_2  and  N1_4 
REMARK    1  A    between atoms: N1_4  and  C3_6 
REMARK    2  A    between atoms: C3_6  and  C4_7 
REMARK    3  A    between atoms: C4_7  and  N3_11 
REMARK    4  A    between atoms: N3_11  and  C5_13 
REMARK    5  A    between atoms: C5_13  and  C6_14 
REMARK    6  A    between atoms: C6_14  and  N4_15 
REMARK    7  A    between atoms: N5_19  and  C10_20 
ROOT
HETATM    1  C4  UNL     1       4.879   5.641  20.557  1.00  0.00     0.099 C 
HETATM    2  N2  UNL     1       3.976   6.371  20.055  1.00  0.00    -0.387 N 
ATOM      3  H21 UNL     1       3.205   6.792  20.575  1.00  0.00     0.157 HD
ATOM      4  H22 UNL     1       4.039   6.561  19.056  1.00  0.00     0.157 HD
ENDROOT
BRANCH   1   5
HETATM    5  C3  UNL     1       6.008   5.025  19.797  1.00  0.00     0.090 C 
HETATM    6  C16 UNL     1       6.126   3.585  20.186  1.00  0.00     0.039 C 
HETATM    7  C17 UNL     1       7.522   3.032  20.260  1.00  0.00     0.003 C 
HETATM    8  C18 UNL     1       7.677   1.698  19.564  1.00  0.00     0.000 C 
HETATM    9  C19 UNL     1       8.981   1.443  18.930  1.00  0.00     0.000 C 
HETATM   10  C20 UNL     1       9.574   2.445  18.034  1.00  0.00     0.000 C 
HETATM   11  C21 UNL     1       9.147   2.404  16.600  1.00  0.00     0.000 C 
HETATM   12  C22 UNL     1       7.773   2.889  16.310  1.00  0.00     0.000 C 
HETATM   13  C23 UNL     1       7.429   4.243  16.860  1.00  0.00     0.000 C 
HETATM   14  C24 UNL     1       5.975   4.219  17.362  1.00  0.00     0.003 C 
HETATM   15  C25 UNL     1       5.651   5.250  18.350  1.00  0.00     0.039 C 
BRANCH   5  16
HETATM   16  N1  UNL     1       7.193   5.761  20.177  1.00  0.00    -0.345 N 
HETATM   17  C2  UNL     1       7.533   7.054  19.718  1.00  0.00     0.214 C 
HETATM   18  C1  UNL     1       8.782   7.704  20.191  1.00  0.00     0.117 C 
HETATM   19  O1  UNL     1       6.842   7.727  18.912  1.00  0.00    -0.274 OA
ATOM     20  H1  UNL     1       7.835   5.311  20.829  1.00  0.00     0.163 HD
ENDBRANCH   5  16
ENDBRANCH   1   5
BRANCH   1  21
HETATM   21  N3  UNL     1       4.791   5.374  21.956  1.00  0.00    -0.376 N 
ATOM     22  H3  UNL     1       4.643   4.404  22.234  1.00  0.00     0.160 HD
BRANCH  21  23
HETATM   23  C5  UNL     1       4.891   6.341  23.007  1.00  0.00     0.149 C 
BRANCH  23  24
HETATM   24  C6  UNL     1       5.787   7.503  22.784  1.00  0.00     0.256 C 
BRANCH  24  25
HETATM   25  N4  UNL     1       6.507   7.993  23.923  1.00  0.00    -0.066 N 
HETATM   26  C7  UNL     1       5.622   8.867  24.708  1.00  0.00     0.272 C 
HETATM   27  C8  UNL     1       7.547   8.876  23.388  1.00  0.00     0.267 C 
HETATM   28  C9  UNL     1       8.547   9.329  24.387  1.00  0.00     0.301 C 
HETATM   29  N5  UNL     1       9.182   8.113  24.930  1.00  0.00     0.096 N 
HETATM   30  C14 UNL     1       8.109   7.472  25.685  1.00  0.00     0.301 C 
HETATM   31  C15 UNL     1       6.991   6.996  24.817  1.00  0.00     0.267 C 
BRANCH  29  32
HETATM   32  C10 UNL     1      10.182   8.544  25.854  1.00  0.00     0.223 C 
HETATM   33  C11 UNL     1      10.661   7.494  26.834  1.00  0.00     0.036 C 
HETATM   34  C12 UNL     1      12.101   7.816  26.464  1.00  0.00     0.004 C 
HETATM   35  C13 UNL     1      11.561   8.550  25.240  1.00  0.00     0.036 C 
ENDBRANCH  29  32
ENDBRANCH  24  25
ENDBRANCH  23  24
ENDBRANCH  21  23
ENDBRANCH   1  21
TORSDOF 7
ENDMDL
MODEL 2
REMARK VINA RESULT: -8.434300538      0.827      1.209
REMARK  7 active torsions:
REMARK  status: ('A' for Active; 'I' for Inactive)
REMARK       I    between atoms: C2_2  and  N1_4 
REMARK    1  A    between atoms: N1_4  and  C3_6 
REMARK    2  A    between atoms: C3_6  and  C4_7 
REMARK    3  A    between atoms: C4_7  and  N3_11 
REMARK    4  A    between atoms: N3_11  and  C5_13 
REMARK    5  A    between atoms: C5_13  and  C6_14 
REMARK    6  A    between atoms: C6_14  and  N4_15 
REMARK    7  A    between atoms: N5_19  and  C10_20 
ROOT
HETATM    1  C4  UNL     1       4.598   5.375  20.295  1.00  0.00     0.099 C 
HETATM    2  N2  UNL     1       3.859   6.294  19.838  1.00  0.00    -0.387 N 
ATOM      3  H21 UNL     1       3.032   6.668  20.304  1.00  0.00     0.157 HD
ATOM      4  H22 UNL     1       4.127   6.699  18.942  1.00  0.00     0.157 HD
ENDROOT
BRANCH   1   5
HETATM    5  C3  UNL     1       5.811   4.827  19.613  1.00  0.00     0.090 C 
HETATM    6  C16 UNL     1       5.973   3.389  19.994  1.00  0.00     0.039 C 
HETATM    7  C17 UNL     1       7.386   2.907  20.166  1.00  0.00     0.003 C 
HETATM    8  C18 UNL     1       7.660   1.592  19.467  1.00  0.00     0.000 C 
HETATM    9  C19 UNL     1       9.018   1.412  18.929  1.00  0.00     0.000 C 
HETATM   10  C20 UNL     1       9.623   2.457  18.091  1.00  0.00     0.000 C 
HETATM   11  C21 UNL     1       9.306   2.416  16.629  1.00  0.00     0.000 C 
HETATM   12  C22 UNL     1       7.934   2.836  16.243  1.00  0.00     0.000 C 
HETATM   13  C23 UNL     1       7.482   4.162  16.782  1.00  0.00     0.000 C 
HETATM   14  C24 UNL     1       5.998   4.058  17.174  1.00  0.00     0.003 C 
HETATM   15  C25 UNL     1       5.550   5.056  18.147  1.00  0.00     0.039 C 
BRANCH   5  16
HETATM   16  N1  UNL     1       6.925   5.617  20.089  1.00  0.00    -0.345 N 
HETATM   17  C2  UNL     1       7.308   6.878  19.580  1.00  0.00     0.214 C 
HETATM   18  C1  UNL     1       8.475   7.590  20.162  1.00  0.00     0.117 C 
HETATM   19  O1  UNL     1       6.724   7.472  18.639  1.00  0.00    -0.274 OA
ATOM     20  H1  UNL     1       7.479   5.231  20.854  1.00  0.00     0.163 HD
ENDBRANCH   5  16
ENDBRANCH   1   5
BRANCH   1  21
HETATM   21  N3  UNL     1       4.224   4.809  21.550  1.00  0.00    -0.376 N 
ATOM     22  H3  UNL     1       3.525   4.067  21.533  1.00  0.00     0.160 HD
BRANCH  21  23
HETATM   23  C5  UNL     1       4.738   5.184  22.832  1.00  0.00     0.149 C 
BRANCH  23  24
HETATM   24  C6  UNL     1       4.326   6.503  23.373  1.00  0.00     0.256 C 
BRANCH  24  25
HETATM   25  N4  UNL     1       5.353   7.495  23.513  1.00  0.00    -0.066 N 
HETATM   26  C7  UNL     1       5.281   8.421  22.372  1.00  0.00     0.272 C 
HETATM   27  C8  UNL     1       6.622   6.782  23.353  1.00  0.00     0.267 C 
HETATM   28  C9  UNL     1       7.828   7.588  23.671  1.00  0.00     0.301 C 
HETATM   29  N5  UNL     1       7.691   8.014  25.076  1.00  0.00     0.096 N 
HETATM   30  C14 UNL     1       6.570   8.949  25.045  1.00  0.00     0.301 C 
HETATM   31  C15 UNL     1       5.276   8.294  24.690  1.00  0.00     0.267 C 
BRANCH  29  32
HETATM   32  C10 UNL     1       8.873   8.745  25.406  1.00  0.00     0.223 C 
HETATM   33  C11 UNL     1       9.861   8.023  26.296  1.00  0.00     0.036 C 
HETATM   34  C12 UNL     1      10.976   8.355  25.316  1.00  0.00     0.004 C 
HETATM   35  C13 UNL     1       9.896   8.707  24.297  1.00  0.00     0.036 C 
ENDBRANCH  29  32
ENDBRANCH  24  25
ENDBRANCH  23  24
ENDBRANCH  21  23
ENDBRANCH   1  21
TORSDOF 7
ENDMDL
MODEL 3
REMARK VINA RESULT: -8.327251657      1.540      2.808
REMARK  7 active torsions:
REMARK  status: ('A' for Active; 'I' for Inactive)
REMARK       I    between atoms: C2_2  and  N1_4 
REMARK    1  A    between atoms: N1_4  and  C3_6 
REMARK    2  A    between atoms: C3_6  and  C4_7 
REMARK    3  A    between atoms: C4_7  and  N3_11 
REMARK    4  A    between atoms: N3_11  and  C5_13 
REMARK    5  A    between atoms: C5_13  and  C6_14 
REMARK    6  A    between atoms: C6_14  and  N4_15 
REMARK    7  A    between atoms: N5_19  and  C10_20 
ROOT
HETATM    1  C4  UNL     1       7.130   6.685  18.993  1.00  0.00     0.099 C 
HETATM    2  N2  UNL     1       6.461   7.601  18.435  1.00  0.00    -0.387 N 
ATOM      3  H21 UNL     1       6.490   8.588  18.691  1.00  0.00     0.157 HD
ATOM      4  H22 UNL     1       5.859   7.327  17.659  1.00  0.00     0.157 HD
ENDROOT
BRANCH   1   5
HETATM    5  C3  UNL     1       7.088   5.238  18.617  1.00  0.00     0.090 C 
HETATM    6  C16 UNL     1       6.936   5.128  17.133  1.00  0.00     0.039 C 
HETATM    7  C17 UNL     1       6.080   3.993  16.639  1.00  0.00     0.003 C 
HETATM    8  C18 UNL     1       6.714   3.212  15.509  1.00  0.00     0.000 C 
HETATM    9  C19 UNL     1       6.411   1.773  15.463  1.00  0.00     0.000 C 
HETATM   10  C20 UNL     1       6.566   0.948  16.670  1.00  0.00     0.000 C 
HETATM   11  C21 UNL     1       7.933   0.400  16.940  1.00  0.00     0.000 C 
HETATM   12  C22 UNL     1       8.947   1.374  17.419  1.00  0.00     0.000 C 
HETATM   13  C23 UNL     1       8.542   2.215  18.593  1.00  0.00     0.000 C 
HETATM   14  C24 UNL     1       9.082   3.641  18.392  1.00  0.00     0.003 C 
HETATM   15  C25 UNL     1       8.380   4.676  19.153  1.00  0.00     0.039 C 
BRANCH   5  16
HETATM   16  N1  UNL     1       5.939   4.684  19.298  1.00  0.00    -0.345 N 
HETATM   17  C2  UNL     1       5.905   4.294  20.655  1.00  0.00     0.214 C 
HETATM   18  C1  UNL     1       4.654   3.740  21.237  1.00  0.00     0.117 C 
HETATM   19  O1  UNL     1       6.878   4.380  21.445  1.00  0.00    -0.274 OA
ATOM     20  H1  UNL     1       5.085   4.564  18.753  1.00  0.00     0.163 HD
ENDBRANCH   5  16
ENDBRANCH   1   5
BRANCH   1  21
HETATM   21  N3  UNL     1       7.972   7.069  20.079  1.00  0.00    -0.376 N 
ATOM     22  H3  UNL     1       8.850   6.562  20.185  1.00  0.00     0.160 HD
BRANCH  21  23
HETATM   23  C5  UNL     1       7.699   8.100  21.033  1.00  0.00     0.149 C 
BRANCH  23  24
HETATM   24  C6  UNL     1       6.758   7.780  22.135  1.00  0.00     0.256 C 
BRANCH  24  25
HETATM   25  N4  UNL     1       7.188   8.094  23.466  1.00  0.00    -0.066 N 
HETATM   26  C7  UNL     1       6.161   8.921  24.118  1.00  0.00     0.272 C 
HETATM   27  C8  UNL     1       8.351   8.971  23.314  1.00  0.00     0.267 C 
HETATM   28  C9  UNL     1       9.085   9.249  24.574  1.00  0.00     0.301 C 
HETATM   29  N5  UNL     1       9.533   7.945  25.097  1.00  0.00     0.096 N 
HETATM   30  C14 UNL     1       8.290   7.283  25.484  1.00  0.00     0.301 C 
HETATM   31  C15 UNL     1       7.409   6.975  24.319  1.00  0.00     0.267 C 
BRANCH  29  32
HETATM   32  C10 UNL     1      10.286   8.208  26.282  1.00  0.00     0.223 C 
HETATM   33  C11 UNL     1      10.417   7.047  27.244  1.00  0.00     0.036 C 
HETATM   34  C12 UNL     1      11.923   7.260  27.285  1.00  0.00     0.004 C 
HETATM   35  C13 UNL     1      11.774   8.132  26.042  1.00  0.00     0.036 C 
ENDBRANCH  29  32
ENDBRANCH  24  25
ENDBRANCH  23  24
ENDBRANCH  21  23
ENDBRANCH   1  21
TORSDOF 7
ENDMDL
MODEL 4
REMARK VINA RESULT: -8.118397422      1.510      2.232
REMARK  7 active torsions:
REMARK  status: ('A' for Active; 'I' for Inactive)
REMARK       I    between atoms: C2_2  and  N1_4 
REMARK    1  A    between atoms: N1_4  and  C3_6 
REMARK    2  A    between atoms: C3_6  and  C4_7 
REMARK    3  A    between atoms: C4_7  and  N3_11 
REMARK    4  A    between atoms: N3_11  and  C5_13 
REMARK    5  A    between atoms: C5_13  and  C6_14 
REMARK    6  A    between atoms: C6_14  and  N4_15 
REMARK    7  A    between atoms: N5_19  and  C10_20 
ROOT
HETATM    1  C4  UNL     1       4.954   3.485  21.788  1.00  0.00     0.099 C 
HETATM    2  N2  UNL     1       5.052   2.827  22.864  1.00  0.00    -0.387 N 
ATOM      3  H21 UNL     1       4.360   2.822  23.614  1.00  0.00     0.157 HD
ATOM      4  H22 UNL     1       5.883   2.246  22.976  1.00  0.00     0.157 HD
ENDROOT
BRANCH   1   5
HETATM    5  C3  UNL     1       5.968   3.492  20.689  1.00  0.00     0.090 C 
HETATM    6  C16 UNL     1       6.546   2.118  20.555  1.00  0.00     0.039 C 
HETATM    7  C17 UNL     1       8.008   2.048  20.208  1.00  0.00     0.003 C 
HETATM    8  C18 UNL     1       8.313   1.071  19.093  1.00  0.00     0.000 C 
HETATM    9  C19 UNL     1       9.429   1.429  18.203  1.00  0.00     0.000 C 
HETATM   10  C20 UNL     1       9.493   2.770  17.603  1.00  0.00     0.000 C 
HETATM   11  C21 UNL     1       8.734   2.975  16.329  1.00  0.00     0.000 C 
HETATM   12  C22 UNL     1       7.256   3.049  16.450  1.00  0.00     0.000 C 
HETATM   13  C23 UNL     1       6.732   4.021  17.466  1.00  0.00     0.000 C 
HETATM   14  C24 UNL     1       5.513   3.396  18.167  1.00  0.00     0.003 C 
HETATM   15  C25 UNL     1       5.203   3.965  19.480  1.00  0.00     0.039 C 
BRANCH   5  16
HETATM   16  N1  UNL     1       6.981   4.443  21.088  1.00  0.00    -0.345 N 
HETATM   17  C2  UNL     1       6.871   5.847  20.977  1.00  0.00     0.214 C 
HETATM   18  C1  UNL     1       7.988   6.717  21.430  1.00  0.00     0.117 C 
HETATM   19  O1  UNL     1       5.871   6.448  20.511  1.00  0.00    -0.274 OA
ATOM     20  H1  UNL     1       7.845   4.069  21.482  1.00  0.00     0.163 HD
ENDBRANCH   5  16
ENDBRANCH   1   5
BRANCH   1  21
HETATM   21  N3  UNL     1       3.792   4.297  21.631  1.00  0.00    -0.376 N 
ATOM     22  H3  UNL     1       3.425   4.402  20.685  1.00  0.00     0.160 HD
BRANCH  21  23
HETATM   23  C5  UNL     1       3.093   4.980  22.677  1.00  0.00     0.149 C 
BRANCH  23  24
HETATM   24  C6  UNL     1       3.221   6.457  22.733  1.00  0.00     0.256 C 
BRANCH  24  25
HETATM   25  N4  UNL     1       4.046   6.996  23.775  1.00  0.00    -0.066 N 
HETATM   26  C7  UNL     1       3.217   7.236  24.967  1.00  0.00     0.272 C 
HETATM   27  C8  UNL     1       4.454   8.325  23.314  1.00  0.00     0.267 C 
HETATM   28  C9  UNL     1       5.490   8.979  24.153  1.00  0.00     0.301 C 
HETATM   29  N5  UNL     1       6.665   8.087  24.144  1.00  0.00     0.096 N 
HETATM   30  C14 UNL     1       6.213   6.915  24.889  1.00  0.00     0.301 C 
HETATM   31  C15 UNL     1       5.126   6.166  24.192  1.00  0.00     0.267 C 
BRANCH  29  32
HETATM   32  C10 UNL     1       7.684   8.735  24.905  1.00  0.00     0.223 C 
HETATM   33  C11 UNL     1       8.710   7.818  25.537  1.00  0.00     0.036 C 
HETATM   34  C12 UNL     1       9.824   8.669  24.946  1.00  0.00     0.004 C 
HETATM   35  C13 UNL     1       8.778   9.299  24.031  1.00  0.00     0.036 C 
ENDBRANCH  29  32
ENDBRANCH  24  25
ENDBRANCH  23  24
ENDBRANCH  21  23
ENDBRANCH   1  21
TORSDOF 7
ENDMDL
MODEL 5
REMARK VINA RESULT: -8.093816835      2.119      3.238
REMARK  7 active torsions:
REMARK  status: ('A' for Active; 'I' for Inactive)
REMARK       I    between atoms: C2_2  and  N1_4 
REMARK    1  A    between atoms: N1_4  and  C3_6 
REMARK    2  A    between atoms: C3_6  and  C4_7 
REMARK    3  A    between atoms: C4_7  and  N3_11 
REMARK    4  A    between atoms: N3_11  and  C5_13 
REMARK    5  A    between atoms: C5_13  and  C6_14 
REMARK    6  A    between atoms: C6_14  and  N4_15 
REMARK    7  A    between atoms: N5_19  and  C10_20 
ROOT
HETATM    1  C4  UNL     1       7.301   3.808  20.420  1.00  0.00     0.099 C 
HETATM    2  N2  UNL     1       7.263   3.122  21.482  1.00  0.00    -0.387 N 
ATOM      3  H21 UNL     1       7.413   3.488  22.422  1.00  0.00     0.157 HD
ATOM      4  H22 UNL     1       7.048   2.131  21.383  1.00  0.00     0.157 HD
ENDROOT
BRANCH   1   5
HETATM    5  C3  UNL     1       7.080   3.273  19.041  1.00  0.00     0.090 C 
HETATM    6  C16 UNL     1       5.625   2.968  18.868  1.00  0.00     0.039 C 
HETATM    7  C17 UNL     1       5.299   1.756  18.040  1.00  0.00     0.003 C 
HETATM    8  C18 UNL     1       4.223   2.008  17.006  1.00  0.00     0.000 C 
HETATM    9  C19 UNL     1       4.343   1.256  15.747  1.00  0.00     0.000 C 
HETATM   10  C20 UNL     1       5.618   1.240  15.017  1.00  0.00     0.000 C 
HETATM   11  C21 UNL     1       5.870   2.376  14.075  1.00  0.00     0.000 C 
HETATM   12  C22 UNL     1       6.190   3.686  14.698  1.00  0.00     0.000 C 
HETATM   13  C23 UNL     1       7.291   3.673  15.717  1.00  0.00     0.000 C 
HETATM   14  C24 UNL     1       6.914   4.623  16.867  1.00  0.00     0.003 C 
HETATM   15  C25 UNL     1       7.601   4.356  18.133  1.00  0.00     0.039 C 
BRANCH   5  16
HETATM   16  N1  UNL     1       7.875   2.069  18.950  1.00  0.00    -0.345 N 
HETATM   17  C2  UNL     1       9.232   2.015  18.559  1.00  0.00     0.214 C 
HETATM   18  C1  UNL     1       9.938   0.708  18.510  1.00  0.00     0.117 C 
HETATM   19  O1  UNL     1       9.920   3.015  18.236  1.00  0.00    -0.274 OA
ATOM     20  H1  UNL     1       7.419   1.188  19.187  1.00  0.00     0.163 HD
ENDBRANCH   5  16
ENDBRANCH   1   5
BRANCH   1  21
HETATM   21  N3  UNL     1       7.602   5.196  20.557  1.00  0.00    -0.376 N 
ATOM     22  H3  UNL     1       8.363   5.564  19.986  1.00  0.00     0.160 HD
BRANCH  21  23
HETATM   23  C5  UNL     1       6.935   6.122  21.422  1.00  0.00     0.149 C 
BRANCH  23  24
HETATM   24  C6  UNL     1       7.533   7.472  21.569  1.00  0.00     0.256 C 
BRANCH  24  25
HETATM   25  N4  UNL     1       7.739   7.947  22.906  1.00  0.00    -0.066 N 
HETATM   26  C7  UNL     1       6.768   9.015  23.190  1.00  0.00     0.272 C 
HETATM   27  C8  UNL     1       9.048   8.605  22.899  1.00  0.00     0.267 C 
HETATM   28  C9  UNL     1       9.555   8.988  24.241  1.00  0.00     0.301 C 
HETATM   29  N5  UNL     1       9.649   7.743  25.027  1.00  0.00     0.096 N 
HETATM   30  C14 UNL     1       8.256   7.346  25.212  1.00  0.00     0.301 C 
HETATM   31  C15 UNL     1       7.583   6.972  23.933  1.00  0.00     0.267 C 
BRANCH  29  32
HETATM   32  C10 UNL     1      10.186   8.096  26.302  1.00  0.00     0.223 C 
HETATM   33  C11 UNL     1      10.356   6.952  27.278  1.00  0.00     0.036 C 
HETATM   34  C12 UNL     1      11.794   7.384  27.523  1.00  0.00     0.004 C 
HETATM   35  C13 UNL     1      11.688   8.244  26.268  1.00  0.00     0.036 C 
ENDBRANCH  29  32
ENDBRANCH  24  25
ENDBRANCH  23  24
ENDBRANCH  21  23
ENDBRANCH   1  21
TORSDOF 7
ENDMDL
