MODEL 1
REMARK VINA RESULT: -7.196458429      0.000      0.000
REMARK  8 active torsions:
REMARK  status: ('A' for Active; 'I' for Inactive)
REMARK    1  A    between atoms: C1_4  and  C2_6 
REMARK    2  A    between atoms: C5_9  and  N3_10 
REMARK    3  A    between atoms: N4_12  and  C6_14 
REMARK    4  A    between atoms: C7_17  and  N6_18 
REMARK    5  A    between atoms: C10_27  and  C11_28 
REMARK    6  A    between atoms: C11_28  and  C12_30 
REMARK    7  A    between atoms: C12_30  and  C13_32 
REMARK    8  A    between atoms: C13_32  and  N10_33 
ROOT
HETATM    1  C6  UNL     1      15.175  54.391  25.312  1.00  0.00     0.149 A 
HETATM    2  N5  UNL     1      14.408  53.300  25.432  1.00  0.00    -0.175 N 
ATOM      3  H5  UNL     1      13.641  53.168  24.773  1.00  0.00     0.186 HD
HETATM    4  C7  UNL     1      14.601  52.377  26.372  1.00  0.00     0.678 A 
HETATM    5  N7  UNL     1      15.610  52.567  27.224  1.00  0.00    -0.185 N 
ATOM      6  H7  UNL     1      15.787  51.880  27.956  1.00  0.00     0.185 HD
HETATM    7  C8  UNL     1      16.411  53.673  27.129  1.00  0.00     0.107 A 
HETATM    8  S1  UNL     1      17.773  54.165  28.024  1.00  0.00    -0.055 SA
HETATM    9  C9  UNL     1      18.120  55.593  27.197  1.00  0.00     0.102 A 
HETATM   10  N8  UNL     1      19.202  56.475  27.507  1.00  0.00    -0.093 NA
HETATM   11  C10 UNL     1      17.144  55.683  26.200  1.00  0.00     0.040 A 
HETATM   12  C14 UNL     1      16.251  54.646  26.185  1.00  0.00     0.059 A 
ENDROOT
BRANCH   1  13
HETATM   13  N4  UNL     1      14.854  55.206  24.210  1.00  0.00    -0.284 N 
HETATM   14  N3  UNL     1      15.027  54.908  23.022  1.00  0.00    -0.299 N 
ATOM     15  H3  UNL     1      14.739  55.615  22.344  1.00  0.00     0.187 HD
ATOM     16  H4  UNL     1      14.444  56.119  24.408  1.00  0.00     0.188 HD
BRANCH  14  17
HETATM   17  C5  UNL     1      15.569  53.724  22.473  1.00  0.00     0.048 A 
HETATM   18  C4  UNL     1      14.723  52.698  22.034  1.00  0.00     0.032 A 
HETATM   19  C3  UNL     1      15.212  51.529  21.489  1.00  0.00     0.017 A 
HETATM   20  C2  UNL     1      16.572  51.328  21.357  1.00  0.00     0.005 A 
HETATM   21  C16 UNL     1      17.423  52.324  21.783  1.00  0.00     0.017 A 
HETATM   22  C15 UNL     1      16.921  53.485  22.324  1.00  0.00     0.032 A 
BRANCH  20  23
HETATM   23  C1  UNL     1      17.076  50.087  20.779  1.00  0.00     0.120 C 
HETATM   24  N1  UNL     1      16.740  48.954  21.285  1.00  0.00    -0.387 N 
ATOM     25  H12 UNL     1      17.092  48.086  20.881  1.00  0.00     0.157 HD
ATOM     26  H11 UNL     1      16.118  48.959  22.093  1.00  0.00     0.157 HD
HETATM   27  N2  UNL     1      17.942  50.080  19.654  1.00  0.00    -0.082 NA
ENDBRANCH  20  23
ENDBRANCH  14  17
ENDBRANCH   1  13
BRANCH   4  28
HETATM   28  N6  UNL     1      13.819  51.355  26.422  1.00  0.00    -0.234 N 
ATOM     29  H62 UNL     1      13.099  51.169  25.724  1.00  0.00     0.174 HD
ATOM     30  H61 UNL     1      13.914  50.691  27.190  1.00  0.00     0.174 HD
ENDBRANCH   4  28
BRANCH  11  31
HETATM   31  C11 UNL     1      17.233  56.887  25.300  1.00  0.00     0.107 C 
HETATM   32  N9  UNL     1      17.511  56.553  23.917  1.00  0.00    -0.098 NA
BRANCH  31  33
HETATM   33  C12 UNL     1      16.265  57.951  25.502  1.00  0.00     0.199 C 
HETATM   34  O1  UNL     1      15.622  58.008  26.531  1.00  0.00    -0.289 OA
BRANCH  33  35
HETATM   35  C13 UNL     1      16.046  58.992  24.467  1.00  0.00     0.314 C 
BRANCH  35  36
HETATM   36  N10 UNL     1      15.061  58.569  23.482  1.00  0.00    -0.072 N 
ATOM     37 3H10 UNL     1      15.364  57.728  22.989  1.00  0.00     0.274 HD
ATOM     38 2H10 UNL     1      14.223  58.196  23.928  1.00  0.00     0.274 HD
ATOM     39 1H10 UNL     1      14.833  59.320  22.831  1.00  0.00     0.274 HD
ENDBRANCH  35  36
ENDBRANCH  33  35
ENDBRANCH  31  33
ENDBRANCH  11  31
TORSDOF 8
ENDMDL
MODEL 2
REMARK VINA RESULT: -7.128794920      0.833      1.102
REMARK  8 active torsions:
REMARK  status: ('A' for Active; 'I' for Inactive)
REMARK    1  A    between atoms: C1_4  and  C2_6 
REMARK    2  A    between atoms: C5_9  and  N3_10 
REMARK    3  A    between atoms: N4_12  and  C6_14 
REMARK    4  A    between atoms: C7_17  and  N6_18 
REMARK    5  A    between atoms: C10_27  and  C11_28 
REMARK    6  A    between atoms: C11_28  and  C12_30 
REMARK    7  A    between atoms: C12_30  and  C13_32 
REMARK    8  A    between atoms: C13_32  and  N10_33 
ROOT
HETATM    1  C6  UNL     1      15.245  54.273  25.414  1.00  0.00     0.149 A 
HETATM    2  N5  UNL     1      14.423  53.222  25.522  1.00  0.00    -0.175 N 
ATOM      3  H5  UNL     1      13.630  53.155  24.884  1.00  0.00     0.186 HD
HETATM    4  C7  UNL     1      14.594  52.258  26.424  1.00  0.00     0.678 A 
HETATM    5  N7  UNL     1      15.637  52.363  27.249  1.00  0.00    -0.185 N 
ATOM      6  H7  UNL     1      15.798  51.641  27.952  1.00  0.00     0.185 HD
HETATM    7  C8  UNL     1      16.494  53.426  27.164  1.00  0.00     0.107 A 
HETATM    8  S1  UNL     1      17.908  53.812  28.031  1.00  0.00    -0.055 SA
HETATM    9  C9  UNL     1      18.308  55.247  27.241  1.00  0.00     0.102 A 
HETATM   10  N8  UNL     1      19.446  56.057  27.545  1.00  0.00    -0.093 NA
HETATM   11  C10 UNL     1      17.308  55.425  26.280  1.00  0.00     0.040 A 
HETATM   12  C14 UNL     1      16.359  54.439  26.259  1.00  0.00     0.059 A 
ENDROOT
BRANCH   1  13
HETATM   13  N4  UNL     1      14.936  55.143  24.351  1.00  0.00    -0.284 N 
HETATM   14  N3  UNL     1      15.107  54.898  23.150  1.00  0.00    -0.299 N 
ATOM     15  H3  UNL     1      14.828  55.639  22.506  1.00  0.00     0.187 HD
ATOM     16  H4  UNL     1      14.537  56.051  24.590  1.00  0.00     0.188 HD
BRANCH  14  17
HETATM   17  C5  UNL     1      15.634  53.733  22.548  1.00  0.00     0.048 A 
HETATM   18  C4  UNL     1      14.778  52.717  22.106  1.00  0.00     0.032 A 
HETATM   19  C3  UNL     1      15.253  51.568  21.509  1.00  0.00     0.017 A 
HETATM   20  C2  UNL     1      16.608  51.378  21.326  1.00  0.00     0.005 A 
HETATM   21  C16 UNL     1      17.469  52.364  21.752  1.00  0.00     0.017 A 
HETATM   22  C15 UNL     1      16.982  53.506  22.345  1.00  0.00     0.032 A 
BRANCH  20  23
HETATM   23  C1  UNL     1      17.097  50.157  20.693  1.00  0.00     0.120 C 
HETATM   24  N1  UNL     1      16.768  49.008  21.164  1.00  0.00    -0.387 N 
ATOM     25  H12 UNL     1      17.110  48.154  20.722  1.00  0.00     0.157 HD
ATOM     26  H11 UNL     1      16.163  48.985  21.985  1.00  0.00     0.157 HD
HETATM   27  N2  UNL     1      17.940  50.189  19.551  1.00  0.00    -0.082 NA
ENDBRANCH  20  23
ENDBRANCH  14  17
ENDBRANCH   1  13
BRANCH   4  28
HETATM   28  N6  UNL     1      13.758  51.278  26.465  1.00  0.00    -0.234 N 
ATOM     29  H62 UNL     1      14.028  50.307  26.313  1.00  0.00     0.174 HD
ATOM     30  H61 UNL     1      12.775  51.469  26.659  1.00  0.00     0.174 HD
ENDBRANCH   4  28
BRANCH  11  31
HETATM   31  C11 UNL     1      17.436  56.653  25.418  1.00  0.00     0.107 C 
HETATM   32  N9  UNL     1      17.669  56.353  24.019  1.00  0.00    -0.098 NA
BRANCH  31  33
HETATM   33  C12 UNL     1      16.525  57.754  25.676  1.00  0.00     0.199 C 
HETATM   34  O1  UNL     1      15.708  58.083  24.837  1.00  0.00    -0.289 OA
BRANCH  33  35
HETATM   35  C13 UNL     1      16.561  58.492  26.962  1.00  0.00     0.314 C 
BRANCH  35  36
HETATM   36  N10 UNL     1      17.920  58.868  27.326  1.00  0.00    -0.072 N 
ATOM     37 3H10 UNL     1      17.979  59.151  28.304  1.00  0.00     0.274 HD
ATOM     38 2H10 UNL     1      18.535  58.056  27.359  1.00  0.00     0.274 HD
ATOM     39 1H10 UNL     1      18.289  59.589  26.706  1.00  0.00     0.274 HD
ENDBRANCH  35  36
ENDBRANCH  33  35
ENDBRANCH  31  33
ENDBRANCH  11  31
TORSDOF 8
ENDMDL
MODEL 3
REMARK VINA RESULT: -6.752295941      2.074      2.646
REMARK  8 active torsions:
REMARK  status: ('A' for Active; 'I' for Inactive)
REMARK    1  A    between atoms: C1_4  and  C2_6 
REMARK    2  A    between atoms: C5_9  and  N3_10 
REMARK    3  A    between atoms: N4_12  and  C6_14 
REMARK    4  A    between atoms: C7_17  and  N6_18 
REMARK    5  A    between atoms: C10_27  and  C11_28 
REMARK    6  A    between atoms: C11_28  and  C12_30 
REMARK    7  A    between atoms: C12_30  and  C13_32 
REMARK    8  A    between atoms: C13_32  and  N10_33 
ROOT
HETATM    1  C6  UNL     1      15.916  53.969  25.690  1.00  0.00     0.149 A 
HETATM    2  N5  UNL     1      15.486  52.702  25.746  1.00  0.00    -0.175 N 
ATOM      3  H5  UNL     1      16.102  51.963  25.407  1.00  0.00     0.186 HD
HETATM    4  C7  UNL     1      14.292  52.362  26.226  1.00  0.00     0.678 A 
HETATM    5  N7  UNL     1      13.502  53.343  26.665  1.00  0.00    -0.185 N 
ATOM      6  H7  UNL     1      12.580  53.118  27.039  1.00  0.00     0.185 HD
HETATM    7  C8  UNL     1      13.911  54.648  26.620  1.00  0.00     0.107 A 
HETATM    8  S1  UNL     1      13.161  56.088  27.131  1.00  0.00    -0.055 SA
HETATM    9  C9  UNL     1      14.387  57.173  26.724  1.00  0.00     0.102 A 
HETATM   10  N8  UNL     1      14.329  58.586  26.930  1.00  0.00    -0.093 NA
HETATM   11  C10 UNL     1      15.403  56.385  26.175  1.00  0.00     0.040 A 
HETATM   12  C14 UNL     1      15.124  55.045  26.136  1.00  0.00     0.059 A 
ENDROOT
BRANCH   1  13
HETATM   13  N4  UNL     1      17.235  54.113  25.219  1.00  0.00    -0.284 N 
HETATM   14  N3  UNL     1      17.653  53.722  24.122  1.00  0.00    -0.299 N 
ATOM     15  H3  UNL     1      18.639  53.906  23.936  1.00  0.00     0.187 HD
ATOM     16  H4  UNL     1      17.902  54.578  25.834  1.00  0.00     0.188 HD
BRANCH  14  17
HETATM   17  C5  UNL     1      16.951  53.057  23.091  1.00  0.00     0.048 A 
HETATM   18  C4  UNL     1      17.614  52.144  22.261  1.00  0.00     0.032 A 
HETATM   19  C3  UNL     1      16.965  51.470  21.247  1.00  0.00     0.017 A 
HETATM   20  C2  UNL     1      15.620  51.678  21.013  1.00  0.00     0.005 A 
HETATM   21  C16 UNL     1      14.947  52.572  21.816  1.00  0.00     0.017 A 
HETATM   22  C15 UNL     1      15.608  53.236  22.825  1.00  0.00     0.032 A 
BRANCH  20  23
HETATM   23  C1  UNL     1      14.945  50.959  19.937  1.00  0.00     0.120 C 
HETATM   24  N1  UNL     1      15.317  51.121  18.718  1.00  0.00    -0.387 N 
ATOM     25  H12 UNL     1      14.845  50.619  17.966  1.00  0.00     0.157 HD
ATOM     26  H11 UNL     1      16.090  51.762  18.537  1.00  0.00     0.157 HD
HETATM   27  N2  UNL     1      13.870  50.067  20.189  1.00  0.00    -0.082 NA
ENDBRANCH  20  23
ENDBRANCH  14  17
ENDBRANCH   1  13
BRANCH   4  28
HETATM   28  N6  UNL     1      13.951  51.119  26.245  1.00  0.00    -0.234 N 
ATOM     29  H62 UNL     1      14.614  50.362  26.405  1.00  0.00     0.174 HD
ATOM     30  H61 UNL     1      12.974  50.867  26.095  1.00  0.00     0.174 HD
ENDBRANCH   4  28
BRANCH  11  31
HETATM   31  C11 UNL     1      16.637  57.122  25.727  1.00  0.00     0.107 C 
HETATM   32  N9  UNL     1      17.844  56.691  26.406  1.00  0.00    -0.098 NA
BRANCH  31  33
HETATM   33  C12 UNL     1      16.784  57.391  24.308  1.00  0.00     0.199 C 
HETATM   34  O1  UNL     1      17.449  56.651  23.609  1.00  0.00    -0.289 OA
BRANCH  33  35
HETATM   35  C13 UNL     1      16.122  58.560  23.678  1.00  0.00     0.314 C 
BRANCH  35  36
HETATM   36  N10 UNL     1      16.133  59.720  24.558  1.00  0.00    -0.072 N 
ATOM     37 3H10 UNL     1      16.488  60.547  24.080  1.00  0.00     0.274 HD
ATOM     38 2H10 UNL     1      15.187  60.046  24.756  1.00  0.00     0.274 HD
ATOM     39 1H10 UNL     1      16.650  59.534  25.417  1.00  0.00     0.274 HD
ENDBRANCH  35  36
ENDBRANCH  33  35
ENDBRANCH  31  33
ENDBRANCH  11  31
TORSDOF 8
ENDMDL
MODEL 4
REMARK VINA RESULT: -6.699305613      2.342      3.123
REMARK  8 active torsions:
REMARK  status: ('A' for Active; 'I' for Inactive)
REMARK    1  A    between atoms: C1_4  and  C2_6 
REMARK    2  A    between atoms: C5_9  and  N3_10 
REMARK    3  A    between atoms: N4_12  and  C6_14 
REMARK    4  A    between atoms: C7_17  and  N6_18 
REMARK    5  A    between atoms: C10_27  and  C11_28 
REMARK    6  A    between atoms: C11_28  and  C12_30 
REMARK    7  A    between atoms: C12_30  and  C13_32 
REMARK    8  A    between atoms: C13_32  and  N10_33 
ROOT
HETATM    1  C6  UNL     1      15.748  54.406  27.020  1.00  0.00     0.149 A 
HETATM    2  N5  UNL     1      14.885  53.461  27.413  1.00  0.00    -0.175 N 
ATOM      3  H5  UNL     1      15.226  52.507  27.530  1.00  0.00     0.186 HD
HETATM    4  C7  UNL     1      13.600  53.709  27.658  1.00  0.00     0.678 A 
HETATM    5  N7  UNL     1      13.173  54.963  27.499  1.00  0.00    -0.185 N 
ATOM      6  H7  UNL     1      12.195  55.188  27.679  1.00  0.00     0.185 HD
HETATM    7  C8  UNL     1      14.031  55.951  27.098  1.00  0.00     0.107 A 
HETATM    8  S1  UNL     1      13.799  57.620  26.850  1.00  0.00    -0.055 SA
HETATM    9  C9  UNL     1      15.374  58.034  26.413  1.00  0.00     0.102 A 
HETATM   10  N8  UNL     1      15.809  59.354  26.078  1.00  0.00    -0.093 NA
HETATM   11  C10 UNL     1      16.093  56.836  26.461  1.00  0.00     0.040 A 
HETATM   12  C14 UNL     1      15.354  55.745  26.833  1.00  0.00     0.059 A 
ENDROOT
BRANCH   1  13
HETATM   13  N4  UNL     1      17.076  53.957  26.885  1.00  0.00    -0.284 N 
HETATM   14  N3  UNL     1      17.540  53.374  25.897  1.00  0.00    -0.299 N 
ATOM     15  H3  UNL     1      18.525  53.116  25.961  1.00  0.00     0.187 HD
ATOM     16  H4  UNL     1      17.708  54.127  27.667  1.00  0.00     0.188 HD
BRANCH  14  17
HETATM   17  C5  UNL     1      16.894  53.018  24.692  1.00  0.00     0.048 A 
HETATM   18  C4  UNL     1      17.603  53.016  23.484  1.00  0.00     0.032 A 
HETATM   19  C3  UNL     1      17.009  52.670  22.288  1.00  0.00     0.017 A 
HETATM   20  C2  UNL     1      15.677  52.309  22.241  1.00  0.00     0.005 A 
HETATM   21  C16 UNL     1      14.960  52.304  23.416  1.00  0.00     0.017 A 
HETATM   22  C15 UNL     1      15.565  52.650  24.603  1.00  0.00     0.032 A 
BRANCH  20  23
HETATM   23  C1  UNL     1      15.062  51.945  20.968  1.00  0.00     0.120 C 
HETATM   24  N1  UNL     1      15.559  52.373  19.864  1.00  0.00    -0.387 N 
ATOM     25  H12 UNL     1      15.129  52.119  18.974  1.00  0.00     0.157 HD
ATOM     26  H11 UNL     1      16.386  52.968  19.912  1.00  0.00     0.157 HD
HETATM   27  N2  UNL     1      13.911  51.117  20.900  1.00  0.00    -0.082 NA
ENDBRANCH  20  23
ENDBRANCH  14  17
ENDBRANCH   1  13
BRANCH   4  28
HETATM   28  N6  UNL     1      12.832  52.745  28.031  1.00  0.00    -0.234 N 
ATOM     29  H62 UNL     1      12.795  52.399  28.990  1.00  0.00     0.174 HD
ATOM     30  H61 UNL     1      12.225  52.296  27.345  1.00  0.00     0.174 HD
ENDBRANCH   4  28
BRANCH  11  31
HETATM   31  C11 UNL     1      17.555  56.932  26.114  1.00  0.00     0.107 C 
HETATM   32  N9  UNL     1      18.433  56.562  27.207  1.00  0.00    -0.098 NA
BRANCH  31  33
HETATM   33  C12 UNL     1      17.966  56.468  24.800  1.00  0.00     0.199 C 
HETATM   34  O1  UNL     1      19.067  55.978  24.640  1.00  0.00    -0.289 OA
BRANCH  33  35
HETATM   35  C13 UNL     1      17.056  56.571  23.633  1.00  0.00     0.314 C 
BRANCH  35  36
HETATM   36  N10 UNL     1      16.923  57.949  23.178  1.00  0.00    -0.072 N 
ATOM     37 3H10 UNL     1      17.005  58.606  23.953  1.00  0.00     0.274 HD
ATOM     38 2H10 UNL     1      17.734  58.242  22.635  1.00  0.00     0.274 HD
ATOM     39 1H10 UNL     1      16.056  58.091  22.660  1.00  0.00     0.274 HD
ENDBRANCH  35  36
ENDBRANCH  33  35
ENDBRANCH  31  33
ENDBRANCH  11  31
TORSDOF 8
ENDMDL
MODEL 5
REMARK VINA RESULT: -6.473949617      4.556      9.093
REMARK  8 active torsions:
REMARK  status: ('A' for Active; 'I' for Inactive)
REMARK    1  A    between atoms: C1_4  and  C2_6 
REMARK    2  A    between atoms: C5_9  and  N3_10 
REMARK    3  A    between atoms: N4_12  and  C6_14 
REMARK    4  A    between atoms: C7_17  and  N6_18 
REMARK    5  A    between atoms: C10_27  and  C11_28 
REMARK    6  A    between atoms: C11_28  and  C12_30 
REMARK    7  A    between atoms: C12_30  and  C13_32 
REMARK    8  A    between atoms: C13_32  and  N10_33 
ROOT
HETATM    1  C6  UNL     1      16.775  50.435  19.047  1.00  0.00     0.149 A 
HETATM    2  N5  UNL     1      15.630  51.025  19.412  1.00  0.00    -0.175 N 
ATOM      3  H5  UNL     1      15.305  50.906  20.372  1.00  0.00     0.186 HD
HETATM    4  C7  UNL     1      14.896  51.761  18.581  1.00  0.00     0.678 A 
HETATM    5  N7  UNL     1      15.338  51.906  17.331  1.00  0.00    -0.185 N 
ATOM      6  H7  UNL     1      14.801  52.464  16.668  1.00  0.00     0.185 HD
HETATM    7  C8  UNL     1      16.505  51.314  16.926  1.00  0.00     0.107 A 
HETATM    8  S1  UNL     1      17.333  51.346  15.439  1.00  0.00    -0.055 SA
HETATM    9  C9  UNL     1      18.657  50.391  15.865  1.00  0.00     0.102 A 
HETATM   10  N8  UNL     1      19.736  50.054  14.990  1.00  0.00    -0.093 NA
HETATM   11  C10 UNL     1      18.439  50.041  17.201  1.00  0.00     0.040 A 
HETATM   12  C14 UNL     1      17.289  50.549  17.740  1.00  0.00     0.059 A 
ENDROOT
BRANCH   1  13
HETATM   13  N4  UNL     1      17.439  49.763  20.091  1.00  0.00    -0.284 N 
HETATM   14  N3  UNL     1      17.493  50.139  21.268  1.00  0.00    -0.299 N 
ATOM     15  H3  UNL     1      18.017  49.533  21.900  1.00  0.00     0.187 HD
ATOM     16  H4  UNL     1      17.915  48.891  19.857  1.00  0.00     0.188 HD
BRANCH  14  17
HETATM   17  C5  UNL     1      16.929  51.293  21.858  1.00  0.00     0.048 A 
HETATM   18  C4  UNL     1      15.579  51.309  22.229  1.00  0.00     0.032 A 
HETATM   19  C3  UNL     1      14.993  52.413  22.811  1.00  0.00     0.017 A 
HETATM   20  C2  UNL     1      15.728  53.558  23.049  1.00  0.00     0.005 A 
HETATM   21  C16 UNL     1      17.058  53.565  22.692  1.00  0.00     0.017 A 
HETATM   22  C15 UNL     1      17.630  52.456  22.113  1.00  0.00     0.032 A 
BRANCH  20  23
HETATM   23  C1  UNL     1      15.095  54.719  23.666  1.00  0.00     0.120 C 
HETATM   24  N1  UNL     1      13.996  55.185  23.190  1.00  0.00    -0.387 N 
ATOM     25  H12 UNL     1      13.554  55.998  23.621  1.00  0.00     0.157 HD
ATOM     26  H11 UNL     1      13.593  54.719  22.378  1.00  0.00     0.157 HD
HETATM   27  N2  UNL     1      15.657  55.369  24.796  1.00  0.00    -0.082 NA
ENDBRANCH  20  23
ENDBRANCH  14  17
ENDBRANCH   1  13
BRANCH   4  28
HETATM   28  N6  UNL     1      13.805  52.296  19.009  1.00  0.00    -0.234 N 
ATOM     29  H62 UNL     1      13.539  52.309  19.994  1.00  0.00     0.174 HD
ATOM     30  H61 UNL     1      13.167  52.730  18.343  1.00  0.00     0.174 HD
ENDBRANCH   4  28
BRANCH  11  31
HETATM   31  C11 UNL     1      19.498  49.178  17.834  1.00  0.00     0.107 C 
HETATM   32  N9  UNL     1      19.508  47.817  17.335  1.00  0.00    -0.098 NA
BRANCH  31  33
HETATM   33  C12 UNL     1      20.806  49.771  18.053  1.00  0.00     0.199 C 
HETATM   34  O1  UNL     1      20.909  50.836  18.629  1.00  0.00    -0.289 OA
BRANCH  33  35
HETATM   35  C13 UNL     1      22.041  49.090  17.592  1.00  0.00     0.314 C 
BRANCH  35  36
HETATM   36  N10 UNL     1      21.807  48.322  16.376  1.00  0.00    -0.072 N 
ATOM     37 3H10 UNL     1      21.575  47.352  16.587  1.00  0.00     0.274 HD
ATOM     38 2H10 UNL     1      20.935  48.597  15.924  1.00  0.00     0.274 HD
ATOM     39 1H10 UNL     1      22.596  48.386  15.734  1.00  0.00     0.274 HD
ENDBRANCH  35  36
ENDBRANCH  33  35
ENDBRANCH  31  33
ENDBRANCH  11  31
TORSDOF 8
ENDMDL
