MODEL 1
REMARK VINA RESULT: -7.279293339      0.000      0.000
REMARK  2 active torsions:
REMARK  status: ('A' for Active; 'I' for Inactive)
REMARK    1  A    between atoms: C2_2  and  N1_3 
REMARK    2  A    between atoms: N1_3  and  C3_6 
ROOT
HETATM    1  C3  UNL     1      25.401   2.327  18.265  1.00  0.00     0.186 C 
HETATM    2  C4  UNL     1      24.246   1.352  18.278  1.00  0.00     0.038 C 
HETATM    3  C5  UNL     1      22.941   2.057  18.531  1.00  0.00     0.073 C 
HETATM    4  C6  UNL     1      23.035   2.739  19.873  1.00  0.00     0.197 C 
HETATM    5  C7  UNL     1      24.058   3.866  19.713  1.00  0.00     0.073 C 
HETATM    6  C8  UNL     1      25.392   3.173  19.505  1.00  0.00     0.038 C 
HETATM    7  O1  UNL     1      21.816   3.219  20.320  1.00  0.00    -0.347 OA
HETATM    8  C9  UNL     1      21.750   3.062  21.717  1.00  0.00     0.243 C 
HETATM    9  C10 UNL     1      21.715   1.573  21.979  1.00  0.00     0.231 C 
HETATM   10  C11 UNL     1      22.235   1.231  23.350  1.00  0.00     0.118 C 
HETATM   11  C12 UNL     1      21.358   1.690  24.429  1.00  0.00     0.070 C 
HETATM   12  N2  UNL     1      20.099   1.816  24.211  1.00  0.00    -0.336 N 
ATOM     13  H2  UNL     1      19.492   2.135  24.966  1.00  0.00     0.168 HD
HETATM   14  C13 UNL     1      19.526   1.517  22.928  1.00  0.00     0.219 C 
HETATM   15  N3  UNL     1      18.263   1.637  22.688  1.00  0.00    -0.365 N 
ATOM     16  H31 UNL     1      17.856   1.424  21.778  1.00  0.00     0.159 HD
ATOM     17  H32 UNL     1      17.645   1.955  23.435  1.00  0.00     0.159 HD
HETATM   18  O2  UNL     1      20.378   1.079  21.898  1.00  0.00    -0.279 OA
HETATM   19  O3  UNL     1      22.540   0.970  21.044  1.00  0.00    -0.194 OA
HETATM   20  O4  UNL     1      23.531   1.805  20.779  1.00  0.00    -0.198 OA
ENDROOT
BRANCH   1  21
HETATM   21  N1  UNL     1      25.331   3.086  17.051  1.00  0.00    -0.071 N 
ATOM     22  H12 UNL     1      24.365   3.338  16.845  1.00  0.00     0.277 HD
ATOM     23  H11 UNL     1      25.530   2.491  16.247  1.00  0.00     0.277 HD
BRANCH  21  24
HETATM   24  C2  UNL     1      26.165   4.247  17.032  1.00  0.00     0.228 C 
HETATM   25  C1  UNL     1      25.308   5.403  16.504  1.00  0.00     0.034 C 
ENDBRANCH  21  24
ENDBRANCH   1  21
TORSDOF 2
ENDMDL
MODEL 2
REMARK VINA RESULT: -7.075608678      1.720      6.705
REMARK  2 active torsions:
REMARK  status: ('A' for Active; 'I' for Inactive)
REMARK    1  A    between atoms: C2_2  and  N1_3 
REMARK    2  A    between atoms: N1_3  and  C3_6 
ROOT
HETATM    1  C3  UNL     1      21.210   1.925  22.202  1.00  0.00     0.186 C 
HETATM    2  C4  UNL     1      21.923   0.939  21.305  1.00  0.00     0.038 C 
HETATM    3  C5  UNL     1      23.413   1.145  21.345  1.00  0.00     0.073 C 
HETATM    4  C6  UNL     1      23.700   2.549  20.873  1.00  0.00     0.197 C 
HETATM    5  C7  UNL     1      23.151   3.486  21.951  1.00  0.00     0.073 C 
HETATM    6  C8  UNL     1      21.643   3.329  21.893  1.00  0.00     0.038 C 
HETATM    7  O1  UNL     1      25.045   2.775  20.640  1.00  0.00    -0.347 OA
HETATM    8  C9  UNL     1      25.178   3.630  19.530  1.00  0.00     0.243 C 
HETATM    9  C10 UNL     1      24.688   2.852  18.330  1.00  0.00     0.231 C 
HETATM   10  C11 UNL     1      24.207   3.759  17.229  1.00  0.00     0.118 C 
HETATM   11  C12 UNL     1      25.287   4.522  16.601  1.00  0.00     0.070 C 
HETATM   12  N2  UNL     1      26.478   4.045  16.592  1.00  0.00    -0.336 N 
ATOM     13  H2  UNL     1      27.227   4.581  16.153  1.00  0.00     0.168 HD
HETATM   14  C13 UNL     1      26.782   2.773  17.187  1.00  0.00     0.219 C 
HETATM   15  N3  UNL     1      27.972   2.275  17.188  1.00  0.00    -0.365 N 
ATOM     16  H31 UNL     1      28.188   1.372  17.610  1.00  0.00     0.159 HD
ATOM     17  H32 UNL     1      28.730   2.801  16.752  1.00  0.00     0.159 HD
HETATM   18  O2  UNL     1      25.737   2.048  17.789  1.00  0.00    -0.279 OA
HETATM   19  O3  UNL     1      23.617   2.078  18.747  1.00  0.00    -0.194 OA
HETATM   20  O4  UNL     1      22.982   2.746  19.696  1.00  0.00    -0.198 OA
ENDROOT
BRANCH   1  21
HETATM   21  N1  UNL     1      21.441   1.539  23.562  1.00  0.00    -0.071 N 
ATOM     22  H12 UNL     1      22.381   1.807  23.853  1.00  0.00     0.277 HD
ATOM     23  H11 UNL     1      21.520   0.524  23.635  1.00  0.00     0.277 HD
BRANCH  21  24
HETATM   24  C2  UNL     1      20.472   2.032  24.489  1.00  0.00     0.228 C 
HETATM   25  C1  UNL     1      21.241   2.781  25.583  1.00  0.00     0.034 C 
ENDBRANCH  21  24
ENDBRANCH   1  21
TORSDOF 2
ENDMDL
MODEL 3
REMARK VINA RESULT: -6.909803923      1.846      2.284
REMARK  2 active torsions:
REMARK  status: ('A' for Active; 'I' for Inactive)
REMARK    1  A    between atoms: C2_2  and  N1_3 
REMARK    2  A    between atoms: N1_3  and  C3_6 
ROOT
HETATM    1  C3  UNL     1      25.623   3.472  17.247  1.00  0.00     0.186 C 
HETATM    2  C4  UNL     1      24.160   3.098  17.338  1.00  0.00     0.038 C 
HETATM    3  C5  UNL     1      23.579   3.490  18.669  1.00  0.00     0.073 C 
HETATM    4  C6  UNL     1      24.349   2.763  19.744  1.00  0.00     0.197 C 
HETATM    5  C7  UNL     1      25.758   3.363  19.745  1.00  0.00     0.073 C 
HETATM    6  C8  UNL     1      26.379   2.936  18.428  1.00  0.00     0.038 C 
HETATM    7  O1  UNL     1      23.756   2.859  20.990  1.00  0.00    -0.347 OA
HETATM    8  C9  UNL     1      23.940   1.644  21.676  1.00  0.00     0.243 C 
HETATM    9  C10 UNL     1      23.138   0.603  20.928  1.00  0.00     0.231 C 
HETATM   10  C11 UNL     1      23.678  -0.786  21.143  1.00  0.00     0.118 C 
HETATM   11  C12 UNL     1      23.489  -1.270  22.511  1.00  0.00     0.070 C 
HETATM   12  N2  UNL     1      22.510  -0.825  23.212  1.00  0.00    -0.336 N 
ATOM     13  H2  UNL     1      22.383  -1.166  24.165  1.00  0.00     0.168 HD
HETATM   14  C13 UNL     1      21.588   0.143  22.684  1.00  0.00     0.219 C 
HETATM   15  N3  UNL     1      20.598   0.603  23.372  1.00  0.00    -0.365 N 
ATOM     16  H31 UNL     1      19.943   1.289  22.997  1.00  0.00     0.159 HD
ATOM     17  H32 UNL     1      20.460   0.269  24.326  1.00  0.00     0.159 HD
HETATM   18  O2  UNL     1      21.779   0.603  21.369  1.00  0.00    -0.279 OA
HETATM   19  O3  UNL     1      23.235   0.898  19.578  1.00  0.00    -0.194 OA
HETATM   20  O4  UNL     1      24.430   1.426  19.364  1.00  0.00    -0.198 OA
ENDROOT
BRANCH   1  21
HETATM   21  N1  UNL     1      25.710   4.895  17.106  1.00  0.00    -0.071 N 
ATOM     22  H12 UNL     1      26.677   5.178  16.946  1.00  0.00     0.277 HD
ATOM     23  H11 UNL     1      25.541   5.353  18.002  1.00  0.00     0.277 HD
BRANCH  21  24
HETATM   24  C2  UNL     1      24.857   5.441  16.097  1.00  0.00     0.228 C 
HETATM   25  C1  UNL     1      24.626   6.913  16.458  1.00  0.00     0.034 C 
ENDBRANCH  21  24
ENDBRANCH   1  21
TORSDOF 2
ENDMDL
MODEL 4
REMARK VINA RESULT: -6.896099627      5.298      6.457
REMARK  2 active torsions:
REMARK  status: ('A' for Active; 'I' for Inactive)
REMARK    1  A    between atoms: C2_2  and  N1_3 
REMARK    2  A    between atoms: N1_3  and  C3_6 
ROOT
HETATM    1  C3  UNL     1      22.705   9.521  16.335  1.00  0.00     0.186 C 
HETATM    2  C4  UNL     1      23.593   8.745  17.281  1.00  0.00     0.038 C 
HETATM    3  C5  UNL     1      22.860   7.574  17.880  1.00  0.00     0.073 C 
HETATM    4  C6  UNL     1      21.670   8.110  18.636  1.00  0.00     0.197 C 
HETATM    5  C7  UNL     1      20.709   8.671  17.585  1.00  0.00     0.073 C 
HETATM    6  C8  UNL     1      21.411   9.884  17.004  1.00  0.00     0.038 C 
HETATM    7  O1  UNL     1      21.057   7.152  19.424  1.00  0.00    -0.347 OA
HETATM    8  C9  UNL     1      20.604   7.760  20.610  1.00  0.00     0.243 C 
HETATM    9  C10 UNL     1      21.839   8.180  21.375  1.00  0.00     0.231 C 
HETATM   10  C11 UNL     1      21.558   9.325  22.312  1.00  0.00     0.118 C 
HETATM   11  C12 UNL     1      20.692   8.951  23.432  1.00  0.00     0.070 C 
HETATM   12  N2  UNL     1      20.683   7.738  23.849  1.00  0.00    -0.336 N 
ATOM     13  H2  UNL     1      20.079   7.482  24.630  1.00  0.00     0.168 HD
HETATM   14  C13 UNL     1      21.507   6.729  23.241  1.00  0.00     0.219 C 
HETATM   15  N3  UNL     1      21.513   5.503  23.645  1.00  0.00    -0.365 N 
ATOM     16  H31 UNL     1      22.097   4.787  23.214  1.00  0.00     0.159 HD
ATOM     17  H32 UNL     1      20.913   5.236  24.425  1.00  0.00     0.159 HD
HETATM   18  O2  UNL     1      22.334   7.098  22.165  1.00  0.00    -0.279 OA
HETATM   19  O3  UNL     1      22.775   8.605  20.447  1.00  0.00    -0.194 OA
HETATM   20  O4  UNL     1      22.123   9.155  19.436  1.00  0.00    -0.198 OA
ENDROOT
BRANCH   1  21
HETATM   21  N1  UNL     1      22.537   8.743  15.143  1.00  0.00    -0.071 N 
ATOM     22  H12 UNL     1      22.162   9.321  14.391  1.00  0.00     0.277 HD
ATOM     23  H11 UNL     1      21.768   8.082  15.255  1.00  0.00     0.277 HD
BRANCH  21  24
HETATM   24  C2  UNL     1      23.719   8.065  14.710  1.00  0.00     0.228 C 
HETATM   25  C1  UNL     1      23.617   7.920  13.188  1.00  0.00     0.034 C 
ENDBRANCH  21  24
ENDBRANCH   1  21
TORSDOF 2
ENDMDL
MODEL 5
REMARK VINA RESULT: -6.878363981      4.590      5.665
REMARK  2 active torsions:
REMARK  status: ('A' for Active; 'I' for Inactive)
REMARK    1  A    between atoms: C2_2  and  N1_3 
REMARK    2  A    between atoms: N1_3  and  C3_6 
ROOT
HETATM    1  C3  UNL     1      24.033   6.013  16.973  1.00  0.00     0.186 C 
HETATM    2  C4  UNL     1      23.483   5.119  18.062  1.00  0.00     0.038 C 
HETATM    3  C5  UNL     1      24.589   4.416  18.800  1.00  0.00     0.073 C 
HETATM    4  C6  UNL     1      25.353   3.578  17.804  1.00  0.00     0.197 C 
HETATM    5  C7  UNL     1      26.072   4.561  16.877  1.00  0.00     0.073 C 
HETATM    6  C8  UNL     1      24.972   5.247  16.087  1.00  0.00     0.038 C 
HETATM    7  O1  UNL     1      26.241   2.704  18.405  1.00  0.00    -0.347 OA
HETATM    8  C9  UNL     1      26.272   1.507  17.665  1.00  0.00     0.243 C 
HETATM    9  C10 UNL     1      24.911   0.869  17.827  1.00  0.00     0.231 C 
HETATM   10  C11 UNL     1      24.578  -0.046  16.678  1.00  0.00     0.118 C 
HETATM   11  C12 UNL     1      25.410  -1.250  16.643  1.00  0.00     0.070 C 
HETATM   12  N2  UNL     1      25.903  -1.711  17.735  1.00  0.00    -0.336 N 
ATOM     13  H2  UNL     1      26.481  -2.550  17.706  1.00  0.00     0.168 HD
HETATM   14  C13 UNL     1      25.659  -1.071  18.998  1.00  0.00     0.219 C 
HETATM   15  N3  UNL     1      26.145  -1.518  20.107  1.00  0.00    -0.365 N 
ATOM     16  H31 UNL     1      25.972  -1.065  21.004  1.00  0.00     0.159 HD
ATOM     17  H32 UNL     1      26.725  -2.357  20.091  1.00  0.00     0.159 HD
HETATM   18  O2  UNL     1      24.860   0.086  19.020  1.00  0.00    -0.279 OA
HETATM   19  O3  UNL     1      23.976   1.891  17.847  1.00  0.00    -0.194 OA
HETATM   20  O4  UNL     1      24.418   2.861  17.063  1.00  0.00    -0.198 OA
ENDROOT
BRANCH   1  21
HETATM   21  N1  UNL     1      24.634   7.155  17.596  1.00  0.00    -0.071 N 
ATOM     22  H12 UNL     1      25.542   6.910  17.989  1.00  0.00     0.277 HD
ATOM     23  H11 UNL     1      24.133   7.398  18.451  1.00  0.00     0.277 HD
BRANCH  21  24
HETATM   24  C2  UNL     1      24.750   8.297  16.744  1.00  0.00     0.228 C 
HETATM   25  C1  UNL     1      23.357   8.564  16.163  1.00  0.00     0.034 C 
ENDBRANCH  21  24
ENDBRANCH   1  21
TORSDOF 2
ENDMDL
