MODEL 1
REMARK VINA RESULT: -8.607843290      0.000      0.000
REMARK  2 active torsions:
REMARK  status: ('A' for Active; 'I' for Inactive)
REMARK    1  A    between atoms: C6_6  and  N1_7 
REMARK    2  A    between atoms: N1_7  and  C7_9 
ROOT
HETATM    1  C7  UNL     1      26.174   5.309  15.434  1.00  0.00     0.153 A 
HETATM    2  N2  UNL     1      26.738   4.266  14.800  1.00  0.00    -0.241 N 
ATOM      3  H2  UNL     1      27.206   4.318  13.896  1.00  0.00     0.196 HD
HETATM    4  O1  UNL     1      26.598   3.175  15.512  1.00  0.00    -0.215 OA
HETATM    5  C8  UNL     1      25.945   3.453  16.627  1.00  0.00     0.202 A 
HETATM    6  N3  UNL     1      25.556   2.710  17.664  1.00  0.00    -0.325 N 
ATOM      7  H3  UNL     1      25.760   1.712  17.689  1.00  0.00     0.169 HD
HETATM    8  C9  UNL     1      24.891   3.293  18.677  1.00  0.00     0.120 A 
HETATM    9  S1  UNL     1      24.399   2.235  20.041  1.00  0.00    -0.030 SA
HETATM   10  C10 UNL     1      24.582   4.637  18.707  1.00  0.00     0.149 A 
HETATM   11  C11 UNL     1      23.869   5.198  19.821  1.00  0.00     0.120 C 
HETATM   12  N4  UNL     1      23.289   5.672  20.723  1.00  0.00    -0.190 NA
HETATM   13  N5  UNL     1      24.982   5.374  17.651  1.00  0.00    -0.339 N 
ATOM     14  H5  UNL     1      24.777   6.372  17.629  1.00  0.00     0.167 HD
HETATM   15  C12 UNL     1      25.658   4.802  16.612  1.00  0.00     0.133 A 
ENDROOT
BRANCH   1  16
HETATM   16  N1  UNL     1      26.080   6.542  15.103  1.00  0.00    -0.368 N 
ATOM     17  H1  UNL     1      26.871   7.148  15.324  1.00  0.00     0.161 HD
BRANCH  16  18
HETATM   18  C6  UNL     1      24.956   7.141  14.449  1.00  0.00     0.087 C 
HETATM   19  C2  UNL     1      24.654   8.542  14.958  1.00  0.00     0.004 C 
HETATM   20  C1  UNL     1      23.963   8.531  16.287  1.00  0.00     0.012 C 
HETATM   21  C3  UNL     1      23.654   9.009  13.911  1.00  0.00     0.006 C 
HETATM   22  C4  UNL     1      24.071   8.324  12.616  1.00  0.00     0.002 C 
HETATM   23  C5  UNL     1      25.260   7.457  12.979  1.00  0.00     0.025 C 
ENDBRANCH  16  18
ENDBRANCH   1  16
TORSDOF 2
ENDMDL
MODEL 2
REMARK VINA RESULT: -8.508485093      1.917      3.073
REMARK  2 active torsions:
REMARK  status: ('A' for Active; 'I' for Inactive)
REMARK    1  A    between atoms: C6_6  and  N1_7 
REMARK    2  A    between atoms: N1_7  and  C7_9 
ROOT
HETATM    1  C7  UNL     1      24.885   6.947  17.299  1.00  0.00     0.153 A 
HETATM    2  N2  UNL     1      24.329   7.495  18.393  1.00  0.00    -0.241 N 
ATOM      3  H2  UNL     1      24.175   8.493  18.531  1.00  0.00     0.196 HD
HETATM    4  O1  UNL     1      24.012   6.561  19.256  1.00  0.00    -0.215 OA
HETATM    5  C8  UNL     1      24.345   5.377  18.770  1.00  0.00     0.202 A 
HETATM    6  N3  UNL     1      24.238   4.135  19.244  1.00  0.00    -0.325 N 
ATOM      7  H3  UNL     1      23.827   3.967  20.163  1.00  0.00     0.169 HD
HETATM    8  C9  UNL     1      24.677   3.106  18.498  1.00  0.00     0.120 A 
HETATM    9  S1  UNL     1      24.500   1.462  19.196  1.00  0.00    -0.030 SA
HETATM   10  C10 UNL     1      25.242   3.263  17.250  1.00  0.00     0.149 A 
HETATM   11  C11 UNL     1      25.691   2.122  16.503  1.00  0.00     0.120 C 
HETATM   12  N4  UNL     1      26.062   1.201  15.879  1.00  0.00    -0.190 NA
HETATM   13  N5  UNL     1      25.344   4.525  16.785  1.00  0.00    -0.339 N 
ATOM     14  H5  UNL     1      25.754   4.690  15.867  1.00  0.00     0.167 HD
HETATM   15  C12 UNL     1      24.904   5.584  17.527  1.00  0.00     0.133 A 
ENDROOT
BRANCH   1  16
HETATM   16  N1  UNL     1      25.335   7.483  16.228  1.00  0.00    -0.368 N 
ATOM     17  H1  UNL     1      26.278   7.872  16.258  1.00  0.00     0.161 HD
BRANCH  16  18
HETATM   18  C6  UNL     1      24.623   7.583  14.989  1.00  0.00     0.087 C 
HETATM   19  C2  UNL     1      24.344   9.022  14.584  1.00  0.00     0.004 C 
HETATM   20  C1  UNL     1      23.215   9.626  15.362  1.00  0.00     0.012 C 
HETATM   21  C3  UNL     1      23.873   8.821  13.151  1.00  0.00     0.006 C 
HETATM   22  C4  UNL     1      24.645   7.613  12.635  1.00  0.00     0.002 C 
HETATM   23  C5  UNL     1      25.488   7.141  13.803  1.00  0.00     0.025 C 
ENDBRANCH  16  18
ENDBRANCH   1  16
TORSDOF 2
ENDMDL
MODEL 3
REMARK VINA RESULT: -8.153942340      1.260      1.890
REMARK  2 active torsions:
REMARK  status: ('A' for Active; 'I' for Inactive)
REMARK    1  A    between atoms: C6_6  and  N1_7 
REMARK    2  A    between atoms: N1_7  and  C7_9 
ROOT
HETATM    1  C7  UNL     1      26.008   4.760  15.006  1.00  0.00     0.153 A 
HETATM    2  N2  UNL     1      27.250   4.400  14.641  1.00  0.00    -0.241 N 
ATOM      3  H2  UNL     1      27.724   4.717  13.796  1.00  0.00     0.196 HD
HETATM    4  O1  UNL     1      27.764   3.583  15.526  1.00  0.00    -0.215 OA
HETATM    5  C8  UNL     1      26.891   3.375  16.497  1.00  0.00     0.202 A 
HETATM    6  N3  UNL     1      26.923   2.641  17.610  1.00  0.00    -0.325 N 
ATOM      7  H3  UNL     1      27.751   2.093  17.843  1.00  0.00     0.169 HD
HETATM    8  C9  UNL     1      25.852   2.630  18.423  1.00  0.00     0.120 A 
HETATM    9  S1  UNL     1      25.964   1.623  19.904  1.00  0.00    -0.030 SA
HETATM   10  C10 UNL     1      24.701   3.347  18.168  1.00  0.00     0.149 A 
HETATM   11  C11 UNL     1      23.591   3.293  19.077  1.00  0.00     0.120 C 
HETATM   12  N4  UNL     1      22.676   3.261  19.810  1.00  0.00    -0.190 NA
HETATM   13  N5  UNL     1      24.684   4.083  17.039  1.00  0.00    -0.339 N 
ATOM     14  H5  UNL     1      23.854   4.630  16.808  1.00  0.00     0.167 HD
HETATM   15  C12 UNL     1      25.761   4.108  16.200  1.00  0.00     0.133 A 
ENDROOT
BRANCH   1  16
HETATM   16  N1  UNL     1      25.157   5.531  14.442  1.00  0.00    -0.368 N 
ATOM     17  H1  UNL     1      24.457   5.096  13.840  1.00  0.00     0.161 HD
BRANCH  16  18
HETATM   18  C6  UNL     1      25.105   6.955  14.586  1.00  0.00     0.087 C 
HETATM   19  C2  UNL     1      24.269   7.627  13.508  1.00  0.00     0.004 C 
HETATM   20  C1  UNL     1      24.989   7.715  12.197  1.00  0.00     0.012 C 
HETATM   21  C3  UNL     1      24.156   9.033  14.078  1.00  0.00     0.006 C 
HETATM   22  C4  UNL     1      24.151   8.858  15.592  1.00  0.00     0.002 C 
HETATM   23  C5  UNL     1      24.309   7.369  15.829  1.00  0.00     0.025 C 
ENDBRANCH  16  18
ENDBRANCH   1  16
TORSDOF 2
ENDMDL
MODEL 4
REMARK VINA RESULT: -8.148702326      1.659      1.932
REMARK  2 active torsions:
REMARK  status: ('A' for Active; 'I' for Inactive)
REMARK    1  A    between atoms: C6_6  and  N1_7 
REMARK    2  A    between atoms: N1_7  and  C7_9 
ROOT
HETATM    1  C7  UNL     1      25.485   5.842  16.441  1.00  0.00     0.153 A 
HETATM    2  N2  UNL     1      25.798   4.552  16.229  1.00  0.00    -0.241 N 
ATOM      3  H2  UNL     1      26.241   4.191  15.385  1.00  0.00     0.196 HD
HETATM    4  O1  UNL     1      25.452   3.827  17.264  1.00  0.00    -0.215 OA
HETATM    5  C8  UNL     1      24.905   4.601  18.185  1.00  0.00     0.202 A 
HETATM    6  N3  UNL     1      24.397   4.358  19.395  1.00  0.00    -0.325 N 
ATOM      7  H3  UNL     1      24.387   3.410  19.769  1.00  0.00     0.169 HD
HETATM    8  C9  UNL     1      23.899   5.378  20.115  1.00  0.00     0.120 A 
HETATM    9  S1  UNL     1      23.234   4.982  21.735  1.00  0.00    -0.030 SA
HETATM   10  C10 UNL     1      23.880   6.684  19.669  1.00  0.00     0.149 A 
HETATM   11  C11 UNL     1      23.334   7.728  20.489  1.00  0.00     0.120 C 
HETATM   12  N4  UNL     1      22.892   8.593  21.146  1.00  0.00    -0.190 NA
HETATM   13  N5  UNL     1      24.397   6.912  18.444  1.00  0.00    -0.339 N 
ATOM     14  H5  UNL     1      24.405   7.861  18.072  1.00  0.00     0.167 HD
HETATM   15  C12 UNL     1      24.908   5.890  17.696  1.00  0.00     0.133 A 
ENDROOT
BRANCH   1  16
HETATM   16  N1  UNL     1      25.643   6.877  15.704  1.00  0.00    -0.368 N 
ATOM     17  H1  UNL     1      26.486   7.432  15.851  1.00  0.00     0.161 HD
BRANCH  16  18
HETATM   18  C6  UNL     1      24.733   7.319  14.691  1.00  0.00     0.087 C 
HETATM   19  C2  UNL     1      24.471   8.816  14.746  1.00  0.00     0.004 C 
HETATM   20  C1  UNL     1      23.531   9.192  15.851  1.00  0.00     0.012 C 
HETATM   21  C3  UNL     1      23.747   9.021  13.424  1.00  0.00     0.006 C 
HETATM   22  C4  UNL     1      24.346   7.996  12.469  1.00  0.00     0.002 C 
HETATM   23  C5  UNL     1      25.351   7.214  13.291  1.00  0.00     0.025 C 
ENDBRANCH  16  18
ENDBRANCH   1  16
TORSDOF 2
ENDMDL
MODEL 5
REMARK VINA RESULT: -8.006874791      1.147      1.178
REMARK  2 active torsions:
REMARK  status: ('A' for Active; 'I' for Inactive)
REMARK    1  A    between atoms: C6_6  and  N1_7 
REMARK    2  A    between atoms: N1_7  and  C7_9 
ROOT
HETATM    1  C7  UNL     1      25.606   4.437  15.985  1.00  0.00     0.153 A 
HETATM    2  N2  UNL     1      25.892   3.334  15.273  1.00  0.00    -0.241 N 
ATOM      3  H2  UNL     1      26.388   3.327  14.382  1.00  0.00     0.196 HD
HETATM    4  O1  UNL     1      25.442   2.268  15.889  1.00  0.00    -0.215 OA
HETATM    5  C8  UNL     1      24.849   2.624  17.015  1.00  0.00     0.202 A 
HETATM    6  N3  UNL     1      24.240   1.936  17.982  1.00  0.00    -0.325 N 
ATOM      7  H3  UNL     1      24.169   0.920  17.925  1.00  0.00     0.169 HD
HETATM    8  C9  UNL     1      23.720   2.595  19.032  1.00  0.00     0.120 A 
HETATM    9  S1  UNL     1      22.917   1.607  20.296  1.00  0.00    -0.030 SA
HETATM   10  C10 UNL     1      23.780   3.966  19.171  1.00  0.00     0.149 A 
HETATM   11  C11 UNL     1      23.206   4.610  20.318  1.00  0.00     0.120 C 
HETATM   12  N4  UNL     1      22.742   5.152  21.249  1.00  0.00    -0.190 NA
HETATM   13  N5  UNL     1      24.399   4.648  18.185  1.00  0.00    -0.339 N 
ATOM     14  H5  UNL     1      24.468   5.664  18.244  1.00  0.00     0.167 HD
HETATM   15  C12 UNL     1      24.933   3.998  17.110  1.00  0.00     0.133 A 
ENDROOT
BRANCH   1  16
HETATM   16  N1  UNL     1      25.856   5.672  15.758  1.00  0.00    -0.368 N 
ATOM     17  H1  UNL     1      26.747   6.038  16.092  1.00  0.00     0.161 HD
BRANCH  16  18
HETATM   18  C6  UNL     1      24.987   6.581  15.073  1.00  0.00     0.087 C 
HETATM   19  C2  UNL     1      25.059   7.996  15.626  1.00  0.00     0.004 C 
HETATM   20  C1  UNL     1      24.313   8.144  16.917  1.00  0.00     0.012 C 
HETATM   21  C3  UNL     1      24.295   8.754  14.552  1.00  0.00     0.006 C 
HETATM   22  C4  UNL     1      24.582   8.015  13.251  1.00  0.00     0.002 C 
HETATM   23  C5  UNL     1      25.456   6.838  13.636  1.00  0.00     0.025 C 
ENDBRANCH  16  18
ENDBRANCH   1  16
TORSDOF 2
ENDMDL
