MODEL 1
REMARK VINA RESULT: -6.123048666      0.000      0.000
REMARK  4 active torsions:
REMARK  status: ('A' for Active; 'I' for Inactive)
REMARK    1  A    between atoms: C6_6  and  O1_7 
REMARK    2  A    between atoms: N1_11  and  O3_13 
REMARK    3  A    between atoms: C8_15  and  O4_16 
REMARK    4  A    between atoms: C9_18  and  O5_20 
ROOT
HETATM    1  C1  UNL     1      28.418  -1.147  15.064  1.00  0.00     0.045 C 
HETATM    2  C2  UNL     1      27.034  -0.630  15.383  1.00  0.00     0.058 C 
HETATM    3  C3  UNL     1      26.071  -1.301  14.433  1.00  0.00     0.045 C 
HETATM    4  C4  UNL     1      26.620  -0.951  16.801  1.00  0.00     0.048 C 
HETATM    5  C5  UNL     1      25.598   0.170  17.041  1.00  0.00     0.068 C 
HETATM    6  C6  UNL     1      26.095   1.245  16.178  1.00  0.00     0.212 C 
HETATM    7  O2  UNL     1      27.037   0.730  15.290  1.00  0.00    -0.339 OA
HETATM    8  C7  UNL     1      26.771   2.364  16.878  1.00  0.00     0.103 C 
HETATM    9  N1  UNL     1      27.000   3.458  16.277  1.00  0.00    -0.269 N 
ATOM     10  H1  UNL     1      27.464   4.218  16.773  1.00  0.00     0.193 HD
HETATM   11  C8  UNL     1      27.157   2.142  18.296  1.00  0.00     0.206 C 
HETATM   12  C9  UNL     1      25.850   1.744  18.992  1.00  0.00     0.093 C 
HETATM   13  C10 UNL     1      24.866   2.868  18.860  1.00  0.00     0.050 C 
HETATM   14  C11 UNL     1      25.381   0.441  18.464  1.00  0.00    -0.005 C 
HETATM   15  C12 UNL     1      26.094  -0.637  19.296  1.00  0.00     0.018 C 
HETATM   16  C13 UNL     1      23.896   0.290  18.825  1.00  0.00     0.018 C 
ENDROOT
BRANCH   6  17
HETATM   17  O1  UNL     1      25.065   1.769  15.362  1.00  0.00    -0.360 OA
ATOM     18  H1  UNL     1      25.419   2.215  14.602  1.00  0.00     0.213 HD
ENDBRANCH   6  17
BRANCH   9  19
HETATM   19  O3  UNL     1      26.631   3.627  14.973  1.00  0.00    -0.290 OA
ATOM     20  H3  UNL     1      26.814   4.441  14.520  1.00  0.00     0.244 HD
ENDBRANCH   9  19
BRANCH  11  21
HETATM   21  O4  UNL     1      27.649   3.310  18.828  1.00  0.00    -0.386 OA
ATOM     22  H4  UNL     1      27.874   3.174  19.740  1.00  0.00     0.210 HD
ENDBRANCH  11  21
BRANCH  12  23
HETATM   23  O5  UNL     1      26.177   1.641  20.357  1.00  0.00    -0.386 OA
ATOM     24  H5  UNL     1      25.408   1.263  20.769  1.00  0.00     0.210 HD
ENDBRANCH  12  23
TORSDOF 4
ENDMDL
MODEL 2
REMARK VINA RESULT: -6.077340424      1.567      4.403
REMARK  4 active torsions:
REMARK  status: ('A' for Active; 'I' for Inactive)
REMARK    1  A    between atoms: C6_6  and  O1_7 
REMARK    2  A    between atoms: N1_11  and  O3_13 
REMARK    3  A    between atoms: C8_15  and  O4_16 
REMARK    4  A    between atoms: C9_18  and  O5_20 
ROOT
HETATM    1  C1  UNL     1      22.354   0.557  20.504  1.00  0.00     0.045 C 
HETATM    2  C2  UNL     1      23.841   0.481  20.243  1.00  0.00     0.058 C 
HETATM    3  C3  UNL     1      24.499   0.002  21.515  1.00  0.00     0.045 C 
HETATM    4  C4  UNL     1      24.174  -0.486  19.130  1.00  0.00     0.048 C 
HETATM    5  C5  UNL     1      25.514   0.100  18.660  1.00  0.00     0.068 C 
HETATM    6  C6  UNL     1      25.367   1.524  18.974  1.00  0.00     0.212 C 
HETATM    7  O2  UNL     1      24.280   1.702  19.826  1.00  0.00    -0.339 OA
HETATM    8  C7  UNL     1      25.119   2.411  17.812  1.00  0.00     0.103 C 
HETATM    9  N1  UNL     1      25.241   3.668  17.921  1.00  0.00    -0.269 N 
ATOM     10  H1  UNL     1      25.068   4.264  17.112  1.00  0.00     0.193 HD
HETATM   11  C8  UNL     1      24.729   1.760  16.534  1.00  0.00     0.206 C 
HETATM   12  C9  UNL     1      25.856   0.759  16.253  1.00  0.00     0.093 C 
HETATM   13  C10 UNL     1      27.148   1.507  16.116  1.00  0.00     0.050 C 
HETATM   14  C11 UNL     1      25.855  -0.297  17.292  1.00  0.00    -0.005 C 
HETATM   15  C12 UNL     1      24.857  -1.364  16.814  1.00  0.00     0.018 C 
HETATM   16  C13 UNL     1      27.220  -1.000  17.255  1.00  0.00     0.018 C 
ENDROOT
BRANCH   6  17
HETATM   17  O1  UNL     1      26.485   2.011  19.693  1.00  0.00    -0.360 OA
ATOM     18  H1  UNL     1      26.227   2.355  20.540  1.00  0.00     0.213 HD
ENDBRANCH   6  17
BRANCH   9  19
HETATM   19  O3  UNL     1      25.601   4.233  19.112  1.00  0.00    -0.290 OA
ATOM     20  H3  UNL     1      26.516   4.368  19.327  1.00  0.00     0.244 HD
ENDBRANCH   9  19
BRANCH  11  21
HETATM   21  O4  UNL     1      24.664   2.704  15.537  1.00  0.00    -0.386 OA
ATOM     22  H4  UNL     1      25.044   2.352  14.740  1.00  0.00     0.210 HD
ENDBRANCH  11  21
BRANCH  12  23
HETATM   23  O5  UNL     1      25.559   0.216  14.988  1.00  0.00    -0.386 OA
ATOM     24  H5  UNL     1      26.355  -0.225  14.714  1.00  0.00     0.210 HD
ENDBRANCH  12  23
TORSDOF 4
ENDMDL
MODEL 3
REMARK VINA RESULT: -5.599014158      2.111      3.589
REMARK  4 active torsions:
REMARK  status: ('A' for Active; 'I' for Inactive)
REMARK    1  A    between atoms: C6_6  and  O1_7 
REMARK    2  A    between atoms: N1_11  and  O3_13 
REMARK    3  A    between atoms: C8_15  and  O4_16 
REMARK    4  A    between atoms: C9_18  and  O5_20 
ROOT
HETATM    1  C1  UNL     1      26.115  -1.250  14.656  1.00  0.00     0.045 C 
HETATM    2  C2  UNL     1      26.708  -0.633  15.903  1.00  0.00     0.058 C 
HETATM    3  C3  UNL     1      27.995  -1.364  16.199  1.00  0.00     0.045 C 
HETATM    4  C4  UNL     1      27.014   0.836  15.719  1.00  0.00     0.048 C 
HETATM    5  C5  UNL     1      26.947   1.306  17.180  1.00  0.00     0.068 C 
HETATM    6  C6  UNL     1      25.986   0.372  17.772  1.00  0.00     0.212 C 
HETATM    7  O2  UNL     1      25.793  -0.705  16.910  1.00  0.00    -0.339 OA
HETATM    8  C7  UNL     1      24.636   0.927  18.033  1.00  0.00     0.103 C 
HETATM    9  N1  UNL     1      23.815   0.307  18.776  1.00  0.00    -0.269 N 
ATOM     10  H1  UNL     1      22.891   0.703  18.947  1.00  0.00     0.193 HD
HETATM   11  C8  UNL     1      24.301   2.225  17.392  1.00  0.00     0.206 C 
HETATM   12  C9  UNL     1      25.407   3.181  17.858  1.00  0.00     0.093 C 
HETATM   13  C10 UNL     1      25.365   3.279  19.354  1.00  0.00     0.050 C 
HETATM   14  C11 UNL     1      26.708   2.746  17.299  1.00  0.00    -0.005 C 
HETATM   15  C12 UNL     1      26.810   3.390  15.906  1.00  0.00     0.018 C 
HETATM   16  C13 UNL     1      27.823   3.416  18.116  1.00  0.00     0.018 C 
ENDROOT
BRANCH   6  17
HETATM   17  O1  UNL     1      26.488  -0.196  18.967  1.00  0.00    -0.360 OA
ATOM     18  H1  UNL     1      26.619  -1.132  18.876  1.00  0.00     0.213 HD
ENDBRANCH   6  17
BRANCH   9  19
HETATM   19  O3  UNL     1      24.157  -0.885  19.349  1.00  0.00    -0.290 OA
ATOM     20  H3  UNL     1      25.068  -1.135  19.441  1.00  0.00     0.244 HD
ENDBRANCH   9  19
BRANCH  11  21
HETATM   21  O4  UNL     1      23.074   2.656  17.837  1.00  0.00    -0.386 OA
ATOM     22  H4  UNL     1      23.062   3.605  17.868  1.00  0.00     0.210 HD
ENDBRANCH  11  21
BRANCH  12  23
HETATM   23  O5  UNL     1      25.040   4.442  17.352  1.00  0.00    -0.386 OA
ATOM     24  H5  UNL     1      25.857   4.847  17.082  1.00  0.00     0.210 HD
ENDBRANCH  12  23
TORSDOF 4
ENDMDL
MODEL 4
REMARK VINA RESULT: -5.487804206      2.902      5.330
REMARK  4 active torsions:
REMARK  status: ('A' for Active; 'I' for Inactive)
REMARK    1  A    between atoms: C6_6  and  O1_7 
REMARK    2  A    between atoms: N1_11  and  O3_13 
REMARK    3  A    between atoms: C8_15  and  O4_16 
REMARK    4  A    between atoms: C9_18  and  O5_20 
ROOT
HETATM    1  C1  UNL     1      24.257   5.642  20.828  1.00  0.00     0.045 C 
HETATM    2  C2  UNL     1      24.026   4.905  19.527  1.00  0.00     0.058 C 
HETATM    3  C3  UNL     1      23.402   5.883  18.560  1.00  0.00     0.045 C 
HETATM    4  C4  UNL     1      25.316   4.388  18.932  1.00  0.00     0.048 C 
HETATM    5  C5  UNL     1      24.772   3.218  18.097  1.00  0.00     0.068 C 
HETATM    6  C6  UNL     1      23.582   2.814  18.851  1.00  0.00     0.212 C 
HETATM    7  O2  UNL     1      23.256   3.808  19.771  1.00  0.00    -0.339 OA
HETATM    8  C7  UNL     1      23.717   1.565  19.637  1.00  0.00     0.103 C 
HETATM    9  N1  UNL     1      22.693   0.982  20.105  1.00  0.00    -0.269 N 
ATOM     10  H1  UNL     1      22.803   0.122  20.642  1.00  0.00     0.193 HD
HETATM   11  C8  UNL     1      25.092   1.039  19.842  1.00  0.00     0.206 C 
HETATM   12  C9  UNL     1      25.659   0.883  18.425  1.00  0.00     0.093 C 
HETATM   13  C10 UNL     1      24.807  -0.089  17.665  1.00  0.00     0.050 C 
HETATM   14  C11 UNL     1      25.797   2.217  17.794  1.00  0.00    -0.005 C 
HETATM   15  C12 UNL     1      27.170   2.754  18.230  1.00  0.00     0.018 C 
HETATM   16  C13 UNL     1      25.925   2.013  16.278  1.00  0.00     0.018 C 
ENDROOT
BRANCH   6  17
HETATM   17  O1  UNL     1      22.450   2.707  18.007  1.00  0.00    -0.360 OA
ATOM     18  H1  UNL     1      21.730   2.274  18.449  1.00  0.00     0.213 HD
ENDBRANCH   6  17
BRANCH   9  19
HETATM   19  O3  UNL     1      21.443   1.493  19.896  1.00  0.00    -0.290 OA
ATOM     20  H3  UNL     1      20.935   1.841  20.619  1.00  0.00     0.244 HD
ENDBRANCH   9  19
BRANCH  11  21
HETATM   21  O4  UNL     1      25.030  -0.181  20.472  1.00  0.00    -0.386 OA
ATOM     22  H4  UNL     1      24.679  -0.069  21.347  1.00  0.00     0.210 HD
ENDBRANCH  11  21
BRANCH  12  23
HETATM   23  O5  UNL     1      26.919   0.279  18.599  1.00  0.00    -0.386 OA
ATOM     24  H5  UNL     1      27.122   0.389  19.521  1.00  0.00     0.210 HD
ENDBRANCH  12  23
TORSDOF 4
ENDMDL
MODEL 5
REMARK VINA RESULT: -5.447126249      1.558      4.388
REMARK  4 active torsions:
REMARK  status: ('A' for Active; 'I' for Inactive)
REMARK    1  A    between atoms: C6_6  and  O1_7 
REMARK    2  A    between atoms: N1_11  and  O3_13 
REMARK    3  A    between atoms: C8_15  and  O4_16 
REMARK    4  A    between atoms: C9_18  and  O5_20 
ROOT
HETATM    1  C1  UNL     1      24.083   5.202  18.016  1.00  0.00     0.045 C 
HETATM    2  C2  UNL     1      24.603   3.893  18.567  1.00  0.00     0.058 C 
HETATM    3  C3  UNL     1      24.125   3.783  19.995  1.00  0.00     0.045 C 
HETATM    4  C4  UNL     1      24.086   2.704  17.789  1.00  0.00     0.048 C 
HETATM    5  C5  UNL     1      25.200   1.688  18.086  1.00  0.00     0.068 C 
HETATM    6  C6  UNL     1      26.372   2.546  18.278  1.00  0.00     0.212 C 
HETATM    7  O2  UNL     1      25.959   3.867  18.440  1.00  0.00    -0.339 OA
HETATM    8  C7  UNL     1      27.342   2.562  17.157  1.00  0.00     0.103 C 
HETATM    9  N1  UNL     1      28.504   3.045  17.314  1.00  0.00    -0.269 N 
ATOM     10  H1  UNL     1      29.159   3.047  16.534  1.00  0.00     0.193 HD
HETATM   11  C8  UNL     1      26.890   1.988  15.862  1.00  0.00     0.206 C 
HETATM   12  C9  UNL     1      26.445   0.561  16.208  1.00  0.00     0.093 C 
HETATM   13  C10 UNL     1      27.617  -0.192  16.764  1.00  0.00     0.050 C 
HETATM   14  C11 UNL     1      25.259   0.611  17.094  1.00  0.00    -0.005 C 
HETATM   15  C12 UNL     1      24.038   0.713  16.166  1.00  0.00     0.018 C 
HETATM   16  C13 UNL     1      25.116  -0.759  17.773  1.00  0.00     0.018 C 
ENDROOT
BRANCH   6  17
HETATM   17  O1  UNL     1      27.056   2.223  19.474  1.00  0.00    -0.360 OA
ATOM     18  H1  UNL     1      26.636   2.617  20.229  1.00  0.00     0.213 HD
ENDBRANCH   6  17
BRANCH   9  19
HETATM   19  O3  UNL     1      28.885   3.564  18.519  1.00  0.00    -0.290 OA
ATOM     20  H3  UNL     1      29.785   3.827  18.670  1.00  0.00     0.244 HD
ENDBRANCH   9  19
BRANCH  11  21
HETATM   21  O4  UNL     1      27.942   1.962  14.977  1.00  0.00    -0.386 OA
ATOM     22  H4  UNL     1      27.864   1.203  14.413  1.00  0.00     0.210 HD
ENDBRANCH  11  21
BRANCH  12  23
HETATM   23  O5  UNL     1      26.122  -0.032  14.973  1.00  0.00    -0.386 OA
ATOM     24  H5  UNL     1      25.210  -0.288  15.052  1.00  0.00     0.210 HD
ENDBRANCH  12  23
TORSDOF 4
ENDMDL
