MODEL 1
REMARK VINA RESULT: -7.185194954      0.000      0.000
REMARK  5 active torsions:
REMARK  status: ('A' for Active; 'I' for Inactive)
REMARK    1  A    between atoms: O1_2  and  C2_3 
REMARK    2  A    between atoms: C6_7  and  C7_8 
REMARK    3  A    between atoms: C7_8  and  N1_9 
REMARK    4  A    between atoms: N1_9  and  N2_11 
REMARK    5  A    between atoms: N2_11  and  C8_13 
ROOT
HETATM    1  N1  UNL     1     -19.516  41.062  11.866  1.00  0.00    -0.309 N 
ATOM      2  H1  UNL     1     -19.799  40.765  12.800  1.00  0.00     0.186 HD
ENDROOT
BRANCH   1   3
HETATM    3  C7  UNL     1     -20.500  41.413  11.219  1.00  0.00     0.118 C 
BRANCH   3   4
HETATM    4  C6  UNL     1     -21.803  40.777  11.239  1.00  0.00    -0.017 A 
HETATM    5  C5  UNL     1     -22.907  41.289  11.874  1.00  0.00     0.013 A 
HETATM    6  C4  UNL     1     -24.120  40.615  11.843  1.00  0.00     0.004 A 
HETATM    7  C3  UNL     1     -24.255  39.419  11.179  1.00  0.00     0.037 A 
HETATM    8  C2  UNL     1     -23.148  38.870  10.522  1.00  0.00     0.069 A 
HETATM    9  C11 UNL     1     -21.976  39.551  10.568  1.00  0.00     0.049 A 
BRANCH   8  10
HETATM   10  O1  UNL     1     -23.263  37.664   9.845  1.00  0.00    -0.356 OA
HETATM   11  C1  UNL     1     -22.990  37.533   8.475  1.00  0.00     0.210 C 
ENDBRANCH   8  10
ENDBRANCH   3   4
ENDBRANCH   1   3
BRANCH   1  12
HETATM   12  N2  UNL     1     -18.182  40.947  11.729  1.00  0.00    -0.285 N 
ATOM     13  H2  UNL     1     -17.799  40.383  10.971  1.00  0.00     0.188 HD
BRANCH  12  14
HETATM   14  C8  UNL     1     -17.376  41.548  12.553  1.00  0.00     0.135 A 
HETATM   15  C9  UNL     1     -17.396  41.442  13.943  1.00  0.00     0.070 A 
HETATM   16  C10 UNL     1     -16.376  42.239  14.419  1.00  0.00     0.111 A 
HETATM   17  N3  UNL     1     -15.760  42.806  13.370  1.00  0.00    -0.310 N 
HETATM   18  N4  UNL     1     -16.364  42.387  12.278  1.00  0.00    -0.285 N 
ATOM     19  H3  UNL     1     -14.967  43.447  13.412  1.00  0.00     0.186 HD
ATOM     20  H4  UNL     1     -16.095  42.665  11.334  1.00  0.00     0.188 HD
ENDBRANCH  12  14
ENDBRANCH   1  12
TORSDOF 5
ENDMDL
MODEL 2
REMARK VINA RESULT: -7.117536668      2.286      2.943
REMARK  5 active torsions:
REMARK  status: ('A' for Active; 'I' for Inactive)
REMARK    1  A    between atoms: O1_2  and  C2_3 
REMARK    2  A    between atoms: C6_7  and  C7_8 
REMARK    3  A    between atoms: C7_8  and  N1_9 
REMARK    4  A    between atoms: N1_9  and  N2_11 
REMARK    5  A    between atoms: N2_11  and  C8_13 
ROOT
HETATM    1  N1  UNL     1     -19.412  41.462  11.393  1.00  0.00    -0.309 N 
ATOM      2  H1  UNL     1     -19.318  42.477  11.366  1.00  0.00     0.186 HD
ENDROOT
BRANCH   1   3
HETATM    3  C7  UNL     1     -20.562  41.137  11.109  1.00  0.00     0.118 C 
BRANCH   3   4
HETATM    4  C6  UNL     1     -21.662  40.997  12.043  1.00  0.00    -0.017 A 
HETATM    5  C5  UNL     1     -22.959  41.357  11.775  1.00  0.00     0.013 A 
HETATM    6  C4  UNL     1     -23.954  41.188  12.728  1.00  0.00     0.004 A 
HETATM    7  C3  UNL     1     -23.675  40.657  13.966  1.00  0.00     0.037 A 
HETATM    8  C2  UNL     1     -22.362  40.280  14.270  1.00  0.00     0.069 A 
HETATM    9  C11 UNL     1     -21.411  40.455  13.320  1.00  0.00     0.049 A 
BRANCH   8  10
HETATM   10  O1  UNL     1     -22.059  39.741  15.513  1.00  0.00    -0.356 OA
HETATM   11  C1  UNL     1     -22.998  39.040  16.285  1.00  0.00     0.210 C 
ENDBRANCH   8  10
ENDBRANCH   3   4
ENDBRANCH   1   3
BRANCH   1  12
HETATM   12  N2  UNL     1     -18.236  40.898  11.728  1.00  0.00    -0.285 N 
ATOM     13  H2  UNL     1     -17.995  39.978  11.361  1.00  0.00     0.188 HD
BRANCH  12  14
HETATM   14  C8  UNL     1     -17.406  41.514  12.515  1.00  0.00     0.135 A 
HETATM   15  C9  UNL     1     -17.363  41.410  13.905  1.00  0.00     0.070 A 
HETATM   16  C10 UNL     1     -16.338  42.225  14.335  1.00  0.00     0.111 A 
HETATM   17  N3  UNL     1     -15.778  42.802  13.260  1.00  0.00    -0.310 N 
HETATM   18  N4  UNL     1     -16.421  42.369  12.195  1.00  0.00    -0.285 N 
ATOM     19  H3  UNL     1     -14.995  43.456  13.266  1.00  0.00     0.186 HD
ATOM     20  H4  UNL     1     -16.199  42.651  11.240  1.00  0.00     0.188 HD
ENDBRANCH  12  14
ENDBRANCH   1  12
TORSDOF 5
ENDMDL
MODEL 3
REMARK VINA RESULT: -6.762787215      4.005      6.452
REMARK  5 active torsions:
REMARK  status: ('A' for Active; 'I' for Inactive)
REMARK    1  A    between atoms: O1_2  and  C2_3 
REMARK    2  A    between atoms: C6_7  and  C7_8 
REMARK    3  A    between atoms: C7_8  and  N1_9 
REMARK    4  A    between atoms: N1_9  and  N2_11 
REMARK    5  A    between atoms: N2_11  and  C8_13 
ROOT
HETATM    1  N1  UNL     1     -21.013  38.252  10.437  1.00  0.00    -0.309 N 
ATOM      2  H1  UNL     1     -20.342  37.848  11.090  1.00  0.00     0.186 HD
ENDROOT
BRANCH   1   3
HETATM    3  C7  UNL     1     -21.172  39.446  10.681  1.00  0.00     0.118 C 
BRANCH   3   4
HETATM    4  C6  UNL     1     -22.084  40.002  11.661  1.00  0.00    -0.017 A 
HETATM    5  C5  UNL     1     -23.395  40.319  11.409  1.00  0.00     0.013 A 
HETATM    6  C4  UNL     1     -24.202  40.847  12.408  1.00  0.00     0.004 A 
HETATM    7  C3  UNL     1     -23.717  41.069  13.675  1.00  0.00     0.037 A 
HETATM    8  C2  UNL     1     -22.384  40.756  13.964  1.00  0.00     0.069 A 
HETATM    9  C11 UNL     1     -21.619  40.240  12.970  1.00  0.00     0.049 A 
BRANCH   8  10
HETATM   10  O1  UNL     1     -21.875  40.971  15.237  1.00  0.00    -0.356 OA
HETATM   11  C1  UNL     1     -22.042  40.054  16.286  1.00  0.00     0.210 C 
ENDBRANCH   8  10
ENDBRANCH   3   4
ENDBRANCH   1   3
BRANCH   1  12
HETATM   12  N2  UNL     1     -21.447  37.311   9.579  1.00  0.00    -0.285 N 
ATOM     13  H2  UNL     1     -20.885  36.476   9.419  1.00  0.00     0.188 HD
BRANCH  12  14
HETATM   14  C8  UNL     1     -22.576  37.456   8.951  1.00  0.00     0.135 A 
HETATM   15  C9  UNL     1     -23.811  36.952   9.359  1.00  0.00     0.070 A 
HETATM   16  C10 UNL     1     -24.733  37.336   8.408  1.00  0.00     0.111 A 
HETATM   17  N3  UNL     1     -24.093  38.041   7.461  1.00  0.00    -0.310 N 
HETATM   18  N4  UNL     1     -22.821  38.101   7.800  1.00  0.00    -0.285 N 
ATOM     19  H3  UNL     1     -24.515  38.456   6.630  1.00  0.00     0.186 HD
ATOM     20  H4  UNL     1     -22.107  38.581   7.252  1.00  0.00     0.188 HD
ENDBRANCH  12  14
ENDBRANCH   1  12
TORSDOF 5
ENDMDL
MODEL 4
REMARK VINA RESULT: -6.707586830      4.654      7.827
REMARK  5 active torsions:
REMARK  status: ('A' for Active; 'I' for Inactive)
REMARK    1  A    between atoms: O1_2  and  C2_3 
REMARK    2  A    between atoms: C6_7  and  C7_8 
REMARK    3  A    between atoms: C7_8  and  N1_9 
REMARK    4  A    between atoms: N1_9  and  N2_11 
REMARK    5  A    between atoms: N2_11  and  C8_13 
ROOT
HETATM    1  N1  UNL     1     -23.475  37.704   8.249  1.00  0.00    -0.309 N 
ATOM      2  H1  UNL     1     -22.690  37.260   7.773  1.00  0.00     0.186 HD
ENDROOT
BRANCH   1   3
HETATM    3  C7  UNL     1     -23.281  37.718   9.462  1.00  0.00     0.118 C 
BRANCH   3   4
HETATM    4  C6  UNL     1     -23.148  38.901  10.290  1.00  0.00    -0.017 A 
HETATM    5  C5  UNL     1     -24.176  39.473  10.996  1.00  0.00     0.013 A 
HETATM    6  C4  UNL     1     -23.962  40.607  11.767  1.00  0.00     0.004 A 
HETATM    7  C3  UNL     1     -22.720  41.192  11.848  1.00  0.00     0.037 A 
HETATM    8  C2  UNL     1     -21.651  40.633  11.139  1.00  0.00     0.069 A 
HETATM    9  C11 UNL     1     -21.889  39.524  10.395  1.00  0.00     0.049 A 
BRANCH   8  10
HETATM   10  O1  UNL     1     -20.390  41.207  11.208  1.00  0.00    -0.356 OA
HETATM   11  C1  UNL     1     -19.408  40.777  12.113  1.00  0.00     0.210 C 
ENDBRANCH   8  10
ENDBRANCH   3   4
ENDBRANCH   1   3
BRANCH   1  12
HETATM   12  N2  UNL     1     -24.400  38.092   7.350  1.00  0.00    -0.285 N 
ATOM     13  H2  UNL     1     -24.103  38.454   6.445  1.00  0.00     0.188 HD
BRANCH  12  14
HETATM   14  C8  UNL     1     -25.667  38.011   7.626  1.00  0.00     0.135 A 
HETATM   15  C9  UNL     1     -26.456  39.026   8.165  1.00  0.00     0.070 A 
HETATM   16  C10 UNL     1     -27.730  38.516   8.295  1.00  0.00     0.111 A 
HETATM   17  N3  UNL     1     -27.723  37.247   7.856  1.00  0.00    -0.310 N 
HETATM   18  N4  UNL     1     -26.497  36.967   7.465  1.00  0.00    -0.285 N 
ATOM     19  H3  UNL     1     -28.523  36.614   7.830  1.00  0.00     0.186 HD
ATOM     20  H4  UNL     1     -26.211  36.065   7.085  1.00  0.00     0.188 HD
ENDBRANCH  12  14
ENDBRANCH   1  12
TORSDOF 5
ENDMDL
MODEL 5
REMARK VINA RESULT: -6.687408299      4.880      7.956
REMARK  5 active torsions:
REMARK  status: ('A' for Active; 'I' for Inactive)
REMARK    1  A    between atoms: O1_2  and  C2_3 
REMARK    2  A    between atoms: C6_7  and  C7_8 
REMARK    3  A    between atoms: C7_8  and  N1_9 
REMARK    4  A    between atoms: N1_9  and  N2_11 
REMARK    5  A    between atoms: N2_11  and  C8_13 
ROOT
HETATM    1  N1  UNL     1     -23.647  38.060   7.769  1.00  0.00    -0.309 N 
ATOM      2  H1  UNL     1     -22.809  38.357   7.270  1.00  0.00     0.186 HD
ENDROOT
BRANCH   1   3
HETATM    3  C7  UNL     1     -23.381  37.845   8.949  1.00  0.00     0.118 C 
BRANCH   3   4
HETATM    4  C6  UNL     1     -23.513  38.793  10.038  1.00  0.00    -0.017 A 
HETATM    5  C5  UNL     1     -24.697  39.103  10.658  1.00  0.00     0.013 A 
HETATM    6  C4  UNL     1     -24.734  40.024  11.696  1.00  0.00     0.004 A 
HETATM    7  C3  UNL     1     -23.593  40.652  12.135  1.00  0.00     0.037 A 
HETATM    8  C2  UNL     1     -22.369  40.357  11.523  1.00  0.00     0.069 A 
HETATM    9  C11 UNL     1     -22.362  39.453  10.513  1.00  0.00     0.049 A 
BRANCH   8  10
HETATM   10  O1  UNL     1     -21.205  40.979  11.952  1.00  0.00    -0.356 OA
HETATM   11  C1  UNL     1     -20.200  41.400  11.068  1.00  0.00     0.210 C 
ENDBRANCH   8  10
ENDBRANCH   3   4
ENDBRANCH   1   3
BRANCH   1  12
HETATM   12  N2  UNL     1     -24.698  38.026   6.928  1.00  0.00    -0.285 N 
ATOM     13  H2  UNL     1     -24.543  38.111   5.924  1.00  0.00     0.188 HD
BRANCH  12  14
HETATM   14  C8  UNL     1     -25.907  37.887   7.383  1.00  0.00     0.135 A 
HETATM   15  C9  UNL     1     -26.533  36.680   7.693  1.00  0.00     0.070 A 
HETATM   16  C10 UNL     1     -27.800  36.990   8.140  1.00  0.00     0.111 A 
HETATM   17  N3  UNL     1     -27.944  38.325   8.105  1.00  0.00    -0.310 N 
HETATM   18  N4  UNL     1     -26.817  38.836   7.656  1.00  0.00    -0.285 N 
ATOM     19  H3  UNL     1     -28.777  38.848   8.378  1.00  0.00     0.186 HD
ATOM     20  H4  UNL     1     -26.654  39.836   7.531  1.00  0.00     0.188 HD
ENDBRANCH  12  14
ENDBRANCH   1  12
TORSDOF 5
ENDMDL
