MODEL 1
REMARK VINA RESULT: -6.610845314      0.000      0.000
REMARK  10 active torsions:
REMARK  status: ('A' for Active; 'I' for Inactive)
REMARK       I    between atoms: C1_4  and  N2_5 
REMARK       I    between atoms: C1_4  and  N4_19 
REMARK    1  A    between atoms: N2_5  and  C2_7 
REMARK    2  A    between atoms: C2_7  and  C3_8 
REMARK    3  A    between atoms: C4_9  and  C5_10 
REMARK    4  A    between atoms: C5_10  and  C6_11 
REMARK    5  A    between atoms: C6_11  and  C7_12 
REMARK    6  A    between atoms: C8_13  and  C9_14 
REMARK    7  A    between atoms: C9_14  and  N3_15 
REMARK    8  A    between atoms: N3_15  and  C10_17 
REMARK       I    between atoms: N5_27  and  C18_28 
REMARK    9  A    between atoms: C18_28  and  C19_30 
REMARK   10  A    between atoms: C19_30  and  N6_31 
ROOT
HETATM    1  N1  UNL     1      -0.858  15.857 -13.448  1.00  0.00    -0.235 N 
ATOM      2  H11 UNL     1      -1.520  16.633 -13.420  1.00  0.00     0.174 HD
ATOM      3  H12 UNL     1      -1.099  15.048 -14.021  1.00  0.00     0.174 HD
HETATM    4  C1  UNL     1       0.239  15.881 -12.791  1.00  0.00     0.670 C 
HETATM    5  N2  UNL     1       1.155  14.808 -12.830  1.00  0.00    -0.216 N 
ATOM      6  H2  UNL     1       2.156  15.005 -12.817  1.00  0.00     0.178 HD
HETATM    7  N4  UNL     1       0.578  17.021 -11.983  1.00  0.00    -0.218 N 
HETATM    8  C11 UNL     1       0.581  18.346 -12.494  1.00  0.00     0.142 C 
HETATM    9  C12 UNL     1       0.326  19.451 -11.533  1.00  0.00     0.032 C 
HETATM   10  C13 UNL     1       0.832  19.138 -10.141  1.00  0.00    -0.020 C 
HETATM   11  C14 UNL     1       0.390  17.761  -9.702  1.00  0.00     0.032 C 
HETATM   12  C15 UNL     1       0.929  16.724 -10.619  1.00  0.00     0.142 C 
HETATM   13  C16 UNL     1       2.338  19.265 -10.057  1.00  0.00     0.031 C 
HETATM   14  C17 UNL     1       2.524  19.387  -8.559  1.00  0.00     0.126 C 
HETATM   15  N5  UNL     1       1.399  20.228  -8.123  1.00  0.00    -0.350 N 
HETATM   16  C18 UNL     1       1.312  20.987  -6.936  1.00  0.00     0.237 C 
HETATM   17  O2  UNL     1       0.304  21.678  -6.653  1.00  0.00    -0.272 OA
HETATM   18  C24 UNL     1       0.363  20.143  -9.147  1.00  0.00     0.135 C 
ENDROOT
BRANCH   5  19
HETATM   19  C2  UNL     1       0.709  13.455 -12.887  1.00  0.00     0.232 C 
BRANCH  19  20
HETATM   20  C3  UNL     1       0.254  13.038 -11.562  1.00  0.00    -0.086 C 
HETATM   21  C4  UNL     1      -0.120  12.719 -10.461  1.00  0.00    -0.104 C 
BRANCH  21  22
HETATM   22  C5  UNL     1      -0.579  12.358  -9.096  1.00  0.00     0.106 C 
BRANCH  22  23
HETATM   23  C6  UNL     1       0.653  12.083  -8.220  1.00  0.00     0.106 C 
BRANCH  23  24
HETATM   24  C7  UNL     1       0.716  10.603  -8.138  1.00  0.00    -0.104 C 
HETATM   25  C8  UNL     1       0.782   9.397  -8.050  1.00  0.00    -0.087 C 
BRANCH  25  26
HETATM   26  C9  UNL     1       0.877   7.947  -7.920  1.00  0.00     0.216 C 
BRANCH  26  27
HETATM   27  N3  UNL     1       1.098   7.373  -9.249  1.00  0.00    -0.358 N 
ATOM     28  H3  UNL     1       2.029   7.385  -9.665  1.00  0.00     0.162 HD
BRANCH  27  29
HETATM   29  C10 UNL     1       0.011   6.801  -9.951  1.00  0.00     0.349 C 
HETATM   30  O1  UNL     1      -0.616   5.812  -9.451  1.00  0.00    -0.284 OA
ENDBRANCH  27  29
ENDBRANCH  26  27
ENDBRANCH  25  26
ENDBRANCH  23  24
ENDBRANCH  22  23
ENDBRANCH  21  22
ENDBRANCH  19  20
ENDBRANCH   5  19
BRANCH  16  31
HETATM   31  C19 UNL     1       2.443  20.976  -5.988  1.00  0.00     0.228 C 
BRANCH  31  32
HETATM   32  N6  UNL     1       2.176  20.254  -4.781  1.00  0.00    -0.343 N 
HETATM   33  C20 UNL     1       2.267  20.804  -3.444  1.00  0.00     0.127 C 
HETATM   34  C21 UNL     1       1.067  20.176  -2.767  1.00  0.00     0.029 C 
HETATM   35  C22 UNL     1       1.009  18.802  -3.344  1.00  0.00     0.104 C 
HETATM   36  C23 UNL     1       1.780  18.887  -4.609  1.00  0.00     0.220 C 
HETATM   37  O3  UNL     1       2.068  17.968  -5.425  1.00  0.00    -0.273 OA
ENDBRANCH  31  32
ENDBRANCH  16  31
TORSDOF 10
ENDMDL
MODEL 2
REMARK VINA RESULT: -6.519232732      3.529     10.500
REMARK  10 active torsions:
REMARK  status: ('A' for Active; 'I' for Inactive)
REMARK       I    between atoms: C1_4  and  N2_5 
REMARK       I    between atoms: C1_4  and  N4_19 
REMARK    1  A    between atoms: N2_5  and  C2_7 
REMARK    2  A    between atoms: C2_7  and  C3_8 
REMARK    3  A    between atoms: C4_9  and  C5_10 
REMARK    4  A    between atoms: C5_10  and  C6_11 
REMARK    5  A    between atoms: C6_11  and  C7_12 
REMARK    6  A    between atoms: C8_13  and  C9_14 
REMARK    7  A    between atoms: C9_14  and  N3_15 
REMARK    8  A    between atoms: N3_15  and  C10_17 
REMARK       I    between atoms: N5_27  and  C18_28 
REMARK    9  A    between atoms: C18_28  and  C19_30 
REMARK   10  A    between atoms: C19_30  and  N6_31 
ROOT
HETATM    1  N1  UNL     1       3.249  21.197  -3.818  1.00  0.00    -0.235 N 
ATOM      2  H11 UNL     1       3.722  21.430  -4.691  1.00  0.00     0.174 HD
ATOM      3  H12 UNL     1       3.621  21.593  -2.955  1.00  0.00     0.174 HD
HETATM    4  C1  UNL     1       2.223  20.433  -3.789  1.00  0.00     0.670 C 
HETATM    5  N2  UNL     1       1.568  20.110  -2.581  1.00  0.00    -0.216 N 
ATOM      6  H2  UNL     1       0.552  20.019  -2.573  1.00  0.00     0.178 HD
HETATM    7  N4  UNL     1       1.698  19.873  -5.005  1.00  0.00    -0.218 N 
HETATM    8  C11 UNL     1       1.365  20.672  -6.131  1.00  0.00     0.142 C 
HETATM    9  C12 UNL     1       1.436  20.031  -7.470  1.00  0.00     0.032 C 
HETATM   10  C13 UNL     1       1.113  18.552  -7.424  1.00  0.00    -0.020 C 
HETATM   11  C14 UNL     1       1.880  17.866  -6.317  1.00  0.00     0.032 C 
HETATM   12  C15 UNL     1       1.520  18.446  -4.997  1.00  0.00     0.142 C 
HETATM   13  C16 UNL     1      -0.374  18.315  -7.267  1.00  0.00     0.031 C 
HETATM   14  C17 UNL     1      -0.476  16.874  -7.723  1.00  0.00     0.126 C 
HETATM   15  N5  UNL     1       0.464  16.786  -8.851  1.00  0.00    -0.350 N 
HETATM   16  C18 UNL     1       0.464  15.826  -9.887  1.00  0.00     0.237 C 
HETATM   17  O2  UNL     1       1.311  15.836 -10.812  1.00  0.00    -0.272 OA
HETATM   18  C24 UNL     1       1.416  17.883  -8.718  1.00  0.00     0.135 C 
ENDROOT
BRANCH   5  19
HETATM   19  C2  UNL     1       2.298  19.908  -1.373  1.00  0.00     0.232 C 
BRANCH  19  20
HETATM   20  C3  UNL     1       1.788  20.812  -0.343  1.00  0.00    -0.086 C 
HETATM   21  C4  UNL     1       1.354  21.539   0.515  1.00  0.00    -0.104 C 
BRANCH  21  22
HETATM   22  C5  UNL     1       0.801  22.409   1.584  1.00  0.00     0.106 C 
BRANCH  22  23
HETATM   23  C6  UNL     1       0.547  21.551   2.834  1.00  0.00     0.106 C 
BRANCH  23  24
HETATM   24  C7  UNL     1      -0.600  20.691   2.455  1.00  0.00    -0.104 C 
HETATM   25  C8  UNL     1      -1.520  19.970   2.138  1.00  0.00    -0.087 C 
BRANCH  25  26
HETATM   26  C9  UNL     1      -2.610  19.082   1.748  1.00  0.00     0.216 C 
BRANCH  26  27
HETATM   27  N3  UNL     1      -2.239  18.408   0.502  1.00  0.00    -0.358 N 
ATOM     28  H3  UNL     1      -2.245  17.390   0.446  1.00  0.00     0.162 HD
BRANCH  27  29
HETATM   29  C10 UNL     1      -1.872  19.181  -0.626  1.00  0.00     0.349 C 
HETATM   30  O1  UNL     1      -0.931  18.783  -1.387  1.00  0.00    -0.284 OA
ENDBRANCH  27  29
ENDBRANCH  26  27
ENDBRANCH  25  26
ENDBRANCH  23  24
ENDBRANCH  22  23
ENDBRANCH  21  22
ENDBRANCH  19  20
ENDBRANCH   5  19
BRANCH  16  31
HETATM   31  C19 UNL     1      -0.566  14.769  -9.891  1.00  0.00     0.228 C 
BRANCH  31  32
HETATM   32  N6  UNL     1      -0.045  13.457  -9.653  1.00  0.00    -0.343 N 
HETATM   33  C20 UNL     1       1.140  13.160  -8.874  1.00  0.00     0.127 C 
HETATM   34  C21 UNL     1       0.715  11.916  -8.124  1.00  0.00     0.029 C 
HETATM   35  C22 UNL     1      -0.116  11.169  -9.111  1.00  0.00     0.104 C 
HETATM   36  C23 UNL     1      -0.537  12.188 -10.103  1.00  0.00     0.220 C 
HETATM   37  O3  UNL     1      -1.204  12.033 -11.164  1.00  0.00    -0.273 OA
ENDBRANCH  31  32
ENDBRANCH  16  31
TORSDOF 10
ENDMDL
MODEL 3
REMARK VINA RESULT: -6.395162062      4.333     11.976
REMARK  10 active torsions:
REMARK  status: ('A' for Active; 'I' for Inactive)
REMARK       I    between atoms: C1_4  and  N2_5 
REMARK       I    between atoms: C1_4  and  N4_19 
REMARK    1  A    between atoms: N2_5  and  C2_7 
REMARK    2  A    between atoms: C2_7  and  C3_8 
REMARK    3  A    between atoms: C4_9  and  C5_10 
REMARK    4  A    between atoms: C5_10  and  C6_11 
REMARK    5  A    between atoms: C6_11  and  C7_12 
REMARK    6  A    between atoms: C8_13  and  C9_14 
REMARK    7  A    between atoms: C9_14  and  N3_15 
REMARK    8  A    between atoms: N3_15  and  C10_17 
REMARK       I    between atoms: N5_27  and  C18_28 
REMARK    9  A    between atoms: C18_28  and  C19_30 
REMARK   10  A    between atoms: C19_30  and  N6_31 
ROOT
HETATM    1  N1  UNL     1       3.202  21.388  -3.760  1.00  0.00    -0.235 N 
ATOM      2  H11 UNL     1       3.728  21.523  -4.623  1.00  0.00     0.174 HD
ATOM      3  H12 UNL     1       3.543  21.855  -2.919  1.00  0.00     0.174 HD
HETATM    4  C1  UNL     1       2.152  20.659  -3.715  1.00  0.00     0.670 C 
HETATM    5  N2  UNL     1       1.425  20.472  -2.520  1.00  0.00    -0.216 N 
ATOM      6  H2  UNL     1       0.408  20.411  -2.559  1.00  0.00     0.178 HD
HETATM    7  N4  UNL     1       1.673  20.000  -4.900  1.00  0.00    -0.218 N 
HETATM    8  C11 UNL     1       1.425  20.696  -6.113  1.00  0.00     0.142 C 
HETATM    9  C12 UNL     1       1.544  19.928  -7.379  1.00  0.00     0.032 C 
HETATM   10  C13 UNL     1       1.171  18.470  -7.212  1.00  0.00    -0.020 C 
HETATM   11  C14 UNL     1       1.856  17.872  -6.005  1.00  0.00     0.032 C 
HETATM   12  C15 UNL     1       1.448  18.586  -4.767  1.00  0.00     0.142 C 
HETATM   13  C16 UNL     1      -0.329  18.290  -7.115  1.00  0.00     0.031 C 
HETATM   14  C17 UNL     1      -0.454  16.815  -7.438  1.00  0.00     0.126 C 
HETATM   15  N5  UNL     1       0.539  16.594  -8.500  1.00  0.00    -0.350 N 
HETATM   16  C18 UNL     1       0.562  15.539  -9.438  1.00  0.00     0.237 C 
HETATM   17  O2  UNL     1       1.456  15.437 -10.312  1.00  0.00    -0.272 OA
HETATM   18  C24 UNL     1       1.519  17.671  -8.419  1.00  0.00     0.135 C 
ENDROOT
BRANCH   5  19
HETATM   19  C2  UNL     1       2.084  20.367  -1.260  1.00  0.00     0.232 C 
BRANCH  19  20
HETATM   20  C3  UNL     1       1.230  20.935  -0.218  1.00  0.00    -0.086 C 
HETATM   21  C4  UNL     1       0.505  21.389   0.632  1.00  0.00    -0.104 C 
BRANCH  21  22
HETATM   22  C5  UNL     1      -0.411  21.930   1.667  1.00  0.00     0.106 C 
BRANCH  22  23
HETATM   23  C6  UNL     1      -0.057  21.291   3.020  1.00  0.00     0.106 C 
BRANCH  23  24
HETATM   24  C7  UNL     1       1.151  22.029   3.463  1.00  0.00    -0.104 C 
HETATM   25  C8  UNL     1       2.152  22.609   3.822  1.00  0.00    -0.087 C 
BRANCH  25  26
HETATM   26  C9  UNL     1       3.373  23.283   4.251  1.00  0.00     0.216 C 
BRANCH  26  27
HETATM   27  N3  UNL     1       4.140  23.660   3.063  1.00  0.00    -0.358 N 
ATOM     28  H3  UNL     1       5.001  23.165   2.829  1.00  0.00     0.162 HD
BRANCH  27  29
HETATM   29  C10 UNL     1       3.679  24.715   2.240  1.00  0.00     0.349 C 
HETATM   30  O1  UNL     1       4.515  25.517   1.710  1.00  0.00    -0.284 OA
ENDBRANCH  27  29
ENDBRANCH  26  27
ENDBRANCH  25  26
ENDBRANCH  23  24
ENDBRANCH  22  23
ENDBRANCH  21  22
ENDBRANCH  19  20
ENDBRANCH   5  19
BRANCH  16  31
HETATM   31  C19 UNL     1      -0.500  14.515  -9.399  1.00  0.00     0.228 C 
BRANCH  31  32
HETATM   32  N6  UNL     1      -0.006  13.173  -9.355  1.00  0.00    -0.343 N 
HETATM   33  C20 UNL     1       1.140  12.733  -8.584  1.00  0.00     0.127 C 
HETATM   34  C21 UNL     1       0.668  11.391  -8.065  1.00  0.00     0.029 C 
HETATM   35  C22 UNL     1      -0.125  10.829  -9.194  1.00  0.00     0.104 C 
HETATM   36  C23 UNL     1      -0.490  12.003 -10.026  1.00  0.00     0.220 C 
HETATM   37  O3  UNL     1      -1.110  12.034 -11.125  1.00  0.00    -0.273 OA
ENDBRANCH  31  32
ENDBRANCH  16  31
TORSDOF 10
ENDMDL
MODEL 4
REMARK VINA RESULT: -6.380042824      2.736      4.143
REMARK  10 active torsions:
REMARK  status: ('A' for Active; 'I' for Inactive)
REMARK       I    between atoms: C1_4  and  N2_5 
REMARK       I    between atoms: C1_4  and  N4_19 
REMARK    1  A    between atoms: N2_5  and  C2_7 
REMARK    2  A    between atoms: C2_7  and  C3_8 
REMARK    3  A    between atoms: C4_9  and  C5_10 
REMARK    4  A    between atoms: C5_10  and  C6_11 
REMARK    5  A    between atoms: C6_11  and  C7_12 
REMARK    6  A    between atoms: C8_13  and  C9_14 
REMARK    7  A    between atoms: C9_14  and  N3_15 
REMARK    8  A    between atoms: N3_15  and  C10_17 
REMARK       I    between atoms: N5_27  and  C18_28 
REMARK    9  A    between atoms: C18_28  and  C19_30 
REMARK   10  A    between atoms: C19_30  and  N6_31 
ROOT
HETATM    1  N1  UNL     1       1.631  18.383 -10.507  1.00  0.00    -0.235 N 
ATOM      2  H11 UNL     1       1.685  19.401 -10.467  1.00  0.00     0.174 HD
ATOM      3  H12 UNL     1       1.606  17.945 -11.427  1.00  0.00     0.174 HD
HETATM    4  C1  UNL     1       1.590  17.667  -9.448  1.00  0.00     0.670 C 
HETATM    5  N2  UNL     1       1.515  16.259  -9.502  1.00  0.00    -0.216 N 
ATOM      6  H2  UNL     1       2.017  15.704  -8.809  1.00  0.00     0.178 HD
HETATM    7  N4  UNL     1       1.624  18.285  -8.150  1.00  0.00    -0.218 N 
HETATM    8  C11 UNL     1       2.633  19.210  -7.770  1.00  0.00     0.142 C 
HETATM    9  C12 UNL     1       2.281  20.223  -6.741  1.00  0.00     0.032 C 
HETATM   10  C13 UNL     1       1.262  19.710  -5.746  1.00  0.00    -0.020 C 
HETATM   11  C14 UNL     1       0.100  19.051  -6.453  1.00  0.00     0.032 C 
HETATM   12  C15 UNL     1       0.569  17.890  -7.254  1.00  0.00     0.142 C 
HETATM   13  C16 UNL     1       1.890  18.757  -4.751  1.00  0.00     0.031 C 
HETATM   14  C17 UNL     1       0.853  18.783  -3.648  1.00  0.00     0.126 C 
HETATM   15  N5  UNL     1       0.423  20.189  -3.591  1.00  0.00    -0.350 N 
HETATM   16  C18 UNL     1      -0.194  20.847  -2.504  1.00  0.00     0.237 C 
HETATM   17  O2  UNL     1      -0.524  22.057  -2.553  1.00  0.00    -0.272 OA
HETATM   18  C24 UNL     1       0.748  20.802  -4.874  1.00  0.00     0.135 C 
ENDROOT
BRANCH   5  19
HETATM   19  C2  UNL     1       0.751  15.596 -10.508  1.00  0.00     0.232 C 
BRANCH  19  20
HETATM   20  C3  UNL     1       0.463  14.230 -10.075  1.00  0.00    -0.086 C 
HETATM   21  C4  UNL     1       0.200  13.108  -9.719  1.00  0.00    -0.104 C 
BRANCH  21  22
HETATM   22  C5  UNL     1      -0.155  11.734  -9.284  1.00  0.00     0.106 C 
BRANCH  22  23
HETATM   23  C6  UNL     1       0.771  11.331  -8.123  1.00  0.00     0.106 C 
BRANCH  23  24
HETATM   24  C7  UNL     1       0.757   9.848  -8.149  1.00  0.00    -0.104 C 
HETATM   25  C8  UNL     1       0.765   8.637  -8.151  1.00  0.00    -0.087 C 
BRANCH  25  26
HETATM   26  C9  UNL     1       0.796   7.178  -8.135  1.00  0.00     0.216 C 
BRANCH  26  27
HETATM   27  N3  UNL     1      -0.366   6.679  -8.874  1.00  0.00    -0.358 N 
ATOM     28  H3  UNL     1      -1.173   6.309  -8.372  1.00  0.00     0.162 HD
BRANCH  27  29
HETATM   29  C10 UNL     1      -0.360   6.713 -10.288  1.00  0.00     0.349 C 
HETATM   30  O1  UNL     1      -1.116   7.533 -10.905  1.00  0.00    -0.284 OA
ENDBRANCH  27  29
ENDBRANCH  26  27
ENDBRANCH  25  26
ENDBRANCH  23  24
ENDBRANCH  22  23
ENDBRANCH  21  22
ENDBRANCH  19  20
ENDBRANCH   5  19
BRANCH  16  31
HETATM   31  C19 UNL     1      -0.463  20.096  -1.263  1.00  0.00     0.228 C 
BRANCH  31  32
HETATM   32  N6  UNL     1       0.127  20.680  -0.097  1.00  0.00    -0.343 N 
HETATM   33  C20 UNL     1       1.526  21.034   0.039  1.00  0.00     0.127 C 
HETATM   34  C21 UNL     1       1.443  22.346   0.788  1.00  0.00     0.029 C 
HETATM   35  C22 UNL     1       0.304  22.150   1.731  1.00  0.00     0.104 C 
HETATM   36  C23 UNL     1      -0.483  21.033   1.150  1.00  0.00     0.220 C 
HETATM   37  O3  UNL     1      -1.507  20.460   1.615  1.00  0.00    -0.273 OA
ENDBRANCH  31  32
ENDBRANCH  16  31
TORSDOF 10
ENDMDL
MODEL 5
REMARK VINA RESULT: -6.283169812      2.433      3.458
REMARK  10 active torsions:
REMARK  status: ('A' for Active; 'I' for Inactive)
REMARK       I    between atoms: C1_4  and  N2_5 
REMARK       I    between atoms: C1_4  and  N4_19 
REMARK    1  A    between atoms: N2_5  and  C2_7 
REMARK    2  A    between atoms: C2_7  and  C3_8 
REMARK    3  A    between atoms: C4_9  and  C5_10 
REMARK    4  A    between atoms: C5_10  and  C6_11 
REMARK    5  A    between atoms: C6_11  and  C7_12 
REMARK    6  A    between atoms: C8_13  and  C9_14 
REMARK    7  A    between atoms: C9_14  and  N3_15 
REMARK    8  A    between atoms: N3_15  and  C10_17 
REMARK       I    between atoms: N5_27  and  C18_28 
REMARK    9  A    between atoms: C18_28  and  C19_30 
REMARK   10  A    between atoms: C19_30  and  N6_31 
ROOT
HETATM    1  N1  UNL     1       0.580  14.365 -11.252  1.00  0.00    -0.235 N 
ATOM      2  H11 UNL     1       0.515  15.255 -11.745  1.00  0.00     0.174 HD
ATOM      3  H12 UNL     1       0.589  13.512 -11.812  1.00  0.00     0.174 HD
HETATM    4  C1  UNL     1       0.645  14.302  -9.976  1.00  0.00     0.670 C 
HETATM    5  N2  UNL     1       0.735  13.070  -9.294  1.00  0.00    -0.216 N 
ATOM      6  H2  UNL     1       1.312  13.003  -8.456  1.00  0.00     0.178 HD
HETATM    7  N4  UNL     1       0.632  15.504  -9.187  1.00  0.00    -0.218 N 
HETATM    8  C11 UNL     1       1.533  16.578  -9.416  1.00  0.00     0.142 C 
HETATM    9  C12 UNL     1       1.085  17.941  -9.029  1.00  0.00     0.032 C 
HETATM   10  C13 UNL     1       0.153  17.930  -7.836  1.00  0.00    -0.020 C 
HETATM   11  C14 UNL     1      -0.937  16.897  -8.011  1.00  0.00     0.032 C 
HETATM   12  C15 UNL     1      -0.351  15.538  -8.137  1.00  0.00     0.142 C 
HETATM   13  C16 UNL     1       0.909  17.692  -6.546  1.00  0.00     0.031 C 
HETATM   14  C17 UNL     1      -0.102  18.194  -5.535  1.00  0.00     0.126 C 
HETATM   15  N5  UNL     1      -0.693  19.379  -6.174  1.00  0.00    -0.350 N 
HETATM   16  C18 UNL     1      -1.361  20.447  -5.536  1.00  0.00     0.237 C 
HETATM   17  O2  UNL     1      -1.831  21.420  -6.172  1.00  0.00    -0.272 OA
HETATM   18  C24 UNL     1      -0.467  19.264  -7.611  1.00  0.00     0.135 C 
ENDROOT
BRANCH   5  19
HETATM   19  C2  UNL     1       0.034  11.916  -9.754  1.00  0.00     0.232 C 
BRANCH  19  20
HETATM   20  C3  UNL     1       0.334  10.786  -8.876  1.00  0.00    -0.086 C 
HETATM   21  C4  UNL     1       0.596   9.843  -8.172  1.00  0.00    -0.104 C 
BRANCH  21  22
HETATM   22  C5  UNL     1       0.935   8.669  -7.328  1.00  0.00     0.106 C 
BRANCH  22  23
HETATM   23  C6  UNL     1       1.411   7.528  -8.242  1.00  0.00     0.106 C 
BRANCH  23  24
HETATM   24  C7  UNL     1       0.163   7.021  -8.865  1.00  0.00    -0.104 C 
HETATM   25  C8  UNL     1      -0.864   6.632  -9.374  1.00  0.00    -0.087 C 
BRANCH  25  26
HETATM   26  C9  UNL     1      -2.112   6.190  -9.989  1.00  0.00     0.216 C 
BRANCH  26  27
HETATM   27  N3  UNL     1      -2.841   7.368 -10.462  1.00  0.00    -0.358 N 
ATOM     28  H3  UNL     1      -3.181   7.410 -11.423  1.00  0.00     0.162 HD
BRANCH  27  29
HETATM   29  C10 UNL     1      -3.072   8.449  -9.577  1.00  0.00     0.349 C 
HETATM   30  O1  UNL     1      -2.794   9.637  -9.943  1.00  0.00    -0.284 OA
ENDBRANCH  27  29
ENDBRANCH  26  27
ENDBRANCH  25  26
ENDBRANCH  23  24
ENDBRANCH  22  23
ENDBRANCH  21  22
ENDBRANCH  19  20
ENDBRANCH   5  19
BRANCH  16  31
HETATM   31  C19 UNL     1      -1.515  20.428  -4.069  1.00  0.00     0.228 C 
BRANCH  31  32
HETATM   32  N6  UNL     1      -0.276  20.520  -3.358  1.00  0.00    -0.343 N 
HETATM   33  C20 UNL     1       0.085  19.719  -2.205  1.00  0.00     0.127 C 
HETATM   34  C21 UNL     1       1.545  19.425  -2.476  1.00  0.00     0.029 C 
HETATM   35  C22 UNL     1       2.056  20.684  -3.090  1.00  0.00     0.104 C 
HETATM   36  C23 UNL     1       0.846  21.380  -3.595  1.00  0.00     0.220 C 
HETATM   37  O3  UNL     1       0.754  22.514  -4.141  1.00  0.00    -0.273 OA
ENDBRANCH  31  32
ENDBRANCH  16  31
TORSDOF 10
ENDMDL
