MODEL 1
REMARK VINA RESULT: -6.659845729      0.000      0.000
REMARK  8 active torsions:
REMARK  status: ('A' for Active; 'I' for Inactive)
REMARK    1  A    between atoms: C2_2  and  C3_3 
REMARK    2  A    between atoms: C3_3  and  C4_4 
REMARK    3  A    between atoms: C4_4  and  C5_5 
REMARK    4  A    between atoms: C5_5  and  C6_6 
REMARK    5  A    between atoms: C7_7  and  C8_8 
REMARK    6  A    between atoms: C8_8  and  N1_9 
REMARK    7  A    between atoms: C18_22  and  C19_23 
REMARK    8  A    between atoms: C19_23  and  C20_24 
ROOT
HETATM    1  N1  UNL     1      -0.615  18.381  -6.385  1.00  0.00    -0.348 N 
HETATM    2  C9  UNL     1       0.353  19.253  -6.790  1.00  0.00     0.106 A 
HETATM    3  C10 UNL     1       1.215  19.866  -5.905  1.00  0.00     0.021 A 
HETATM    4  C11 UNL     1       1.062  19.562  -4.570  1.00  0.00     0.053 A 
HETATM    5  N2  UNL     1       1.979  20.247  -3.869  1.00  0.00    -0.354 N 
ATOM      6  H2  UNL     1       2.095  20.213  -2.856  1.00  0.00     0.166 HD
HETATM    7  C12 UNL     1       2.734  20.996  -4.724  1.00  0.00     0.046 A 
HETATM    8  C13 UNL     1       3.789  21.869  -4.581  1.00  0.00     0.047 A 
HETATM    9  C14 UNL     1       4.354  22.490  -5.679  1.00  0.00     0.092 A 
HETATM   10  N3  UNL     1       3.862  22.234  -6.905  1.00  0.00    -0.370 N 
HETATM   11  C15 UNL     1       4.443  22.877  -8.075  1.00  0.00     0.154 C 
HETATM   12  C16 UNL     1       2.832  21.386  -7.081  1.00  0.00     0.104 A 
HETATM   13  C17 UNL     1       2.262  20.763  -5.994  1.00  0.00     0.020 A 
HETATM   14  C18 UNL     1       0.081  18.678  -4.149  1.00  0.00    -0.006 A 
HETATM   15  C22 UNL     1      -0.769  18.081  -5.082  1.00  0.00     0.017 A 
HETATM   16  C23 UNL     1      -1.829  17.144  -4.722  1.00  0.00     0.069 C 
ENDROOT
BRANCH  14  17
HETATM   17  C19 UNL     1      -0.052  18.383  -2.724  1.00  0.00     0.078 C 
BRANCH  17  18
HETATM   18  C20 UNL     1      -0.991  19.373  -2.014  1.00  0.00     0.191 C 
HETATM   19  N4  UNL     1      -2.151  18.723  -1.504  1.00  0.00    -0.288 N 
HETATM   20  S1  UNL     1      -2.416  19.352   0.085  1.00  0.00     0.322 S 
ATOM     21  H4  UNL     1      -2.716  18.022  -1.983  1.00  0.00     0.174 HD
HETATM   22  O1  UNL     1      -2.208  18.299   1.133  1.00  0.00    -0.182 OA
HETATM   23  O2  UNL     1      -3.688  20.090   0.222  1.00  0.00    -0.182 OA
HETATM   24  N5  UNL     1      -1.026  20.413   0.163  1.00  0.00    -0.236 N 
HETATM   25  C21 UNL     1      -0.233  20.006  -0.944  1.00  0.00     0.256 C 
ATOM     26  H5  UNL     1      -0.831  21.148   0.842  1.00  0.00     0.183 HD
HETATM   27  O3  UNL     1       1.030  20.189  -0.973  1.00  0.00    -0.270 OA
ENDBRANCH  17  18
ENDBRANCH  14  17
BRANCH   1  28
HETATM   28  C8  UNL     1      -1.474  17.784  -7.395  1.00  0.00     0.221 C 
BRANCH  28  29
HETATM   29  C7  UNL     1      -0.691  16.688  -8.012  1.00  0.00    -0.086 C 
HETATM   30  C6  UNL     1      -0.062  15.782  -8.501  1.00  0.00    -0.105 C 
BRANCH  30  31
HETATM   31  C5  UNL     1       0.698  14.669  -9.072  1.00  0.00     0.094 C 
BRANCH  31  32
HETATM   32  C4  UNL     1      -0.096  13.397  -8.865  1.00  0.00     0.012 C 
BRANCH  32  33
HETATM   33  C3  UNL     1       0.757  12.280  -8.330  1.00  0.00     0.000 C 
BRANCH  33  34
HETATM   34  C2  UNL     1       0.370  10.930  -8.840  1.00  0.00    -0.005 C 
HETATM   35  C1  UNL     1       0.688   9.799  -7.936  1.00  0.00     0.005 C 
ENDBRANCH  33  34
ENDBRANCH  32  33
ENDBRANCH  31  32
ENDBRANCH  30  31
ENDBRANCH  28  29
ENDBRANCH   1  28
TORSDOF 8
ENDMDL
MODEL 2
REMARK VINA RESULT: -6.511355464      3.407      6.955
REMARK  8 active torsions:
REMARK  status: ('A' for Active; 'I' for Inactive)
REMARK    1  A    between atoms: C2_2  and  C3_3 
REMARK    2  A    between atoms: C3_3  and  C4_4 
REMARK    3  A    between atoms: C4_4  and  C5_5 
REMARK    4  A    between atoms: C5_5  and  C6_6 
REMARK    5  A    between atoms: C7_7  and  C8_8 
REMARK    6  A    between atoms: C8_8  and  N1_9 
REMARK    7  A    between atoms: C18_22  and  C19_23 
REMARK    8  A    between atoms: C19_23  and  C20_24 
ROOT
HETATM    1  N1  UNL     1      -1.851  15.320  -7.700  1.00  0.00    -0.348 N 
HETATM    2  C9  UNL     1      -2.794  14.521  -7.122  1.00  0.00     0.106 A 
HETATM    3  C10 UNL     1      -3.455  14.872  -5.964  1.00  0.00     0.021 A 
HETATM    4  C11 UNL     1      -3.124  16.083  -5.397  1.00  0.00     0.053 A 
HETATM    5  N2  UNL     1      -3.862  16.251  -4.289  1.00  0.00    -0.354 N 
ATOM      6  H2  UNL     1      -3.823  17.062  -3.670  1.00  0.00     0.166 HD
HETATM    7  C12 UNL     1      -4.675  15.168  -4.119  1.00  0.00     0.046 A 
HETATM    8  C13 UNL     1      -5.619  14.796  -3.188  1.00  0.00     0.047 A 
HETATM    9  C14 UNL     1      -6.292  13.593  -3.297  1.00  0.00     0.092 A 
HETATM   10  N3  UNL     1      -6.017  12.778  -4.332  1.00  0.00    -0.370 N 
HETATM   11  C15 UNL     1      -6.716  11.507  -4.466  1.00  0.00     0.154 C 
HETATM   12  C16 UNL     1      -5.101  13.111  -5.259  1.00  0.00     0.104 A 
HETATM   13  C17 UNL     1      -4.425  14.305  -5.159  1.00  0.00     0.020 A 
HETATM   14  C18 UNL     1      -2.168  16.902  -5.976  1.00  0.00    -0.006 A 
HETATM   15  C22 UNL     1      -1.524  16.505  -7.149  1.00  0.00     0.017 A 
HETATM   16  C23 UNL     1      -0.504  17.305  -7.820  1.00  0.00     0.069 C 
ENDROOT
BRANCH  14  17
HETATM   17  C19 UNL     1      -1.842  18.179  -5.343  1.00  0.00     0.078 C 
BRANCH  17  18
HETATM   18  C20 UNL     1      -0.983  17.996  -4.081  1.00  0.00     0.191 C 
HETATM   19  N4  UNL     1       0.325  18.534  -4.253  1.00  0.00    -0.288 N 
HETATM   20  S1  UNL     1       0.703  19.395  -2.802  1.00  0.00     0.322 S 
ATOM     21  H4  UNL     1       0.922  18.430  -5.073  1.00  0.00     0.174 HD
HETATM   22  O1  UNL     1       0.812  20.870  -3.053  1.00  0.00    -0.182 OA
HETATM   23  O2  UNL     1       1.848  18.828  -2.062  1.00  0.00    -0.182 OA
HETATM   24  N5  UNL     1      -0.814  19.143  -1.965  1.00  0.00    -0.236 N 
HETATM   25  C21 UNL     1      -1.677  18.650  -2.980  1.00  0.00     0.256 C 
ATOM     26  H5  UNL     1      -1.027  19.311  -0.982  1.00  0.00     0.183 HD
HETATM   27  O3  UNL     1      -2.945  18.782  -2.911  1.00  0.00    -0.270 OA
ENDBRANCH  17  18
ENDBRANCH  14  17
BRANCH   1  28
HETATM   28  C8  UNL     1      -1.211  14.862  -8.921  1.00  0.00     0.221 C 
BRANCH  28  29
HETATM   29  C7  UNL     1      -0.393  13.685  -8.546  1.00  0.00    -0.086 C 
HETATM   30  C6  UNL     1       0.278  12.723  -8.260  1.00  0.00    -0.105 C 
BRANCH  30  31
HETATM   31  C5  UNL     1       1.085  11.546  -7.938  1.00  0.00     0.094 C 
BRANCH  31  32
HETATM   32  C4  UNL     1       0.371  10.322  -8.469  1.00  0.00     0.012 C 
BRANCH  32  33
HETATM   33  C3  UNL     1       0.765   9.073  -7.730  1.00  0.00     0.000 C 
BRANCH  33  34
HETATM   34  C2  UNL     1       1.064   7.913  -8.623  1.00  0.00    -0.005 C 
HETATM   35  C1  UNL     1      -0.026   6.917  -8.752  1.00  0.00     0.005 C 
ENDBRANCH  33  34
ENDBRANCH  32  33
ENDBRANCH  31  32
ENDBRANCH  30  31
ENDBRANCH  28  29
ENDBRANCH   1  28
TORSDOF 8
ENDMDL
MODEL 3
REMARK VINA RESULT: -6.505774235      4.901      7.796
REMARK  8 active torsions:
REMARK  status: ('A' for Active; 'I' for Inactive)
REMARK    1  A    between atoms: C2_2  and  C3_3 
REMARK    2  A    between atoms: C3_3  and  C4_4 
REMARK    3  A    between atoms: C4_4  and  C5_5 
REMARK    4  A    between atoms: C5_5  and  C6_6 
REMARK    5  A    between atoms: C7_7  and  C8_8 
REMARK    6  A    between atoms: C8_8  and  N1_9 
REMARK    7  A    between atoms: C18_22  and  C19_23 
REMARK    8  A    between atoms: C19_23  and  C20_24 
ROOT
HETATM    1  N1  UNL     1      -1.499  17.528  -5.927  1.00  0.00    -0.348 N 
HETATM    2  C9  UNL     1      -0.552  18.499  -6.075  1.00  0.00     0.106 A 
HETATM    3  C10 UNL     1       0.250  18.589  -7.194  1.00  0.00     0.021 A 
HETATM    4  C11 UNL     1       0.057  17.644  -8.179  1.00  0.00     0.053 A 
HETATM    5  N2  UNL     1       0.919  17.889  -9.178  1.00  0.00    -0.354 N 
ATOM      6  H2  UNL     1       0.996  17.345 -10.038  1.00  0.00     0.166 HD
HETATM    7  C12 UNL     1       1.674  18.982  -8.865  1.00  0.00     0.046 A 
HETATM    8  C13 UNL     1       2.686  19.676  -9.490  1.00  0.00     0.047 A 
HETATM    9  C14 UNL     1       3.268  20.779  -8.892  1.00  0.00     0.092 A 
HETATM   10  N3  UNL     1       2.834  21.176  -7.682  1.00  0.00    -0.370 N 
HETATM   11  C15 UNL     1       3.433  22.336  -7.035  1.00  0.00     0.154 C 
HETATM   12  C16 UNL     1       1.847  20.521  -7.044  1.00  0.00     0.104 A 
HETATM   13  C17 UNL     1       1.262  19.422  -7.630  1.00  0.00     0.020 A 
HETATM   14  C18 UNL     1      -0.902  16.654  -8.037  1.00  0.00    -0.006 A 
HETATM   15  C22 UNL     1      -1.690  16.603  -6.887  1.00  0.00     0.017 A 
HETATM   16  C23 UNL     1      -2.718  15.592  -6.658  1.00  0.00     0.069 C 
ENDROOT
BRANCH  14  17
HETATM   17  C19 UNL     1      -1.075  15.669  -9.103  1.00  0.00     0.078 C 
BRANCH  17  18
HETATM   18  C20 UNL     1      -0.131  14.466  -8.936  1.00  0.00     0.191 C 
HETATM   19  N4  UNL     1      -0.854  13.259  -8.711  1.00  0.00    -0.288 N 
HETATM   20  S1  UNL     1      -0.110  12.044  -9.691  1.00  0.00     0.322 S 
ATOM     21  H4  UNL     1      -1.654  13.136  -8.091  1.00  0.00     0.174 HD
HETATM   22  O1  UNL     1      -1.031  11.581 -10.781  1.00  0.00    -0.182 OA
HETATM   23  O2  UNL     1       0.493  10.945  -8.911  1.00  0.00    -0.182 OA
HETATM   24  N5  UNL     1       1.099  13.052 -10.456  1.00  0.00    -0.236 N 
HETATM   25  C21 UNL     1       0.679  14.373 -10.142  1.00  0.00     0.256 C 
ATOM     26  H5  UNL     1       1.912  12.760 -10.998  1.00  0.00     0.183 HD
HETATM   27  O3  UNL     1       0.996  15.373 -10.871  1.00  0.00    -0.270 OA
ENDBRANCH  17  18
ENDBRANCH  14  17
BRANCH   1  28
HETATM   28  C8  UNL     1      -2.295  17.518  -4.711  1.00  0.00     0.221 C 
BRANCH  28  29
HETATM   29  C7  UNL     1      -1.418  18.039  -3.636  1.00  0.00    -0.086 C 
HETATM   30  C6  UNL     1      -0.717  18.480  -2.759  1.00  0.00    -0.105 C 
BRANCH  30  31
HETATM   31  C5  UNL     1       0.126  19.039  -1.702  1.00  0.00     0.094 C 
BRANCH  31  32
HETATM   32  C4  UNL     1       1.569  18.953  -2.152  1.00  0.00     0.012 C 
BRANCH  32  33
HETATM   33  C3  UNL     1       2.244  20.297  -2.144  1.00  0.00     0.000 C 
BRANCH  33  34
HETATM   34  C2  UNL     1       2.273  20.965  -3.480  1.00  0.00    -0.005 C 
HETATM   35  C1  UNL     1       1.290  22.060  -3.660  1.00  0.00     0.005 C 
ENDBRANCH  33  34
ENDBRANCH  32  33
ENDBRANCH  31  32
ENDBRANCH  30  31
ENDBRANCH  28  29
ENDBRANCH   1  28
TORSDOF 8
ENDMDL
MODEL 4
REMARK VINA RESULT: -6.468767610      1.397      1.557
REMARK  8 active torsions:
REMARK  status: ('A' for Active; 'I' for Inactive)
REMARK    1  A    between atoms: C2_2  and  C3_3 
REMARK    2  A    between atoms: C3_3  and  C4_4 
REMARK    3  A    between atoms: C4_4  and  C5_5 
REMARK    4  A    between atoms: C5_5  and  C6_6 
REMARK    5  A    between atoms: C7_7  and  C8_8 
REMARK    6  A    between atoms: C8_8  and  N1_9 
REMARK    7  A    between atoms: C18_22  and  C19_23 
REMARK    8  A    between atoms: C19_23  and  C20_24 
ROOT
HETATM    1  N1  UNL     1      -0.347  18.889  -5.878  1.00  0.00    -0.348 N 
HETATM    2  C9  UNL     1       0.569  19.680  -6.509  1.00  0.00     0.106 A 
HETATM    3  C10 UNL     1       1.577  20.334  -5.832  1.00  0.00     0.021 A 
HETATM    4  C11 UNL     1       1.630  20.157  -4.466  1.00  0.00     0.053 A 
HETATM    5  N2  UNL     1       2.665  20.862  -3.985  1.00  0.00    -0.354 N 
ATOM      6  H2  UNL     1       2.940  20.914  -3.004  1.00  0.00     0.166 HD
HETATM    7  C12 UNL     1       3.295  21.500  -5.015  1.00  0.00     0.046 A 
HETATM    8  C13 UNL     1       4.383  22.337  -5.121  1.00  0.00     0.047 A 
HETATM    9  C14 UNL     1       4.782  22.833  -6.348  1.00  0.00     0.092 A 
HETATM   10  N3  UNL     1       4.095  22.489  -7.452  1.00  0.00    -0.370 N 
HETATM   11  C15 UNL     1       4.500  23.001  -8.754  1.00  0.00     0.154 C 
HETATM   12  C16 UNL     1       3.027  21.673  -7.384  1.00  0.00     0.104 A 
HETATM   13  C17 UNL     1       2.621  21.174  -6.168  1.00  0.00     0.020 A 
HETATM   14  C18 UNL     1       0.704  19.356  -3.816  1.00  0.00    -0.006 A 
HETATM   15  C22 UNL     1      -0.299  18.714  -4.544  1.00  0.00     0.017 A 
HETATM   16  C23 UNL     1      -1.314  17.858  -3.936  1.00  0.00     0.069 C 
ENDROOT
BRANCH  14  17
HETATM   17  C19 UNL     1       0.792  19.195  -2.366  1.00  0.00     0.078 C 
BRANCH  17  18
HETATM   18  C20 UNL     1       0.736  20.545  -1.630  1.00  0.00     0.191 C 
HETATM   19  N4  UNL     1      -0.529  20.752  -1.008  1.00  0.00    -0.288 N 
HETATM   20  S1  UNL     1      -0.208  21.388   0.568  1.00  0.00     0.322 S 
ATOM     21  H4  UNL     1      -1.445  20.562  -1.413  1.00  0.00     0.174 HD
HETATM   22  O1  UNL     1      -0.612  20.421   1.641  1.00  0.00    -0.182 OA
HETATM   23  O2  UNL     1      -0.729  22.756   0.768  1.00  0.00    -0.182 OA
HETATM   24  N5  UNL     1       1.540  21.352   0.496  1.00  0.00    -0.236 N 
HETATM   25  C21 UNL     1       1.810  20.554  -0.648  1.00  0.00     0.256 C 
ATOM     26  H5  UNL     1       2.207  21.797   1.127  1.00  0.00     0.183 HD
HETATM   27  O3  UNL     1       2.906  19.911  -0.780  1.00  0.00    -0.270 OA
ENDBRANCH  17  18
ENDBRANCH  14  17
BRANCH   1  28
HETATM   28  C8  UNL     1      -1.371  18.242  -6.680  1.00  0.00     0.221 C 
BRANCH  28  29
HETATM   29  C7  UNL     1      -0.680  17.198  -7.473  1.00  0.00    -0.086 C 
HETATM   30  C6  UNL     1      -0.136  16.343  -8.128  1.00  0.00    -0.105 C 
BRANCH  30  31
HETATM   31  C5  UNL     1       0.502  15.294  -8.924  1.00  0.00     0.094 C 
BRANCH  31  32
HETATM   32  C4  UNL     1      -0.346  14.043  -8.825  1.00  0.00     0.012 C 
BRANCH  32  33
HETATM   33  C3  UNL     1       0.417  12.811  -9.225  1.00  0.00     0.000 C 
BRANCH  33  34
HETATM   34  C2  UNL     1       0.807  11.943  -8.072  1.00  0.00    -0.005 C 
HETATM   35  C1  UNL     1       0.715  10.484  -8.320  1.00  0.00     0.005 C 
ENDBRANCH  33  34
ENDBRANCH  32  33
ENDBRANCH  31  32
ENDBRANCH  30  31
ENDBRANCH  28  29
ENDBRANCH   1  28
TORSDOF 8
ENDMDL
MODEL 5
REMARK VINA RESULT: -6.356071691      2.638      6.025
REMARK  8 active torsions:
REMARK  status: ('A' for Active; 'I' for Inactive)
REMARK    1  A    between atoms: C2_2  and  C3_3 
REMARK    2  A    between atoms: C3_3  and  C4_4 
REMARK    3  A    between atoms: C4_4  and  C5_5 
REMARK    4  A    between atoms: C5_5  and  C6_6 
REMARK    5  A    between atoms: C7_7  and  C8_8 
REMARK    6  A    between atoms: C8_8  and  N1_9 
REMARK    7  A    between atoms: C18_22  and  C19_23 
REMARK    8  A    between atoms: C19_23  and  C20_24 
ROOT
HETATM    1  N1  UNL     1      -0.025  16.660  -7.744  1.00  0.00    -0.348 N 
HETATM    2  C9  UNL     1      -1.139  15.882  -7.622  1.00  0.00     0.106 A 
HETATM    3  C10 UNL     1      -2.109  16.120  -6.670  1.00  0.00     0.021 A 
HETATM    4  C11 UNL     1      -1.910  17.193  -5.829  1.00  0.00     0.053 A 
HETATM    5  N2  UNL     1      -2.946  17.267  -4.980  1.00  0.00    -0.354 N 
ATOM      6  H2  UNL     1      -3.061  17.967  -4.247  1.00  0.00     0.166 HD
HETATM    7  C12 UNL     1      -3.824  16.257  -5.250  1.00  0.00     0.046 A 
HETATM    8  C13 UNL     1      -5.027  15.846  -4.722  1.00  0.00     0.047 A 
HETATM    9  C14 UNL     1      -5.692  14.747  -5.233  1.00  0.00     0.092 A 
HETATM   10  N3  UNL     1      -5.151  14.073  -6.264  1.00  0.00    -0.370 N 
HETATM   11  C15 UNL     1      -5.836  12.913  -6.818  1.00  0.00     0.154 C 
HETATM   12  C16 UNL     1      -3.978  14.447  -6.804  1.00  0.00     0.104 A 
HETATM   13  C17 UNL     1      -3.307  15.539  -6.302  1.00  0.00     0.020 A 
HETATM   14  C18 UNL     1      -0.781  17.989  -5.946  1.00  0.00    -0.006 A 
HETATM   15  C22 UNL     1       0.174  17.710  -6.925  1.00  0.00     0.017 A 
HETATM   16  C23 UNL     1       1.390  18.494  -7.112  1.00  0.00     0.069 C 
ENDROOT
BRANCH  14  17
HETATM   17  C19 UNL     1      -0.606  19.118  -5.034  1.00  0.00     0.078 C 
BRANCH  17  18
HETATM   18  C20 UNL     1       0.177  18.723  -3.771  1.00  0.00     0.191 C 
HETATM   19  N4  UNL     1       1.358  19.506  -3.618  1.00  0.00    -0.288 N 
HETATM   20  S1  UNL     1       1.446  19.953  -1.950  1.00  0.00     0.322 S 
ATOM     21  H4  UNL     1       2.023  19.753  -4.351  1.00  0.00     0.174 HD
HETATM   22  O1  UNL     1       1.270  21.432  -1.770  1.00  0.00    -0.182 OA
HETATM   23  O2  UNL     1       2.625  19.401  -1.253  1.00  0.00    -0.182 OA
HETATM   24  N5  UNL     1      -0.046  19.207  -1.417  1.00  0.00    -0.236 N 
HETATM   25  C21 UNL     1      -0.713  18.893  -2.632  1.00  0.00     0.256 C 
ATOM     26  H5  UNL     1      -0.360  19.038  -0.462  1.00  0.00     0.183 HD
HETATM   27  O3  UNL     1      -1.984  18.776  -2.693  1.00  0.00    -0.270 OA
ENDBRANCH  17  18
ENDBRANCH  14  17
BRANCH   1  28
HETATM   28  C8  UNL     1       0.939  16.328  -8.780  1.00  0.00     0.221 C 
BRANCH  28  29
HETATM   29  C7  UNL     1       0.730  14.897  -9.100  1.00  0.00    -0.086 C 
HETATM   30  C6  UNL     1       0.580  13.729  -9.366  1.00  0.00    -0.105 C 
BRANCH  30  31
HETATM   31  C5  UNL     1       0.417  12.315  -9.706  1.00  0.00     0.094 C 
BRANCH  31  32
HETATM   32  C4  UNL     1       0.723  11.493  -8.472  1.00  0.00     0.012 C 
BRANCH  32  33
HETATM   33  C3  UNL     1       0.223  10.081  -8.597  1.00  0.00     0.000 C 
BRANCH  33  34
HETATM   34  C2  UNL     1       0.861   9.128  -7.638  1.00  0.00    -0.005 C 
HETATM   35  C1  UNL     1       1.012   7.740  -8.134  1.00  0.00     0.005 C 
ENDBRANCH  33  34
ENDBRANCH  32  33
ENDBRANCH  31  32
ENDBRANCH  30  31
ENDBRANCH  28  29
ENDBRANCH   1  28
TORSDOF 8
ENDMDL
