MODEL 1
REMARK VINA RESULT: -4.806353420      0.000      0.000
REMARK  7 active torsions:
REMARK  status: ('A' for Active; 'I' for Inactive)
REMARK    1  A    between atoms: N1_2  and  C2_4 
REMARK    2  A    between atoms: C3_7  and  N3_8 
REMARK    3  A    between atoms: C4_14  and  N6_15 
REMARK    4  A    between atoms: C5_20  and  N8_21 
REMARK    5  A    between atoms: N8_21  and  C6_23 
REMARK    6  A    between atoms: C6_23  and  C7_24 
REMARK    7  A    between atoms: C7_24  and  N9_25 
ROOT
HETATM    1  C2  UNL     1      40.335  33.356  12.825  1.00  0.00     0.164 A 
HETATM    2  N2  UNL     1      41.207  32.464  12.271  1.00  0.00    -0.172 N 
ATOM      3  H2  UNL     1      41.084  31.468  12.455  1.00  0.00     0.186 HD
HETATM    4  C3  UNL     1      42.222  32.864  11.489  1.00  0.00     0.693 A 
HETATM    5  N4  UNL     1      42.395  34.171  11.238  1.00  0.00    -0.109 N 
ATOM      6  H4  UNL     1      43.166  34.474  10.644  1.00  0.00     0.207 HD
HETATM    7  N5  UNL     1      41.574  35.064  11.754  1.00  0.00    -0.051 N 
HETATM    8  C4  UNL     1      41.734  36.391  11.510  1.00  0.00     0.714 A 
HETATM    9  N7  UNL     1      40.886  37.261  12.049  1.00  0.00    -0.021 N 
ATOM     10  H7  UNL     1      41.026  38.252  11.853  1.00  0.00     0.203 HD
HETATM   11  C5  UNL     1      39.841  36.907  12.847  1.00  0.00     0.694 A 
HETATM   12  N10 UNL     1      39.697  35.603  13.078  1.00  0.00    -0.170 N 
ATOM     13  H10 UNL     1      38.931  35.288  13.672  1.00  0.00     0.186 HD
HETATM   14  C9  UNL     1      40.531  34.690  12.553  1.00  0.00     0.205 A 
ENDROOT
BRANCH  11  15
HETATM   15  N8  UNL     1      39.055  37.807  13.338  1.00  0.00    -0.224 N 
ATOM     16  H8  UNL     1      39.129  38.080  14.317  1.00  0.00     0.177 HD
BRANCH  15  17
HETATM   17  C6  UNL     1      38.079  38.411  12.488  1.00  0.00     0.165 C 
BRANCH  17  18
HETATM   18  C7  UNL     1      36.837  37.567  12.324  1.00  0.00     0.252 C 
BRANCH  18  19
HETATM   19  N9  UNL     1      35.722  38.042  13.087  1.00  0.00    -0.077 N 
HETATM   20  C8  UNL     1      35.035  39.044  12.302  1.00  0.00     0.267 C 
ATOM     21  H92 UNL     1      35.105  37.289  13.394  1.00  0.00     0.276 HD
ATOM     22  H91 UNL     1      35.992  38.381  14.010  1.00  0.00     0.276 HD
ENDBRANCH  18  19
ENDBRANCH  17  18
ENDBRANCH  15  17
ENDBRANCH  11  15
BRANCH   8  23
HETATM   23  N6  UNL     1      42.721  36.770  10.751  1.00  0.00    -0.232 N 
ATOM     24  H62 UNL     1      43.681  36.811  11.092  1.00  0.00     0.174 HD
ATOM     25  H61 UNL     1      42.521  37.032   9.785  1.00  0.00     0.174 HD
ENDBRANCH   8  23
BRANCH   1  26
HETATM   26  N1  UNL     1      39.417  32.863  13.545  1.00  0.00    -0.377 N 
HETATM   27  C1  UNL     1      39.462  31.771  14.454  1.00  0.00     0.148 C 
ATOM     28  H1  UNL     1      38.508  33.318  13.459  1.00  0.00     0.160 HD
ENDBRANCH   1  26
BRANCH   4  29
HETATM   29  N3  UNL     1      43.037  31.994  10.975  1.00  0.00    -0.233 N 
ATOM     30  H32 UNL     1      42.967  31.012  11.242  1.00  0.00     0.174 HD
ATOM     31  H31 UNL     1      43.747  32.286  10.305  1.00  0.00     0.174 HD
ENDBRANCH   4  29
TORSDOF 7
ENDMDL
MODEL 2
REMARK VINA RESULT: -4.647833819      8.551     10.438
REMARK  7 active torsions:
REMARK  status: ('A' for Active; 'I' for Inactive)
REMARK    1  A    between atoms: N1_2  and  C2_4 
REMARK    2  A    between atoms: C3_7  and  N3_8 
REMARK    3  A    between atoms: C4_14  and  N6_15 
REMARK    4  A    between atoms: C5_20  and  N8_21 
REMARK    5  A    between atoms: N8_21  and  C6_23 
REMARK    6  A    between atoms: C6_23  and  C7_24 
REMARK    7  A    between atoms: C7_24  and  N9_25 
ROOT
HETATM    1  C2  UNL     1      43.528  40.626  17.898  1.00  0.00     0.164 A 
HETATM    2  N2  UNL     1      43.224  39.360  17.486  1.00  0.00    -0.172 N 
ATOM      3  H2  UNL     1      43.973  38.753  17.152  1.00  0.00     0.186 HD
HETATM    4  C3  UNL     1      41.965  38.895  17.511  1.00  0.00     0.693 A 
HETATM    5  N4  UNL     1      40.972  39.683  17.949  1.00  0.00    -0.109 N 
ATOM      6  H4  UNL     1      40.016  39.329  17.968  1.00  0.00     0.207 HD
HETATM    7  N5  UNL     1      41.224  40.912  18.355  1.00  0.00    -0.051 N 
HETATM    8  C4  UNL     1      40.230  41.723  18.802  1.00  0.00     0.714 A 
HETATM    9  N7  UNL     1      40.524  42.956  19.202  1.00  0.00    -0.021 N 
ATOM     10  H7  UNL     1      39.762  43.548  19.532  1.00  0.00     0.203 HD
HETATM   11  C5  UNL     1      41.782  43.475  19.198  1.00  0.00     0.694 A 
HETATM   12  N10 UNL     1      42.747  42.669  18.756  1.00  0.00    -0.170 N 
ATOM     13  H10 UNL     1      43.706  43.013  18.731  1.00  0.00     0.186 HD
HETATM   14  C9  UNL     1      42.493  41.415  18.343  1.00  0.00     0.205 A 
ENDROOT
BRANCH  11  15
HETATM   15  N8  UNL     1      41.996  44.683  19.601  1.00  0.00    -0.224 N 
ATOM     16  H8  UNL     1      41.821  45.475  18.982  1.00  0.00     0.177 HD
BRANCH  15  17
HETATM   17  C6  UNL     1      42.483  44.894  20.927  1.00  0.00     0.165 C 
BRANCH  17  18
HETATM   18  C7  UNL     1      43.936  45.305  20.963  1.00  0.00     0.252 C 
BRANCH  18  19
HETATM   19  N9  UNL     1      44.704  44.597  21.942  1.00  0.00    -0.077 N 
HETATM   20  C8  UNL     1      45.086  43.321  21.376  1.00  0.00     0.267 C 
ATOM     21  H92 UNL     1      45.503  45.133  22.280  1.00  0.00     0.276 HD
ATOM     22  H91 UNL     1      44.216  44.502  22.832  1.00  0.00     0.276 HD
ENDBRANCH  18  19
ENDBRANCH  17  18
ENDBRANCH  15  17
ENDBRANCH  11  15
BRANCH   8  23
HETATM   23  N6  UNL     1      39.013  41.263  18.823  1.00  0.00    -0.232 N 
ATOM     24  H62 UNL     1      38.311  41.619  19.473  1.00  0.00     0.174 HD
ATOM     25  H61 UNL     1      38.758  40.526  18.166  1.00  0.00     0.174 HD
ENDBRANCH   8  23
BRANCH   1  26
HETATM   26  N1  UNL     1      44.749  40.956  17.828  1.00  0.00    -0.377 N 
HETATM   27  C1  UNL     1      45.372  41.981  17.065  1.00  0.00     0.148 C 
ATOM     28  H1  UNL     1      45.380  40.402  18.408  1.00  0.00     0.160 HD
ENDBRANCH   1  26
BRANCH   4  29
HETATM   29  N3  UNL     1      41.706  37.686  17.114  1.00  0.00    -0.233 N 
ATOM     30  H32 UNL     1      42.459  37.003  17.037  1.00  0.00     0.174 HD
ATOM     31  H31 UNL     1      40.751  37.416  16.879  1.00  0.00     0.174 HD
ENDBRANCH   4  29
TORSDOF 7
ENDMDL
MODEL 3
REMARK VINA RESULT: -4.627540754      5.945      8.508
REMARK  7 active torsions:
REMARK  status: ('A' for Active; 'I' for Inactive)
REMARK    1  A    between atoms: N1_2  and  C2_4 
REMARK    2  A    between atoms: C3_7  and  N3_8 
REMARK    3  A    between atoms: C4_14  and  N6_15 
REMARK    4  A    between atoms: C5_20  and  N8_21 
REMARK    5  A    between atoms: N8_21  and  C6_23 
REMARK    6  A    between atoms: C6_23  and  C7_24 
REMARK    7  A    between atoms: C7_24  and  N9_25 
ROOT
HETATM    1  C2  UNL     1      43.109  42.146  16.714  1.00  0.00     0.164 A 
HETATM    2  N2  UNL     1      43.237  42.863  17.869  1.00  0.00    -0.172 N 
ATOM      3  H2  UNL     1      43.828  43.694  17.876  1.00  0.00     0.186 HD
HETATM    4  C3  UNL     1      42.605  42.500  18.997  1.00  0.00     0.693 A 
HETATM    5  N4  UNL     1      41.824  41.409  19.001  1.00  0.00    -0.109 N 
ATOM      6  H4  UNL     1      41.344  41.134  19.857  1.00  0.00     0.207 HD
HETATM    7  N5  UNL     1      41.674  40.690  17.905  1.00  0.00    -0.051 N 
HETATM    8  C4  UNL     1      40.887  39.583  17.893  1.00  0.00     0.714 A 
HETATM    9  N7  UNL     1      40.761  38.885  16.769  1.00  0.00    -0.021 N 
ATOM     10  H7  UNL     1      40.167  38.056  16.782  1.00  0.00     0.203 HD
HETATM   11  C5  UNL     1      41.380  39.209  15.600  1.00  0.00     0.694 A 
HETATM   12  N10 UNL     1      42.149  40.297  15.629  1.00  0.00    -0.170 N 
ATOM     13  H10 UNL     1      42.636  40.580  14.778  1.00  0.00     0.186 HD
HETATM   14  C9  UNL     1      42.304  41.032  16.743  1.00  0.00     0.205 A 
ENDROOT
BRANCH  11  15
HETATM   15  N8  UNL     1      41.213  38.485  14.544  1.00  0.00    -0.224 N 
ATOM     16  H8  UNL     1      41.313  37.471  14.591  1.00  0.00     0.177 HD
BRANCH  15  17
HETATM   17  C6  UNL     1      40.887  39.125  13.310  1.00  0.00     0.165 C 
BRANCH  17  18
HETATM   18  C7  UNL     1      39.704  38.496  12.615  1.00  0.00     0.252 C 
BRANCH  18  19
HETATM   19  N9  UNL     1      38.705  38.011  13.519  1.00  0.00    -0.077 N 
HETATM   20  C8  UNL     1      37.437  38.001  12.823  1.00  0.00     0.267 C 
ATOM     21  H92 UNL     1      38.942  37.103  13.920  1.00  0.00     0.276 HD
ATOM     22  H91 UNL     1      38.671  38.540  14.390  1.00  0.00     0.276 HD
ENDBRANCH  18  19
ENDBRANCH  17  18
ENDBRANCH  15  17
ENDBRANCH  11  15
BRANCH   8  23
HETATM   23  N6  UNL     1      40.277  39.239  18.990  1.00  0.00    -0.232 N 
ATOM     24  H62 UNL     1      40.330  39.805  19.837  1.00  0.00     0.174 HD
ATOM     25  H61 UNL     1      39.731  38.377  18.996  1.00  0.00     0.174 HD
ENDBRANCH   8  23
BRANCH   1  26
HETATM   26  N1  UNL     1      43.753  42.583  15.714  1.00  0.00    -0.377 N 
HETATM   27  C1  UNL     1      44.974  43.309  15.666  1.00  0.00     0.148 C 
ATOM     28  H1  UNL     1      43.332  42.383  14.807  1.00  0.00     0.160 HD
ENDBRANCH   1  26
BRANCH   4  29
HETATM   29  N3  UNL     1      42.745  43.200  20.081  1.00  0.00    -0.233 N 
ATOM     30  H32 UNL     1      43.656  43.258  20.535  1.00  0.00     0.174 HD
ATOM     31  H31 UNL     1      41.948  43.693  20.482  1.00  0.00     0.174 HD
ENDBRANCH   4  29
TORSDOF 7
ENDMDL
MODEL 4
REMARK VINA RESULT: -4.589757107      9.411     11.567
REMARK  7 active torsions:
REMARK  status: ('A' for Active; 'I' for Inactive)
REMARK    1  A    between atoms: N1_2  and  C2_4 
REMARK    2  A    between atoms: C3_7  and  N3_8 
REMARK    3  A    between atoms: C4_14  and  N6_15 
REMARK    4  A    between atoms: C5_20  and  N8_21 
REMARK    5  A    between atoms: N8_21  and  C6_23 
REMARK    6  A    between atoms: C6_23  and  C7_24 
REMARK    7  A    between atoms: C7_24  and  N9_25 
ROOT
HETATM    1  C2  UNL     1      42.120  43.504  20.621  1.00  0.00     0.164 A 
HETATM    2  N2  UNL     1      42.273  44.672  21.311  1.00  0.00    -0.172 N 
ATOM      3  H2  UNL     1      41.566  44.942  21.995  1.00  0.00     0.186 HD
HETATM    4  C3  UNL     1      43.331  45.474  21.113  1.00  0.00     0.693 A 
HETATM    5  N4  UNL     1      44.269  45.130  20.217  1.00  0.00    -0.109 N 
ATOM      6  H4  UNL     1      45.073  45.739  20.067  1.00  0.00     0.207 HD
HETATM    7  N5  UNL     1      44.158  44.010  19.530  1.00  0.00    -0.051 N 
HETATM    8  C4  UNL     1      45.099  43.647  18.620  1.00  0.00     0.714 A 
HETATM    9  N7  UNL     1      44.951  42.510  17.946  1.00  0.00    -0.021 N 
ATOM     10  H7  UNL     1      45.669  42.258  17.267  1.00  0.00     0.203 HD
HETATM   11  C5  UNL     1      43.898  41.663  18.110  1.00  0.00     0.694 A 
HETATM   12  N10 UNL     1      42.983  42.033  19.006  1.00  0.00    -0.170 N 
ATOM     13  H10 UNL     1      42.174  41.432  19.162  1.00  0.00     0.186 HD
HETATM   14  C9  UNL     1      43.094  43.173  19.708  1.00  0.00     0.205 A 
ENDROOT
BRANCH  11  15
HETATM   15  N8  UNL     1      43.818  40.573  17.421  1.00  0.00    -0.224 N 
ATOM     16  H8  UNL     1      44.233  40.517  16.491  1.00  0.00     0.177 HD
BRANCH  15  17
HETATM   17  C6  UNL     1      43.140  39.449  17.982  1.00  0.00     0.165 C 
BRANCH  17  18
HETATM   18  C7  UNL     1      41.997  38.962  17.123  1.00  0.00     0.252 C 
BRANCH  18  19
HETATM   19  N9  UNL     1      40.817  38.649  17.870  1.00  0.00    -0.077 N 
HETATM   20  C8  UNL     1      40.280  39.884  18.398  1.00  0.00     0.267 C 
ATOM     21  H92 UNL     1      40.133  38.123  17.325  1.00  0.00     0.276 HD
ATOM     22  H91 UNL     1      40.982  37.950  18.594  1.00  0.00     0.276 HD
ENDBRANCH  18  19
ENDBRANCH  17  18
ENDBRANCH  15  17
ENDBRANCH  11  15
BRANCH   8  23
HETATM   23  N6  UNL     1      46.122  44.430  18.434  1.00  0.00    -0.232 N 
ATOM     24  H62 UNL     1      46.090  45.424  18.662  1.00  0.00     0.174 HD
ATOM     25  H61 UNL     1      46.979  44.031  18.050  1.00  0.00     0.174 HD
ENDBRANCH   8  23
BRANCH   1  26
HETATM   26  N1  UNL     1      41.082  42.830  20.890  1.00  0.00    -0.377 N 
HETATM   27  C1  UNL     1      39.752  43.268  21.132  1.00  0.00     0.148 C 
ATOM     28  H1  UNL     1      41.223  41.821  20.942  1.00  0.00     0.160 HD
ENDBRANCH   1  26
BRANCH   4  29
HETATM   29  N3  UNL     1      43.451  46.579  21.784  1.00  0.00    -0.233 N 
ATOM     30  H32 UNL     1      42.631  47.002  22.218  1.00  0.00     0.174 HD
ATOM     31  H31 UNL     1      44.362  47.027  21.880  1.00  0.00     0.174 HD
ENDBRANCH   4  29
TORSDOF 7
ENDMDL
MODEL 5
REMARK VINA RESULT: -4.507589572      5.971      8.741
REMARK  7 active torsions:
REMARK  status: ('A' for Active; 'I' for Inactive)
REMARK    1  A    between atoms: N1_2  and  C2_4 
REMARK    2  A    between atoms: C3_7  and  N3_8 
REMARK    3  A    between atoms: C4_14  and  N6_15 
REMARK    4  A    between atoms: C5_20  and  N8_21 
REMARK    5  A    between atoms: N8_21  and  C6_23 
REMARK    6  A    between atoms: C6_23  and  C7_24 
REMARK    7  A    between atoms: C7_24  and  N9_25 
ROOT
HETATM    1  C2  UNL     1      43.018  42.176  16.869  1.00  0.00     0.164 A 
HETATM    2  N2  UNL     1      43.036  42.948  17.995  1.00  0.00    -0.172 N 
ATOM      3  H2  UNL     1      43.604  43.795  18.008  1.00  0.00     0.186 HD
HETATM    4  C3  UNL     1      42.323  42.620  19.085  1.00  0.00     0.693 A 
HETATM    5  N4  UNL     1      41.571  41.510  19.079  1.00  0.00    -0.109 N 
ATOM      6  H4  UNL     1      41.030  41.261  19.907  1.00  0.00     0.207 HD
HETATM    7  N5  UNL     1      41.527  40.737  18.011  1.00  0.00    -0.051 N 
HETATM    8  C4  UNL     1      40.769  39.609  17.990  1.00  0.00     0.714 A 
HETATM    9  N7  UNL     1      40.751  38.857  16.894  1.00  0.00    -0.021 N 
ATOM     10  H7  UNL     1      40.177  38.014  16.901  1.00  0.00     0.203 HD
HETATM   11  C5  UNL     1      41.454  39.144  15.764  1.00  0.00     0.694 A 
HETATM   12  N10 UNL     1      42.193  40.253  15.801  1.00  0.00    -0.170 N 
ATOM     13  H10 UNL     1      42.740  40.510  14.980  1.00  0.00     0.186 HD
HETATM   14  C9  UNL     1      42.239  41.043  16.887  1.00  0.00     0.205 A 
ENDROOT
BRANCH  11  15
HETATM   15  N8  UNL     1      41.390  38.368  14.734  1.00  0.00    -0.224 N 
ATOM     16  H8  UNL     1      41.895  37.481  14.722  1.00  0.00     0.177 HD
BRANCH  15  17
HETATM   17  C6  UNL     1      40.603  38.768  13.613  1.00  0.00     0.165 C 
BRANCH  17  18
HETATM   18  C7  UNL     1      40.189  37.608  12.739  1.00  0.00     0.252 C 
BRANCH  18  19
HETATM   19  N9  UNL     1      40.236  36.345  13.412  1.00  0.00    -0.077 N 
HETATM   20  C8  UNL     1      40.728  35.357  12.476  1.00  0.00     0.267 C 
ATOM     21  H92 UNL     1      40.781  36.377  14.274  1.00  0.00     0.276 HD
ATOM     22  H91 UNL     1      39.341  36.084  13.825  1.00  0.00     0.276 HD
ENDBRANCH  18  19
ENDBRANCH  17  18
ENDBRANCH  15  17
ENDBRANCH  11  15
BRANCH   8  23
HETATM   23  N6  UNL     1      40.081  39.300  19.050  1.00  0.00    -0.232 N 
ATOM     24  H62 UNL     1      40.007  39.930  19.849  1.00  0.00     0.174 HD
ATOM     25  H61 UNL     1      39.604  38.399  19.077  1.00  0.00     0.174 HD
ENDBRANCH   8  23
BRANCH   1  26
HETATM   26  N1  UNL     1      43.730  42.583  15.904  1.00  0.00    -0.377 N 
HETATM   27  C1  UNL     1      45.085  43.010  15.891  1.00  0.00     0.148 C 
ATOM     28  H1  UNL     1      43.259  42.609  14.999  1.00  0.00     0.160 HD
ENDBRANCH   1  26
BRANCH   4  29
HETATM   29  N3  UNL     1      42.358  43.373  20.142  1.00  0.00    -0.233 N 
ATOM     30  H32 UNL     1      42.273  44.385  20.049  1.00  0.00     0.174 HD
ATOM     31  H31 UNL     1      42.472  42.958  21.066  1.00  0.00     0.174 HD
ENDBRANCH   4  29
TORSDOF 7
ENDMDL
