MODEL 1
REMARK VINA RESULT: -6.325544192      0.000      0.000
REMARK  14 active torsions:
REMARK  status: ('A' for Active; 'I' for Inactive)
REMARK    1  A    between atoms: C2_2  and  N2_6 
REMARK    2  A    between atoms: C3_7  and  O1_8 
REMARK    3  A    between atoms: C4_10  and  O2_11 
REMARK    4  A    between atoms: C5_13  and  O3_14 
REMARK    5  A    between atoms: N3_16  and  C6_17 
REMARK    6  A    between atoms: C7_18  and  O4_19 
REMARK    7  A    between atoms: C9_23  and  N5_24 
REMARK    8  A    between atoms: N5_24  and  C10_26 
REMARK    9  A    between atoms: C10_26  and  O5_27 
REMARK   10  A    between atoms: C10_26  and  C11_29 
REMARK   11  A    between atoms: C11_29  and  C12_30 
REMARK       I    between atoms: C12_30  and  N6_32 
REMARK   12  A    between atoms: N6_32  and  N7_34 
REMARK   13  A    between atoms: N7_34  and  C13_36 
REMARK   14  A    between atoms: N11_43  and  N12_44 
ROOT
HETATM    1  C6  UNL     1      32.990  16.656   3.560  1.00  0.00     0.183 A 
HETATM    2  C7  UNL     1      32.282  15.473   3.628  1.00  0.00     0.141 A 
HETATM    3  C8  UNL     1      31.878  15.297   4.961  1.00  0.00     0.129 A 
HETATM    4  N4  UNL     1      31.095  14.204   5.394  1.00  0.00    -0.095 NA
HETATM    5  C9  UNL     1      32.343  16.352   5.658  1.00  0.00     0.154 A 
HETATM    6  N11 UNL     1      33.016  17.171   4.790  1.00  0.00    -0.224 N 
ENDROOT
BRANCH   5   7
HETATM    7  N5  UNL     1      32.245  16.593   7.047  1.00  0.00    -0.346 N 
ATOM      8  H5  UNL     1      31.803  17.462   7.346  1.00  0.00     0.163 HD
BRANCH   7   9
HETATM    9  C10 UNL     1      32.721  15.702   8.073  1.00  0.00     0.228 C 
BRANCH   9  10
HETATM   10  O5  UNL     1      31.866  14.568   8.159  1.00  0.00    -0.376 OA
ATOM     11  H5  UNL     1      31.610  14.293   7.286  1.00  0.00     0.212 HD
ENDBRANCH   9  10
BRANCH   9  12
HETATM   12  C11 UNL     1      32.490  16.412   9.415  1.00  0.00     0.158 C 
BRANCH  12  13
HETATM   13  C12 UNL     1      31.515  15.657  10.267  1.00  0.00     0.240 C 
HETATM   14  O6  UNL     1      30.320  16.048  10.232  1.00  0.00    -0.272 OA
HETATM   15  N6  UNL     1      31.943  14.563  11.060  1.00  0.00    -0.256 N 
ATOM     16  H6  UNL     1      32.925  14.287  11.049  1.00  0.00     0.190 HD
BRANCH  15  17
HETATM   17  N7  UNL     1      31.046  13.862  11.849  1.00  0.00    -0.127 N 
ATOM     18  H7  UNL     1      30.933  14.135  12.825  1.00  0.00     0.206 HD
BRANCH  17  19
HETATM   19  C13 UNL     1      30.280  12.779  11.346  1.00  0.00     0.728 A 
HETATM   20  N8  UNL     1      30.001  12.179  10.167  1.00  0.00    -0.114 N 
HETATM   21  N9  UNL     1      29.212  11.299  10.732  1.00  0.00    -0.214 N 
ATOM     22  H8  UNL     1      30.295  12.348   9.205  1.00  0.00     0.207 HD
HETATM   23  N10 UNL     1      29.466  11.868  11.903  1.00  0.00    -0.114 N 
ATOM     24  H9  UNL     1      28.646  10.514  10.409  1.00  0.00     0.209 HD
ATOM     25  H10 UNL     1      29.160  11.684  12.858  1.00  0.00     0.207 HD
ENDBRANCH  17  19
ENDBRANCH  15  17
ENDBRANCH  12  13
ENDBRANCH   9  12
ENDBRANCH   7   9
ENDBRANCH   5   7
BRANCH   6  26
HETATM   26  N12 UNL     1      33.628  18.369   5.159  1.00  0.00    -0.335 N 
ATOM     27 2H12 UNL     1      34.133  18.508   6.035  1.00  0.00     0.177 HD
ATOM     28 1H12 UNL     1      33.637  19.228   4.609  1.00  0.00     0.177 HD
ENDBRANCH   6  26
BRANCH   2  29
HETATM   29  O4  UNL     1      32.000  14.588   2.590  1.00  0.00    -0.355 OA
ATOM     30  H4  UNL     1      31.744  13.676   2.657  1.00  0.00     0.218 HD
ENDBRANCH   2  29
BRANCH   1  31
HETATM   31  N3  UNL     1      33.580  17.170   2.373  1.00  0.00    -0.234 N 
HETATM   32  N2  UNL     1      34.945  17.130   1.997  1.00  0.00    -0.243 N 
HETATM   33  C3  UNL     1      35.088  17.667   0.645  1.00  0.00     0.276 C 
HETATM   34  C4  UNL     1      33.694  17.380   0.106  1.00  0.00     0.218 C 
HETATM   35  C5  UNL     1      32.857  17.840   1.298  1.00  0.00     0.276 C 
BRANCH  32  36
HETATM   36  C2  UNL     1      36.044  16.661   2.752  1.00  0.00     0.091 C 
HETATM   37  C1  UNL     1      36.720  17.614   3.668  1.00  0.00     0.090 C 
HETATM   38  N1  UNL     1      36.503  15.452   2.697  1.00  0.00    -0.388 N 
ATOM     39  H12 UNL     1      37.297  15.114   3.242  1.00  0.00     0.157 HD
ATOM     40  H11 UNL     1      36.038  14.798   2.067  1.00  0.00     0.157 HD
ENDBRANCH  32  36
BRANCH  33  41
HETATM   41  O1  UNL     1      36.091  17.048  -0.059  1.00  0.00    -0.372 OA
ATOM     42  H1  UNL     1      36.651  17.668  -0.512  1.00  0.00     0.212 HD
ENDBRANCH  33  41
BRANCH  34  43
HETATM   43  O2  UNL     1      33.419  18.090  -1.045  1.00  0.00    -0.387 OA
ATOM     44  H2  UNL     1      33.124  17.531  -1.754  1.00  0.00     0.210 HD
ENDBRANCH  34  43
BRANCH  35  45
HETATM   45  O3  UNL     1      32.938  19.201   1.502  1.00  0.00    -0.372 OA
ATOM     46  H3  UNL     1      32.088  19.624   1.462  1.00  0.00     0.212 HD
ENDBRANCH  35  45
ENDBRANCH   1  31
TORSDOF 14
ENDMDL
MODEL 2
REMARK VINA RESULT: -6.071678419      3.002      4.480
REMARK  14 active torsions:
REMARK  status: ('A' for Active; 'I' for Inactive)
REMARK    1  A    between atoms: C2_2  and  N2_6 
REMARK    2  A    between atoms: C3_7  and  O1_8 
REMARK    3  A    between atoms: C4_10  and  O2_11 
REMARK    4  A    between atoms: C5_13  and  O3_14 
REMARK    5  A    between atoms: N3_16  and  C6_17 
REMARK    6  A    between atoms: C7_18  and  O4_19 
REMARK    7  A    between atoms: C9_23  and  N5_24 
REMARK    8  A    between atoms: N5_24  and  C10_26 
REMARK    9  A    between atoms: C10_26  and  O5_27 
REMARK   10  A    between atoms: C10_26  and  C11_29 
REMARK   11  A    between atoms: C11_29  and  C12_30 
REMARK       I    between atoms: C12_30  and  N6_32 
REMARK   12  A    between atoms: N6_32  and  N7_34 
REMARK   13  A    between atoms: N7_34  and  C13_36 
REMARK   14  A    between atoms: N11_43  and  N12_44 
ROOT
HETATM    1  C6  UNL     1      33.550  17.105   8.147  1.00  0.00     0.183 A 
HETATM    2  C7  UNL     1      32.529  16.206   7.915  1.00  0.00     0.141 A 
HETATM    3  C8  UNL     1      32.522  15.290   8.979  1.00  0.00     0.129 A 
HETATM    4  N4  UNL     1      31.580  14.244   9.091  1.00  0.00    -0.095 NA
HETATM    5  C9  UNL     1      33.519  15.644   9.813  1.00  0.00     0.154 A 
HETATM    6  N11 UNL     1      34.134  16.752   9.293  1.00  0.00    -0.224 N 
ENDROOT
BRANCH   5   7
HETATM    7  N5  UNL     1      33.946  14.989  10.991  1.00  0.00    -0.346 N 
ATOM      8  H5  UNL     1      33.669  15.397  11.883  1.00  0.00     0.163 HD
BRANCH   7   9
HETATM    9  C10 UNL     1      34.742  13.790  11.024  1.00  0.00     0.228 C 
BRANCH   9  10
HETATM   10  O5  UNL     1      34.419  12.969   9.908  1.00  0.00    -0.376 OA
ATOM     11  H5  UNL     1      35.191  12.845   9.368  1.00  0.00     0.212 HD
ENDBRANCH   9  10
BRANCH   9  12
HETATM   12  C11 UNL     1      34.241  12.963  12.218  1.00  0.00     0.158 C 
BRANCH  12  13
HETATM   13  C12 UNL     1      32.869  12.416  11.962  1.00  0.00     0.240 C 
HETATM   14  O6  UNL     1      31.904  13.113  12.369  1.00  0.00    -0.272 OA
HETATM   15  N6  UNL     1      32.696  11.180  11.292  1.00  0.00    -0.256 N 
ATOM     16  H6  UNL     1      33.515  10.657  10.981  1.00  0.00     0.190 HD
BRANCH  15  17
HETATM   17  N7  UNL     1      31.431  10.671  11.054  1.00  0.00    -0.127 N 
ATOM     18  H7  UNL     1      31.099   9.891  11.621  1.00  0.00     0.206 HD
BRANCH  17  19
HETATM   19  C13 UNL     1      30.579  11.197  10.048  1.00  0.00     0.728 A 
HETATM   20  N8  UNL     1      30.531  11.312   8.702  1.00  0.00    -0.114 N 
HETATM   21  N9  UNL     1      29.381  11.938   8.735  1.00  0.00    -0.214 N 
ATOM     22  H8  UNL     1      31.153  11.022   7.948  1.00  0.00     0.207 HD
HETATM   23  N10 UNL     1      29.401  11.841  10.058  1.00  0.00    -0.114 N 
ATOM     24  H9  UNL     1      28.743  12.332   8.043  1.00  0.00     0.209 HD
ATOM     25  H10 UNL     1      28.766  12.140  10.798  1.00  0.00     0.207 HD
ENDBRANCH  17  19
ENDBRANCH  15  17
ENDBRANCH  12  13
ENDBRANCH   9  12
ENDBRANCH   7   9
ENDBRANCH   5   7
BRANCH   6  26
HETATM   26  N12 UNL     1      35.210  17.405   9.895  1.00  0.00    -0.335 N 
ATOM     27 2H12 UNL     1      35.915  17.938   9.384  1.00  0.00     0.177 HD
ATOM     28 1H12 UNL     1      35.414  17.420  10.894  1.00  0.00     0.177 HD
ENDBRANCH   6  26
BRANCH   2  29
HETATM   29  O4  UNL     1      31.648  16.177   6.837  1.00  0.00    -0.355 OA
ATOM     30  H4  UNL     1      30.807  15.740   6.786  1.00  0.00     0.218 HD
ENDBRANCH   2  29
BRANCH   1  31
HETATM   31  N3  UNL     1      33.886  18.180   7.278  1.00  0.00    -0.234 N 
HETATM   32  N2  UNL     1      34.305  18.102   5.927  1.00  0.00    -0.243 N 
HETATM   33  C3  UNL     1      34.426  19.452   5.382  1.00  0.00     0.276 C 
HETATM   34  C4  UNL     1      33.442  20.183   6.284  1.00  0.00     0.218 C 
HETATM   35  C5  UNL     1      33.844  19.593   7.635  1.00  0.00     0.276 C 
BRANCH  32  36
HETATM   36  C2  UNL     1      34.579  16.944   5.166  1.00  0.00     0.091 C 
HETATM   37  C1  UNL     1      35.938  16.353   5.258  1.00  0.00     0.090 C 
HETATM   38  N1  UNL     1      33.723  16.362   4.388  1.00  0.00    -0.388 N 
ATOM     39  H12 UNL     1      33.921  15.526   3.838  1.00  0.00     0.157 HD
ATOM     40  H11 UNL     1      32.789  16.769   4.325  1.00  0.00     0.157 HD
ENDBRANCH  32  36
BRANCH  33  41
HETATM   41  O1  UNL     1      34.099  19.509   4.049  1.00  0.00    -0.372 OA
ATOM     42  H1  UNL     1      34.067  20.400   3.722  1.00  0.00     0.212 HD
ENDBRANCH  33  41
BRANCH  34  43
HETATM   43  O2  UNL     1      33.599  21.553   6.233  1.00  0.00    -0.387 OA
ATOM     44  H2  UNL     1      33.029  22.006   6.844  1.00  0.00     0.210 HD
ENDBRANCH  34  43
BRANCH  35  45
HETATM   45  O3  UNL     1      35.110  19.981   8.021  1.00  0.00    -0.372 OA
ATOM     46  H3  UNL     1      35.493  19.386   8.654  1.00  0.00     0.212 HD
ENDBRANCH  35  45
ENDBRANCH   1  31
TORSDOF 14
ENDMDL
MODEL 3
REMARK VINA RESULT: -6.029838705      6.628      9.601
REMARK  14 active torsions:
REMARK  status: ('A' for Active; 'I' for Inactive)
REMARK    1  A    between atoms: C2_2  and  N2_6 
REMARK    2  A    between atoms: C3_7  and  O1_8 
REMARK    3  A    between atoms: C4_10  and  O2_11 
REMARK    4  A    between atoms: C5_13  and  O3_14 
REMARK    5  A    between atoms: N3_16  and  C6_17 
REMARK    6  A    between atoms: C7_18  and  O4_19 
REMARK    7  A    between atoms: C9_23  and  N5_24 
REMARK    8  A    between atoms: N5_24  and  C10_26 
REMARK    9  A    between atoms: C10_26  and  O5_27 
REMARK   10  A    between atoms: C10_26  and  C11_29 
REMARK   11  A    between atoms: C11_29  and  C12_30 
REMARK       I    between atoms: C12_30  and  N6_32 
REMARK   12  A    between atoms: N6_32  and  N7_34 
REMARK   13  A    between atoms: N7_34  and  C13_36 
REMARK   14  A    between atoms: N11_43  and  N12_44 
ROOT
HETATM    1  C6  UNL     1      33.707  12.141  11.715  1.00  0.00     0.183 A 
HETATM    2  C7  UNL     1      34.475  12.061  12.859  1.00  0.00     0.141 A 
HETATM    3  C8  UNL     1      34.681  10.700  13.136  1.00  0.00     0.129 A 
HETATM    4  N4  UNL     1      35.460  10.242  14.222  1.00  0.00    -0.095 NA
HETATM    5  C9  UNL     1      34.045  10.000  12.177  1.00  0.00     0.154 A 
HETATM    6  N11 UNL     1      33.459  10.892  11.319  1.00  0.00    -0.224 N 
ENDROOT
BRANCH   5   7
HETATM    7  N5  UNL     1      33.913   8.597  12.063  1.00  0.00    -0.346 N 
ATOM      8  H5  UNL     1      33.001   8.191  12.268  1.00  0.00     0.163 HD
BRANCH   7   9
HETATM    9  C10 UNL     1      34.970   7.699  11.678  1.00  0.00     0.228 C 
BRANCH   9  10
HETATM   10  O5  UNL     1      35.926   8.395  10.886  1.00  0.00    -0.376 OA
ATOM     11  H5  UNL     1      35.884   9.325  11.077  1.00  0.00     0.212 HD
ENDBRANCH   9  10
BRANCH   9  12
HETATM   12  C11 UNL     1      34.360   6.701  10.683  1.00  0.00     0.158 C 
BRANCH  12  13
HETATM   13  C12 UNL     1      33.403   7.379   9.751  1.00  0.00     0.240 C 
HETATM   14  O6  UNL     1      32.202   7.434  10.123  1.00  0.00    -0.272 OA
HETATM   15  N6  UNL     1      33.852   7.925   8.523  1.00  0.00    -0.256 N 
ATOM     16  H6  UNL     1      34.838   7.854   8.272  1.00  0.00     0.190 HD
BRANCH  15  17
HETATM   17  N7  UNL     1      32.972   8.553   7.659  1.00  0.00    -0.127 N 
ATOM     18  H7  UNL     1      32.130   8.984   8.041  1.00  0.00     0.206 HD
BRANCH  17  19
HETATM   19  C13 UNL     1      33.200   8.619   6.259  1.00  0.00     0.728 A 
HETATM   20  N8  UNL     1      34.231   8.737   5.393  1.00  0.00    -0.114 N 
HETATM   21  N9  UNL     1      33.438   8.708   4.351  1.00  0.00    -0.214 N 
ATOM     22  H8  UNL     1      35.241   8.817   5.507  1.00  0.00     0.207 HD
HETATM   23  N10 UNL     1      32.407   8.593   5.178  1.00  0.00    -0.114 N 
ATOM     24  H9  UNL     1      33.560   8.755   3.339  1.00  0.00     0.209 HD
ATOM     25  H10 UNL     1      31.399   8.515   5.043  1.00  0.00     0.207 HD
ENDBRANCH  17  19
ENDBRANCH  15  17
ENDBRANCH  12  13
ENDBRANCH   9  12
ENDBRANCH   7   9
ENDBRANCH   5   7
BRANCH   6  26
HETATM   26  N12 UNL     1      32.719  10.525  10.194  1.00  0.00    -0.335 N 
ATOM     27 2H12 UNL     1      32.117  11.163   9.672  1.00  0.00     0.177 HD
ATOM     28 1H12 UNL     1      32.690   9.595   9.777  1.00  0.00     0.177 HD
ENDBRANCH   6  26
BRANCH   2  29
HETATM   29  O4  UNL     1      34.971  13.112  13.627  1.00  0.00    -0.355 OA
ATOM     30  H4  UNL     1      34.490  13.846  13.988  1.00  0.00     0.218 HD
ENDBRANCH   2  29
BRANCH   1  31
HETATM   31  N3  UNL     1      33.273  13.359  11.124  1.00  0.00    -0.234 N 
HETATM   32  N2  UNL     1      31.941  13.791  10.909  1.00  0.00    -0.243 N 
HETATM   33  C3  UNL     1      31.955  15.155  10.386  1.00  0.00     0.276 C 
HETATM   34  C4  UNL     1      33.286  15.632  10.949  1.00  0.00     0.218 C 
HETATM   35  C5  UNL     1      34.151  14.414  10.632  1.00  0.00     0.276 C 
BRANCH  32  36
HETATM   36  C2  UNL     1      30.745  13.074  11.140  1.00  0.00     0.091 C 
HETATM   37  C1  UNL     1      30.034  12.505   9.968  1.00  0.00     0.090 C 
HETATM   38  N1  UNL     1      30.226  12.881  12.310  1.00  0.00    -0.388 N 
ATOM     39  H12 UNL     1      29.362  12.363  12.476  1.00  0.00     0.157 HD
ATOM     40  H11 UNL     1      30.715  13.271  13.115  1.00  0.00     0.157 HD
ENDBRANCH  32  36
BRANCH  33  41
HETATM   41  O1  UNL     1      30.878  15.890  10.817  1.00  0.00    -0.372 OA
ATOM     42  H1  UNL     1      30.443  15.492  11.561  1.00  0.00     0.212 HD
ENDBRANCH  33  41
BRANCH  34  43
HETATM   43  O2  UNL     1      33.737  16.782  10.332  1.00  0.00    -0.387 OA
ATOM     44  H2  UNL     1      34.429  17.208  10.823  1.00  0.00     0.210 HD
ENDBRANCH  34  43
BRANCH  35  45
HETATM   45  O3  UNL     1      34.328  14.234   9.276  1.00  0.00    -0.372 OA
ATOM     46  H3  UNL     1      34.971  14.832   8.913  1.00  0.00     0.212 HD
ENDBRANCH  35  45
ENDBRANCH   1  31
TORSDOF 14
ENDMDL
MODEL 4
REMARK VINA RESULT: -5.996524480      1.297      2.060
REMARK  14 active torsions:
REMARK  status: ('A' for Active; 'I' for Inactive)
REMARK    1  A    between atoms: C2_2  and  N2_6 
REMARK    2  A    between atoms: C3_7  and  O1_8 
REMARK    3  A    between atoms: C4_10  and  O2_11 
REMARK    4  A    between atoms: C5_13  and  O3_14 
REMARK    5  A    between atoms: N3_16  and  C6_17 
REMARK    6  A    between atoms: C7_18  and  O4_19 
REMARK    7  A    between atoms: C9_23  and  N5_24 
REMARK    8  A    between atoms: N5_24  and  C10_26 
REMARK    9  A    between atoms: C10_26  and  O5_27 
REMARK   10  A    between atoms: C10_26  and  C11_29 
REMARK   11  A    between atoms: C11_29  and  C12_30 
REMARK       I    between atoms: C12_30  and  N6_32 
REMARK   12  A    between atoms: N6_32  and  N7_34 
REMARK   13  A    between atoms: N7_34  and  C13_36 
REMARK   14  A    between atoms: N11_43  and  N12_44 
ROOT
HETATM    1  C6  UNL     1      33.550  17.905   4.052  1.00  0.00     0.183 A 
HETATM    2  C7  UNL     1      33.837  19.034   4.792  1.00  0.00     0.141 A 
HETATM    3  C8  UNL     1      33.405  18.800   6.107  1.00  0.00     0.129 A 
HETATM    4  N4  UNL     1      33.574  19.734   7.154  1.00  0.00    -0.095 NA
HETATM    5  C9  UNL     1      32.874  17.562   6.135  1.00  0.00     0.154 A 
HETATM    6  N11 UNL     1      32.972  17.031   4.876  1.00  0.00    -0.224 N 
ENDROOT
BRANCH   5   7
HETATM    7  N5  UNL     1      32.252  16.904   7.220  1.00  0.00    -0.346 N 
ATOM      8  H5  UNL     1      31.330  17.233   7.505  1.00  0.00     0.163 HD
BRANCH   7   9
HETATM    9  C10 UNL     1      32.822  15.803   7.952  1.00  0.00     0.228 C 
BRANCH   9  10
HETATM   10  O5  UNL     1      31.905  14.715   7.974  1.00  0.00    -0.376 OA
ATOM     11  H5  UNL     1      31.599  14.573   8.862  1.00  0.00     0.212 HD
ENDBRANCH   9  10
BRANCH   9  12
HETATM   12  C11 UNL     1      32.880  16.236   9.424  1.00  0.00     0.158 C 
BRANCH  12  13
HETATM   13  C12 UNL     1      31.712  15.700  10.194  1.00  0.00     0.240 C 
HETATM   14  O6  UNL     1      30.612  16.287  10.025  1.00  0.00    -0.272 OA
HETATM   15  N6  UNL     1      31.863  14.588  11.058  1.00  0.00    -0.256 N 
ATOM     16  H6  UNL     1      32.779  14.148  11.156  1.00  0.00     0.190 HD
BRANCH  15  17
HETATM   17  N7  UNL     1      30.787  14.088  11.772  1.00  0.00    -0.127 N 
ATOM     18  H7  UNL     1      30.438  14.618  12.571  1.00  0.00     0.206 HD
BRANCH  17  19
HETATM   19  C13 UNL     1      30.152  12.866  11.429  1.00  0.00     0.728 A 
HETATM   20  N8  UNL     1      29.948  12.084  10.346  1.00  0.00    -0.114 N 
HETATM   21  N9  UNL     1      29.264  11.204  11.033  1.00  0.00    -0.214 N 
ATOM     22  H8  UNL     1      30.223  12.154   9.366  1.00  0.00     0.207 HD
HETATM   23  N10 UNL     1      29.447  11.952  12.114  1.00  0.00    -0.114 N 
ATOM     24  H9  UNL     1      28.793  10.323  10.827  1.00  0.00     0.209 HD
ATOM     25  H10 UNL     1      29.162  11.865  13.089  1.00  0.00     0.207 HD
ENDBRANCH  17  19
ENDBRANCH  15  17
ENDBRANCH  12  13
ENDBRANCH   9  12
ENDBRANCH   7   9
ENDBRANCH   5   7
BRANCH   6  26
HETATM   26  N12 UNL     1      32.530  15.753   4.530  1.00  0.00    -0.335 N 
ATOM     27 2H12 UNL     1      33.086  15.077   4.006  1.00  0.00     0.177 HD
ATOM     28 1H12 UNL     1      31.616  15.358   4.752  1.00  0.00     0.177 HD
ENDBRANCH   6  26
BRANCH   2  29
HETATM   29  O4  UNL     1      34.441  20.210   4.352  1.00  0.00    -0.355 OA
ATOM     30  H4  UNL     1      34.354  21.081   4.721  1.00  0.00     0.218 HD
ENDBRANCH   2  29
BRANCH   1  31
HETATM   31  N3  UNL     1      33.824  17.765   2.664  1.00  0.00    -0.234 N 
HETATM   32  N2  UNL     1      34.981  17.212   2.061  1.00  0.00    -0.243 N 
HETATM   33  C3  UNL     1      34.790  17.155   0.614  1.00  0.00     0.276 C 
HETATM   34  C4  UNL     1      33.270  17.091   0.558  1.00  0.00     0.218 C 
HETATM   35  C5  UNL     1      32.929  18.167   1.586  1.00  0.00     0.276 C 
BRANCH  32  36
HETATM   36  C2  UNL     1      36.164  16.766   2.694  1.00  0.00     0.091 C 
HETATM   37  C1  UNL     1      37.213  17.770   3.002  1.00  0.00     0.090 C 
HETATM   38  N1  UNL     1      36.396  15.535   3.020  1.00  0.00    -0.388 N 
ATOM     39  H12 UNL     1      37.250  15.213   3.477  1.00  0.00     0.157 HD
ATOM     40  H11 UNL     1      35.675  14.845   2.808  1.00  0.00     0.157 HD
ENDBRANCH  32  36
BRANCH  33  41
HETATM   41  O1  UNL     1      35.410  16.069   0.047  1.00  0.00    -0.372 OA
ATOM     42  H1  UNL     1      35.158  15.252   0.461  1.00  0.00     0.212 HD
ENDBRANCH  33  41
BRANCH  34  43
HETATM   43  O2  UNL     1      32.778  17.378  -0.699  1.00  0.00    -0.387 OA
ATOM     44  H2  UNL     1      32.145  16.735  -0.995  1.00  0.00     0.210 HD
ENDBRANCH  34  43
BRANCH  35  45
HETATM   45  O3  UNL     1      33.294  19.429   1.166  1.00  0.00    -0.372 OA
ATOM     46  H3  UNL     1      34.229  19.503   1.016  1.00  0.00     0.212 HD
ENDBRANCH  35  45
ENDBRANCH   1  31
TORSDOF 14
ENDMDL
MODEL 5
REMARK VINA RESULT: -5.920507663      0.958      1.104
REMARK  14 active torsions:
REMARK  status: ('A' for Active; 'I' for Inactive)
REMARK    1  A    between atoms: C2_2  and  N2_6 
REMARK    2  A    between atoms: C3_7  and  O1_8 
REMARK    3  A    between atoms: C4_10  and  O2_11 
REMARK    4  A    between atoms: C5_13  and  O3_14 
REMARK    5  A    between atoms: N3_16  and  C6_17 
REMARK    6  A    between atoms: C7_18  and  O4_19 
REMARK    7  A    between atoms: C9_23  and  N5_24 
REMARK    8  A    between atoms: N5_24  and  C10_26 
REMARK    9  A    between atoms: C10_26  and  O5_27 
REMARK   10  A    between atoms: C10_26  and  C11_29 
REMARK   11  A    between atoms: C11_29  and  C12_30 
REMARK       I    between atoms: C12_30  and  N6_32 
REMARK   12  A    between atoms: N6_32  and  N7_34 
REMARK   13  A    between atoms: N7_34  and  C13_36 
REMARK   14  A    between atoms: N11_43  and  N12_44 
ROOT
HETATM    1  C6  UNL     1      33.174  16.883   3.341  1.00  0.00     0.183 A 
HETATM    2  C7  UNL     1      32.425  15.735   3.498  1.00  0.00     0.141 A 
HETATM    3  C8  UNL     1      32.194  15.565   4.873  1.00  0.00     0.129 A 
HETATM    4  N4  UNL     1      31.425  14.506   5.403  1.00  0.00    -0.095 NA
HETATM    5  C9  UNL     1      32.799  16.590   5.505  1.00  0.00     0.154 A 
HETATM    6  N11 UNL     1      33.389  17.384   4.557  1.00  0.00    -0.224 N 
ENDROOT
BRANCH   5   7
HETATM    7  N5  UNL     1      32.899  16.821   6.896  1.00  0.00    -0.346 N 
ATOM      8  H5  UNL     1      32.632  17.743   7.241  1.00  0.00     0.163 HD
BRANCH   7   9
HETATM    9  C10 UNL     1      33.349  15.853   7.862  1.00  0.00     0.228 C 
BRANCH   9  10
HETATM   10  O5  UNL     1      32.298  14.938   8.149  1.00  0.00    -0.376 OA
ATOM     11  H5  UNL     1      31.576  15.081   7.548  1.00  0.00     0.212 HD
ENDBRANCH   9  10
BRANCH   9  12
HETATM   12  C11 UNL     1      33.524  16.605   9.190  1.00  0.00     0.158 C 
BRANCH  12  13
HETATM   13  C12 UNL     1      33.061  15.775  10.348  1.00  0.00     0.240 C 
HETATM   14  O6  UNL     1      32.021  16.168  10.939  1.00  0.00    -0.272 OA
HETATM   15  N6  UNL     1      33.772  14.613  10.736  1.00  0.00    -0.256 N 
ATOM     16  H6  UNL     1      34.608  14.339  10.221  1.00  0.00     0.190 HD
BRANCH  15  17
HETATM   17  N7  UNL     1      33.348  13.843  11.806  1.00  0.00    -0.127 N 
ATOM     18  H7  UNL     1      33.925  13.808  12.646  1.00  0.00     0.206 HD
BRANCH  17  19
HETATM   19  C13 UNL     1      32.138  13.102  11.774  1.00  0.00     0.728 A 
HETATM   20  N8  UNL     1      31.704  11.859  11.467  1.00  0.00    -0.114 N 
HETATM   21  N9  UNL     1      30.460  12.157  11.749  1.00  0.00    -0.214 N 
ATOM     22  H8  UNL     1      32.169  11.012  11.139  1.00  0.00     0.207 HD
HETATM   23  N10 UNL     1      30.857  13.385  12.057  1.00  0.00    -0.114 N 
ATOM     24  H9  UNL     1      29.570  11.659  11.737  1.00  0.00     0.209 HD
ATOM     25  H10 UNL     1      30.374  14.222  12.383  1.00  0.00     0.207 HD
ENDBRANCH  17  19
ENDBRANCH  15  17
ENDBRANCH  12  13
ENDBRANCH   9  12
ENDBRANCH   7   9
ENDBRANCH   5   7
BRANCH   6  26
HETATM   26  N12 UNL     1      34.102  18.548   4.845  1.00  0.00    -0.335 N 
ATOM     27 2H12 UNL     1      33.755  19.491   4.665  1.00  0.00     0.177 HD
ATOM     28 1H12 UNL     1      35.034  18.590   5.257  1.00  0.00     0.177 HD
ENDBRANCH   6  26
BRANCH   2  29
HETATM   29  O4  UNL     1      31.964  14.874   2.505  1.00  0.00    -0.355 OA
ATOM     30  H4  UNL     1      32.302  14.016   2.277  1.00  0.00     0.218 HD
ENDBRANCH   2  29
BRANCH   1  31
HETATM   31  N3  UNL     1      33.624  17.380   2.087  1.00  0.00    -0.234 N 
HETATM   32  N2  UNL     1      34.927  17.290   1.536  1.00  0.00    -0.243 N 
HETATM   33  C3  UNL     1      34.914  17.827   0.178  1.00  0.00     0.276 C 
HETATM   34  C4  UNL     1      33.451  17.596  -0.176  1.00  0.00     0.218 C 
HETATM   35  C5  UNL     1      32.794  18.082   1.114  1.00  0.00     0.276 C 
BRANCH  32  36
HETATM   36  C2  UNL     1      36.095  16.776   2.143  1.00  0.00     0.091 C 
HETATM   37  C1  UNL     1      36.982  17.722   2.865  1.00  0.00     0.090 C 
HETATM   38  N1  UNL     1      36.446  15.530   2.109  1.00  0.00    -0.388 N 
ATOM     39  H12 UNL     1      37.289  15.159   2.547  1.00  0.00     0.157 HD
ATOM     40  H11 UNL     1      35.836  14.880   1.613  1.00  0.00     0.157 HD
ENDBRANCH  32  36
BRANCH  33  41
HETATM   41  O1  UNL     1      35.792  17.174  -0.651  1.00  0.00    -0.372 OA
ATOM     42  H1  UNL     1      35.879  17.601  -1.495  1.00  0.00     0.212 HD
ENDBRANCH  33  41
BRANCH  34  43
HETATM   43  O2  UNL     1      33.057  18.323  -1.282  1.00  0.00    -0.387 OA
ATOM     44  H2  UNL     1      32.113  18.413  -1.337  1.00  0.00     0.210 HD
ENDBRANCH  34  43
BRANCH  35  45
HETATM   45  O3  UNL     1      32.953  19.438   1.307  1.00  0.00    -0.372 OA
ATOM     46  H3  UNL     1      32.788  19.698   2.205  1.00  0.00     0.212 HD
ENDBRANCH  35  45
ENDBRANCH   1  31
TORSDOF 14
ENDMDL
