MODEL 1
REMARK VINA RESULT: -7.494597859      0.000      0.000
REMARK  13 active torsions:
REMARK  status: ('A' for Active; 'I' for Inactive)
REMARK    1  A    between atoms: C2_7  and  C3_8 
REMARK    2  A    between atoms: C3_8  and  N3_9 
REMARK    3  A    between atoms: C3_8  and  C4_13 
REMARK    4  A    between atoms: C4_13  and  O1_14 
REMARK    5  A    between atoms: C4_13  and  C5_16 
REMARK    6  A    between atoms: C7_20  and  C8_21 
REMARK    7  A    between atoms: C8_21  and  N5_22 
REMARK    8  A    between atoms: C8_21  and  C9_26 
REMARK    9  A    between atoms: N8_37  and  C13_38 
REMARK   10  A    between atoms: C15_41  and  N9_42 
REMARK   11  A    between atoms: N10_46  and  C16_47 
REMARK   12  A    between atoms: C16_47  and  C17_48 
REMARK   13  A    between atoms: C17_48  and  O6_49 
ROOT
HETATM    1  N1  UNL     1       8.405 -14.724  60.186  1.00  0.00    -0.383 N 
ATOM      2  H11 UNL     1       7.774 -14.275  60.849  1.00  0.00     0.157 HD
ATOM      3  H12 UNL     1       8.012 -15.434  59.567  1.00  0.00     0.157 HD
HETATM    4  C1  UNL     1       9.667 -14.433  60.102  1.00  0.00     0.131 A 
HETATM    5  N2  UNL     1      10.494 -15.020  59.234  1.00  0.00    -0.329 N 
ATOM      6  H2  UNL     1      10.109 -15.730  58.612  1.00  0.00     0.168 HD
HETATM    7  C2  UNL     1      11.795 -14.736  59.129  1.00  0.00     0.118 A 
HETATM    8  N6  UNL     1      12.325 -13.811  59.931  1.00  0.00    -0.328 N 
ATOM      9  H6  UNL     1      13.318 -13.588  59.858  1.00  0.00     0.169 HD
HETATM   10  C10 UNL     1      11.562 -13.170  60.835  1.00  0.00     0.143 A 
HETATM   11  C11 UNL     1      10.199 -13.473  60.939  1.00  0.00     0.122 A 
HETATM   12  N7  UNL     1       9.717 -12.690  61.904  1.00  0.00    -0.346 N 
ATOM     13  H7  UNL     1       8.748 -12.667  62.225  1.00  0.00     0.167 HD
HETATM   14  C12 UNL     1      10.720 -11.934  62.385  1.00  0.00     0.188 A 
HETATM   15  N8  UNL     1      11.867 -12.212  61.741  1.00  0.00    -0.291 N 
ENDROOT
BRANCH   7  16
HETATM   16  C3  UNL     1      12.621 -15.432  58.149  1.00  0.00     0.281 C 
BRANCH  16  17
HETATM   17  N3  UNL     1      12.178 -16.800  57.984  1.00  0.00    -0.066 N 
ATOM     18  H33 UNL     1      11.418 -17.030  58.624  1.00  0.00     0.275 HD
ATOM     19  H32 UNL     1      11.683 -16.933  57.103  1.00  0.00     0.275 HD
ATOM     20  H31 UNL     1      12.962 -17.447  58.079  1.00  0.00     0.275 HD
ENDBRANCH  16  17
BRANCH  16  21
HETATM   21  C4  UNL     1      14.091 -15.425  58.455  1.00  0.00     0.187 C 
BRANCH  21  22
HETATM   22  O1  UNL     1      14.670 -14.173  58.257  1.00  0.00    -0.390 OA
ATOM     23  H1  UNL     1      14.475 -13.566  58.960  1.00  0.00     0.210 HD
ENDBRANCH  21  22
BRANCH  21  24
HETATM   24  C5  UNL     1      14.877 -16.430  57.693  1.00  0.00     0.179 C 
HETATM   25  C6  UNL     1      16.160 -16.846  58.330  1.00  0.00     0.156 C 
HETATM   26  N4  UNL     1      17.163 -16.238  57.503  1.00  0.00    -0.370 N 
HETATM   27  C7  UNL     1      16.682 -15.663  56.475  1.00  0.00     0.156 C 
ATOM     28  H4  UNL     1      18.160 -16.263  57.717  1.00  0.00     0.161 HD
HETATM   29  O4  UNL     1      15.324 -15.816  56.491  1.00  0.00    -0.327 OA
BRANCH  27  30
HETATM   30  C8  UNL     1      17.469 -14.941  55.424  1.00  0.00     0.356 C 
BRANCH  30  31
HETATM   31  N5  UNL     1      17.722 -15.854  54.328  1.00  0.00    -0.058 N 
ATOM     32  H53 UNL     1      18.019 -16.776  54.648  1.00  0.00     0.275 HD
ATOM     33  H52 UNL     1      16.867 -16.140  53.852  1.00  0.00     0.275 HD
ATOM     34  H51 UNL     1      18.397 -15.424  53.696  1.00  0.00     0.275 HD
ENDBRANCH  30  31
BRANCH  30  35
HETATM   35  C9  UNL     1      18.765 -14.497  55.989  1.00  0.00     0.213 C 
HETATM   36  O2  UNL     1      19.803 -14.551  55.282  1.00  0.00    -0.646 OA
HETATM   37  O3  UNL     1      18.865 -14.023  57.282  1.00  0.00    -0.646 OA
ENDBRANCH  30  35
ENDBRANCH  27  30
ENDBRANCH  21  24
ENDBRANCH  16  21
ENDBRANCH   7  16
BRANCH  15  38
HETATM   38  C13 UNL     1      13.195 -11.628  61.942  1.00  0.00     0.323 C 
HETATM   39  O5  UNL     1      13.246 -10.884  63.089  1.00  0.00    -0.353 OA
HETATM   40  C14 UNL     1      13.974  -9.727  63.038  1.00  0.00     0.225 C 
HETATM   41  C15 UNL     1      13.446  -8.742  62.014  1.00  0.00     0.310 C 
HETATM   42  N10 UNL     1      13.535  -9.415  60.716  1.00  0.00    -0.317 N 
HETATM   43  C18 UNL     1      13.576 -10.830  60.753  1.00  0.00     0.271 C 
HETATM   44  O7  UNL     1      13.962 -11.431  59.696  1.00  0.00    -0.268 OA
BRANCH  41  45
HETATM   45  N9  UNL     1      12.099  -8.344  62.297  1.00  0.00    -0.056 N 
ATOM     46  H93 UNL     1      11.980  -8.118  63.285  1.00  0.00     0.276 HD
ATOM     47  H92 UNL     1      11.891  -7.428  61.898  1.00  0.00     0.276 HD
ATOM     48  H91 UNL     1      11.422  -9.043  61.992  1.00  0.00     0.276 HD
ENDBRANCH  41  45
BRANCH  42  49
HETATM   49  C16 UNL     1      13.576  -8.622  59.521  1.00  0.00     0.154 C 
BRANCH  49  50
HETATM   50  C17 UNL     1      14.531  -7.455  59.641  1.00  0.00     0.184 C 
BRANCH  50  51
HETATM   51  O6  UNL     1      15.867  -7.829  59.579  1.00  0.00    -0.399 OA
ATOM     52  H6  UNL     1      16.466  -7.123  59.793  1.00  0.00     0.209 HD
ENDBRANCH  50  51
ENDBRANCH  49  50
ENDBRANCH  42  49
ENDBRANCH  15  38
TORSDOF 13
ENDMDL
MODEL 2
REMARK VINA RESULT: -7.463565839      5.861      9.075
REMARK  13 active torsions:
REMARK  status: ('A' for Active; 'I' for Inactive)
REMARK    1  A    between atoms: C2_7  and  C3_8 
REMARK    2  A    between atoms: C3_8  and  N3_9 
REMARK    3  A    between atoms: C3_8  and  C4_13 
REMARK    4  A    between atoms: C4_13  and  O1_14 
REMARK    5  A    between atoms: C4_13  and  C5_16 
REMARK    6  A    between atoms: C7_20  and  C8_21 
REMARK    7  A    between atoms: C8_21  and  N5_22 
REMARK    8  A    between atoms: C8_21  and  C9_26 
REMARK    9  A    between atoms: N8_37  and  C13_38 
REMARK   10  A    between atoms: C15_41  and  N9_42 
REMARK   11  A    between atoms: N10_46  and  C16_47 
REMARK   12  A    between atoms: C16_47  and  C17_48 
REMARK   13  A    between atoms: C17_48  and  O6_49 
ROOT
HETATM    1  N1  UNL     1       8.002  -8.515  66.905  1.00  0.00    -0.383 N 
ATOM      2  H11 UNL     1       7.665  -8.252  67.831  1.00  0.00     0.157 HD
ATOM      3  H12 UNL     1       7.322  -8.897  66.247  1.00  0.00     0.157 HD
HETATM    4  C1  UNL     1       9.240  -8.385  66.540  1.00  0.00     0.131 A 
HETATM    5  N2  UNL     1       9.682  -8.729  65.328  1.00  0.00    -0.329 N 
ATOM      6  H2  UNL     1       9.009  -9.112  64.664  1.00  0.00     0.168 HD
HETATM    7  C2  UNL     1      10.951  -8.604  64.929  1.00  0.00     0.118 A 
HETATM    8  N6  UNL     1      11.853  -8.107  65.778  1.00  0.00    -0.328 N 
ATOM      9  H6  UNL     1      12.824  -8.008  65.482  1.00  0.00     0.169 HD
HETATM   10  C10 UNL     1      11.492  -7.735  67.020  1.00  0.00     0.143 A 
HETATM   11  C11 UNL     1      10.160  -7.869  67.430  1.00  0.00     0.122 A 
HETATM   12  N7  UNL     1      10.112  -7.425  68.687  1.00  0.00    -0.346 N 
ATOM     13  H7  UNL     1       9.278  -7.388  69.274  1.00  0.00     0.167 HD
HETATM   14  C12 UNL     1      11.346  -7.033  69.051  1.00  0.00     0.188 A 
HETATM   15  N8  UNL     1      12.213  -7.215  68.040  1.00  0.00    -0.291 N 
ENDROOT
BRANCH   7  16
HETATM   16  C3  UNL     1      11.340  -9.008  63.584  1.00  0.00     0.281 C 
BRANCH  16  17
HETATM   17  N3  UNL     1      10.574 -10.157  63.151  1.00  0.00    -0.066 N 
ATOM     18  H33 UNL     1      11.175 -10.897  62.787  1.00  0.00     0.275 HD
ATOM     19  H32 UNL     1      10.172 -10.661  63.941  1.00  0.00     0.275 HD
ATOM     20  H31 UNL     1       9.860  -9.882  62.476  1.00  0.00     0.275 HD
ENDBRANCH  16  17
BRANCH  16  21
HETATM   21  C4  UNL     1      12.804  -9.304  63.421  1.00  0.00     0.187 C 
BRANCH  21  22
HETATM   22  O1  UNL     1      13.585  -8.150  63.429  1.00  0.00    -0.390 OA
ATOM     23  H1  UNL     1      14.511  -8.338  63.340  1.00  0.00     0.210 HD
ENDBRANCH  21  22
BRANCH  21  24
HETATM   24  C5  UNL     1      13.135 -10.084  62.199  1.00  0.00     0.179 C 
HETATM   25  C6  UNL     1      14.569 -10.041  61.790  1.00  0.00     0.156 C 
HETATM   26  N4  UNL     1      14.560  -9.228  60.608  1.00  0.00    -0.370 N 
HETATM   27  C7  UNL     1      13.389  -8.910  60.227  1.00  0.00     0.156 C 
ATOM     28  H4  UNL     1      15.408  -8.934  60.121  1.00  0.00     0.161 HD
HETATM   29  O4  UNL     1      12.489  -9.463  61.095  1.00  0.00    -0.327 OA
BRANCH  27  30
HETATM   30  C8  UNL     1      13.051  -8.072  59.032  1.00  0.00     0.356 C 
BRANCH  30  31
HETATM   31  N5  UNL     1      14.201  -8.037  58.153  1.00  0.00    -0.058 N 
ATOM     32  H53 UNL     1      14.642  -8.951  58.049  1.00  0.00     0.275 HD
ATOM     33  H52 UNL     1      13.943  -7.894  57.177  1.00  0.00     0.275 HD
ATOM     34  H51 UNL     1      14.849  -7.328  58.494  1.00  0.00     0.275 HD
ENDBRANCH  30  31
BRANCH  30  35
HETATM   35  C9  UNL     1      12.735  -6.691  59.465  1.00  0.00     0.213 C 
HETATM   36  O2  UNL     1      13.544  -6.067  60.197  1.00  0.00    -0.646 OA
HETATM   37  O3  UNL     1      11.565  -6.064  59.084  1.00  0.00    -0.646 OA
ENDBRANCH  30  35
ENDBRANCH  27  30
ENDBRANCH  21  24
ENDBRANCH  16  21
ENDBRANCH   7  16
BRANCH  15  38
HETATM   38  C13 UNL     1      13.648  -6.925  68.001  1.00  0.00     0.323 C 
HETATM   39  O5  UNL     1      14.375  -7.913  68.609  1.00  0.00    -0.353 OA
HETATM   40  C14 UNL     1      15.452  -7.513  69.353  1.00  0.00     0.225 C 
HETATM   41  C15 UNL     1      15.069  -6.609  70.508  1.00  0.00     0.310 C 
HETATM   42  N10 UNL     1      14.441  -5.428  69.911  1.00  0.00    -0.317 N 
HETATM   43  C18 UNL     1      13.908  -5.599  68.611  1.00  0.00     0.271 C 
HETATM   44  O7  UNL     1      13.643  -4.545  67.944  1.00  0.00    -0.268 OA
BRANCH  41  45
HETATM   45  N9  UNL     1      14.179  -7.259  71.425  1.00  0.00    -0.056 N 
ATOM     46  H93 UNL     1      13.652  -8.001  70.967  1.00  0.00     0.276 HD
ATOM     47  H92 UNL     1      14.693  -7.822  72.103  1.00  0.00     0.276 HD
ATOM     48  H91 UNL     1      13.559  -6.595  71.890  1.00  0.00     0.276 HD
ENDBRANCH  41  45
BRANCH  42  49
HETATM   49  C16 UNL     1      14.408  -4.204  70.659  1.00  0.00     0.154 C 
BRANCH  49  50
HETATM   50  C17 UNL     1      15.692  -3.416  70.525  1.00  0.00     0.184 C 
BRANCH  50  51
HETATM   51  O6  UNL     1      15.890  -2.902  69.250  1.00  0.00    -0.399 OA
ATOM     52  H6  UNL     1      16.299  -2.044  69.250  1.00  0.00     0.209 HD
ENDBRANCH  50  51
ENDBRANCH  49  50
ENDBRANCH  42  49
ENDBRANCH  15  38
TORSDOF 13
ENDMDL
MODEL 3
REMARK VINA RESULT: -7.338544135      1.705      2.604
REMARK  13 active torsions:
REMARK  status: ('A' for Active; 'I' for Inactive)
REMARK    1  A    between atoms: C2_7  and  C3_8 
REMARK    2  A    between atoms: C3_8  and  N3_9 
REMARK    3  A    between atoms: C3_8  and  C4_13 
REMARK    4  A    between atoms: C4_13  and  O1_14 
REMARK    5  A    between atoms: C4_13  and  C5_16 
REMARK    6  A    between atoms: C7_20  and  C8_21 
REMARK    7  A    between atoms: C8_21  and  N5_22 
REMARK    8  A    between atoms: C8_21  and  C9_26 
REMARK    9  A    between atoms: N8_37  and  C13_38 
REMARK   10  A    between atoms: C15_41  and  N9_42 
REMARK   11  A    between atoms: N10_46  and  C16_47 
REMARK   12  A    between atoms: C16_47  and  C17_48 
REMARK   13  A    between atoms: C17_48  and  O6_49 
ROOT
HETATM    1  N1  UNL     1       9.292 -15.256  60.431  1.00  0.00    -0.383 N 
ATOM      2  H11 UNL     1       8.476 -14.756  60.785  1.00  0.00     0.157 HD
ATOM      3  H12 UNL     1       9.137 -16.172  60.010  1.00  0.00     0.157 HD
HETATM    4  C1  UNL     1      10.497 -14.779  60.496  1.00  0.00     0.131 A 
HETATM    5  N2  UNL     1      11.565 -15.434  60.033  1.00  0.00    -0.329 N 
ATOM      6  H2  UNL     1      11.418 -16.350  59.611  1.00  0.00     0.168 HD
HETATM    7  C2  UNL     1      12.814 -14.963  60.088  1.00  0.00     0.118 A 
HETATM    8  N6  UNL     1      13.034 -13.766  60.635  1.00  0.00    -0.328 N 
ATOM      9  H6  UNL     1      13.984 -13.399  60.682  1.00  0.00     0.169 HD
HETATM   10  C10 UNL     1      12.013 -13.040  61.126  1.00  0.00     0.143 A 
HETATM   11  C11 UNL     1      10.706 -13.540  61.065  1.00  0.00     0.122 A 
HETATM   12  N7  UNL     1       9.926 -12.611  61.620  1.00  0.00    -0.346 N 
ATOM     13  H7  UNL     1       8.914 -12.672  61.729  1.00  0.00     0.167 HD
HETATM   14  C12 UNL     1      10.698 -11.581  62.012  1.00  0.00     0.188 A 
HETATM   15  N8  UNL     1      11.987 -11.823  61.718  1.00  0.00    -0.291 N 
ENDROOT
BRANCH   7  16
HETATM   16  C3  UNL     1      13.919 -15.751  59.556  1.00  0.00     0.281 C 
BRANCH  16  17
HETATM   17  N3  UNL     1      14.486 -16.597  60.583  1.00  0.00    -0.066 N 
ATOM     18  H33 UNL     1      15.087 -17.321  60.188  1.00  0.00     0.275 HD
ATOM     19  H32 UNL     1      15.185 -16.102  61.136  1.00  0.00     0.275 HD
ATOM     20  H31 UNL     1      13.752 -16.995  61.170  1.00  0.00     0.275 HD
ENDBRANCH  16  17
BRANCH  16  21
HETATM   21  C4  UNL     1      15.015 -14.941  58.925  1.00  0.00     0.187 C 
BRANCH  21  22
HETATM   22  O1  UNL     1      14.549 -14.121  57.900  1.00  0.00    -0.390 OA
ATOM     23  H1  UNL     1      14.663 -14.511  57.042  1.00  0.00     0.210 HD
ENDBRANCH  21  22
BRANCH  21  24
HETATM   24  C5  UNL     1      16.145 -15.751  58.399  1.00  0.00     0.179 C 
HETATM   25  C6  UNL     1      16.700 -15.290  57.093  1.00  0.00     0.156 C 
HETATM   26  N4  UNL     1      16.263 -16.294  56.165  1.00  0.00    -0.370 N 
HETATM   27  C7  UNL     1      15.673 -17.271  56.727  1.00  0.00     0.156 C 
ATOM     28  H4  UNL     1      16.410 -16.231  55.158  1.00  0.00     0.161 HD
HETATM   29  O4  UNL     1      15.645 -17.042  58.074  1.00  0.00    -0.327 OA
BRANCH  27  30
HETATM   30  C8  UNL     1      15.104 -18.470  56.032  1.00  0.00     0.356 C 
BRANCH  30  31
HETATM   31  N5  UNL     1      15.809 -18.655  54.780  1.00  0.00    -0.058 N 
ATOM     32  H53 UNL     1      15.253 -18.373  53.972  1.00  0.00     0.275 HD
ATOM     33  H52 UNL     1      16.575 -17.993  54.661  1.00  0.00     0.275 HD
ATOM     34  H51 UNL     1      16.118 -19.626  54.722  1.00  0.00     0.275 HD
ENDBRANCH  30  31
BRANCH  30  35
HETATM   35  C9  UNL     1      13.667 -18.246  55.746  1.00  0.00     0.213 C 
HETATM   36  O2  UNL     1      13.167 -17.108  55.927  1.00  0.00    -0.646 OA
HETATM   37  O3  UNL     1      12.856 -19.263  55.283  1.00  0.00    -0.646 OA
ENDBRANCH  30  35
ENDBRANCH  27  30
ENDBRANCH  21  24
ENDBRANCH  16  21
ENDBRANCH   7  16
BRANCH  15  38
HETATM   38  C13 UNL     1      13.157 -10.977  61.966  1.00  0.00     0.323 C 
HETATM   39  O5  UNL     1      12.917 -10.070  62.962  1.00  0.00    -0.353 OA
HETATM   40  C14 UNL     1      13.443  -8.818  62.793  1.00  0.00     0.225 C 
HETATM   41  C15 UNL     1      12.914  -8.118  61.557  1.00  0.00     0.310 C 
HETATM   42  N10 UNL     1      13.302  -8.953  60.418  1.00  0.00    -0.317 N 
HETATM   43  C18 UNL     1      13.570 -10.312  60.707  1.00  0.00     0.271 C 
HETATM   44  O7  UNL     1      14.200 -10.985  59.825  1.00  0.00    -0.268 OA
BRANCH  41  45
HETATM   45  N9  UNL     1      11.493  -7.940  61.608  1.00  0.00    -0.056 N 
ATOM     46  H93 UNL     1      11.098  -7.848  60.672  1.00  0.00     0.276 HD
ATOM     47  H92 UNL     1      11.023  -8.799  61.897  1.00  0.00     0.276 HD
ATOM     48  H91 UNL     1      11.228  -7.154  62.201  1.00  0.00     0.276 HD
ENDBRANCH  41  45
BRANCH  42  49
HETATM   49  C16 UNL     1      13.385  -8.357  59.114  1.00  0.00     0.154 C 
BRANCH  49  50
HETATM   50  C17 UNL     1      14.463  -7.300  59.036  1.00  0.00     0.184 C 
BRANCH  50  51
HETATM   51  O6  UNL     1      15.715  -7.761  59.423  1.00  0.00    -0.399 OA
ATOM     52  H6  UNL     1      16.309  -7.894  58.693  1.00  0.00     0.209 HD
ENDBRANCH  50  51
ENDBRANCH  49  50
ENDBRANCH  42  49
ENDBRANCH  15  38
TORSDOF 13
ENDMDL
MODEL 4
REMARK VINA RESULT: -7.333235898      6.144      9.721
REMARK  13 active torsions:
REMARK  status: ('A' for Active; 'I' for Inactive)
REMARK    1  A    between atoms: C2_7  and  C3_8 
REMARK    2  A    between atoms: C3_8  and  N3_9 
REMARK    3  A    between atoms: C3_8  and  C4_13 
REMARK    4  A    between atoms: C4_13  and  O1_14 
REMARK    5  A    between atoms: C4_13  and  C5_16 
REMARK    6  A    between atoms: C7_20  and  C8_21 
REMARK    7  A    between atoms: C8_21  and  N5_22 
REMARK    8  A    between atoms: C8_21  and  C9_26 
REMARK    9  A    between atoms: N8_37  and  C13_38 
REMARK   10  A    between atoms: C15_41  and  N9_42 
REMARK   11  A    between atoms: N10_46  and  C16_47 
REMARK   12  A    between atoms: C16_47  and  C17_48 
REMARK   13  A    between atoms: C17_48  and  O6_49 
ROOT
HETATM    1  N1  UNL     1      16.019 -10.790  67.502  1.00  0.00    -0.383 N 
ATOM      2  H11 UNL     1      16.524 -10.853  68.386  1.00  0.00     0.157 HD
ATOM      3  H12 UNL     1      16.255 -11.465  66.775  1.00  0.00     0.157 HD
HETATM    4  C1  UNL     1      15.104  -9.898  67.273  1.00  0.00     0.131 A 
HETATM    5  N2  UNL     1      14.443  -9.814  66.116  1.00  0.00    -0.329 N 
ATOM      6  H2  UNL     1      14.673 -10.486  65.384  1.00  0.00     0.168 HD
HETATM    7  C2  UNL     1      13.498  -8.906  65.857  1.00  0.00     0.118 A 
HETATM    8  N6  UNL     1      13.177  -8.016  66.798  1.00  0.00    -0.328 N 
ATOM      9  H6  UNL     1      12.457  -7.318  66.609  1.00  0.00     0.169 HD
HETATM   10  C10 UNL     1      13.795  -8.030  67.993  1.00  0.00     0.143 A 
HETATM   11  C11 UNL     1      14.785  -8.985  68.257  1.00  0.00     0.122 A 
HETATM   12  N7  UNL     1      15.205  -8.751  69.501  1.00  0.00    -0.346 N 
ATOM     13  H7  UNL     1      15.926  -9.278  69.995  1.00  0.00     0.167 HD
HETATM   14  C12 UNL     1      14.520  -7.704  69.995  1.00  0.00     0.188 A 
HETATM   15  N8  UNL     1      13.646  -7.244  69.084  1.00  0.00    -0.291 N 
ENDROOT
BRANCH   7  16
HETATM   16  C3  UNL     1      12.829  -8.892  64.562  1.00  0.00     0.281 C 
BRANCH  16  17
HETATM   17  N3  UNL     1      11.852  -9.956  64.478  1.00  0.00    -0.066 N 
ATOM     18  H33 UNL     1      12.128 -10.767  65.032  1.00  0.00     0.275 HD
ATOM     19  H32 UNL     1      10.992  -9.718  64.972  1.00  0.00     0.275 HD
ATOM     20  H31 UNL     1      11.672 -10.206  63.505  1.00  0.00     0.275 HD
ENDBRANCH  16  17
BRANCH  16  21
HETATM   21  C4  UNL     1      13.754  -8.981  63.382  1.00  0.00     0.187 C 
BRANCH  21  22
HETATM   22  O1  UNL     1      14.073  -7.728  62.861  1.00  0.00    -0.390 OA
ATOM     23  H1  UNL     1      13.373  -7.366  62.331  1.00  0.00     0.210 HD
ENDBRANCH  21  22
BRANCH  21  24
HETATM   24  C5  UNL     1      13.248  -9.833  62.274  1.00  0.00     0.179 C 
HETATM   25  C6  UNL     1      14.302 -10.497  61.453  1.00  0.00     0.156 C 
HETATM   26  N4  UNL     1      14.254  -9.791  60.204  1.00  0.00    -0.370 N 
HETATM   27  C7  UNL     1      13.304  -8.947  60.143  1.00  0.00     0.156 C 
ATOM     28  H4  UNL     1      14.914  -9.951  59.442  1.00  0.00     0.161 HD
HETATM   29  O4  UNL     1      12.616  -8.985  61.323  1.00  0.00    -0.327 OA
BRANCH  27  30
HETATM   30  C8  UNL     1      12.992  -8.059  58.976  1.00  0.00     0.356 C 
BRANCH  30  31
HETATM   31  N5  UNL     1      14.148  -8.022  58.103  1.00  0.00    -0.058 N 
ATOM     32  H53 UNL     1      15.019  -8.209  58.599  1.00  0.00     0.275 HD
ATOM     33  H52 UNL     1      14.179  -8.814  57.462  1.00  0.00     0.275 HD
ATOM     34  H51 UNL     1      14.159  -7.125  57.618  1.00  0.00     0.275 HD
ENDBRANCH  30  31
BRANCH  30  35
HETATM   35  C9  UNL     1      12.708  -6.687  59.456  1.00  0.00     0.213 C 
HETATM   36  O2  UNL     1      13.527  -6.110  60.214  1.00  0.00    -0.646 OA
HETATM   37  O3  UNL     1      11.556  -6.019  59.090  1.00  0.00    -0.646 OA
ENDBRANCH  30  35
ENDBRANCH  27  30
ENDBRANCH  21  24
ENDBRANCH  16  21
ENDBRANCH   7  16
BRANCH  15  38
HETATM   38  C13 UNL     1      12.705  -6.127  69.201  1.00  0.00     0.323 C 
HETATM   39  O5  UNL     1      12.610  -5.427  68.028  1.00  0.00    -0.353 OA
HETATM   40  C14 UNL     1      12.502  -4.067  68.132  1.00  0.00     0.225 C 
HETATM   41  C15 UNL     1      13.696  -3.431  68.816  1.00  0.00     0.310 C 
HETATM   42  N10 UNL     1      13.750  -4.006  70.161  1.00  0.00    -0.317 N 
HETATM   43  C18 UNL     1      13.103  -5.253  70.330  1.00  0.00     0.271 C 
HETATM   44  O7  UNL     1      12.858  -5.629  71.524  1.00  0.00    -0.268 OA
BRANCH  41  45
HETATM   45  N9  UNL     1      14.915  -3.672  68.101  1.00  0.00    -0.056 N 
ATOM     46  H93 UNL     1      15.530  -4.299  68.620  1.00  0.00     0.276 HD
ATOM     47  H92 UNL     1      14.753  -4.253  67.278  1.00  0.00     0.276 HD
ATOM     48  H91 UNL     1      15.392  -2.805  67.855  1.00  0.00     0.276 HD
ENDBRANCH  41  45
BRANCH  42  49
HETATM   49  C16 UNL     1      14.436  -3.288  71.198  1.00  0.00     0.154 C 
BRANCH  49  50
HETATM   50  C17 UNL     1      15.851  -3.782  71.398  1.00  0.00     0.184 C 
BRANCH  50  51
HETATM   51  O6  UNL     1      16.749  -3.263  70.474  1.00  0.00    -0.399 OA
ATOM     52  H6  UNL     1      17.357  -3.911  70.136  1.00  0.00     0.209 HD
ENDBRANCH  50  51
ENDBRANCH  49  50
ENDBRANCH  42  49
ENDBRANCH  15  38
TORSDOF 13
ENDMDL
MODEL 5
REMARK VINA RESULT: -7.302173536      6.161      9.688
REMARK  13 active torsions:
REMARK  status: ('A' for Active; 'I' for Inactive)
REMARK    1  A    between atoms: C2_7  and  C3_8 
REMARK    2  A    between atoms: C3_8  and  N3_9 
REMARK    3  A    between atoms: C3_8  and  C4_13 
REMARK    4  A    between atoms: C4_13  and  O1_14 
REMARK    5  A    between atoms: C4_13  and  C5_16 
REMARK    6  A    between atoms: C7_20  and  C8_21 
REMARK    7  A    between atoms: C8_21  and  N5_22 
REMARK    8  A    between atoms: C8_21  and  C9_26 
REMARK    9  A    between atoms: N8_37  and  C13_38 
REMARK   10  A    between atoms: C15_41  and  N9_42 
REMARK   11  A    between atoms: N10_46  and  C16_47 
REMARK   12  A    between atoms: C16_47  and  C17_48 
REMARK   13  A    between atoms: C17_48  and  O6_49 
ROOT
HETATM    1  N1  UNL     1      16.212 -10.739  67.959  1.00  0.00    -0.383 N 
ATOM      2  H11 UNL     1      16.616 -10.788  68.894  1.00  0.00     0.157 HD
ATOM      3  H12 UNL     1      16.531 -11.422  67.271  1.00  0.00     0.157 HD
HETATM    4  C1  UNL     1      15.324  -9.857  67.618  1.00  0.00     0.131 A 
HETATM    5  N2  UNL     1      14.794  -9.793  66.394  1.00  0.00    -0.329 N 
ATOM      6  H2  UNL     1      15.108 -10.471  65.700  1.00  0.00     0.168 HD
HETATM    7  C2  UNL     1      13.878  -8.894  66.020  1.00  0.00     0.118 A 
HETATM    8  N6  UNL     1      13.451  -7.994  66.907  1.00  0.00    -0.328 N 
ATOM      9  H6  UNL     1      12.752  -7.304  66.631  1.00  0.00     0.169 HD
HETATM   10  C10 UNL     1      13.933  -7.989  68.164  1.00  0.00     0.143 A 
HETATM   11  C11 UNL     1      14.892  -8.934  68.548  1.00  0.00     0.122 A 
HETATM   12  N7  UNL     1      15.171  -8.682  69.828  1.00  0.00    -0.346 N 
ATOM     13  H7  UNL     1      15.835  -9.197  70.405  1.00  0.00     0.167 HD
HETATM   14  C12 UNL     1      14.429  -7.634  70.230  1.00  0.00     0.188 A 
HETATM   15  N8  UNL     1      13.658  -7.191  69.221  1.00  0.00    -0.291 N 
ENDROOT
BRANCH   7  16
HETATM   16  C3  UNL     1      13.357  -8.901  64.658  1.00  0.00     0.281 C 
BRANCH  16  17
HETATM   17  N3  UNL     1      11.920  -9.069  64.660  1.00  0.00    -0.066 N 
ATOM     18  H33 UNL     1      11.439  -8.214  64.380  1.00  0.00     0.275 HD
ATOM     19  H32 UNL     1      11.610  -9.675  63.902  1.00  0.00     0.275 HD
ATOM     20  H31 UNL     1      11.597  -9.405  65.568  1.00  0.00     0.275 HD
ENDBRANCH  16  17
BRANCH  16  21
HETATM   21  C4  UNL     1      13.971  -9.937  63.761  1.00  0.00     0.187 C 
BRANCH  21  22
HETATM   22  O1  UNL     1      15.273  -9.611  63.385  1.00  0.00    -0.390 OA
ATOM     23  H1  UNL     1      15.350  -9.439  62.454  1.00  0.00     0.210 HD
ENDBRANCH  21  22
BRANCH  21  24
HETATM   24  C5  UNL     1      13.186 -10.221  62.531  1.00  0.00     0.179 C 
HETATM   25  C6  UNL     1      13.949 -10.878  61.430  1.00  0.00     0.156 C 
HETATM   26  N4  UNL     1      14.086  -9.841  60.447  1.00  0.00    -0.370 N 
HETATM   27  C7  UNL     1      13.452  -8.780  60.747  1.00  0.00     0.156 C 
ATOM     28  H4  UNL     1      14.637  -9.945  59.594  1.00  0.00     0.161 HD
HETATM   29  O4  UNL     1      12.826  -8.976  61.945  1.00  0.00    -0.327 OA
BRANCH  27  30
HETATM   30  C8  UNL     1      13.400  -7.527  59.927  1.00  0.00     0.356 C 
BRANCH  30  31
HETATM   31  N5  UNL     1      12.506  -7.745  58.808  1.00  0.00    -0.058 N 
ATOM     32  H53 UNL     1      11.614  -7.265  58.921  1.00  0.00     0.275 HD
ATOM     33  H52 UNL     1      12.816  -7.268  57.961  1.00  0.00     0.275 HD
ATOM     34  H51 UNL     1      12.396  -8.750  58.672  1.00  0.00     0.275 HD
ENDBRANCH  30  31
BRANCH  30  35
HETATM   35  C9  UNL     1      14.753  -7.214  59.409  1.00  0.00     0.213 C 
HETATM   36  O2  UNL     1      14.874  -6.578  58.332  1.00  0.00    -0.646 OA
HETATM   37  O3  UNL     1      15.892  -7.606  60.082  1.00  0.00    -0.646 OA
ENDBRANCH  30  35
ENDBRANCH  27  30
ENDBRANCH  21  24
ENDBRANCH  16  21
ENDBRANCH   7  16
BRANCH  15  38
HETATM   38  C13 UNL     1      12.705  -6.079  69.218  1.00  0.00     0.323 C 
HETATM   39  O5  UNL     1      12.687  -5.437  68.009  1.00  0.00    -0.353 OA
HETATM   40  C14 UNL     1      12.563  -4.075  68.040  1.00  0.00     0.225 C 
HETATM   41  C15 UNL     1      13.702  -3.394  68.773  1.00  0.00     0.310 C 
HETATM   42  N10 UNL     1      13.666  -3.904  70.145  1.00  0.00    -0.317 N 
HETATM   43  C18 UNL     1      13.017  -5.148  70.329  1.00  0.00     0.271 C 
HETATM   44  O7  UNL     1      12.692  -5.469  71.520  1.00  0.00    -0.268 OA
BRANCH  41  45
HETATM   45  N9  UNL     1      14.969  -3.658  68.157  1.00  0.00    -0.056 N 
ATOM     46  H93 UNL     1      14.858  -3.925  67.179  1.00  0.00     0.276 HD
ATOM     47  H92 UNL     1      15.505  -2.799  68.028  1.00  0.00     0.276 HD
ATOM     48  H91 UNL     1      15.507  -4.355  68.673  1.00  0.00     0.276 HD
ENDBRANCH  41  45
BRANCH  42  49
HETATM   49  C16 UNL     1      14.273  -3.130  71.191  1.00  0.00     0.154 C 
BRANCH  49  50
HETATM   50  C17 UNL     1      15.682  -3.587  71.497  1.00  0.00     0.184 C 
BRANCH  50  51
HETATM   51  O6  UNL     1      16.645  -2.953  70.724  1.00  0.00    -0.399 OA
ATOM     52  H6  UNL     1      17.135  -2.292  71.201  1.00  0.00     0.209 HD
ENDBRANCH  50  51
ENDBRANCH  49  50
ENDBRANCH  42  49
ENDBRANCH  15  38
TORSDOF 13
ENDMDL
