MODEL 1
REMARK VINA RESULT: -6.649631474      0.000      0.000
REMARK  18 active torsions:
REMARK  status: ('A' for Active; 'I' for Inactive)
REMARK    1  A    between atoms: C2_2  and  C3_3 
REMARK    2  A    between atoms: C3_3  and  N1_4 
REMARK    3  A    between atoms: C3_3  and  C10_15 
REMARK    4  A    between atoms: N1_4  and  C4_6 
REMARK    5  A    between atoms: C4_6  and  O1_7 
REMARK    6  A    between atoms: C5_9  and  C6_11 
REMARK    7  A    between atoms: C6_11  and  C8_13 
REMARK       I    between atoms: C10_15  and  N3_17 
REMARK    8  A    between atoms: N3_17  and  C11_19 
REMARK    9  A    between atoms: C11_19  and  C12_20 
REMARK   10  A    between atoms: C11_19  and  C16_24 
REMARK   11  A    between atoms: C12_20  and  C13_21 
REMARK   12  A    between atoms: C16_24  and  O3_25 
REMARK   13  A    between atoms: C16_24  and  N4_27 
REMARK   14  A    between atoms: N4_27  and  C17_29 
REMARK   15  A    between atoms: C17_29  and  C18_30 
REMARK   16  A    between atoms: C17_29  and  C24_36 
REMARK   17  A    between atoms: C18_30  and  C19_31 
REMARK   18  A    between atoms: C24_36  and  O4_39 
ROOT
HETATM    1  C11 UNL     1       1.939  45.583  56.915  1.00  0.00     0.159 C 
ENDROOT
BRANCH   1   2
HETATM    2  N3  UNL     1       1.709  45.274  55.455  1.00  0.00    -0.347 N 
HETATM    3  C10 UNL     1       2.612  44.499  54.718  1.00  0.00     0.241 C 
HETATM    4  O2  UNL     1       3.641  44.071  55.290  1.00  0.00    -0.271 OA
ATOM      5  H3  UNL     1       0.876  45.640  54.994  1.00  0.00     0.163 HD
BRANCH   3   6
HETATM    6  C3  UNL     1       2.404  44.156  53.264  1.00  0.00     0.175 C 
BRANCH   6   7
HETATM    7  C2  UNL     1       2.345  42.682  53.042  1.00  0.00     0.030 C 
HETATM    8  C1  UNL     1       1.578  41.910  54.083  1.00  0.00     0.007 C 
ENDBRANCH   6   7
BRANCH   6   9
HETATM    9  N1  UNL     1       1.442  45.003  52.745  1.00  0.00    -0.356 N 
ATOM     10  H1  UNL     1       0.627  45.158  53.339  1.00  0.00     0.162 HD
BRANCH   9  11
HETATM   11  C4  UNL     1       1.431  45.674  51.528  1.00  0.00     0.157 C 
HETATM   12  C5  UNL     1       1.164  45.157  50.206  1.00  0.00     0.078 C 
HETATM   13  N2  UNL     1       0.180  44.126  50.147  1.00  0.00    -0.102 NA
BRANCH  11  14
HETATM   14  O1  UNL     1       2.479  46.667  51.510  1.00  0.00    -0.345 OA
ATOM     15  H1  UNL     1       2.128  47.509  51.778  1.00  0.00     0.219 HD
ENDBRANCH  11  14
BRANCH  12  16
HETATM   16  C6  UNL     1       2.252  45.077  49.189  1.00  0.00     0.033 C 
HETATM   17  C7  UNL     1       2.640  43.616  48.925  1.00  0.00     0.016 C 
BRANCH  16  18
HETATM   18  C8  UNL     1       2.076  45.724  47.886  1.00  0.00     0.006 C 
HETATM   19  C9  UNL     1       1.684  44.640  46.873  1.00  0.00     0.006 C 
ENDBRANCH  16  18
ENDBRANCH  12  16
ENDBRANCH   9  11
ENDBRANCH   6   9
ENDBRANCH   3   6
ENDBRANCH   1   2
BRANCH   1  20
HETATM   20  C12 UNL     1       0.595  45.656  57.488  1.00  0.00     0.037 C 
BRANCH  20  21
HETATM   21  C13 UNL     1       0.419  45.838  58.945  1.00  0.00    -0.020 C 
HETATM   22  C14 UNL     1       0.752  44.560  59.705  1.00  0.00     0.009 C 
HETATM   23  C15 UNL     1      -1.083  46.092  59.191  1.00  0.00     0.009 C 
ENDBRANCH  20  21
ENDBRANCH   1  20
BRANCH   1  24
HETATM   24  C16 UNL     1       2.881  46.691  56.989  1.00  0.00     0.135 C 
BRANCH  24  25
HETATM   25  O3  UNL     1       2.466  47.751  56.330  1.00  0.00    -0.348 OA
ATOM     26  H3  UNL     1       3.028  48.505  56.460  1.00  0.00     0.219 HD
ENDBRANCH  24  25
BRANCH  24  27
HETATM   27  N4  UNL     1       4.100  46.860  57.598  1.00  0.00    -0.365 N 
ATOM     28  H4  UNL     1       4.858  46.212  57.387  1.00  0.00     0.161 HD
BRANCH  27  29
HETATM   29  C17 UNL     1       4.334  47.971  58.557  1.00  0.00     0.117 C 
BRANCH  29  30
HETATM   30  C18 UNL     1       3.399  47.677  59.702  1.00  0.00     0.033 C 
BRANCH  30  31
HETATM   31  C19 UNL     1       2.613  48.870  60.181  1.00  0.00    -0.013 C 
HETATM   32  C20 UNL     1       1.533  49.274  59.207  1.00  0.00     0.005 C 
HETATM   33  C21 UNL     1       0.611  50.086  60.135  1.00  0.00     0.000 C 
HETATM   34  C22 UNL     1       0.426  49.053  61.247  1.00  0.00     0.000 C 
HETATM   35  C23 UNL     1       1.778  48.386  61.369  1.00  0.00     0.005 C 
ENDBRANCH  30  31
ENDBRANCH  29  30
BRANCH  29  36
HETATM   36  C24 UNL     1       5.772  48.025  58.899  1.00  0.00     0.071 C 
HETATM   37  C25 UNL     1       6.348  46.700  59.348  1.00  0.00     0.047 C 
HETATM   38  C26 UNL     1       6.507  48.333  57.577  1.00  0.00     0.047 C 
BRANCH  36  39
HETATM   39  O4  UNL     1       6.170  49.001  59.774  1.00  0.00    -0.389 OA
ATOM     40  H4  UNL     1       7.034  48.913  60.158  1.00  0.00     0.210 HD
ENDBRANCH  36  39
ENDBRANCH  29  36
ENDBRANCH  27  29
ENDBRANCH  24  27
ENDBRANCH   1  24
TORSDOF 18
ENDMDL
MODEL 2
REMARK VINA RESULT: -6.638604536      2.015      3.773
REMARK  18 active torsions:
REMARK  status: ('A' for Active; 'I' for Inactive)
REMARK    1  A    between atoms: C2_2  and  C3_3 
REMARK    2  A    between atoms: C3_3  and  N1_4 
REMARK    3  A    between atoms: C3_3  and  C10_15 
REMARK    4  A    between atoms: N1_4  and  C4_6 
REMARK    5  A    between atoms: C4_6  and  O1_7 
REMARK    6  A    between atoms: C5_9  and  C6_11 
REMARK    7  A    between atoms: C6_11  and  C8_13 
REMARK       I    between atoms: C10_15  and  N3_17 
REMARK    8  A    between atoms: N3_17  and  C11_19 
REMARK    9  A    between atoms: C11_19  and  C12_20 
REMARK   10  A    between atoms: C11_19  and  C16_24 
REMARK   11  A    between atoms: C12_20  and  C13_21 
REMARK   12  A    between atoms: C16_24  and  O3_25 
REMARK   13  A    between atoms: C16_24  and  N4_27 
REMARK   14  A    between atoms: N4_27  and  C17_29 
REMARK   15  A    between atoms: C17_29  and  C18_30 
REMARK   16  A    between atoms: C17_29  and  C24_36 
REMARK   17  A    between atoms: C18_30  and  C19_31 
REMARK   18  A    between atoms: C24_36  and  O4_39 
ROOT
HETATM    1  C11 UNL     1       2.935  45.476  56.671  1.00  0.00     0.159 C 
ENDROOT
BRANCH   1   2
HETATM    2  N3  UNL     1       2.986  44.471  55.545  1.00  0.00    -0.347 N 
HETATM    3  C10 UNL     1       2.416  44.740  54.295  1.00  0.00     0.241 C 
HETATM    4  O2  UNL     1       1.837  45.838  54.123  1.00  0.00    -0.271 OA
ATOM      5  H3  UNL     1       3.446  43.574  55.699  1.00  0.00     0.163 HD
BRANCH   3   6
HETATM    6  C3  UNL     1       2.465  43.767  53.143  1.00  0.00     0.175 C 
BRANCH   6   7
HETATM    7  C2  UNL     1       2.604  42.358  53.610  1.00  0.00     0.030 C 
HETATM    8  C1  UNL     1       1.549  41.900  54.582  1.00  0.00     0.007 C 
ENDBRANCH   6   7
BRANCH   6   9
HETATM    9  N1  UNL     1       1.504  44.130  52.218  1.00  0.00    -0.356 N 
ATOM     10  H1  UNL     1       0.547  44.164  52.569  1.00  0.00     0.162 HD
BRANCH   9  11
HETATM   11  C4  UNL     1       1.660  44.457  50.876  1.00  0.00     0.157 C 
HETATM   12  C5  UNL     1       0.700  45.030  49.962  1.00  0.00     0.078 C 
HETATM   13  N2  UNL     1      -0.199  45.975  50.541  1.00  0.00    -0.102 NA
BRANCH  11  14
HETATM   14  O1  UNL     1       2.487  43.467  50.227  1.00  0.00    -0.345 OA
ATOM     15  H1  UNL     1       2.779  43.796  49.385  1.00  0.00     0.219 HD
ENDBRANCH  11  14
BRANCH  12  16
HETATM   16  C6  UNL     1       0.155  44.225  48.830  1.00  0.00     0.033 C 
HETATM   17  C7  UNL     1      -1.372  44.355  48.758  1.00  0.00     0.016 C 
BRANCH  16  18
HETATM   18  C8  UNL     1       0.675  44.434  47.476  1.00  0.00     0.006 C 
HETATM   19  C9  UNL     1      -0.080  43.487  46.533  1.00  0.00     0.006 C 
ENDBRANCH  16  18
ENDBRANCH  12  16
ENDBRANCH   9  11
ENDBRANCH   6   9
ENDBRANCH   3   6
ENDBRANCH   1   2
BRANCH   1  20
HETATM   20  C12 UNL     1       4.167  45.243  57.423  1.00  0.00     0.037 C 
BRANCH  20  21
HETATM   21  C13 UNL     1       4.648  46.253  58.390  1.00  0.00    -0.020 C 
HETATM   22  C14 UNL     1       5.079  47.532  57.685  1.00  0.00     0.009 C 
HETATM   23  C15 UNL     1       5.925  45.684  59.042  1.00  0.00     0.009 C 
ENDBRANCH  20  21
ENDBRANCH   1  20
BRANCH   1  24
HETATM   24  C16 UNL     1       1.617  45.386  57.284  1.00  0.00     0.135 C 
BRANCH  24  25
HETATM   25  O3  UNL     1       1.241  44.142  57.490  1.00  0.00    -0.348 OA
ATOM     26  H3  UNL     1       0.296  44.042  57.486  1.00  0.00     0.219 HD
ENDBRANCH  24  25
BRANCH  24  27
HETATM   27  N4  UNL     1       0.694  46.318  57.688  1.00  0.00    -0.365 N 
ATOM     28  H4  UNL     1       0.039  46.702  57.007  1.00  0.00     0.161 HD
BRANCH  27  29
HETATM   29  C17 UNL     1       0.631  46.778  59.099  1.00  0.00     0.117 C 
BRANCH  29  30
HETATM   30  C18 UNL     1       0.924  48.255  59.023  1.00  0.00     0.033 C 
BRANCH  30  31
HETATM   31  C19 UNL     1       2.179  48.675  59.745  1.00  0.00    -0.013 C 
HETATM   32  C20 UNL     1       1.967  49.900  60.600  1.00  0.00     0.005 C 
HETATM   33  C21 UNL     1       3.155  49.772  61.570  1.00  0.00     0.000 C 
HETATM   34  C22 UNL     1       2.918  48.338  62.046  1.00  0.00     0.000 C 
HETATM   35  C23 UNL     1       2.438  47.608  60.811  1.00  0.00     0.005 C 
ENDBRANCH  30  31
ENDBRANCH  29  30
BRANCH  29  36
HETATM   36  C24 UNL     1      -0.682  46.413  59.674  1.00  0.00     0.071 C 
HETATM   37  C25 UNL     1      -1.741  46.101  58.640  1.00  0.00     0.047 C 
HETATM   38  C26 UNL     1      -0.460  45.074  60.410  1.00  0.00     0.047 C 
BRANCH  36  39
HETATM   39  O4  UNL     1      -1.211  47.261  60.611  1.00  0.00    -0.389 OA
ATOM     40  H4  UNL     1      -1.506  48.112  60.308  1.00  0.00     0.210 HD
ENDBRANCH  36  39
ENDBRANCH  29  36
ENDBRANCH  27  29
ENDBRANCH  24  27
ENDBRANCH   1  24
TORSDOF 18
ENDMDL
MODEL 3
REMARK VINA RESULT: -6.629968270      3.327      4.699
REMARK  18 active torsions:
REMARK  status: ('A' for Active; 'I' for Inactive)
REMARK    1  A    between atoms: C2_2  and  C3_3 
REMARK    2  A    between atoms: C3_3  and  N1_4 
REMARK    3  A    between atoms: C3_3  and  C10_15 
REMARK    4  A    between atoms: N1_4  and  C4_6 
REMARK    5  A    between atoms: C4_6  and  O1_7 
REMARK    6  A    between atoms: C5_9  and  C6_11 
REMARK    7  A    between atoms: C6_11  and  C8_13 
REMARK       I    between atoms: C10_15  and  N3_17 
REMARK    8  A    between atoms: N3_17  and  C11_19 
REMARK    9  A    between atoms: C11_19  and  C12_20 
REMARK   10  A    between atoms: C11_19  and  C16_24 
REMARK   11  A    between atoms: C12_20  and  C13_21 
REMARK   12  A    between atoms: C16_24  and  O3_25 
REMARK   13  A    between atoms: C16_24  and  N4_27 
REMARK   14  A    between atoms: N4_27  and  C17_29 
REMARK   15  A    between atoms: C17_29  and  C18_30 
REMARK   16  A    between atoms: C17_29  and  C24_36 
REMARK   17  A    between atoms: C18_30  and  C19_31 
REMARK   18  A    between atoms: C24_36  and  O4_39 
ROOT
HETATM    1  C11 UNL     1       2.921  43.082  55.246  1.00  0.00     0.159 C 
ENDROOT
BRANCH   1   2
HETATM    2  N3  UNL     1       2.423  43.916  54.090  1.00  0.00    -0.347 N 
HETATM    3  C10 UNL     1       2.413  43.423  52.780  1.00  0.00     0.241 C 
HETATM    4  O2  UNL     1       2.847  42.267  52.571  1.00  0.00    -0.271 OA
ATOM      5  H3  UNL     1       2.085  44.862  54.268  1.00  0.00     0.163 HD
BRANCH   3   6
HETATM    6  C3  UNL     1       1.904  44.223  51.606  1.00  0.00     0.175 C 
BRANCH   6   7
HETATM    7  C2  UNL     1       1.192  45.459  52.040  1.00  0.00     0.030 C 
HETATM    8  C1  UNL     1       0.204  46.008  51.045  1.00  0.00     0.007 C 
ENDBRANCH   6   7
BRANCH   6   9
HETATM    9  N1  UNL     1       2.891  44.260  50.638  1.00  0.00    -0.356 N 
ATOM     10  H1  UNL     1       3.783  44.654  50.936  1.00  0.00     0.162 HD
BRANCH   9  11
HETATM   11  C4  UNL     1       2.837  43.834  49.316  1.00  0.00     0.157 C 
HETATM   12  C5  UNL     1       2.029  44.337  48.230  1.00  0.00     0.078 C 
HETATM   13  N2  UNL     1       1.803  45.746  48.246  1.00  0.00    -0.102 NA
BRANCH  11  14
HETATM   14  O1  UNL     1       2.966  42.397  49.262  1.00  0.00    -0.345 OA
ATOM     15  H1  UNL     1       2.910  42.104  48.359  1.00  0.00     0.219 HD
ENDBRANCH  11  14
BRANCH  12  16
HETATM   16  C6  UNL     1       0.929  43.509  47.655  1.00  0.00     0.033 C 
HETATM   17  C7  UNL     1      -0.301  43.531  48.571  1.00  0.00     0.016 C 
BRANCH  16  18
HETATM   18  C8  UNL     1       0.463  43.770  46.291  1.00  0.00     0.006 C 
HETATM   19  C9  UNL     1      -0.917  44.435  46.386  1.00  0.00     0.006 C 
ENDBRANCH  16  18
ENDBRANCH  12  16
ENDBRANCH   9  11
ENDBRANCH   6   9
ENDBRANCH   3   6
ENDBRANCH   1   2
BRANCH   1  20
HETATM   20  C12 UNL     1       1.825  43.107  56.214  1.00  0.00     0.037 C 
BRANCH  20  21
HETATM   21  C13 UNL     1       2.057  43.606  57.586  1.00  0.00    -0.020 C 
HETATM   22  C14 UNL     1       1.964  42.479  58.606  1.00  0.00     0.009 C 
HETATM   23  C15 UNL     1       0.901  44.570  57.920  1.00  0.00     0.009 C 
ENDBRANCH  20  21
ENDBRANCH   1  20
BRANCH   1  24
HETATM   24  C16 UNL     1       4.263  43.540  55.575  1.00  0.00     0.135 C 
BRANCH  24  25
HETATM   25  O3  UNL     1       4.281  44.782  56.007  1.00  0.00    -0.348 OA
ATOM     26  H3  UNL     1       4.759  45.364  55.427  1.00  0.00     0.219 HD
ENDBRANCH  24  25
BRANCH  24  27
HETATM   27  N4  UNL     1       5.503  42.952  55.529  1.00  0.00    -0.365 N 
ATOM     28  H4  UNL     1       5.705  42.266  54.802  1.00  0.00     0.161 HD
BRANCH  27  29
HETATM   29  C17 UNL     1       6.556  43.297  56.518  1.00  0.00     0.117 C 
BRANCH  29  30
HETATM   30  C18 UNL     1       6.378  42.283  57.620  1.00  0.00     0.033 C 
BRANCH  30  31
HETATM   31  C19 UNL     1       6.376  42.871  59.008  1.00  0.00    -0.013 C 
HETATM   32  C20 UNL     1       5.440  44.049  59.131  1.00  0.00     0.005 C 
HETATM   33  C21 UNL     1       5.236  44.084  60.656  1.00  0.00     0.000 C 
HETATM   34  C22 UNL     1       4.823  42.628  60.874  1.00  0.00     0.000 C 
HETATM   35  C23 UNL     1       5.686  41.845  59.908  1.00  0.00     0.005 C 
ENDBRANCH  30  31
ENDBRANCH  29  30
BRANCH  29  36
HETATM   36  C24 UNL     1       7.876  43.293  55.850  1.00  0.00     0.071 C 
HETATM   37  C25 UNL     1       8.917  44.145  56.542  1.00  0.00     0.047 C 
HETATM   38  C26 UNL     1       8.411  41.852  55.987  1.00  0.00     0.047 C 
BRANCH  36  39
HETATM   39  O4  UNL     1       7.898  43.566  54.509  1.00  0.00    -0.389 OA
ATOM     40  H4  UNL     1       8.668  44.007  54.168  1.00  0.00     0.210 HD
ENDBRANCH  36  39
ENDBRANCH  29  36
ENDBRANCH  27  29
ENDBRANCH  24  27
ENDBRANCH   1  24
TORSDOF 18
ENDMDL
MODEL 4
REMARK VINA RESULT: -6.562304133      1.229      1.379
REMARK  18 active torsions:
REMARK  status: ('A' for Active; 'I' for Inactive)
REMARK    1  A    between atoms: C2_2  and  C3_3 
REMARK    2  A    between atoms: C3_3  and  N1_4 
REMARK    3  A    between atoms: C3_3  and  C10_15 
REMARK    4  A    between atoms: N1_4  and  C4_6 
REMARK    5  A    between atoms: C4_6  and  O1_7 
REMARK    6  A    between atoms: C5_9  and  C6_11 
REMARK    7  A    between atoms: C6_11  and  C8_13 
REMARK       I    between atoms: C10_15  and  N3_17 
REMARK    8  A    between atoms: N3_17  and  C11_19 
REMARK    9  A    between atoms: C11_19  and  C12_20 
REMARK   10  A    between atoms: C11_19  and  C16_24 
REMARK   11  A    between atoms: C12_20  and  C13_21 
REMARK   12  A    between atoms: C16_24  and  O3_25 
REMARK   13  A    between atoms: C16_24  and  N4_27 
REMARK   14  A    between atoms: N4_27  and  C17_29 
REMARK   15  A    between atoms: C17_29  and  C18_30 
REMARK   16  A    between atoms: C17_29  and  C24_36 
REMARK   17  A    between atoms: C18_30  and  C19_31 
REMARK   18  A    between atoms: C24_36  and  O4_39 
ROOT
HETATM    1  C11 UNL     1       2.361  45.477  57.151  1.00  0.00     0.159 C 
ENDROOT
BRANCH   1   2
HETATM    2  N3  UNL     1       2.641  44.591  55.960  1.00  0.00    -0.347 N 
HETATM    3  C10 UNL     1       2.188  44.920  54.677  1.00  0.00     0.241 C 
HETATM    4  O2  UNL     1       1.520  45.969  54.529  1.00  0.00    -0.271 OA
ATOM      5  H3  UNL     1       3.173  43.731  56.094  1.00  0.00     0.163 HD
BRANCH   3   6
HETATM    6  C3  UNL     1       2.466  44.068  53.464  1.00  0.00     0.175 C 
BRANCH   6   7
HETATM    7  C2  UNL     1       2.769  42.655  53.833  1.00  0.00     0.030 C 
HETATM    8  C1  UNL     1       1.591  41.857  54.325  1.00  0.00     0.007 C 
ENDBRANCH   6   7
BRANCH   6   9
HETATM    9  N1  UNL     1       1.537  44.376  52.487  1.00  0.00    -0.356 N 
ATOM     10  H1  UNL     1       0.582  44.514  52.818  1.00  0.00     0.162 HD
BRANCH   9  11
HETATM   11  C4  UNL     1       1.722  44.522  51.118  1.00  0.00     0.157 C 
HETATM   12  C5  UNL     1       0.801  45.020  50.123  1.00  0.00     0.078 C 
HETATM   13  N2  UNL     1      -0.056  46.072  50.564  1.00  0.00    -0.102 NA
BRANCH  11  14
HETATM   14  O1  UNL     1       2.507  43.421  50.612  1.00  0.00    -0.345 OA
ATOM     15  H1  UNL     1       3.018  43.709  49.864  1.00  0.00     0.219 HD
ENDBRANCH  11  14
BRANCH  12  16
HETATM   16  C6  UNL     1       0.229  44.106  49.092  1.00  0.00     0.033 C 
HETATM   17  C7  UNL     1      -1.287  44.305  48.973  1.00  0.00     0.016 C 
BRANCH  16  18
HETATM   18  C8  UNL     1       0.779  44.111  47.734  1.00  0.00     0.006 C 
HETATM   19  C9  UNL     1      -0.387  44.312  46.757  1.00  0.00     0.006 C 
ENDBRANCH  16  18
ENDBRANCH  12  16
ENDBRANCH   9  11
ENDBRANCH   6   9
ENDBRANCH   3   6
ENDBRANCH   1   2
BRANCH   1  20
HETATM   20  C12 UNL     1       0.902  45.517  57.240  1.00  0.00     0.037 C 
BRANCH  20  21
HETATM   21  C13 UNL     1       0.247  45.972  58.485  1.00  0.00    -0.020 C 
HETATM   22  C14 UNL     1       0.337  44.912  59.575  1.00  0.00     0.009 C 
HETATM   23  C15 UNL     1      -1.255  46.129  58.175  1.00  0.00     0.009 C 
ENDBRANCH  20  21
ENDBRANCH   1  20
BRANCH   1  24
HETATM   24  C16 UNL     1       3.169  46.679  57.005  1.00  0.00     0.135 C 
BRANCH  24  25
HETATM   25  O3  UNL     1       2.534  47.640  56.369  1.00  0.00    -0.348 OA
ATOM     26  H3  UNL     1       3.123  48.212  55.891  1.00  0.00     0.219 HD
ENDBRANCH  24  25
BRANCH  24  27
HETATM   27  N4  UNL     1       4.443  47.017  57.390  1.00  0.00    -0.365 N 
ATOM     28  H4  UNL     1       5.239  46.583  56.924  1.00  0.00     0.161 HD
BRANCH  27  29
HETATM   29  C17 UNL     1       4.683  48.006  58.473  1.00  0.00     0.117 C 
BRANCH  29  30
HETATM   30  C18 UNL     1       3.889  47.478  59.642  1.00  0.00     0.033 C 
BRANCH  30  31
HETATM   31  C19 UNL     1       3.019  48.508  60.314  1.00  0.00    -0.013 C 
HETATM   32  C20 UNL     1       1.958  49.055  59.390  1.00  0.00     0.005 C 
HETATM   33  C21 UNL     1       0.956  49.613  60.416  1.00  0.00     0.000 C 
HETATM   34  C22 UNL     1       0.784  48.364  61.282  1.00  0.00     0.000 C 
HETATM   35  C23 UNL     1       2.166  47.750  61.333  1.00  0.00     0.005 C 
ENDBRANCH  30  31
ENDBRANCH  29  30
BRANCH  29  36
HETATM   36  C24 UNL     1       6.139  48.144  58.696  1.00  0.00     0.071 C 
HETATM   37  C25 UNL     1       6.846  46.834  58.965  1.00  0.00     0.047 C 
HETATM   38  C26 UNL     1       6.725  48.624  57.351  1.00  0.00     0.047 C 
BRANCH  36  39
HETATM   39  O4  UNL     1       6.545  49.067  59.622  1.00  0.00    -0.389 OA
ATOM     40  H4  UNL     1       6.484  48.819  60.537  1.00  0.00     0.210 HD
ENDBRANCH  36  39
ENDBRANCH  29  36
ENDBRANCH  27  29
ENDBRANCH  24  27
ENDBRANCH   1  24
TORSDOF 18
ENDMDL
MODEL 5
REMARK VINA RESULT: -6.553524824      3.657      7.718
REMARK  18 active torsions:
REMARK  status: ('A' for Active; 'I' for Inactive)
REMARK    1  A    between atoms: C2_2  and  C3_3 
REMARK    2  A    between atoms: C3_3  and  N1_4 
REMARK    3  A    between atoms: C3_3  and  C10_15 
REMARK    4  A    between atoms: N1_4  and  C4_6 
REMARK    5  A    between atoms: C4_6  and  O1_7 
REMARK    6  A    between atoms: C5_9  and  C6_11 
REMARK    7  A    between atoms: C6_11  and  C8_13 
REMARK       I    between atoms: C10_15  and  N3_17 
REMARK    8  A    between atoms: N3_17  and  C11_19 
REMARK    9  A    between atoms: C11_19  and  C12_20 
REMARK   10  A    between atoms: C11_19  and  C16_24 
REMARK   11  A    between atoms: C12_20  and  C13_21 
REMARK   12  A    between atoms: C16_24  and  O3_25 
REMARK   13  A    between atoms: C16_24  and  N4_27 
REMARK   14  A    between atoms: N4_27  and  C17_29 
REMARK   15  A    between atoms: C17_29  and  C18_30 
REMARK   16  A    between atoms: C17_29  and  C24_36 
REMARK   17  A    between atoms: C18_30  and  C19_31 
REMARK   18  A    between atoms: C24_36  and  O4_39 
ROOT
HETATM    1  C11 UNL     1       6.429  47.093  58.030  1.00  0.00     0.159 C 
ENDROOT
BRANCH   1   2
HETATM    2  N3  UNL     1       4.928  47.039  58.190  1.00  0.00    -0.347 N 
HETATM    3  C10 UNL     1       4.261  47.833  59.129  1.00  0.00     0.241 C 
HETATM    4  O2  UNL     1       4.937  48.592  59.861  1.00  0.00    -0.271 OA
ATOM      5  H3  UNL     1       4.388  46.407  57.599  1.00  0.00     0.163 HD
BRANCH   3   6
HETATM    6  C3  UNL     1       2.762  47.817  59.300  1.00  0.00     0.175 C 
BRANCH   6   7
HETATM    7  C2  UNL     1       2.257  49.082  59.907  1.00  0.00     0.030 C 
HETATM    8  C1  UNL     1       1.061  49.687  59.220  1.00  0.00     0.007 C 
ENDBRANCH   6   7
BRANCH   6   9
HETATM    9  N1  UNL     1       2.194  47.287  58.157  1.00  0.00    -0.356 N 
ATOM     10  H1  UNL     1       2.244  47.879  57.327  1.00  0.00     0.162 HD
BRANCH   9  11
HETATM   11  C4  UNL     1       1.564  46.061  57.979  1.00  0.00     0.157 C 
HETATM   12  C5  UNL     1       2.135  44.792  57.594  1.00  0.00     0.078 C 
HETATM   13  N2  UNL     1       3.448  44.541  58.097  1.00  0.00    -0.102 NA
BRANCH  11  14
HETATM   14  O1  UNL     1       0.266  46.263  57.381  1.00  0.00    -0.345 OA
ATOM     15  H1  UNL     1      -0.314  45.550  57.624  1.00  0.00     0.219 HD
ENDBRANCH  11  14
BRANCH  12  16
HETATM   16  C6  UNL     1       1.822  44.189  56.266  1.00  0.00     0.033 C 
HETATM   17  C7  UNL     1       2.426  45.030  55.134  1.00  0.00     0.016 C 
BRANCH  16  18
HETATM   18  C8  UNL     1       2.170  42.790  56.005  1.00  0.00     0.006 C 
HETATM   19  C9  UNL     1       2.131  42.573  54.486  1.00  0.00     0.006 C 
ENDBRANCH  16  18
ENDBRANCH  12  16
ENDBRANCH   9  11
ENDBRANCH   6   9
ENDBRANCH   3   6
ENDBRANCH   1   2
BRANCH   1  20
HETATM   20  C12 UNL     1       6.649  48.101  56.993  1.00  0.00     0.037 C 
BRANCH  20  21
HETATM   21  C13 UNL     1       7.829  48.990  57.061  1.00  0.00    -0.020 C 
HETATM   22  C14 UNL     1       9.031  48.365  56.365  1.00  0.00     0.009 C 
HETATM   23  C15 UNL     1       8.221  49.110  58.548  1.00  0.00     0.009 C 
ENDBRANCH  20  21
ENDBRANCH   1  20
BRANCH   1  24
HETATM   24  C16 UNL     1       6.910  45.725  57.905  1.00  0.00     0.135 C 
BRANCH  24  25
HETATM   25  O3  UNL     1       8.134  45.575  58.361  1.00  0.00    -0.348 OA
ATOM     26  H3  UNL     1       8.165  45.078  59.169  1.00  0.00     0.219 HD
ENDBRANCH  24  25
BRANCH  24  27
HETATM   27  N4  UNL     1       6.357  44.568  57.415  1.00  0.00    -0.365 N 
ATOM     28  H4  UNL     1       5.382  44.567  57.114  1.00  0.00     0.161 HD
BRANCH  27  29
HETATM   29  C17 UNL     1       7.152  43.316  57.314  1.00  0.00     0.117 C 
BRANCH  29  30
HETATM   30  C18 UNL     1       6.376  42.316  58.133  1.00  0.00     0.033 C 
BRANCH  30  31
HETATM   31  C19 UNL     1       7.170  41.676  59.242  1.00  0.00    -0.013 C 
HETATM   32  C20 UNL     1       7.375  40.197  59.023  1.00  0.00     0.005 C 
HETATM   33  C21 UNL     1       8.589  39.946  59.935  1.00  0.00     0.000 C 
HETATM   34  C22 UNL     1       9.519  41.033  59.397  1.00  0.00     0.000 C 
HETATM   35  C23 UNL     1       8.601  42.200  59.103  1.00  0.00     0.005 C 
ENDBRANCH  30  31
ENDBRANCH  29  30
BRANCH  29  36
HETATM   36  C24 UNL     1       7.341  42.970  55.889  1.00  0.00     0.071 C 
HETATM   37  C25 UNL     1       7.868  41.571  55.661  1.00  0.00     0.047 C 
HETATM   38  C26 UNL     1       5.926  42.950  55.270  1.00  0.00     0.047 C 
BRANCH  36  39
HETATM   39  O4  UNL     1       8.062  43.847  55.122  1.00  0.00    -0.389 OA
ATOM     40  H4  UNL     1       8.275  43.576  54.237  1.00  0.00     0.210 HD
ENDBRANCH  36  39
ENDBRANCH  29  36
ENDBRANCH  27  29
ENDBRANCH  24  27
ENDBRANCH   1  24
TORSDOF 18
ENDMDL
