MODEL 1
REMARK VINA RESULT: -5.325916343      0.000      0.000
REMARK  2 active torsions:
REMARK  status: ('A' for Active; 'I' for Inactive)
REMARK       I    between atoms: N1_1  and  C1_5 
REMARK       I    between atoms: C1_5  and  N2_6 
REMARK       I    between atoms: C1_5  and  N3_10 
REMARK    1  A    between atoms: N3_10  and  N4_11 
REMARK    2  A    between atoms: N4_11  and  C2_13 
ROOT
HETATM    1  N1  UNL     1      37.265  -4.176  -5.395  1.00  0.00    -0.035 N 
ATOM      2  H11 UNL     1      37.268  -5.067  -5.891  1.00  0.00     0.278 HD
ATOM      3  H12 UNL     1      36.480  -4.106  -4.747  1.00  0.00     0.278 HD
ATOM      4  H13 UNL     1      38.026  -4.116  -4.718  1.00  0.00     0.278 HD
HETATM    5  C1  UNL     1      37.290  -3.083  -6.323  1.00  0.00     0.490 C 
HETATM    6  N2  UNL     1      37.285  -1.834  -5.628  1.00  0.00    -0.035 N 
ATOM      7  H21 UNL     1      37.303  -1.057  -6.288  1.00  0.00     0.278 HD
ATOM      8  H22 UNL     1      38.046  -1.774  -4.951  1.00  0.00     0.278 HD
ATOM      9  H23 UNL     1      36.500  -1.764  -4.980  1.00  0.00     0.278 HD
HETATM   10  N3  UNL     1      38.393  -3.174  -7.263  1.00  0.00    -0.080 NA
ENDROOT
BRANCH  10  11
HETATM   11  N4  UNL     1      38.343  -4.326  -8.025  1.00  0.00    -0.299 N 
ATOM     12  H4  UNL     1      38.537  -5.225  -7.583  1.00  0.00     0.182 HD
BRANCH  11  13
HETATM   13  C2  UNL     1      38.027  -4.285  -9.422  1.00  0.00     0.059 A 
HETATM   14  C3  UNL     1      38.776  -4.975 -10.344  1.00  0.00     0.033 A 
HETATM   15  C4  UNL     1      38.417  -4.894 -11.681  1.00  0.00     0.019 A 
HETATM   16  C5  UNL     1      37.338  -4.140 -12.056  1.00  0.00     0.088 A 
HETATM   17  N5  UNL     1      36.608  -3.464 -11.134  1.00  0.00    -0.373 N 
HETATM   18  C6  UNL     1      36.947  -3.535  -9.835  1.00  0.00     0.118 A 
ATOM     19  H5  UNL     1      35.807  -2.906 -11.424  1.00  0.00     0.164 HD
ENDBRANCH  11  13
ENDBRANCH  10  11
TORSDOF 2
ENDMDL
MODEL 2
REMARK VINA RESULT: -5.293468094      1.756      5.040
REMARK  2 active torsions:
REMARK  status: ('A' for Active; 'I' for Inactive)
REMARK       I    between atoms: N1_1  and  C1_5 
REMARK       I    between atoms: C1_5  and  N2_6 
REMARK       I    between atoms: C1_5  and  N3_10 
REMARK    1  A    between atoms: N3_10  and  N4_11 
REMARK    2  A    between atoms: N4_11  and  C2_13 
ROOT
HETATM    1  N1  UNL     1      36.426  -5.030 -13.274  1.00  0.00    -0.035 N 
ATOM      2  H11 UNL     1      35.629  -4.986 -12.640  1.00  0.00     0.278 HD
ATOM      3  H12 UNL     1      36.432  -5.894 -13.817  1.00  0.00     0.278 HD
ATOM      4  H13 UNL     1      36.337  -4.367 -14.043  1.00  0.00     0.278 HD
HETATM    5  C1  UNL     1      37.653  -4.845 -12.552  1.00  0.00     0.490 C 
HETATM    6  N2  UNL     1      38.771  -4.907 -13.440  1.00  0.00    -0.035 N 
ATOM      7  H21 UNL     1      39.642  -4.776 -12.927  1.00  0.00     0.278 HD
ATOM      8  H22 UNL     1      38.681  -4.244 -14.210  1.00  0.00     0.278 HD
ATOM      9  H23 UNL     1      38.776  -5.771 -13.983  1.00  0.00     0.278 HD
HETATM   10  N3  UNL     1      37.657  -3.628 -11.762  1.00  0.00    -0.080 NA
ENDROOT
BRANCH  10  11
HETATM   11  N4  UNL     1      36.647  -3.607 -10.818  1.00  0.00    -0.299 N 
ATOM     12  H4  UNL     1      35.677  -3.544 -11.126  1.00  0.00     0.182 HD
BRANCH  11  13
HETATM   13  C2  UNL     1      36.934  -3.671  -9.415  1.00  0.00     0.059 A 
HETATM   14  C3  UNL     1      38.153  -4.109  -8.956  1.00  0.00     0.033 A 
HETATM   15  C4  UNL     1      38.367  -4.147  -7.586  1.00  0.00     0.019 A 
HETATM   16  C5  UNL     1      37.377  -3.754  -6.727  1.00  0.00     0.088 A 
HETATM   17  N5  UNL     1      36.180  -3.325  -7.196  1.00  0.00    -0.373 N 
HETATM   18  C6  UNL     1      35.960  -3.284  -8.521  1.00  0.00     0.118 A 
ATOM     19  H5  UNL     1      35.449  -3.035  -6.546  1.00  0.00     0.164 HD
ENDBRANCH  11  13
ENDBRANCH  10  11
TORSDOF 2
ENDMDL
MODEL 3
REMARK VINA RESULT: -5.230822909      1.079      1.625
REMARK  2 active torsions:
REMARK  status: ('A' for Active; 'I' for Inactive)
REMARK       I    between atoms: N1_1  and  C1_5 
REMARK       I    between atoms: C1_5  and  N2_6 
REMARK       I    between atoms: C1_5  and  N3_10 
REMARK    1  A    between atoms: N3_10  and  N4_11 
REMARK    2  A    between atoms: N4_11  and  C2_13 
ROOT
HETATM    1  N1  UNL     1      37.199  -1.520  -5.442  1.00  0.00    -0.035 N 
ATOM      2  H11 UNL     1      36.723  -1.144  -6.261  1.00  0.00     0.278 HD
ATOM      3  H12 UNL     1      37.837  -0.840  -5.028  1.00  0.00     0.278 HD
ATOM      4  H13 UNL     1      36.564  -1.633  -4.652  1.00  0.00     0.278 HD
HETATM    5  C1  UNL     1      37.867  -2.747  -5.768  1.00  0.00     0.490 C 
HETATM    6  N2  UNL     1      38.535  -3.275  -4.620  1.00  0.00    -0.035 N 
ATOM      7  H21 UNL     1      39.009  -4.147  -4.852  1.00  0.00     0.278 HD
ATOM      8  H22 UNL     1      37.900  -3.388  -3.830  1.00  0.00     0.278 HD
ATOM      9  H23 UNL     1      39.173  -2.594  -4.207  1.00  0.00     0.278 HD
HETATM   10  N3  UNL     1      36.977  -3.723  -6.372  1.00  0.00    -0.080 NA
ENDROOT
BRANCH  10  11
HETATM   11  N4  UNL     1      36.413  -3.266  -7.548  1.00  0.00    -0.299 N 
ATOM     12  H4  UNL     1      35.609  -2.640  -7.506  1.00  0.00     0.182 HD
BRANCH  11  13
HETATM   13  C2  UNL     1      36.932  -3.655  -8.827  1.00  0.00     0.059 A 
HETATM   14  C3  UNL     1      38.070  -4.417  -8.932  1.00  0.00     0.033 A 
HETATM   15  C4  UNL     1      38.520  -4.759 -10.198  1.00  0.00     0.019 A 
HETATM   16  C5  UNL     1      37.834  -4.340 -11.306  1.00  0.00     0.088 A 
HETATM   17  N5  UNL     1      36.712  -3.588 -11.185  1.00  0.00    -0.373 N 
HETATM   18  C6  UNL     1      36.266  -3.250  -9.963  1.00  0.00     0.118 A 
ATOM     19  H5  UNL     1      36.209  -3.282 -12.017  1.00  0.00     0.164 HD
ENDBRANCH  11  13
ENDBRANCH  10  11
TORSDOF 2
ENDMDL
MODEL 4
REMARK VINA RESULT: -5.053681868      1.199      1.491
REMARK  2 active torsions:
REMARK  status: ('A' for Active; 'I' for Inactive)
REMARK       I    between atoms: N1_1  and  C1_5 
REMARK       I    between atoms: C1_5  and  N2_6 
REMARK       I    between atoms: C1_5  and  N3_10 
REMARK    1  A    between atoms: N3_10  and  N4_11 
REMARK    2  A    between atoms: N4_11  and  C2_13 
ROOT
HETATM    1  N1  UNL     1      36.455  -3.017  -7.269  1.00  0.00    -0.035 N 
ATOM      2  H11 UNL     1      36.711  -2.523  -8.124  1.00  0.00     0.278 HD
ATOM      3  H12 UNL     1      36.118  -2.377  -6.549  1.00  0.00     0.278 HD
ATOM      4  H13 UNL     1      35.607  -3.571  -7.390  1.00  0.00     0.278 HD
HETATM    5  C1  UNL     1      37.551  -3.816  -6.802  1.00  0.00     0.490 C 
HETATM    6  N2  UNL     1      37.193  -4.507  -5.603  1.00  0.00    -0.035 N 
ATOM      7  H21 UNL     1      37.972  -5.075  -5.272  1.00  0.00     0.278 HD
ATOM      8  H22 UNL     1      36.345  -5.061  -5.724  1.00  0.00     0.278 HD
ATOM      9  H23 UNL     1      36.856  -3.868  -4.883  1.00  0.00     0.278 HD
HETATM   10  N3  UNL     1      38.054  -4.721  -7.819  1.00  0.00    -0.080 NA
ENDROOT
BRANCH  10  11
HETATM   11  N4  UNL     1      38.512  -4.055  -8.940  1.00  0.00    -0.299 N 
ATOM     12  H4  UNL     1      39.118  -3.243  -8.825  1.00  0.00     0.182 HD
BRANCH  11  13
HETATM   13  C2  UNL     1      38.152  -4.480 -10.261  1.00  0.00     0.059 A 
HETATM   14  C3  UNL     1      38.763  -5.559 -10.854  1.00  0.00     0.033 A 
HETATM   15  C4  UNL     1      38.369  -5.919 -12.134  1.00  0.00     0.019 A 
HETATM   16  C5  UNL     1      37.394  -5.206 -12.777  1.00  0.00     0.088 A 
HETATM   17  N5  UNL     1      36.801  -4.144 -12.178  1.00  0.00    -0.373 N 
HETATM   18  C6  UNL     1      37.174  -3.785 -10.938  1.00  0.00     0.118 A 
ATOM     19  H5  UNL     1      36.075  -3.620 -12.667  1.00  0.00     0.164 HD
ENDBRANCH  11  13
ENDBRANCH  10  11
TORSDOF 2
ENDMDL
MODEL 5
REMARK VINA RESULT: -4.973155238      1.353      1.589
REMARK  2 active torsions:
REMARK  status: ('A' for Active; 'I' for Inactive)
REMARK       I    between atoms: N1_1  and  C1_5 
REMARK       I    between atoms: C1_5  and  N2_6 
REMARK       I    between atoms: C1_5  and  N3_10 
REMARK    1  A    between atoms: N3_10  and  N4_11 
REMARK    2  A    between atoms: N4_11  and  C2_13 
ROOT
HETATM    1  N1  UNL     1      38.685  -3.717  -6.584  1.00  0.00    -0.035 N 
ATOM      2  H11 UNL     1      39.407  -4.227  -7.092  1.00  0.00     0.278 HD
ATOM      3  H12 UNL     1      38.705  -3.924  -5.585  1.00  0.00     0.278 HD
ATOM      4  H13 UNL     1      38.889  -2.718  -6.536  1.00  0.00     0.278 HD
HETATM    5  C1  UNL     1      37.394  -3.970  -7.156  1.00  0.00     0.490 C 
HETATM    6  N2  UNL     1      36.381  -3.255  -6.445  1.00  0.00    -0.035 N 
ATOM      7  H21 UNL     1      35.464  -3.435  -6.852  1.00  0.00     0.278 HD
ATOM      8  H22 UNL     1      36.585  -2.257  -6.397  1.00  0.00     0.278 HD
ATOM      9  H23 UNL     1      36.401  -3.463  -5.446  1.00  0.00     0.278 HD
HETATM   10  N3  UNL     1      37.352  -3.694  -8.581  1.00  0.00    -0.080 NA
ENDROOT
BRANCH  10  11
HETATM   11  N4  UNL     1      38.249  -4.466  -9.296  1.00  0.00    -0.299 N 
ATOM     12  H4  UNL     1      39.077  -4.831  -8.826  1.00  0.00     0.182 HD
BRANCH  11  13
HETATM   13  C2  UNL     1      38.040  -4.763 -10.682  1.00  0.00     0.059 A 
HETATM   14  C3  UNL     1      38.689  -5.809 -11.293  1.00  0.00     0.033 A 
HETATM   15  C4  UNL     1      38.443  -6.043 -12.637  1.00  0.00     0.019 A 
HETATM   16  C5  UNL     1      37.571  -5.243 -13.324  1.00  0.00     0.088 A 
HETATM   17  N5  UNL     1      36.938  -4.215 -12.707  1.00  0.00    -0.373 N 
HETATM   18  C6  UNL     1      37.168  -3.977 -11.405  1.00  0.00     0.118 A 
ATOM     19  H5  UNL     1      36.290  -3.626 -13.228  1.00  0.00     0.164 HD
ENDBRANCH  11  13
ENDBRANCH  10  11
TORSDOF 2
ENDMDL
