MODEL 1
REMARK VINA RESULT: -6.697767543      0.000      0.000
REMARK  12 active torsions:
REMARK  status: ('A' for Active; 'I' for Inactive)
REMARK    1  A    between atoms: C2_2  and  C3_3 
REMARK    2  A    between atoms: C3_3  and  N1_4 
REMARK    3  A    between atoms: N1_4  and  C4_6 
REMARK    4  A    between atoms: C4_6  and  N2_8 
REMARK    5  A    between atoms: N2_8  and  C5_10 
REMARK    6  A    between atoms: C6_13  and  O1_14 
REMARK    7  A    between atoms: O1_14  and  C7_15 
REMARK    8  A    between atoms: C12_23  and  N5_24 
REMARK    9  A    between atoms: N5_24  and  C13_26 
REMARK   10  A    between atoms: C18_31  and  C19_32 
REMARK   11  A    between atoms: C20_33  and  C21_34 
REMARK   12  A    between atoms: C21_34  and  O2_37 
ROOT
HETATM    1  C5  UNL     1      48.666 -42.293  50.671  1.00  0.00     0.128 A 
HETATM    2  N3  UNL     1      48.088 -41.095  50.866  1.00  0.00    -0.320 N 
ATOM      3  H3  UNL     1      47.482 -40.951  51.673  1.00  0.00     0.169 HD
HETATM    4  C6  UNL     1      48.303 -40.075  49.995  1.00  0.00     0.171 A 
HETATM    5  C12 UNL     1      49.139 -40.279  48.883  1.00  0.00     0.082 A 
HETATM    6  C17 UNL     1      49.718 -41.511  48.705  1.00  0.00     0.058 A 
HETATM    7  C18 UNL     1      49.486 -42.523  49.596  1.00  0.00     0.064 A 
ENDROOT
BRANCH   1   8
HETATM    8  N2  UNL     1      48.418 -43.215  51.535  1.00  0.00    -0.318 N 
ATOM      9  H2  UNL     1      48.933 -43.193  52.416  1.00  0.00     0.170 HD
BRANCH   8  10
HETATM   10  C4  UNL     1      47.488 -44.248  51.346  1.00  0.00     0.173 C 
HETATM   11  S1  UNL     1      47.419 -45.404  52.523  1.00  0.00    -0.041 SA
BRANCH  10  12
HETATM   12  N1  UNL     1      46.640 -44.316  50.214  1.00  0.00    -0.364 N 
ATOM     13  H1  UNL     1      45.990 -43.558  50.006  1.00  0.00     0.162 HD
BRANCH  12  14
HETATM   14  C3  UNL     1      46.709 -45.472  49.362  1.00  0.00     0.148 C 
BRANCH  14  15
HETATM   15  C2  UNL     1      46.945 -45.127  47.949  1.00  0.00    -0.018 C 
HETATM   16  C1  UNL     1      46.821 -43.894  47.476  1.00  0.00     0.008 C 
ENDBRANCH  14  15
ENDBRANCH  12  14
ENDBRANCH  10  12
ENDBRANCH   8  10
ENDBRANCH   1   8
BRANCH   7  17
HETATM   17  C19 UNL     1      50.112 -43.825  49.388  1.00  0.00    -0.060 C 
HETATM   18  C20 UNL     1      50.620 -44.906  49.228  1.00  0.00    -0.063 C 
BRANCH  18  19
HETATM   19  C21 UNL     1      51.241 -46.221  49.059  1.00  0.00     0.116 C 
HETATM   20  C22 UNL     1      50.846 -46.790  47.694  1.00  0.00     0.060 C 
HETATM   21  C23 UNL     1      50.729 -47.212  50.091  1.00  0.00     0.060 C 
BRANCH  19  22
HETATM   22  O2  UNL     1      52.613 -46.043  49.159  1.00  0.00    -0.373 OA
HETATM   23  C24 UNL     1      53.061 -45.584  47.905  1.00  0.00     0.204 C 
ENDBRANCH  19  22
ENDBRANCH  18  19
ENDBRANCH   7  17
BRANCH   4  24
HETATM   24  O1  UNL     1      47.755 -38.824  50.116  1.00  0.00    -0.329 OA
BRANCH  24  25
HETATM   25  C7  UNL     1      47.936 -37.988  51.197  1.00  0.00     0.133 C 
HETATM   26  C8  UNL     1      49.351 -37.435  51.289  1.00  0.00     0.060 C 
HETATM   27  C9  UNL     1      49.403 -36.573  52.533  1.00  0.00     0.235 C 
HETATM   28  N4  UNL     1      48.584 -35.392  52.317  1.00  0.00    -0.075 N 
HETATM   29  C10 UNL     1      47.207 -35.843  52.222  1.00  0.00     0.235 C 
ATOM     30  H42 UNL     1      48.722 -34.673  53.027  1.00  0.00     0.277 HD
ATOM     31  H41 UNL     1      48.882 -34.840  51.512  1.00  0.00     0.277 HD
HETATM   32  C11 UNL     1      47.050 -36.739  51.017  1.00  0.00     0.060 C 
ENDBRANCH  24  25
ENDBRANCH   4  24
BRANCH   5  33
HETATM   33  N5  UNL     1      49.350 -39.213  47.991  1.00  0.00    -0.378 N 
ATOM     34  H5  UNL     1      49.884 -38.420  48.349  1.00  0.00     0.160 HD
BRANCH  33  35
HETATM   35  C13 UNL     1      48.898 -39.117  46.632  1.00  0.00     0.019 C 
HETATM   36  C14 UNL     1      48.483 -37.664  46.334  1.00  0.00     0.037 C 
HETATM   37  C15 UNL     1      47.703 -39.965  46.340  1.00  0.00     0.037 C 
HETATM   38  C16 UNL     1      50.033 -39.514  45.713  1.00  0.00     0.037 C 
ENDBRANCH  33  35
ENDBRANCH   5  33
TORSDOF 12
ENDMDL
MODEL 2
REMARK VINA RESULT: -6.637427809      3.789      7.192
REMARK  12 active torsions:
REMARK  status: ('A' for Active; 'I' for Inactive)
REMARK    1  A    between atoms: C2_2  and  C3_3 
REMARK    2  A    between atoms: C3_3  and  N1_4 
REMARK    3  A    between atoms: N1_4  and  C4_6 
REMARK    4  A    between atoms: C4_6  and  N2_8 
REMARK    5  A    between atoms: N2_8  and  C5_10 
REMARK    6  A    between atoms: C6_13  and  O1_14 
REMARK    7  A    between atoms: O1_14  and  C7_15 
REMARK    8  A    between atoms: C12_23  and  N5_24 
REMARK    9  A    between atoms: N5_24  and  C13_26 
REMARK   10  A    between atoms: C18_31  and  C19_32 
REMARK   11  A    between atoms: C20_33  and  C21_34 
REMARK   12  A    between atoms: C21_34  and  O2_37 
ROOT
HETATM    1  C5  UNL     1      49.120 -38.009  46.674  1.00  0.00     0.128 A 
HETATM    2  N3  UNL     1      48.615 -37.674  47.874  1.00  0.00    -0.320 N 
ATOM      3  H3  UNL     1      48.153 -36.772  47.994  1.00  0.00     0.169 HD
HETATM    4  C6  UNL     1      48.714 -38.525  48.928  1.00  0.00     0.171 A 
HETATM    5  C12 UNL     1      49.351 -39.766  48.757  1.00  0.00     0.082 A 
HETATM    6  C17 UNL     1      49.860 -40.087  47.523  1.00  0.00     0.058 A 
HETATM    7  C18 UNL     1      49.747 -39.213  46.477  1.00  0.00     0.064 A 
ENDROOT
BRANCH   1   8
HETATM    8  N2  UNL     1      48.992 -37.155  45.720  1.00  0.00    -0.318 N 
ATOM      9  H2  UNL     1      48.178 -37.241  45.111  1.00  0.00     0.170 HD
BRANCH   8  10
HETATM   10  C4  UNL     1      49.896 -36.114  45.462  1.00  0.00     0.173 C 
HETATM   11  S1  UNL     1      50.267 -35.834  43.878  1.00  0.00    -0.041 SA
BRANCH  10  12
HETATM   12  N1  UNL     1      50.472 -35.329  46.491  1.00  0.00    -0.364 N 
ATOM     13  H1  UNL     1      51.037 -35.764  47.220  1.00  0.00     0.162 HD
BRANCH  12  14
HETATM   14  C3  UNL     1      50.250 -33.908  46.489  1.00  0.00     0.148 C 
BRANCH  14  15
HETATM   15  C2  UNL     1      51.503 -33.134  46.491  1.00  0.00    -0.018 C 
HETATM   16  C1  UNL     1      51.652 -32.001  47.164  1.00  0.00     0.008 C 
ENDBRANCH  14  15
ENDBRANCH  12  14
ENDBRANCH  10  12
ENDBRANCH   8  10
ENDBRANCH   1   8
BRANCH   7  17
HETATM   17  C19 UNL     1      50.296 -39.574  45.173  1.00  0.00    -0.060 C 
HETATM   18  C20 UNL     1      50.751 -39.886  44.101  1.00  0.00    -0.063 C 
BRANCH  18  19
HETATM   19  C21 UNL     1      51.322 -40.278  42.811  1.00  0.00     0.116 C 
HETATM   20  C22 UNL     1      51.513 -39.029  41.948  1.00  0.00     0.060 C 
HETATM   21  C23 UNL     1      50.376 -41.182  42.038  1.00  0.00     0.060 C 
BRANCH  19  22
HETATM   22  O2  UNL     1      52.530 -40.908  43.072  1.00  0.00    -0.373 OA
HETATM   23  C24 UNL     1      53.074 -41.287  41.829  1.00  0.00     0.204 C 
ENDBRANCH  19  22
ENDBRANCH  18  19
ENDBRANCH   7  17
BRANCH   4  24
HETATM   24  O1  UNL     1      48.228 -38.265  50.184  1.00  0.00    -0.329 OA
BRANCH  24  25
HETATM   25  C7  UNL     1      48.189 -37.017  50.768  1.00  0.00     0.133 C 
HETATM   26  C8  UNL     1      46.828 -36.681  51.360  1.00  0.00     0.060 C 
HETATM   27  C9  UNL     1      46.933 -35.280  51.928  1.00  0.00     0.235 C 
HETATM   28  N4  UNL     1      47.814 -35.310  53.082  1.00  0.00    -0.075 N 
HETATM   29  C10 UNL     1      49.145 -35.624  52.592  1.00  0.00     0.235 C 
ATOM     30  H42 UNL     1      47.782 -34.452  53.633  1.00  0.00     0.277 HD
ATOM     31  H41 UNL     1      47.495 -35.946  53.813  1.00  0.00     0.277 HD
HETATM   32  C11 UNL     1      49.145 -37.003  51.978  1.00  0.00     0.060 C 
ENDBRANCH  24  25
ENDBRANCH   4  24
BRANCH   5  33
HETATM   33  N5  UNL     1      49.446 -40.635  49.858  1.00  0.00    -0.378 N 
ATOM     34  H5  UNL     1      50.123 -40.383  50.579  1.00  0.00     0.160 HD
BRANCH  33  35
HETATM   35  C13 UNL     1      48.695 -41.838  50.081  1.00  0.00     0.019 C 
HETATM   36  C14 UNL     1      49.541 -43.053  49.656  1.00  0.00     0.037 C 
HETATM   37  C15 UNL     1      47.430 -41.907  49.289  1.00  0.00     0.037 C 
HETATM   38  C16 UNL     1      48.372 -41.943  51.556  1.00  0.00     0.037 C 
ENDBRANCH  33  35
ENDBRANCH   5  33
TORSDOF 12
ENDMDL
MODEL 3
REMARK VINA RESULT: -6.554271446      4.053      7.725
REMARK  12 active torsions:
REMARK  status: ('A' for Active; 'I' for Inactive)
REMARK    1  A    between atoms: C2_2  and  C3_3 
REMARK    2  A    between atoms: C3_3  and  N1_4 
REMARK    3  A    between atoms: N1_4  and  C4_6 
REMARK    4  A    between atoms: C4_6  and  N2_8 
REMARK    5  A    between atoms: N2_8  and  C5_10 
REMARK    6  A    between atoms: C6_13  and  O1_14 
REMARK    7  A    between atoms: O1_14  and  C7_15 
REMARK    8  A    between atoms: C12_23  and  N5_24 
REMARK    9  A    between atoms: N5_24  and  C13_26 
REMARK   10  A    between atoms: C18_31  and  C19_32 
REMARK   11  A    between atoms: C20_33  and  C21_34 
REMARK   12  A    between atoms: C21_34  and  O2_37 
ROOT
HETATM    1  C5  UNL     1      49.060 -37.378  46.464  1.00  0.00     0.128 A 
HETATM    2  N3  UNL     1      48.640 -37.185  47.727  1.00  0.00    -0.320 N 
ATOM      3  H3  UNL     1      48.180 -36.310  47.978  1.00  0.00     0.169 HD
HETATM    4  C6  UNL     1      48.824 -38.144  48.670  1.00  0.00     0.171 A 
HETATM    5  C12 UNL     1      49.459 -39.348  48.318  1.00  0.00     0.082 A 
HETATM    6  C17 UNL     1      49.879 -39.523  47.023  1.00  0.00     0.058 A 
HETATM    7  C18 UNL     1      49.682 -38.542  46.090  1.00  0.00     0.064 A 
ENDROOT
BRANCH   1   8
HETATM    8  N2  UNL     1      48.853 -36.427  45.621  1.00  0.00    -0.318 N 
ATOM      9  H2  UNL     1      48.210 -36.606  44.849  1.00  0.00     0.170 HD
BRANCH   8  10
HETATM   10  C4  UNL     1      49.453 -35.161  45.694  1.00  0.00     0.173 C 
HETATM   11  S1  UNL     1      48.511 -33.873  45.268  1.00  0.00    -0.041 SA
BRANCH  10  12
HETATM   12  N1  UNL     1      50.793 -34.972  46.109  1.00  0.00    -0.364 N 
ATOM     13  H1  UNL     1      51.164 -35.479  46.912  1.00  0.00     0.162 HD
BRANCH  12  14
HETATM   14  C3  UNL     1      51.624 -34.053  45.379  1.00  0.00     0.148 C 
BRANCH  14  15
HETATM   15  C2  UNL     1      52.191 -32.995  46.232  1.00  0.00    -0.018 C 
HETATM   16  C1  UNL     1      51.454 -32.247  47.043  1.00  0.00     0.008 C 
ENDBRANCH  14  15
ENDBRANCH  12  14
ENDBRANCH  10  12
ENDBRANCH   8  10
ENDBRANCH   1   8
BRANCH   7  17
HETATM   17  C19 UNL     1      50.136 -38.749  44.718  1.00  0.00    -0.060 C 
HETATM   18  C20 UNL     1      50.525 -38.921  43.591  1.00  0.00    -0.063 C 
BRANCH  18  19
HETATM   19  C21 UNL     1      51.019 -39.117  42.226  1.00  0.00     0.116 C 
HETATM   20  C22 UNL     1      49.845 -39.492  41.318  1.00  0.00     0.060 C 
HETATM   21  C23 UNL     1      51.995 -40.279  42.152  1.00  0.00     0.060 C 
BRANCH  19  22
HETATM   22  O2  UNL     1      51.610 -37.927  41.830  1.00  0.00    -0.373 OA
HETATM   23  C24 UNL     1      50.581 -37.100  41.338  1.00  0.00     0.204 C 
ENDBRANCH  19  22
ENDBRANCH  18  19
ENDBRANCH   7  17
BRANCH   4  24
HETATM   24  O1  UNL     1      48.430 -38.031  49.979  1.00  0.00    -0.329 OA
BRANCH  24  25
HETATM   25  C7  UNL     1      48.289 -36.839  50.656  1.00  0.00     0.133 C 
HETATM   26  C8  UNL     1      46.901 -36.657  51.255  1.00  0.00     0.060 C 
HETATM   27  C9  UNL     1      46.891 -35.301  51.929  1.00  0.00     0.235 C 
HETATM   28  N4  UNL     1      47.763 -35.351  53.090  1.00  0.00    -0.075 N 
HETATM   29  C10 UNL     1      49.118 -35.521  52.595  1.00  0.00     0.235 C 
ATOM     30  H42 UNL     1      47.660 -34.544  53.704  1.00  0.00     0.277 HD
ATOM     31  H41 UNL     1      47.490 -36.065  53.765  1.00  0.00     0.277 HD
HETATM   32  C11 UNL     1      49.232 -36.844  51.877  1.00  0.00     0.060 C 
ENDBRANCH  24  25
ENDBRANCH   4  24
BRANCH   5  33
HETATM   33  N5  UNL     1      49.643 -40.330  49.307  1.00  0.00    -0.378 N 
ATOM     34  H5  UNL     1      50.489 -40.253  49.873  1.00  0.00     0.160 HD
BRANCH  33  35
HETATM   35  C13 UNL     1      48.771 -41.430  49.610  1.00  0.00     0.019 C 
HETATM   36  C14 UNL     1      49.530 -42.754  49.398  1.00  0.00     0.037 C 
HETATM   37  C15 UNL     1      47.563 -41.491  48.734  1.00  0.00     0.037 C 
HETATM   38  C16 UNL     1      48.339 -41.324  51.057  1.00  0.00     0.037 C 
ENDBRANCH  33  35
ENDBRANCH   5  33
TORSDOF 12
ENDMDL
MODEL 4
REMARK VINA RESULT: -6.549584350      1.520      2.166
REMARK  12 active torsions:
REMARK  status: ('A' for Active; 'I' for Inactive)
REMARK    1  A    between atoms: C2_2  and  C3_3 
REMARK    2  A    between atoms: C3_3  and  N1_4 
REMARK    3  A    between atoms: N1_4  and  C4_6 
REMARK    4  A    between atoms: C4_6  and  N2_8 
REMARK    5  A    between atoms: N2_8  and  C5_10 
REMARK    6  A    between atoms: C6_13  and  O1_14 
REMARK    7  A    between atoms: O1_14  and  C7_15 
REMARK    8  A    between atoms: C12_23  and  N5_24 
REMARK    9  A    between atoms: N5_24  and  C13_26 
REMARK   10  A    between atoms: C18_31  and  C19_32 
REMARK   11  A    between atoms: C20_33  and  C21_34 
REMARK   12  A    between atoms: C21_34  and  O2_37 
ROOT
HETATM    1  C5  UNL     1      48.826 -42.252  50.620  1.00  0.00     0.128 A 
HETATM    2  N3  UNL     1      48.222 -41.133  51.057  1.00  0.00    -0.320 N 
ATOM      3  H3  UNL     1      47.915 -41.070  52.027  1.00  0.00     0.169 HD
HETATM    4  C6  UNL     1      48.018 -40.086  50.217  1.00  0.00     0.171 A 
HETATM    5  C12 UNL     1      48.444 -40.177  48.880  1.00  0.00     0.082 A 
HETATM    6  C17 UNL     1      49.058 -41.330  48.457  1.00  0.00     0.058 A 
HETATM    7  C18 UNL     1      49.253 -42.371  49.322  1.00  0.00     0.064 A 
ENDROOT
BRANCH   1   8
HETATM    8  N2  UNL     1      48.987 -43.205  51.470  1.00  0.00    -0.318 N 
ATOM      9  H2  UNL     1      49.770 -43.136  52.120  1.00  0.00     0.170 HD
BRANCH   8  10
HETATM   10  C4  UNL     1      48.158 -44.334  51.561  1.00  0.00     0.173 C 
HETATM   11  S1  UNL     1      46.699 -44.241  50.792  1.00  0.00    -0.041 SA
BRANCH  10  12
HETATM   12  N1  UNL     1      48.531 -45.502  52.268  1.00  0.00    -0.364 N 
ATOM     13  H1  UNL     1      48.696 -45.469  53.274  1.00  0.00     0.162 HD
BRANCH  12  14
HETATM   14  C3  UNL     1      48.673 -46.737  51.545  1.00  0.00     0.148 C 
BRANCH  14  15
HETATM   15  C2  UNL     1      49.663 -47.643  52.153  1.00  0.00    -0.018 C 
HETATM   16  C1  UNL     1      50.765 -48.034  51.528  1.00  0.00     0.008 C 
ENDBRANCH  14  15
ENDBRANCH  12  14
ENDBRANCH  10  12
ENDBRANCH   8  10
ENDBRANCH   1   8
BRANCH   7  17
HETATM   17  C19 UNL     1      49.908 -43.588  48.851  1.00  0.00    -0.060 C 
HETATM   18  C20 UNL     1      50.435 -44.597  48.455  1.00  0.00    -0.063 C 
BRANCH  18  19
HETATM   19  C21 UNL     1      51.055 -45.835  47.980  1.00  0.00     0.116 C 
HETATM   20  C22 UNL     1      50.037 -46.975  48.077  1.00  0.00     0.060 C 
HETATM   21  C23 UNL     1      52.225 -46.242  48.859  1.00  0.00     0.060 C 
BRANCH  19  22
HETATM   22  O2  UNL     1      51.453 -45.617  46.669  1.00  0.00    -0.373 OA
HETATM   23  C24 UNL     1      52.799 -45.203  46.711  1.00  0.00     0.204 C 
ENDBRANCH  19  22
ENDBRANCH  18  19
ENDBRANCH   7  17
BRANCH   4  24
HETATM   24  O1  UNL     1      47.412 -38.909  50.576  1.00  0.00    -0.329 OA
BRANCH  24  25
HETATM   25  C7  UNL     1      47.880 -38.049  51.545  1.00  0.00     0.133 C 
HETATM   26  C8  UNL     1      49.338 -37.662  51.341  1.00  0.00     0.060 C 
HETATM   27  C9  UNL     1      49.714 -36.752  52.492  1.00  0.00     0.235 C 
HETATM   28  N4  UNL     1      49.000 -35.495  52.344  1.00  0.00    -0.075 N 
HETATM   29  C10 UNL     1      47.589 -35.785  52.532  1.00  0.00     0.235 C 
ATOM     30  H42 UNL     1      49.345 -34.763  52.965  1.00  0.00     0.277 HD
ATOM     31  H41 UNL     1      49.199 -35.022  51.463  1.00  0.00     0.277 HD
HETATM   32  C11 UNL     1      47.115 -36.714  51.441  1.00  0.00     0.060 C 
ENDBRANCH  24  25
ENDBRANCH   4  24
BRANCH   5  33
HETATM   33  N5  UNL     1      48.223 -39.085  48.023  1.00  0.00    -0.378 N 
ATOM     34  H5  UNL     1      47.255 -38.904  47.757  1.00  0.00     0.160 HD
BRANCH  33  35
HETATM   35  C13 UNL     1      49.211 -38.195  47.481  1.00  0.00     0.019 C 
HETATM   36  C14 UNL     1      50.431 -38.154  48.421  1.00  0.00     0.037 C 
HETATM   37  C15 UNL     1      48.734 -36.786  47.346  1.00  0.00     0.037 C 
HETATM   38  C16 UNL     1      49.639 -38.713  46.124  1.00  0.00     0.037 C 
ENDBRANCH  33  35
ENDBRANCH   5  33
TORSDOF 12
ENDMDL
MODEL 5
REMARK VINA RESULT: -6.506627708      2.679      8.113
REMARK  12 active torsions:
REMARK  status: ('A' for Active; 'I' for Inactive)
REMARK    1  A    between atoms: C2_2  and  C3_3 
REMARK    2  A    between atoms: C3_3  and  N1_4 
REMARK    3  A    between atoms: N1_4  and  C4_6 
REMARK    4  A    between atoms: C4_6  and  N2_8 
REMARK    5  A    between atoms: N2_8  and  C5_10 
REMARK    6  A    between atoms: C6_13  and  O1_14 
REMARK    7  A    between atoms: O1_14  and  C7_15 
REMARK    8  A    between atoms: C12_23  and  N5_24 
REMARK    9  A    between atoms: N5_24  and  C13_26 
REMARK   10  A    between atoms: C18_31  and  C19_32 
REMARK   11  A    between atoms: C20_33  and  C21_34 
REMARK   12  A    between atoms: C21_34  and  O2_37 
ROOT
HETATM    1  C5  UNL     1      49.691 -41.380  47.972  1.00  0.00     0.128 A 
HETATM    2  N3  UNL     1      50.004 -42.588  47.472  1.00  0.00    -0.320 N 
ATOM      3  H3  UNL     1      50.384 -42.661  46.528  1.00  0.00     0.169 HD
HETATM    4  C6  UNL     1      49.819 -43.711  48.212  1.00  0.00     0.171 A 
HETATM    5  C12 UNL     1      49.295 -43.605  49.512  1.00  0.00     0.082 A 
HETATM    6  C17 UNL     1      48.982 -42.361  50.002  1.00  0.00     0.058 A 
HETATM    7  C18 UNL     1      49.178 -41.244  49.237  1.00  0.00     0.064 A 
ENDROOT
BRANCH   1   8
HETATM    8  N2  UNL     1      49.892 -40.358  47.216  1.00  0.00    -0.318 N 
ATOM      9  H2  UNL     1      50.703 -39.771  47.414  1.00  0.00     0.170 HD
BRANCH   8  10
HETATM   10  C4  UNL     1      49.070 -39.997  46.137  1.00  0.00     0.173 C 
HETATM   11  S1  UNL     1      49.758 -40.043  44.637  1.00  0.00    -0.041 SA
BRANCH  10  12
HETATM   12  N1  UNL     1      47.718 -39.610  46.302  1.00  0.00    -0.364 N 
ATOM     13  H1  UNL     1      47.483 -38.708  46.716  1.00  0.00     0.162 HD
BRANCH  12  14
HETATM   14  C3  UNL     1      46.680 -40.510  45.875  1.00  0.00     0.148 C 
BRANCH  14  15
HETATM   15  C2  UNL     1      46.243 -41.425  46.944  1.00  0.00    -0.018 C 
HETATM   16  C1  UNL     1      46.353 -42.744  46.856  1.00  0.00     0.008 C 
ENDBRANCH  14  15
ENDBRANCH  12  14
ENDBRANCH  10  12
ENDBRANCH   8  10
ENDBRANCH   1   8
BRANCH   7  17
HETATM   17  C19 UNL     1      48.838 -39.930  49.777  1.00  0.00    -0.060 C 
HETATM   18  C20 UNL     1      48.570 -38.840  50.216  1.00  0.00    -0.063 C 
BRANCH  18  19
HETATM   19  C21 UNL     1      48.269 -37.513  50.754  1.00  0.00     0.116 C 
HETATM   20  C22 UNL     1      48.416 -36.474  49.639  1.00  0.00     0.060 C 
HETATM   21  C23 UNL     1      49.263 -37.114  51.832  1.00  0.00     0.060 C 
BRANCH  19  22
HETATM   22  O2  UNL     1      46.973 -37.554  51.245  1.00  0.00    -0.373 OA
HETATM   23  C24 UNL     1      46.493 -36.229  51.253  1.00  0.00     0.204 C 
ENDBRANCH  19  22
ENDBRANCH  18  19
ENDBRANCH   7  17
BRANCH   4  24
HETATM   24  O1  UNL     1      50.111 -44.980  47.782  1.00  0.00    -0.329 OA
BRANCH  24  25
HETATM   25  C7  UNL     1      51.355 -45.402  47.366  1.00  0.00     0.133 C 
HETATM   26  C8  UNL     1      52.433 -45.205  48.422  1.00  0.00     0.060 C 
HETATM   27  C9  UNL     1      53.736 -45.676  47.810  1.00  0.00     0.235 C 
HETATM   28  N4  UNL     1      53.676 -47.118  47.642  1.00  0.00    -0.075 N 
HETATM   29  C10 UNL     1      52.663 -47.387  46.637  1.00  0.00     0.235 C 
ATOM     30  H42 UNL     1      54.581 -47.534  47.419  1.00  0.00     0.277 HD
ATOM     31  H41 UNL     1      53.516 -47.617  48.517  1.00  0.00     0.277 HD
HETATM   32  C11 UNL     1      51.317 -46.927  47.141  1.00  0.00     0.060 C 
ENDBRANCH  24  25
ENDBRANCH   4  24
BRANCH   5  33
HETATM   33  N5  UNL     1      49.108 -44.777  50.265  1.00  0.00    -0.378 N 
ATOM     34  H5  UNL     1      49.953 -45.237  50.607  1.00  0.00     0.160 HD
BRANCH  33  35
HETATM   35  C13 UNL     1      47.860 -45.400  50.604  1.00  0.00     0.019 C 
HETATM   36  C14 UNL     1      48.053 -46.927  50.670  1.00  0.00     0.037 C 
HETATM   37  C15 UNL     1      46.779 -45.154  49.602  1.00  0.00     0.037 C 
HETATM   38  C16 UNL     1      47.416 -44.891  51.959  1.00  0.00     0.037 C 
ENDBRANCH  33  35
ENDBRANCH   5  33
TORSDOF 12
ENDMDL
