MODEL 1
REMARK VINA RESULT: -6.007881010      0.000      0.000
REMARK  9 active torsions:
REMARK  status: ('A' for Active; 'I' for Inactive)
REMARK    1  A    between atoms: C2_2  and  C3_3 
REMARK    2  A    between atoms: C3_3  and  C4_4 
REMARK    3  A    between atoms: C6_6  and  O1_7 
REMARK    4  A    between atoms: C14_16  and  O2_17 
REMARK    5  A    between atoms: C15_19  and  O3_20 
REMARK    6  A    between atoms: N1_28  and  C22_29 
REMARK    7  A    between atoms: C22_29  and  C23_30 
REMARK    8  A    between atoms: C23_30  and  C24_31 
REMARK    9  A    between atoms: C24_31  and  N2_32 
REMARK       I    between atoms: N2_32  and  C25_34 
ROOT
HETATM    1  C4  UNL     1      46.822 -44.627  47.959  1.00  0.00     0.185 C 
HETATM    2  C5  UNL     1      46.966 -45.030  46.472  1.00  0.00     0.052 C 
HETATM    3  C6  UNL     1      45.908 -45.693  48.443  1.00  0.00     0.161 C 
HETATM    4  C7  UNL     1      45.508 -45.834  49.818  1.00  0.00     0.016 C 
HETATM    5  C8  UNL     1      44.005 -46.182  49.852  1.00  0.00     0.013 C 
HETATM    6  C9  UNL     1      46.212 -47.030  50.498  1.00  0.00     0.034 C 
HETATM    7  C10 UNL     1      47.170 -46.564  51.502  1.00  0.00    -0.026 C 
HETATM    8  C11 UNL     1      48.566 -46.995  51.500  1.00  0.00     0.001 C 
HETATM    9  C12 UNL     1      49.474 -47.245  50.602  1.00  0.00    -0.053 C 
HETATM   10  C13 UNL     1      50.825 -47.682  51.207  1.00  0.00     0.046 C 
HETATM   11  C14 UNL     1      49.491 -47.211  49.141  1.00  0.00     0.183 C 
HETATM   12  C15 UNL     1      50.135 -46.080  48.419  1.00  0.00     0.118 C 
HETATM   13  C16 UNL     1      51.508 -45.678  48.890  1.00  0.00     0.047 C 
HETATM   14  C17 UNL     1      52.237 -44.900  47.812  1.00  0.00    -0.015 C 
HETATM   15  C18 UNL     1      53.372 -45.698  47.185  1.00  0.00     0.010 C 
HETATM   16  C19 UNL     1      51.369 -44.319  46.765  1.00  0.00     0.006 C 
HETATM   17  C20 UNL     1      50.098 -43.806  47.436  1.00  0.00     0.039 C 
HETATM   18  C21 UNL     1      49.255 -44.959  47.946  1.00  0.00     0.261 C 
HETATM   19  N1  UNL     1      48.102 -44.608  48.674  1.00  0.00     0.108 N 
ENDROOT
BRANCH  19  20
HETATM   20  C22 UNL     1      48.145 -43.430  49.476  1.00  0.00     0.276 C 
BRANCH  20  21
HETATM   21  C23 UNL     1      48.900 -43.332  50.723  1.00  0.00     0.050 C 
BRANCH  21  22
HETATM   22  C24 UNL     1      48.206 -42.339  51.645  1.00  0.00     0.124 C 
BRANCH  22  23
HETATM   23  N2  UNL     1      48.641 -40.995  51.527  1.00  0.00    -0.361 N 
HETATM   24  C25 UNL     1      47.817 -40.039  50.890  1.00  0.00     0.213 C 
HETATM   25  C26 UNL     1      48.197 -38.615  50.738  1.00  0.00     0.117 C 
HETATM   26  O4  UNL     1      46.712 -40.404  50.431  1.00  0.00    -0.274 OA
ATOM     27  H2  UNL     1      49.548 -40.718  51.903  1.00  0.00     0.162 HD
ENDBRANCH  22  23
ENDBRANCH  21  22
ENDBRANCH  20  21
ENDBRANCH  19  20
BRANCH   1  28
HETATM   28  C3  UNL     1      46.200 -43.266  47.829  1.00  0.00     0.070 C 
BRANCH  28  29
HETATM   29  C2  UNL     1      46.321 -42.597  46.512  1.00  0.00    -0.034 C 
HETATM   30  C1  UNL     1      46.391 -41.259  46.427  1.00  0.00     0.007 C 
ENDBRANCH  28  29
ENDBRANCH   1  28
BRANCH   3  31
HETATM   31  O1  UNL     1      44.814 -45.777  47.547  1.00  0.00    -0.393 OA
ATOM     32  H1  UNL     1      44.466 -46.660  47.587  1.00  0.00     0.210 HD
ENDBRANCH   3  31
BRANCH  12  33
HETATM   33  O3  UNL     1      50.575 -46.762  47.206  1.00  0.00    -0.385 OA
ATOM     34  H3  UNL     1      51.502 -46.561  47.226  1.00  0.00     0.210 HD
ENDBRANCH  12  33
BRANCH  11  35
HETATM   35  O2  UNL     1      50.201 -48.433  48.798  1.00  0.00    -0.388 OA
ATOM     36  H2  UNL     1      50.273 -48.877  49.636  1.00  0.00     0.210 HD
ENDBRANCH  11  35
TORSDOF 9
ENDMDL
MODEL 2
REMARK VINA RESULT: -6.002610768      1.569      4.596
REMARK  9 active torsions:
REMARK  status: ('A' for Active; 'I' for Inactive)
REMARK    1  A    between atoms: C2_2  and  C3_3 
REMARK    2  A    between atoms: C3_3  and  C4_4 
REMARK    3  A    between atoms: C6_6  and  O1_7 
REMARK    4  A    between atoms: C14_16  and  O2_17 
REMARK    5  A    between atoms: C15_19  and  O3_20 
REMARK    6  A    between atoms: N1_28  and  C22_29 
REMARK    7  A    between atoms: C22_29  and  C23_30 
REMARK    8  A    between atoms: C23_30  and  C24_31 
REMARK    9  A    between atoms: C24_31  and  N2_32 
REMARK       I    between atoms: N2_32  and  C25_34 
ROOT
HETATM    1  C4  UNL     1      47.895 -46.250  50.087  1.00  0.00     0.185 C 
HETATM    2  C5  UNL     1      46.723 -47.146  49.622  1.00  0.00     0.052 C 
HETATM    3  C6  UNL     1      48.982 -47.257  50.196  1.00  0.00     0.161 C 
HETATM    4  C7  UNL     1      50.343 -46.926  50.524  1.00  0.00     0.016 C 
HETATM    5  C8  UNL     1      50.877 -47.994  51.504  1.00  0.00     0.013 C 
HETATM    6  C9  UNL     1      51.267 -47.017  49.290  1.00  0.00     0.034 C 
HETATM    7  C10 UNL     1      51.726 -45.686  48.888  1.00  0.00    -0.026 C 
HETATM    8  C11 UNL     1      51.568 -45.192  47.522  1.00  0.00     0.001 C 
HETATM    9  C12 UNL     1      50.666 -45.275  46.588  1.00  0.00    -0.053 C 
HETATM   10  C13 UNL     1      51.055 -44.523  45.297  1.00  0.00     0.046 C 
HETATM   11  C14 UNL     1      49.366 -45.934  46.490  1.00  0.00     0.183 C 
HETATM   12  C15 UNL     1      48.108 -45.148  46.617  1.00  0.00     0.118 C 
HETATM   13  C16 UNL     1      48.026 -43.880  45.810  1.00  0.00     0.047 C 
HETATM   14  C17 UNL     1      46.582 -43.452  45.629  1.00  0.00    -0.015 C 
HETATM   15  C18 UNL     1      46.091 -43.651  44.202  1.00  0.00     0.010 C 
HETATM   16  C19 UNL     1      45.630 -44.045  46.594  1.00  0.00     0.006 C 
HETATM   17  C20 UNL     1      46.311 -44.096  47.959  1.00  0.00     0.039 C 
HETATM   18  C21 UNL     1      47.439 -45.110  47.960  1.00  0.00     0.261 C 
HETATM   19  N1  UNL     1      48.208 -45.177  49.138  1.00  0.00     0.108 N 
ENDROOT
BRANCH  19  20
HETATM   20  C22 UNL     1      48.414 -43.976  49.878  1.00  0.00     0.276 C 
BRANCH  20  21
HETATM   21  C23 UNL     1      49.472 -43.015  49.576  1.00  0.00     0.050 C 
BRANCH  21  22
HETATM   22  C24 UNL     1      48.847 -41.761  48.981  1.00  0.00     0.124 C 
BRANCH  22  23
HETATM   23  N2  UNL     1      49.079 -40.564  49.706  1.00  0.00    -0.361 N 
HETATM   24  C25 UNL     1      48.026 -39.962  50.432  1.00  0.00     0.213 C 
HETATM   25  C26 UNL     1      48.193 -38.718  51.220  1.00  0.00     0.117 C 
HETATM   26  O4  UNL     1      46.896 -40.500  50.414  1.00  0.00    -0.274 OA
ATOM     27  H2  UNL     1      50.006 -40.138  49.702  1.00  0.00     0.162 HD
ENDBRANCH  22  23
ENDBRANCH  21  22
ENDBRANCH  20  21
ENDBRANCH  19  20
BRANCH   1  28
HETATM   28  C3  UNL     1      47.366 -45.741  51.398  1.00  0.00     0.070 C 
BRANCH  28  29
HETATM   29  C2  UNL     1      46.006 -46.182  51.786  1.00  0.00    -0.034 C 
HETATM   30  C1  UNL     1      45.773 -46.692  53.006  1.00  0.00     0.007 C 
ENDBRANCH  28  29
ENDBRANCH   1  28
BRANCH   3  31
HETATM   31  O1  UNL     1      48.492 -48.355  50.945  1.00  0.00    -0.393 OA
ATOM     32  H1  UNL     1      48.286 -49.057  50.340  1.00  0.00     0.210 HD
ENDBRANCH   3  31
BRANCH  12  33
HETATM   33  O3  UNL     1      47.221 -45.937  45.768  1.00  0.00    -0.385 OA
ATOM     34  H3  UNL     1      47.643 -45.818  44.926  1.00  0.00     0.210 HD
ENDBRANCH  12  33
BRANCH  11  35
HETATM   35  O2  UNL     1      49.402 -46.524  45.161  1.00  0.00    -0.388 OA
ATOM     36  H2  UNL     1      48.970 -47.361  45.290  1.00  0.00     0.210 HD
ENDBRANCH  11  35
TORSDOF 9
ENDMDL
MODEL 3
REMARK VINA RESULT: -5.657329483      1.350      5.739
REMARK  9 active torsions:
REMARK  status: ('A' for Active; 'I' for Inactive)
REMARK    1  A    between atoms: C2_2  and  C3_3 
REMARK    2  A    between atoms: C3_3  and  C4_4 
REMARK    3  A    between atoms: C6_6  and  O1_7 
REMARK    4  A    between atoms: C14_16  and  O2_17 
REMARK    5  A    between atoms: C15_19  and  O3_20 
REMARK    6  A    between atoms: N1_28  and  C22_29 
REMARK    7  A    between atoms: C22_29  and  C23_30 
REMARK    8  A    between atoms: C23_30  and  C24_31 
REMARK    9  A    between atoms: C24_31  and  N2_32 
REMARK       I    between atoms: N2_32  and  C25_34 
ROOT
HETATM    1  C4  UNL     1      49.752 -46.819  49.106  1.00  0.00     0.185 C 
HETATM    2  C5  UNL     1      49.539 -48.272  48.621  1.00  0.00     0.052 C 
HETATM    3  C6  UNL     1      50.641 -46.301  48.033  1.00  0.00     0.161 C 
HETATM    4  C7  UNL     1      51.084 -44.935  47.957  1.00  0.00     0.016 C 
HETATM    5  C8  UNL     1      52.573 -44.932  47.550  1.00  0.00     0.013 C 
HETATM    6  C9  UNL     1      50.360 -44.160  46.835  1.00  0.00     0.034 C 
HETATM    7  C10 UNL     1      49.458 -43.154  47.399  1.00  0.00    -0.026 C 
HETATM    8  C11 UNL     1      48.047 -43.082  47.027  1.00  0.00     0.001 C 
HETATM    9  C12 UNL     1      47.098 -43.932  46.762  1.00  0.00    -0.053 C 
HETATM   10  C13 UNL     1      45.753 -43.255  46.419  1.00  0.00     0.046 C 
HETATM   11  C14 UNL     1      47.029 -45.391  46.710  1.00  0.00     0.183 C 
HETATM   12  C15 UNL     1      46.404 -46.158  47.821  1.00  0.00     0.118 C 
HETATM   13  C16 UNL     1      45.066 -45.666  48.307  1.00  0.00     0.047 C 
HETATM   14  C17 UNL     1      44.329 -46.764  49.049  1.00  0.00    -0.015 C 
HETATM   15  C18 UNL     1      43.141 -47.302  48.263  1.00  0.00     0.010 C 
HETATM   16  C19 UNL     1      45.180 -47.873  49.530  1.00  0.00     0.006 C 
HETATM   17  C20 UNL     1      46.495 -47.279  50.029  1.00  0.00     0.039 C 
HETATM   18  C21 UNL     1      47.309 -46.728  48.875  1.00  0.00     0.261 C 
HETATM   19  N1  UNL     1      48.501 -46.063  49.221  1.00  0.00     0.108 N 
ENDROOT
BRANCH  19  20
HETATM   20  C22 UNL     1      48.534 -45.333  50.444  1.00  0.00     0.276 C 
BRANCH  20  21
HETATM   21  C23 UNL     1      47.528 -44.341  50.818  1.00  0.00     0.050 C 
BRANCH  21  22
HETATM   22  C24 UNL     1      48.203 -43.225  51.602  1.00  0.00     0.124 C 
BRANCH  22  23
HETATM   23  N2  UNL     1      48.906 -42.273  50.821  1.00  0.00    -0.361 N 
HETATM   24  C25 UNL     1      48.268 -41.077  50.420  1.00  0.00     0.213 C 
HETATM   25  C26 UNL     1      48.938 -40.032  49.612  1.00  0.00     0.117 C 
HETATM   26  O4  UNL     1      47.078 -40.885  50.760  1.00  0.00    -0.274 OA
ATOM     27  H2  UNL     1      49.873 -42.451  50.549  1.00  0.00     0.162 HD
ENDBRANCH  22  23
ENDBRANCH  21  22
ENDBRANCH  20  21
ENDBRANCH  19  20
BRANCH   1  28
HETATM   28  C3  UNL     1      50.423 -47.052  50.430  1.00  0.00     0.070 C 
BRANCH  28  29
HETATM   29  C2  UNL     1      50.152 -48.347  51.097  1.00  0.00    -0.034 C 
HETATM   30  C1  UNL     1      49.356 -48.409  52.176  1.00  0.00     0.007 C 
ENDBRANCH  28  29
ENDBRANCH   1  28
BRANCH   3  31
HETATM   31  O1  UNL     1      51.697 -47.227  47.850  1.00  0.00    -0.393 OA
ATOM     32  H1  UNL     1      52.007 -47.149  46.956  1.00  0.00     0.210 HD
ENDBRANCH   3  31
BRANCH  12  33
HETATM   33  O3  UNL     1      45.894 -47.312  47.087  1.00  0.00    -0.385 OA
ATOM     34  H3  UNL     1      46.601 -47.444  46.468  1.00  0.00     0.210 HD
ENDBRANCH  12  33
BRANCH  11  35
HETATM   35  O2  UNL     1      46.259 -45.634  45.499  1.00  0.00    -0.388 OA
ATOM     36  H2  UNL     1      45.363 -45.634  45.816  1.00  0.00     0.210 HD
ENDBRANCH  11  35
TORSDOF 9
ENDMDL
MODEL 4
REMARK VINA RESULT: -5.614925985      2.245      4.978
REMARK  9 active torsions:
REMARK  status: ('A' for Active; 'I' for Inactive)
REMARK    1  A    between atoms: C2_2  and  C3_3 
REMARK    2  A    between atoms: C3_3  and  C4_4 
REMARK    3  A    between atoms: C6_6  and  O1_7 
REMARK    4  A    between atoms: C14_16  and  O2_17 
REMARK    5  A    between atoms: C15_19  and  O3_20 
REMARK    6  A    between atoms: N1_28  and  C22_29 
REMARK    7  A    between atoms: C22_29  and  C23_30 
REMARK    8  A    between atoms: C23_30  and  C24_31 
REMARK    9  A    between atoms: C24_31  and  N2_32 
REMARK       I    between atoms: N2_32  and  C25_34 
ROOT
HETATM    1  C4  UNL     1      48.277 -41.550  47.871  1.00  0.00     0.185 C 
HETATM    2  C5  UNL     1      49.657 -40.850  47.880  1.00  0.00     0.052 C 
HETATM    3  C6  UNL     1      47.734 -41.064  46.577  1.00  0.00     0.161 C 
HETATM    4  C7  UNL     1      46.473 -41.493  46.031  1.00  0.00     0.016 C 
HETATM    5  C8  UNL     1      45.762 -40.261  45.431  1.00  0.00     0.013 C 
HETATM    6  C9  UNL     1      46.664 -42.463  44.845  1.00  0.00     0.034 C 
HETATM    7  C10 UNL     1      46.228 -43.814  45.206  1.00  0.00    -0.026 C 
HETATM    8  C11 UNL     1      47.094 -44.979  45.037  1.00  0.00     0.001 C 
HETATM    9  C12 UNL     1      48.360 -45.240  45.178  1.00  0.00    -0.053 C 
HETATM   10  C13 UNL     1      48.721 -46.703  44.845  1.00  0.00     0.046 C 
HETATM   11  C14 UNL     1      49.521 -44.446  45.576  1.00  0.00     0.183 C 
HETATM   12  C15 UNL     1      50.092 -44.575  46.945  1.00  0.00     0.118 C 
HETATM   13  C16 UNL     1      50.317 -45.976  47.448  1.00  0.00     0.047 C 
HETATM   14  C17 UNL     1      51.322 -45.982  48.584  1.00  0.00    -0.015 C 
HETATM   15  C18 UNL     1      52.659 -46.585  48.174  1.00  0.00     0.010 C 
HETATM   16  C19 UNL     1      51.523 -44.675  49.247  1.00  0.00     0.006 C 
HETATM   17  C20 UNL     1      50.166 -43.983  49.349  1.00  0.00     0.039 C 
HETATM   18  C21 UNL     1      49.667 -43.572  47.978  1.00  0.00     0.261 C 
HETATM   19  N1  UNL     1      48.376 -43.011  47.933  1.00  0.00     0.108 N 
ENDROOT
BRANCH  19  20
HETATM   20  C22 UNL     1      47.404 -43.483  48.864  1.00  0.00     0.276 C 
BRANCH  20  21
HETATM   21  C23 UNL     1      46.794 -44.809  48.790  1.00  0.00     0.050 C 
BRANCH  21  22
HETATM   22  C24 UNL     1      46.807 -45.436  50.177  1.00  0.00     0.124 C 
BRANCH  22  23
HETATM   23  N2  UNL     1      47.777 -46.451  50.376  1.00  0.00    -0.361 N 
HETATM   24  C25 UNL     1      48.593 -46.433  51.530  1.00  0.00     0.213 C 
HETATM   25  C26 UNL     1      49.620 -47.462  51.813  1.00  0.00     0.117 C 
HETATM   26  O4  UNL     1      48.446 -45.506  52.359  1.00  0.00    -0.274 OA
ATOM     27  H2  UNL     1      47.886 -47.194  49.686  1.00  0.00     0.162 HD
ENDBRANCH  22  23
ENDBRANCH  21  22
ENDBRANCH  20  21
ENDBRANCH  19  20
BRANCH   1  28
HETATM   28  C3  UNL     1      47.641 -40.950  49.093  1.00  0.00     0.070 C 
BRANCH  28  29
HETATM   29  C2  UNL     1      48.527 -40.182  49.999  1.00  0.00    -0.034 C 
HETATM   30  C1  UNL     1      48.028 -39.228  50.800  1.00  0.00     0.007 C 
ENDBRANCH  28  29
ENDBRANCH   1  28
BRANCH   3  31
HETATM   31  O1  UNL     1      47.897 -39.658  46.529  1.00  0.00    -0.393 OA
ATOM     32  H1  UNL     1      47.917 -39.393  45.618  1.00  0.00     0.210 HD
ENDBRANCH   3  31
BRANCH  12  33
HETATM   33  O3  UNL     1      51.494 -44.274  46.672  1.00  0.00    -0.385 OA
ATOM     34  H3  UNL     1      51.916 -44.921  47.224  1.00  0.00     0.210 HD
ENDBRANCH  12  33
BRANCH  11  35
HETATM   35  O2  UNL     1      50.536 -44.856  44.618  1.00  0.00    -0.388 OA
ATOM     36  H2  UNL     1      51.343 -44.575  45.034  1.00  0.00     0.210 HD
ENDBRANCH  11  35
TORSDOF 9
ENDMDL
MODEL 5
REMARK VINA RESULT: -5.602969872      1.445      5.203
REMARK  9 active torsions:
REMARK  status: ('A' for Active; 'I' for Inactive)
REMARK    1  A    between atoms: C2_2  and  C3_3 
REMARK    2  A    between atoms: C3_3  and  C4_4 
REMARK    3  A    between atoms: C6_6  and  O1_7 
REMARK    4  A    between atoms: C14_16  and  O2_17 
REMARK    5  A    between atoms: C15_19  and  O3_20 
REMARK    6  A    between atoms: N1_28  and  C22_29 
REMARK    7  A    between atoms: C22_29  and  C23_30 
REMARK    8  A    between atoms: C23_30  and  C24_31 
REMARK    9  A    between atoms: C24_31  and  N2_32 
REMARK       I    between atoms: N2_32  and  C25_34 
ROOT
HETATM    1  C4  UNL     1      50.500 -45.883  47.899  1.00  0.00     0.185 C 
HETATM    2  C5  UNL     1      50.995 -47.332  48.120  1.00  0.00     0.052 C 
HETATM    3  C6  UNL     1      50.220 -45.910  46.440  1.00  0.00     0.161 C 
HETATM    4  C7  UNL     1      49.644 -44.805  45.720  1.00  0.00     0.016 C 
HETATM    5  C8  UNL     1      50.378 -44.675  44.368  1.00  0.00     0.013 C 
HETATM    6  C9  UNL     1      48.168 -45.071  45.350  1.00  0.00     0.034 C 
HETATM    7  C10 UNL     1      47.278 -44.193  46.112  1.00  0.00    -0.026 C 
HETATM    8  C11 UNL     1      46.161 -44.715  46.898  1.00  0.00     0.001 C 
HETATM    9  C12 UNL     1      45.940 -45.757  47.644  1.00  0.00    -0.053 C 
HETATM   10  C13 UNL     1      44.518 -45.785  48.245  1.00  0.00     0.046 C 
HETATM   11  C14 UNL     1      46.743 -46.915  48.032  1.00  0.00     0.183 C 
HETATM   12  C15 UNL     1      47.359 -46.988  49.385  1.00  0.00     0.118 C 
HETATM   13  C16 UNL     1      46.462 -46.658  50.549  1.00  0.00     0.047 C 
HETATM   14  C17 UNL     1      47.022 -47.232  51.836  1.00  0.00    -0.015 C 
HETATM   15  C18 UNL     1      46.207 -48.410  52.352  1.00  0.00     0.010 C 
HETATM   16  C19 UNL     1      48.461 -47.574  51.794  1.00  0.00     0.006 C 
HETATM   17  C20 UNL     1      49.180 -46.494  50.991  1.00  0.00     0.039 C 
HETATM   18  C21 UNL     1      48.792 -46.564  49.527  1.00  0.00     0.261 C 
HETATM   19  N1  UNL     1      49.317 -45.552  48.699  1.00  0.00     0.108 N 
ENDROOT
BRANCH  19  20
HETATM   20  C22 UNL     1      49.507 -44.255  49.259  1.00  0.00     0.276 C 
BRANCH  20  21
HETATM   21  C23 UNL     1      48.459 -43.238  49.309  1.00  0.00     0.050 C 
BRANCH  21  22
HETATM   22  C24 UNL     1      48.372 -42.689  50.726  1.00  0.00     0.124 C 
BRANCH  22  23
HETATM   23  N2  UNL     1      48.836 -41.360  50.893  1.00  0.00    -0.361 N 
HETATM   24  C25 UNL     1      47.935 -40.277  50.783  1.00  0.00     0.213 C 
HETATM   25  C26 UNL     1      48.341 -38.862  50.953  1.00  0.00     0.117 C 
HETATM   26  O4  UNL     1      46.732 -40.516  50.530  1.00  0.00    -0.274 OA
ATOM     27  H2  UNL     1      49.822 -41.185  51.091  1.00  0.00     0.162 HD
ENDBRANCH  22  23
ENDBRANCH  21  22
ENDBRANCH  20  21
ENDBRANCH  19  20
BRANCH   1  28
HETATM   28  C3  UNL     1      51.718 -45.098  48.297  1.00  0.00     0.070 C 
BRANCH  28  29
HETATM   29  C2  UNL     1      52.952 -45.872  48.569  1.00  0.00    -0.034 C 
HETATM   30  C1  UNL     1      54.154 -45.393  48.213  1.00  0.00     0.007 C 
ENDBRANCH  28  29
ENDBRANCH   1  28
BRANCH   3  31
HETATM   31  O1  UNL     1      51.348 -46.459  45.784  1.00  0.00    -0.393 OA
ATOM     32  H1  UNL     1      51.318 -46.195  44.872  1.00  0.00     0.210 HD
ENDBRANCH   3  31
BRANCH  12  33
HETATM   33  O3  UNL     1      47.364 -48.433  49.591  1.00  0.00    -0.385 OA
ATOM     34  H3  UNL     1      47.607 -48.472  50.509  1.00  0.00     0.210 HD
ENDBRANCH  12  33
BRANCH  11  35
HETATM   35  O2  UNL     1      45.804 -48.018  47.899  1.00  0.00    -0.388 OA
ATOM     36  H2  UNL     1      46.375 -48.777  47.864  1.00  0.00     0.210 HD
ENDBRANCH  11  35
TORSDOF 9
ENDMDL
