MODEL 1
REMARK VINA RESULT: -9.332477726      0.000      0.000
REMARK  8 active torsions:
REMARK  status: ('A' for Active; 'I' for Inactive)
REMARK    1  A    between atoms: N1_1  and  N2_4 
REMARK    2  A    between atoms: N2_4  and  N3_6 
REMARK    3  A    between atoms: N3_6  and  C1_8 
REMARK    4  A    between atoms: C2_11  and  C3_12 
REMARK    5  A    between atoms: C3_12  and  N5_13 
REMARK    6  A    between atoms: N5_13  and  C4_16 
REMARK    7  A    between atoms: C4_16  and  C5_17 
REMARK    8  A    between atoms: C9_22  and  N7_23 
ROOT
HETATM    1  C1  UNL     1      26.304  16.575   9.597  1.00  0.00     0.697 C 
HETATM    2  N4  UNL     1      25.478  15.655   9.272  1.00  0.00    -0.212 N 
ATOM      3  H4  UNL     1      24.807  15.452  10.013  1.00  0.00     0.178 HD
HETATM    4  C2  UNL     1      25.274  14.843   8.110  1.00  0.00     0.190 C 
HETATM    5  C10 UNL     1      25.573  15.571   6.832  1.00  0.00     0.120 C 
HETATM    6  N9  UNL     1      24.747  15.180   5.738  1.00  0.00    -0.085 NA
HETATM    7  N10 UNL     1      26.460  16.469   6.635  1.00  0.00    -0.320 N 
ATOM      8  H10 UNL     1      26.487  16.827   5.681  1.00  0.00     0.169 HD
HETATM    9  C11 UNL     1      27.426  17.064   7.512  1.00  0.00     0.208 C 
HETATM   10  N11 UNL     1      28.518  17.646   6.853  1.00  0.00    -0.063 NA
HETATM   11  N12 UNL     1      27.375  17.119   8.809  1.00  0.00    -0.162 N 
ATOM     12  H12 UNL     1      28.145  17.576   9.298  1.00  0.00     0.187 HD
ENDROOT
BRANCH   4  13
HETATM   13  C3  UNL     1      26.149  13.608   8.220  1.00  0.00     0.265 C 
BRANCH  13  14
HETATM   14  N5  UNL     1      25.552  12.532   7.486  1.00  0.00    -0.068 N 
ATOM     15  H52 UNL     1      25.150  12.849   6.603  1.00  0.00     0.277 HD
ATOM     16  H51 UNL     1      26.252  11.892   7.109  1.00  0.00     0.277 HD
BRANCH  14  17
HETATM   17  C4  UNL     1      24.586  11.851   8.306  1.00  0.00     0.289 C 
BRANCH  17  18
HETATM   18  C5  UNL     1      25.105  10.604   8.925  1.00  0.00     0.036 A 
HETATM   19  C6  UNL     1      24.261   9.601   9.362  1.00  0.00     0.029 A 
HETATM   20  C7  UNL     1      24.757   8.432   9.909  1.00  0.00     0.033 A 
HETATM   21  C8  UNL     1      26.117   8.234  10.034  1.00  0.00     0.096 A 
HETATM   22  N6  UNL     1      26.668   7.033  10.590  1.00  0.00    -0.098 NA
HETATM   23  C9  UNL     1      26.941   9.261   9.590  1.00  0.00     0.198 A 
HETATM   24  N8  UNL     1      26.418  10.392   9.060  1.00  0.00    -0.338 N 
ATOM     25  H8  UNL     1      27.060  11.120   8.748  1.00  0.00     0.167 HD
BRANCH  23  26
HETATM   26  N7  UNL     1      28.335   9.086   9.703  1.00  0.00    -0.096 N 
HETATM   27  O1  UNL     1      28.989   8.719   8.715  1.00  0.00    -0.530 OA
HETATM   28  O2  UNL     1      28.970   9.316  10.900  1.00  0.00    -0.530 OA
ENDBRANCH  23  26
ENDBRANCH  17  18
ENDBRANCH  14  17
ENDBRANCH  13  14
ENDBRANCH   4  13
BRANCH   1  29
HETATM   29  N3  UNL     1      26.128  17.117  10.897  1.00  0.00    -0.118 N 
ATOM     30  H3  UNL     1      26.802  16.898  11.631  1.00  0.00     0.207 HD
BRANCH  29  31
HETATM   31  N2  UNL     1      25.051  17.940  11.177  1.00  0.00    -0.235 N 
ATOM     32  H2  UNL     1      24.600  17.904  12.091  1.00  0.00     0.208 HD
BRANCH  31  33
HETATM   33  N1  UNL     1      24.622  18.753  10.273  1.00  0.00    -0.330 N 
ATOM     34  H12 UNL     1      25.167  19.587  10.053  1.00  0.00     0.178 HD
ATOM     35  H11 UNL     1      23.745  18.552   9.792  1.00  0.00     0.178 HD
ENDBRANCH  31  33
ENDBRANCH  29  31
ENDBRANCH   1  29
TORSDOF 8
ENDMDL
MODEL 2
REMARK VINA RESULT: -9.268831061      1.809      3.579
REMARK  8 active torsions:
REMARK  status: ('A' for Active; 'I' for Inactive)
REMARK    1  A    between atoms: N1_1  and  N2_4 
REMARK    2  A    between atoms: N2_4  and  N3_6 
REMARK    3  A    between atoms: N3_6  and  C1_8 
REMARK    4  A    between atoms: C2_11  and  C3_12 
REMARK    5  A    between atoms: C3_12  and  N5_13 
REMARK    6  A    between atoms: N5_13  and  C4_16 
REMARK    7  A    between atoms: C4_16  and  C5_17 
REMARK    8  A    between atoms: C9_22  and  N7_23 
ROOT
HETATM    1  C1  UNL     1      24.660  14.598   5.449  1.00  0.00     0.697 C 
HETATM    2  N4  UNL     1      24.881  13.660   6.288  1.00  0.00    -0.212 N 
ATOM      3  H4  UNL     1      24.765  12.733   5.878  1.00  0.00     0.178 HD
HETATM    4  C2  UNL     1      25.256  13.606   7.669  1.00  0.00     0.190 C 
HETATM    5  C10 UNL     1      26.191  14.712   8.062  1.00  0.00     0.120 C 
HETATM    6  N9  UNL     1      27.135  14.342   9.064  1.00  0.00    -0.085 NA
HETATM    7  N10 UNL     1      26.221  15.906   7.608  1.00  0.00    -0.320 N 
ATOM      8  H10 UNL     1      26.945  16.492   8.023  1.00  0.00     0.169 HD
HETATM    9  C11 UNL     1      25.423  16.571   6.621  1.00  0.00     0.208 C 
HETATM   10  N11 UNL     1      25.427  17.970   6.726  1.00  0.00    -0.063 NA
HETATM   11  N12 UNL     1      24.732  16.017   5.671  1.00  0.00    -0.162 N 
ATOM     12  H12 UNL     1      24.209  16.627   5.042  1.00  0.00     0.187 HD
ENDROOT
BRANCH   4  13
HETATM   13  C3  UNL     1      23.998  13.664   8.516  1.00  0.00     0.265 C 
BRANCH  13  14
HETATM   14  N5  UNL     1      23.866  12.445   9.260  1.00  0.00    -0.068 N 
ATOM     15  H52 UNL     1      24.499  12.414  10.058  1.00  0.00     0.277 HD
ATOM     16  H51 UNL     1      22.982  12.402   9.768  1.00  0.00     0.277 HD
BRANCH  14  17
HETATM   17  C4  UNL     1      24.041  11.314   8.388  1.00  0.00     0.289 C 
BRANCH  17  18
HETATM   18  C5  UNL     1      24.747  10.174   9.028  1.00  0.00     0.036 A 
HETATM   19  C6  UNL     1      24.061   9.099   9.562  1.00  0.00     0.029 A 
HETATM   20  C7  UNL     1      24.730   8.030  10.129  1.00  0.00     0.033 A 
HETATM   21  C8  UNL     1      26.109   8.007  10.178  1.00  0.00     0.096 A 
HETATM   22  N6  UNL     1      26.837   6.913  10.751  1.00  0.00    -0.098 NA
HETATM   23  C9  UNL     1      26.771   9.103   9.638  1.00  0.00     0.198 A 
HETATM   24  N8  UNL     1      26.082  10.132   9.091  1.00  0.00    -0.338 N 
ATOM     25  H8  UNL     1      26.609  10.916   8.707  1.00  0.00     0.167 HD
BRANCH  23  26
HETATM   26  N7  UNL     1      28.181   9.105   9.671  1.00  0.00    -0.096 N 
HETATM   27  O1  UNL     1      28.770   9.584  10.652  1.00  0.00    -0.530 OA
HETATM   28  O2  UNL     1      28.902   8.583   8.624  1.00  0.00    -0.530 OA
ENDBRANCH  23  26
ENDBRANCH  17  18
ENDBRANCH  14  17
ENDBRANCH  13  14
ENDBRANCH   4  13
BRANCH   1  29
HETATM   29  N3  UNL     1      24.301  14.173   4.143  1.00  0.00    -0.118 N 
ATOM     30  H3  UNL     1      24.063  13.195   3.978  1.00  0.00     0.207 HD
BRANCH  29  31
HETATM   31  N2  UNL     1      24.273  15.074   3.092  1.00  0.00    -0.235 N 
ATOM     32  H2  UNL     1      23.391  15.497   2.802  1.00  0.00     0.208 HD
BRANCH  31  33
HETATM   33  N1  UNL     1      25.369  15.373   2.483  1.00  0.00    -0.330 N 
ATOM     34  H12 UNL     1      26.259  15.079   2.885  1.00  0.00     0.178 HD
ATOM     35  H11 UNL     1      25.330  15.900   1.610  1.00  0.00     0.178 HD
ENDBRANCH  31  33
ENDBRANCH  29  31
ENDBRANCH   1  29
TORSDOF 8
ENDMDL
MODEL 3
REMARK VINA RESULT: -9.210454808      1.434      2.884
REMARK  8 active torsions:
REMARK  status: ('A' for Active; 'I' for Inactive)
REMARK    1  A    between atoms: N1_1  and  N2_4 
REMARK    2  A    between atoms: N2_4  and  N3_6 
REMARK    3  A    between atoms: N3_6  and  C1_8 
REMARK    4  A    between atoms: C2_11  and  C3_12 
REMARK    5  A    between atoms: C3_12  and  N5_13 
REMARK    6  A    between atoms: N5_13  and  C4_16 
REMARK    7  A    between atoms: C4_16  and  C5_17 
REMARK    8  A    between atoms: C9_22  and  N7_23 
ROOT
HETATM    1  C1  UNL     1      24.955  16.230   6.280  1.00  0.00     0.697 C 
HETATM    2  N4  UNL     1      24.833  14.964   6.397  1.00  0.00    -0.212 N 
ATOM      3  H4  UNL     1      24.449  14.529   5.559  1.00  0.00     0.178 HD
HETATM    4  C2  UNL     1      25.112  14.012   7.431  1.00  0.00     0.190 C 
HETATM    5  C10 UNL     1      26.331  14.364   8.233  1.00  0.00     0.120 C 
HETATM    6  N9  UNL     1      27.066  13.233   8.693  1.00  0.00    -0.085 NA
HETATM    7  N10 UNL     1      26.755  15.531   8.534  1.00  0.00    -0.320 N 
ATOM      8  H10 UNL     1      27.608  15.533   9.093  1.00  0.00     0.169 HD
HETATM    9  C11 UNL     1      26.251  16.837   8.230  1.00  0.00     0.208 C 
HETATM   10  N11 UNL     1      26.692  17.842   9.104  1.00  0.00    -0.063 NA
HETATM   11  N12 UNL     1      25.462  17.162   7.250  1.00  0.00    -0.162 N 
ATOM     12  H12 UNL     1      25.185  18.140   7.164  1.00  0.00     0.187 HD
ENDROOT
BRANCH   4  13
HETATM   13  C3  UNL     1      23.902  13.914   8.341  1.00  0.00     0.265 C 
BRANCH  13  14
HETATM   14  N5  UNL     1      24.005  12.735   9.149  1.00  0.00    -0.068 N 
ATOM     15  H52 UNL     1      24.804  12.775   9.783  1.00  0.00     0.277 HD
ATOM     16  H51 UNL     1      23.263  12.684   9.848  1.00  0.00     0.277 HD
BRANCH  14  17
HETATM   17  C4  UNL     1      24.038  11.565   8.312  1.00  0.00     0.289 C 
BRANCH  17  18
HETATM   18  C5  UNL     1      24.706  10.399   8.947  1.00  0.00     0.036 A 
HETATM   19  C6  UNL     1      23.986   9.328   9.444  1.00  0.00     0.029 A 
HETATM   20  C7  UNL     1      24.619   8.235  10.005  1.00  0.00     0.033 A 
HETATM   21  C8  UNL     1      25.996   8.183  10.087  1.00  0.00     0.096 A 
HETATM   22  N6  UNL     1      26.688   7.064  10.656  1.00  0.00    -0.098 NA
HETATM   23  C9  UNL     1      26.693   9.275   9.584  1.00  0.00     0.198 A 
HETATM   24  N8  UNL     1      26.038  10.328   9.041  1.00  0.00    -0.338 N 
ATOM     25  H8  UNL     1      26.589  11.108   8.685  1.00  0.00     0.167 HD
BRANCH  23  26
HETATM   26  N7  UNL     1      28.101   9.248   9.651  1.00  0.00    -0.096 N 
HETATM   27  O1  UNL     1      28.676   9.723  10.642  1.00  0.00    -0.530 OA
HETATM   28  O2  UNL     1      28.835   8.702   8.626  1.00  0.00    -0.530 OA
ENDBRANCH  23  26
ENDBRANCH  17  18
ENDBRANCH  14  17
ENDBRANCH  13  14
ENDBRANCH   4  13
BRANCH   1  29
HETATM   29  N3  UNL     1      24.537  16.768   5.036  1.00  0.00    -0.118 N 
ATOM     30  H3  UNL     1      24.797  16.296   4.169  1.00  0.00     0.207 HD
BRANCH  29  31
HETATM   31  N2  UNL     1      23.781  17.926   4.986  1.00  0.00    -0.235 N 
ATOM     32  H2  UNL     1      23.759  18.560   5.785  1.00  0.00     0.208 HD
BRANCH  31  33
HETATM   33  N1  UNL     1      23.105  18.198   3.923  1.00  0.00    -0.330 N 
ATOM     34  H12 UNL     1      23.516  18.803   3.212  1.00  0.00     0.178 HD
ATOM     35  H11 UNL     1      22.170  17.806   3.808  1.00  0.00     0.178 HD
ENDBRANCH  31  33
ENDBRANCH  29  31
ENDBRANCH   1  29
TORSDOF 8
ENDMDL
MODEL 4
REMARK VINA RESULT: -9.173027279      0.729      1.023
REMARK  8 active torsions:
REMARK  status: ('A' for Active; 'I' for Inactive)
REMARK    1  A    between atoms: N1_1  and  N2_4 
REMARK    2  A    between atoms: N2_4  and  N3_6 
REMARK    3  A    between atoms: N3_6  and  C1_8 
REMARK    4  A    between atoms: C2_11  and  C3_12 
REMARK    5  A    between atoms: C3_12  and  N5_13 
REMARK    6  A    between atoms: N5_13  and  C4_16 
REMARK    7  A    between atoms: C4_16  and  C5_17 
REMARK    8  A    between atoms: C9_22  and  N7_23 
ROOT
HETATM    1  C1  UNL     1      26.750  16.652   9.695  1.00  0.00     0.697 C 
HETATM    2  N4  UNL     1      25.856  15.775   9.438  1.00  0.00    -0.212 N 
ATOM      3  H4  UNL     1      25.260  15.577  10.242  1.00  0.00     0.178 HD
HETATM    4  C2  UNL     1      25.496  15.006   8.285  1.00  0.00     0.190 C 
HETATM    5  C10 UNL     1      25.687  15.760   7.000  1.00  0.00     0.120 C 
HETATM    6  N9  UNL     1      24.733  15.433   5.992  1.00  0.00    -0.085 NA
HETATM    7  N10 UNL     1      26.585  16.627   6.732  1.00  0.00    -0.320 N 
ATOM      8  H10 UNL     1      26.525  17.012   5.790  1.00  0.00     0.169 HD
HETATM    9  C11 UNL     1      27.663  17.158   7.514  1.00  0.00     0.208 C 
HETATM   10  N11 UNL     1      28.702  17.716   6.756  1.00  0.00    -0.063 NA
HETATM   11  N12 UNL     1      27.753  17.176   8.810  1.00  0.00    -0.162 N 
ATOM     12  H12 UNL     1      28.589  17.589   9.225  1.00  0.00     0.187 HD
ENDROOT
BRANCH   4  13
HETATM   13  C3  UNL     1      26.324  13.735   8.269  1.00  0.00     0.265 C 
BRANCH  13  14
HETATM   14  N5  UNL     1      25.627  12.718   7.540  1.00  0.00    -0.068 N 
ATOM     15  H52 UNL     1      25.198  13.084   6.689  1.00  0.00     0.277 HD
ATOM     16  H51 UNL     1      26.266  12.050   7.109  1.00  0.00     0.277 HD
BRANCH  14  17
HETATM   17  C4  UNL     1      24.665  12.071   8.393  1.00  0.00     0.289 C 
BRANCH  17  18
HETATM   18  C5  UNL     1      25.146  10.785   8.961  1.00  0.00     0.036 A 
HETATM   19  C6  UNL     1      24.272   9.787   9.348  1.00  0.00     0.029 A 
HETATM   20  C7  UNL     1      24.732   8.583   9.847  1.00  0.00     0.033 A 
HETATM   21  C8  UNL     1      26.085   8.343   9.974  1.00  0.00     0.096 A 
HETATM   22  N6  UNL     1      26.600   7.104  10.480  1.00  0.00    -0.098 NA
HETATM   23  C9  UNL     1      26.940   9.365   9.580  1.00  0.00     0.198 A 
HETATM   24  N8  UNL     1      26.452  10.531   9.096  1.00  0.00    -0.338 N 
ATOM     25  H8  UNL     1      27.116  11.255   8.821  1.00  0.00     0.167 HD
BRANCH  23  26
HETATM   26  N7  UNL     1      28.328   9.148   9.696  1.00  0.00    -0.096 N 
HETATM   27  O1  UNL     1      28.968   8.737   8.716  1.00  0.00    -0.530 OA
HETATM   28  O2  UNL     1      28.973   9.386  10.886  1.00  0.00    -0.530 OA
ENDBRANCH  23  26
ENDBRANCH  17  18
ENDBRANCH  14  17
ENDBRANCH  13  14
ENDBRANCH   4  13
BRANCH   1  29
HETATM   29  N3  UNL     1      26.736  17.162  11.019  1.00  0.00    -0.118 N 
ATOM     30  H3  UNL     1      26.200  16.680  11.741  1.00  0.00     0.207 HD
BRANCH  29  31
HETATM   31  N2  UNL     1      27.444  18.307  11.340  1.00  0.00    -0.235 N 
ATOM     32  H2  UNL     1      27.149  19.213  10.976  1.00  0.00     0.208 HD
BRANCH  31  33
HETATM   33  N1  UNL     1      28.480  18.220  12.103  1.00  0.00    -0.330 N 
ATOM     34  H12 UNL     1      29.251  17.610  11.830  1.00  0.00     0.178 HD
ATOM     35  H11 UNL     1      28.515  18.763  12.966  1.00  0.00     0.178 HD
ENDBRANCH  31  33
ENDBRANCH  29  31
ENDBRANCH   1  29
TORSDOF 8
ENDMDL
MODEL 5
REMARK VINA RESULT: -8.942161036      1.709      2.273
REMARK  8 active torsions:
REMARK  status: ('A' for Active; 'I' for Inactive)
REMARK    1  A    between atoms: N1_1  and  N2_4 
REMARK    2  A    between atoms: N2_4  and  N3_6 
REMARK    3  A    between atoms: N3_6  and  C1_8 
REMARK    4  A    between atoms: C2_11  and  C3_12 
REMARK    5  A    between atoms: C3_12  and  N5_13 
REMARK    6  A    between atoms: N5_13  and  C4_16 
REMARK    7  A    between atoms: C4_16  and  C5_17 
REMARK    8  A    between atoms: C9_22  and  N7_23 
ROOT
HETATM    1  C1  UNL     1      26.717  15.410   8.132  1.00  0.00     0.697 C 
HETATM    2  N4  UNL     1      26.003  14.455   8.592  1.00  0.00    -0.212 N 
ATOM      3  H4  UNL     1      26.311  14.145   9.514  1.00  0.00     0.178 HD
HETATM    4  C2  UNL     1      24.870  13.719   8.116  1.00  0.00     0.190 C 
HETATM    5  C10 UNL     1      23.925  14.563   7.311  1.00  0.00     0.120 C 
HETATM    6  N9  UNL     1      22.556  14.191   7.452  1.00  0.00    -0.085 NA
HETATM    7  N10 UNL     1      24.215  15.540   6.541  1.00  0.00    -0.320 N 
ATOM      8  H10 UNL     1      23.408  15.970   6.090  1.00  0.00     0.169 HD
HETATM    9  C11 UNL     1      25.469  16.141   6.195  1.00  0.00     0.208 C 
HETATM   10  N11 UNL     1      25.450  16.856   4.988  1.00  0.00    -0.063 NA
HETATM   11  N12 UNL     1      26.574  16.094   6.877  1.00  0.00    -0.162 N 
ATOM     12  H12 UNL     1      27.391  16.573   6.497  1.00  0.00     0.187 HD
ENDROOT
BRANCH   4  13
HETATM   13  C3  UNL     1      25.364  12.552   7.282  1.00  0.00     0.265 C 
BRANCH  13  14
HETATM   14  N5  UNL     1      24.352  11.538   7.232  1.00  0.00    -0.068 N 
ATOM     15  H52 UNL     1      23.571  11.807   6.634  1.00  0.00     0.277 HD
ATOM     16  H51 UNL     1      24.661  10.716   6.713  1.00  0.00     0.277 HD
BRANCH  14  17
HETATM   17  C4  UNL     1      23.923  11.204   8.564  1.00  0.00     0.289 C 
BRANCH  17  18
HETATM   18  C5  UNL     1      24.669  10.067   9.161  1.00  0.00     0.036 A 
HETATM   19  C6  UNL     1      24.022   8.958   9.672  1.00  0.00     0.029 A 
HETATM   20  C7  UNL     1      24.729   7.892  10.198  1.00  0.00     0.033 A 
HETATM   21  C8  UNL     1      26.108   7.908  10.228  1.00  0.00     0.096 A 
HETATM   22  N6  UNL     1      26.876   6.819  10.759  1.00  0.00    -0.098 NA
HETATM   23  C9  UNL     1      26.732   9.036   9.711  1.00  0.00     0.198 A 
HETATM   24  N8  UNL     1      26.006  10.061   9.205  1.00  0.00    -0.338 N 
ATOM     25  H8  UNL     1      26.505  10.871   8.837  1.00  0.00     0.167 HD
BRANCH  23  26
HETATM   26  N7  UNL     1      28.141   9.079   9.725  1.00  0.00    -0.096 N 
HETATM   27  O1  UNL     1      28.774   8.785   8.700  1.00  0.00    -0.530 OA
HETATM   28  O2  UNL     1      28.814   9.442  10.867  1.00  0.00    -0.530 OA
ENDBRANCH  23  26
ENDBRANCH  17  18
ENDBRANCH  14  17
ENDBRANCH  13  14
ENDBRANCH   4  13
BRANCH   1  29
HETATM   29  N3  UNL     1      27.775  15.837   8.975  1.00  0.00    -0.118 N 
ATOM     30  H3  UNL     1      27.827  16.814   9.265  1.00  0.00     0.207 HD
BRANCH  29  31
HETATM   31  N2  UNL     1      28.737  14.941   9.409  1.00  0.00    -0.235 N 
ATOM     32  H2  UNL     1      28.856  14.046   8.935  1.00  0.00     0.208 HD
BRANCH  31  33
HETATM   33  N1  UNL     1      29.481  15.246  10.417  1.00  0.00    -0.330 N 
ATOM     34  H12 UNL     1      30.404  15.648  10.252  1.00  0.00     0.178 HD
ATOM     35  H11 UNL     1      29.136  15.082  11.363  1.00  0.00     0.178 HD
ENDBRANCH  31  33
ENDBRANCH  29  31
ENDBRANCH   1  29
TORSDOF 8
ENDMDL
