MODEL 1
REMARK VINA RESULT: -8.361182114      0.000      0.000
REMARK  9 active torsions:
REMARK  status: ('A' for Active; 'I' for Inactive)
REMARK    1  A    between atoms: C2_2  and  C4_4 
REMARK    2  A    between atoms: C4_4  and  C5_5 
REMARK    3  A    between atoms: C7_7  and  N1_8 
REMARK    4  A    between atoms: C7_7  and  C27_36 
REMARK       I    between atoms: N1_8  and  C8_10 
REMARK    5  A    between atoms: C8_10  and  C9_12 
REMARK    6  A    between atoms: C9_12  and  N2_13 
REMARK       I    between atoms: N2_13  and  C10_15 
REMARK    7  A    between atoms: C10_15  and  C11_17 
REMARK       I    between atoms: C27_36  and  N4_38 
REMARK    8  A    between atoms: N4_38  and  S1_40 
REMARK    9  A    between atoms: S1_40  and  C28_43 
ROOT
HETATM    1  C9  UNL     1      25.105  25.919  19.378  1.00  0.00     0.114 C 
HETATM    2  C16 UNL     1      25.110  24.510  19.760  1.00  0.00     0.041 C 
HETATM    3  C17 UNL     1      25.370  23.415  18.820  1.00  0.00     0.003 C 
HETATM    4  C18 UNL     1      26.284  22.330  19.386  1.00  0.00     0.000 C 
HETATM    5  C19 UNL     1      26.017  22.110  20.860  1.00  0.00     0.000 C 
HETATM    6  C20 UNL     1      27.250  22.343  21.695  1.00  0.00     0.000 C 
HETATM    7  C21 UNL     1      27.013  22.913  23.053  1.00  0.00     0.000 C 
HETATM    8  C22 UNL     1      27.737  24.255  23.235  1.00  0.00     0.000 C 
HETATM    9  C23 UNL     1      26.793  25.416  23.344  1.00  0.00     0.000 C 
HETATM   10  C24 UNL     1      27.191  26.610  22.501  1.00  0.00     0.000 C 
HETATM   11  C25 UNL     1      27.022  26.361  21.009  1.00  0.00     0.003 C 
HETATM   12  C26 UNL     1      25.691  26.757  20.499  1.00  0.00     0.041 C 
ENDROOT
BRANCH   1  13
HETATM   13  C8  UNL     1      23.667  26.358  19.339  1.00  0.00     0.247 C 
HETATM   14  N1  UNL     1      22.619  25.494  18.982  1.00  0.00    -0.340 N 
ATOM     15  H1  UNL     1      22.857  24.528  18.756  1.00  0.00     0.163 HD
HETATM   16  O1  UNL     1      23.410  27.530  19.635  1.00  0.00    -0.271 OA
BRANCH  14  17
HETATM   17  C7  UNL     1      21.227  25.876  18.914  1.00  0.00     0.119 A 
HETATM   18  C5  UNL     1      20.183  24.945  19.418  1.00  0.00     0.026 A 
HETATM   19  C6  UNL     1      20.464  26.238  20.136  1.00  0.00     0.049 A 
BRANCH  18  20
HETATM   20  C4  UNL     1      20.428  23.665  20.096  1.00  0.00     0.011 C 
BRANCH  20  21
HETATM   21  C2  UNL     1      19.246  23.048  20.764  1.00  0.00    -0.022 C 
HETATM   22  C1  UNL     1      18.582  22.077  19.760  1.00  0.00     0.009 C 
HETATM   23  C3  UNL     1      19.543  22.195  21.969  1.00  0.00     0.009 C 
ENDBRANCH  20  21
ENDBRANCH  18  20
BRANCH  17  24
HETATM   24  C27 UNL     1      20.847  26.580  17.675  1.00  0.00     0.259 C 
HETATM   25  O3  UNL     1      20.343  27.739  17.800  1.00  0.00    -0.270 OA
HETATM   26  N4  UNL     1      20.983  26.096  16.360  1.00  0.00    -0.252 N 
ATOM     27  H4  UNL     1      21.391  25.171  16.230  1.00  0.00     0.181 HD
BRANCH  26  28
HETATM   28  S1  UNL     1      20.504  26.964  14.971  1.00  0.00     0.237 S 
HETATM   29  O4  UNL     1      20.889  26.260  13.703  1.00  0.00    -0.205 OA
HETATM   30  O5  UNL     1      18.983  27.027  14.986  1.00  0.00    -0.205 OA
BRANCH  28  31
HETATM   31  C28 UNL     1      21.091  28.618  14.900  1.00  0.00     0.130 A 
HETATM   32  C29 UNL     1      21.852  29.155  13.765  1.00  0.00     0.023 A 
HETATM   33  C30 UNL     1      22.627  28.798  14.972  1.00  0.00     0.023 A 
ENDBRANCH  28  31
ENDBRANCH  26  28
ENDBRANCH  17  24
ENDBRANCH  14  17
ENDBRANCH   1  13
BRANCH   1  34
HETATM   34  N2  UNL     1      25.712  26.355  18.184  1.00  0.00    -0.341 N 
HETATM   35  C10 UNL     1      25.336  26.452  16.865  1.00  0.00     0.249 C 
HETATM   36  O2  UNL     1      24.218  26.126  16.447  1.00  0.00    -0.271 OA
ATOM     37  H2  UNL     1      26.667  26.679  18.336  1.00  0.00     0.163 HD
BRANCH  35  38
HETATM   38  C11 UNL     1      26.307  26.976  15.849  1.00  0.00     0.277 C 
HETATM   39  C12 UNL     1      27.737  26.635  16.203  1.00  0.00     0.043 C 
HETATM   40  C13 UNL     1      28.564  26.952  14.960  1.00  0.00     0.004 C 
HETATM   41  C14 UNL     1      28.327  28.403  14.557  1.00  0.00     0.027 C 
HETATM   42  C15 UNL     1      27.405  29.065  15.574  1.00  0.00     0.233 C 
HETATM   43  N3  UNL     1      26.173  28.370  15.639  1.00  0.00    -0.062 N 
ATOM     44  H32 UNL     1      25.615  28.555  14.806  1.00  0.00     0.278 HD
ATOM     45  H31 UNL     1      25.567  28.782  16.349  1.00  0.00     0.278 HD
ENDBRANCH  35  38
ENDBRANCH   1  34
TORSDOF 9
ENDMDL
MODEL 2
REMARK VINA RESULT: -8.060236863     12.898     18.417
REMARK  9 active torsions:
REMARK  status: ('A' for Active; 'I' for Inactive)
REMARK    1  A    between atoms: C2_2  and  C4_4 
REMARK    2  A    between atoms: C4_4  and  C5_5 
REMARK    3  A    between atoms: C7_7  and  N1_8 
REMARK    4  A    between atoms: C7_7  and  C27_36 
REMARK       I    between atoms: N1_8  and  C8_10 
REMARK    5  A    between atoms: C8_10  and  C9_12 
REMARK    6  A    between atoms: C9_12  and  N2_13 
REMARK       I    between atoms: N2_13  and  C10_15 
REMARK    7  A    between atoms: C10_15  and  C11_17 
REMARK       I    between atoms: C27_36  and  N4_38 
REMARK    8  A    between atoms: N4_38  and  S1_40 
REMARK    9  A    between atoms: S1_40  and  C28_43 
ROOT
HETATM    1  C9  UNL     1       9.672  16.423  12.874  1.00  0.00     0.114 C 
HETATM    2  C16 UNL     1      10.748  16.594  11.903  1.00  0.00     0.041 C 
HETATM    3  C17 UNL     1      11.991  15.817  11.924  1.00  0.00     0.003 C 
HETATM    4  C18 UNL     1      12.443  15.352  10.541  1.00  0.00     0.000 C 
HETATM    5  C19 UNL     1      12.139  16.398   9.491  1.00  0.00     0.000 C 
HETATM    6  C20 UNL     1      11.242  15.861   8.405  1.00  0.00     0.000 C 
HETATM    7  C21 UNL     1      10.287  16.841   7.811  1.00  0.00     0.000 C 
HETATM    8  C22 UNL     1       8.831  16.386   7.989  1.00  0.00     0.000 C 
HETATM    9  C23 UNL     1       8.059  17.259   8.934  1.00  0.00     0.000 C 
HETATM   10  C24 UNL     1       7.229  16.489   9.940  1.00  0.00     0.000 C 
HETATM   11  C25 UNL     1       8.078  15.778  10.984  1.00  0.00     0.003 C 
HETATM   12  C26 UNL     1       8.329  16.598  12.189  1.00  0.00     0.041 C 
ENDROOT
BRANCH   1  13
HETATM   13  C8  UNL     1       9.734  17.599  13.810  1.00  0.00     0.247 C 
HETATM   14  N1  UNL     1      10.916  18.318  14.048  1.00  0.00    -0.340 N 
ATOM     15  H1  UNL     1      11.756  18.028  13.548  1.00  0.00     0.163 HD
HETATM   16  O1  UNL     1       8.694  17.936  14.387  1.00  0.00    -0.271 OA
BRANCH  14  17
HETATM   17  C7  UNL     1      11.027  19.441  14.950  1.00  0.00     0.119 A 
HETATM   18  C5  UNL     1      12.033  20.503  14.683  1.00  0.00     0.026 A 
HETATM   19  C6  UNL     1      10.561  20.797  14.558  1.00  0.00     0.049 A 
BRANCH  18  20
HETATM   20  C4  UNL     1      12.897  20.589  13.499  1.00  0.00     0.011 C 
BRANCH  20  21
HETATM   21  C2  UNL     1      14.073  21.498  13.619  1.00  0.00    -0.022 C 
HETATM   22  C1  UNL     1      14.708  21.647  12.217  1.00  0.00     0.009 C 
HETATM   23  C3  UNL     1      13.771  22.911  14.044  1.00  0.00     0.009 C 
ENDBRANCH  20  21
ENDBRANCH  18  20
BRANCH  17  24
HETATM   24  C27 UNL     1      10.893  19.095  16.378  1.00  0.00     0.259 C 
HETATM   25  O3  UNL     1      10.130  19.824  17.081  1.00  0.00    -0.270 OA
HETATM   26  N4  UNL     1      11.533  18.032  17.045  1.00  0.00    -0.252 N 
ATOM     27  H4  UNL     1      12.146  17.425  16.502  1.00  0.00     0.181 HD
BRANCH  26  28
HETATM   28  S1  UNL     1      11.343  17.700  18.707  1.00  0.00     0.237 S 
HETATM   29  O4  UNL     1      10.459  18.704  19.388  1.00  0.00    -0.205 OA
HETATM   30  O5  UNL     1      10.634  16.356  18.816  1.00  0.00    -0.205 OA
BRANCH  28  31
HETATM   31  C28 UNL     1      12.846  17.567  19.607  1.00  0.00     0.130 A 
HETATM   32  C29 UNL     1      13.666  18.726  19.982  1.00  0.00     0.023 A 
HETATM   33  C30 UNL     1      14.136  17.926  18.832  1.00  0.00     0.023 A 
ENDBRANCH  28  31
ENDBRANCH  26  28
ENDBRANCH  17  24
ENDBRANCH  14  17
ENDBRANCH   1  13
BRANCH   1  34
HETATM   34  N2  UNL     1       9.577  15.260  13.663  1.00  0.00    -0.341 N 
HETATM   35  C10 UNL     1      10.012  14.876  14.910  1.00  0.00     0.249 C 
HETATM   36  O2  UNL     1      10.655  15.614  15.666  1.00  0.00    -0.271 OA
ATOM     37  H2  UNL     1       9.057  14.519  13.194  1.00  0.00     0.163 HD
BRANCH  35  38
HETATM   38  C11 UNL     1       9.710  13.496  15.414  1.00  0.00     0.277 C 
HETATM   39  C12 UNL     1       9.230  12.582  14.309  1.00  0.00     0.043 C 
HETATM   40  C13 UNL     1       9.256  11.171  14.891  1.00  0.00     0.004 C 
HETATM   41  C14 UNL     1       8.420  11.139  16.164  1.00  0.00     0.027 C 
HETATM   42  C15 UNL     1       7.780  12.505  16.383  1.00  0.00     0.233 C 
HETATM   43  N3  UNL     1       8.782  13.501  16.484  1.00  0.00    -0.062 N 
ATOM     44  H32 UNL     1       9.267  13.430  17.378  1.00  0.00     0.278 HD
ATOM     45  H31 UNL     1       8.360  14.423  16.588  1.00  0.00     0.278 HD
ENDBRANCH  35  38
ENDBRANCH   1  34
TORSDOF 9
ENDMDL
MODEL 3
REMARK VINA RESULT: -7.844993176     12.069     17.962
REMARK  9 active torsions:
REMARK  status: ('A' for Active; 'I' for Inactive)
REMARK    1  A    between atoms: C2_2  and  C4_4 
REMARK    2  A    between atoms: C4_4  and  C5_5 
REMARK    3  A    between atoms: C7_7  and  N1_8 
REMARK    4  A    between atoms: C7_7  and  C27_36 
REMARK       I    between atoms: N1_8  and  C8_10 
REMARK    5  A    between atoms: C8_10  and  C9_12 
REMARK    6  A    between atoms: C9_12  and  N2_13 
REMARK       I    between atoms: N2_13  and  C10_15 
REMARK    7  A    between atoms: C10_15  and  C11_17 
REMARK       I    between atoms: C27_36  and  N4_38 
REMARK    8  A    between atoms: N4_38  and  S1_40 
REMARK    9  A    between atoms: S1_40  and  C28_43 
ROOT
HETATM    1  C9  UNL     1       9.786  16.893  13.416  1.00  0.00     0.114 C 
HETATM    2  C16 UNL     1      10.792  16.793  12.363  1.00  0.00     0.041 C 
HETATM    3  C17 UNL     1      11.941  15.884  12.423  1.00  0.00     0.003 C 
HETATM    4  C18 UNL     1      12.227  15.175  11.101  1.00  0.00     0.000 C 
HETATM    5  C19 UNL     1      11.953  16.087   9.925  1.00  0.00     0.000 C 
HETATM    6  C20 UNL     1      10.918  15.509   8.993  1.00  0.00     0.000 C 
HETATM    7  C21 UNL     1      10.030  16.500   8.320  1.00  0.00     0.000 C 
HETATM    8  C22 UNL     1       8.552  16.253   8.658  1.00  0.00     0.000 C 
HETATM    9  C23 UNL     1       7.958  17.339   9.506  1.00  0.00     0.000 C 
HETATM   10  C24 UNL     1       7.134  16.826  10.668  1.00  0.00     0.000 C 
HETATM   11  C25 UNL     1       7.983  16.177  11.752  1.00  0.00     0.003 C 
HETATM   12  C26 UNL     1       8.419  17.126  12.799  1.00  0.00     0.041 C 
ENDROOT
BRANCH   1  13
HETATM   13  C8  UNL     1      10.050  18.177  14.155  1.00  0.00     0.247 C 
HETATM   14  N1  UNL     1      11.340  18.706  14.319  1.00  0.00    -0.340 N 
ATOM     15  H1  UNL     1      12.119  18.196  13.901  1.00  0.00     0.163 HD
HETATM   16  O1  UNL     1       9.083  18.780  14.634  1.00  0.00    -0.271 OA
BRANCH  14  17
HETATM   17  C7  UNL     1      11.643  19.924  15.035  1.00  0.00     0.119 A 
HETATM   18  C5  UNL     1      12.506  20.956  14.400  1.00  0.00     0.026 A 
HETATM   19  C6  UNL     1      11.043  21.224  14.639  1.00  0.00     0.049 A 
BRANCH  18  20
HETATM   20  C4  UNL     1      13.025  20.915  13.028  1.00  0.00     0.011 C 
BRANCH  20  21
HETATM   21  C2  UNL     1      14.475  21.226  12.873  1.00  0.00    -0.022 C 
HETATM   22  C1  UNL     1      14.616  22.339  11.809  1.00  0.00     0.009 C 
HETATM   23  C3  UNL     1      15.161  21.786  14.092  1.00  0.00     0.009 C 
ENDBRANCH  20  21
ENDBRANCH  18  20
BRANCH  17  24
HETATM   24  C27 UNL     1      11.902  19.738  16.475  1.00  0.00     0.259 C 
HETATM   25  O3  UNL     1      10.940  19.969  17.270  1.00  0.00    -0.270 OA
HETATM   26  N4  UNL     1      13.115  19.330  17.063  1.00  0.00    -0.252 N 
ATOM     27  H4  UNL     1      13.902  19.130  16.447  1.00  0.00     0.181 HD
BRANCH  26  28
HETATM   28  S1  UNL     1      13.345  19.151  18.744  1.00  0.00     0.237 S 
HETATM   29  O4  UNL     1      14.428  18.163  19.065  1.00  0.00    -0.205 OA
HETATM   30  O5  UNL     1      13.818  20.497  19.276  1.00  0.00    -0.205 OA
BRANCH  28  31
HETATM   31  C28 UNL     1      11.899  18.717  19.642  1.00  0.00     0.130 A 
HETATM   32  C29 UNL     1      11.911  17.821  20.805  1.00  0.00     0.023 A 
HETATM   33  C30 UNL     1      11.445  17.243  19.528  1.00  0.00     0.023 A 
ENDBRANCH  28  31
ENDBRANCH  26  28
ENDBRANCH  17  24
ENDBRANCH  14  17
ENDBRANCH   1  13
BRANCH   1  34
HETATM   34  N2  UNL     1       9.630  15.876  14.377  1.00  0.00    -0.341 N 
HETATM   35  C10 UNL     1      10.106  15.636  15.645  1.00  0.00     0.249 C 
HETATM   36  O2  UNL     1      10.868  16.404  16.246  1.00  0.00    -0.271 OA
ATOM     37  H2  UNL     1       9.009  15.135  14.054  1.00  0.00     0.163 HD
BRANCH  35  38
HETATM   38  C11 UNL     1       9.705  14.385  16.369  1.00  0.00     0.277 C 
HETATM   39  C12 UNL     1       8.571  13.666  15.673  1.00  0.00     0.043 C 
HETATM   40  C13 UNL     1       8.477  12.293  16.331  1.00  0.00     0.004 C 
HETATM   41  C14 UNL     1       8.303  12.469  17.835  1.00  0.00     0.027 C 
HETATM   42  C15 UNL     1       8.205  13.955  18.161  1.00  0.00     0.233 C 
HETATM   43  N3  UNL     1       9.372  14.627  17.724  1.00  0.00    -0.062 N 
ATOM     44  H32 UNL     1      10.161  14.404  18.331  1.00  0.00     0.278 HD
ATOM     45  H31 UNL     1       9.295  15.628  17.901  1.00  0.00     0.278 HD
ENDBRANCH  35  38
ENDBRANCH   1  34
TORSDOF 9
ENDMDL
MODEL 4
REMARK VINA RESULT: -7.768722310      1.336      1.725
REMARK  9 active torsions:
REMARK  status: ('A' for Active; 'I' for Inactive)
REMARK    1  A    between atoms: C2_2  and  C4_4 
REMARK    2  A    between atoms: C4_4  and  C5_5 
REMARK    3  A    between atoms: C7_7  and  N1_8 
REMARK    4  A    between atoms: C7_7  and  C27_36 
REMARK       I    between atoms: N1_8  and  C8_10 
REMARK    5  A    between atoms: C8_10  and  C9_12 
REMARK    6  A    between atoms: C9_12  and  N2_13 
REMARK       I    between atoms: N2_13  and  C10_15 
REMARK    7  A    between atoms: C10_15  and  C11_17 
REMARK       I    between atoms: C27_36  and  N4_38 
REMARK    8  A    between atoms: N4_38  and  S1_40 
REMARK    9  A    between atoms: S1_40  and  C28_43 
ROOT
HETATM    1  C9  UNL     1      25.435  25.720  19.571  1.00  0.00     0.114 C 
HETATM    2  C16 UNL     1      25.342  24.274  19.747  1.00  0.00     0.041 C 
HETATM    3  C17 UNL     1      25.656  23.306  18.690  1.00  0.00     0.003 C 
HETATM    4  C18 UNL     1      26.459  22.104  19.184  1.00  0.00     0.000 C 
HETATM    5  C19 UNL     1      26.029  21.698  20.577  1.00  0.00     0.000 C 
HETATM    6  C20 UNL     1      27.175  21.746  21.556  1.00  0.00     0.000 C 
HETATM    7  C21 UNL     1      26.818  22.135  22.950  1.00  0.00     0.000 C 
HETATM    8  C22 UNL     1      27.571  23.397  23.393  1.00  0.00     0.000 C 
HETATM    9  C23 UNL     1      26.669  24.583  23.572  1.00  0.00     0.000 C 
HETATM   10  C24 UNL     1      27.202  25.857  22.953  1.00  0.00     0.000 C 
HETATM   11  C25 UNL     1      27.183  25.827  21.431  1.00  0.00     0.003 C 
HETATM   12  C26 UNL     1      25.931  26.362  20.853  1.00  0.00     0.041 C 
ENDROOT
BRANCH   1  13
HETATM   13  C8  UNL     1      24.027  26.238  19.452  1.00  0.00     0.247 C 
HETATM   14  N1  UNL     1      22.993  25.497  18.859  1.00  0.00    -0.340 N 
ATOM     15  H1  UNL     1      23.217  24.564  18.511  1.00  0.00     0.163 HD
HETATM   16  O1  UNL     1      23.785  27.365  19.899  1.00  0.00    -0.271 OA
BRANCH  14  17
HETATM   17  C7  UNL     1      21.633  25.961  18.707  1.00  0.00     0.119 A 
HETATM   18  C5  UNL     1      20.506  25.091  19.137  1.00  0.00     0.026 A 
HETATM   19  C6  UNL     1      20.817  26.362  19.882  1.00  0.00     0.049 A 
BRANCH  18  20
HETATM   20  C4  UNL     1      20.633  23.796  19.819  1.00  0.00     0.011 C 
BRANCH  20  21
HETATM   21  C2  UNL     1      19.354  23.076  20.086  1.00  0.00    -0.022 C 
HETATM   22  C1  UNL     1      19.464  22.406  21.474  1.00  0.00     0.009 C 
HETATM   23  C3  UNL     1      18.123  23.937  20.182  1.00  0.00     0.009 C 
ENDBRANCH  20  21
ENDBRANCH  18  20
BRANCH  17  24
HETATM   24  C27 UNL     1      21.373  26.693  17.452  1.00  0.00     0.259 C 
HETATM   25  O3  UNL     1      21.882  27.850  17.342  1.00  0.00    -0.270 OA
HETATM   26  N4  UNL     1      20.611  26.238  16.360  1.00  0.00    -0.252 N 
ATOM     27  H4  UNL     1      20.197  25.308  16.418  1.00  0.00     0.181 HD
BRANCH  26  28
HETATM   28  S1  UNL     1      20.339  27.149  14.943  1.00  0.00     0.237 S 
HETATM   29  O4  UNL     1      19.950  28.566  15.247  1.00  0.00    -0.205 OA
HETATM   30  O5  UNL     1      21.663  27.216  14.194  1.00  0.00    -0.205 OA
BRANCH  28  31
HETATM   31  C28 UNL     1      19.155  26.461  13.842  1.00  0.00     0.130 A 
HETATM   32  C29 UNL     1      17.753  26.893  13.793  1.00  0.00     0.023 A 
HETATM   33  C30 UNL     1      18.030  25.620  14.492  1.00  0.00     0.023 A 
ENDBRANCH  28  31
ENDBRANCH  26  28
ENDBRANCH  17  24
ENDBRANCH  14  17
ENDBRANCH   1  13
BRANCH   1  34
HETATM   34  N2  UNL     1      26.182  26.282  18.519  1.00  0.00    -0.341 N 
HETATM   35  C10 UNL     1      26.072  26.335  17.149  1.00  0.00     0.249 C 
HETATM   36  O2  UNL     1      25.141  25.819  16.518  1.00  0.00    -0.271 OA
ATOM     37  H2  UNL     1      27.011  26.772  18.855  1.00  0.00     0.163 HD
BRANCH  35  38
HETATM   38  C11 UNL     1      27.117  27.046  16.342  1.00  0.00     0.277 C 
HETATM   39  C12 UNL     1      27.292  28.483  16.781  1.00  0.00     0.043 C 
HETATM   40  C13 UNL     1      28.564  28.978  16.101  1.00  0.00     0.004 C 
HETATM   41  C14 UNL     1      28.440  28.774  14.596  1.00  0.00     0.027 C 
HETATM   42  C15 UNL     1      27.058  28.216  14.275  1.00  0.00     0.233 C 
HETATM   43  N3  UNL     1      26.861  26.988  14.950  1.00  0.00    -0.062 N 
ATOM     44  H32 UNL     1      27.413  26.248  14.516  1.00  0.00     0.278 HD
ATOM     45  H31 UNL     1      25.923  26.630  14.774  1.00  0.00     0.278 HD
ENDBRANCH  35  38
ENDBRANCH   1  34
TORSDOF 9
ENDMDL
MODEL 5
REMARK VINA RESULT: -7.744319337     12.637     17.906
REMARK  9 active torsions:
REMARK  status: ('A' for Active; 'I' for Inactive)
REMARK    1  A    between atoms: C2_2  and  C4_4 
REMARK    2  A    between atoms: C4_4  and  C5_5 
REMARK    3  A    between atoms: C7_7  and  N1_8 
REMARK    4  A    between atoms: C7_7  and  C27_36 
REMARK       I    between atoms: N1_8  and  C8_10 
REMARK    5  A    between atoms: C8_10  and  C9_12 
REMARK    6  A    between atoms: C9_12  and  N2_13 
REMARK       I    between atoms: N2_13  and  C10_15 
REMARK    7  A    between atoms: C10_15  and  C11_17 
REMARK       I    between atoms: C27_36  and  N4_38 
REMARK    8  A    between atoms: N4_38  and  S1_40 
REMARK    9  A    between atoms: S1_40  and  C28_43 
ROOT
HETATM    1  C9  UNL     1       9.697  15.385  14.493  1.00  0.00     0.114 C 
HETATM    2  C16 UNL     1       8.290  15.629  14.193  1.00  0.00     0.041 C 
HETATM    3  C17 UNL     1       7.809  16.110  12.894  1.00  0.00     0.003 C 
HETATM    4  C18 UNL     1       6.545  15.401  12.412  1.00  0.00     0.000 C 
HETATM    5  C19 UNL     1       5.624  15.085  13.570  1.00  0.00     0.000 C 
HETATM    6  C20 UNL     1       5.345  13.607  13.681  1.00  0.00     0.000 C 
HETATM    7  C21 UNL     1       5.161  13.086  15.066  1.00  0.00     0.000 C 
HETATM    8  C22 UNL     1       6.193  11.998  15.400  1.00  0.00     0.000 C 
HETATM    9  C23 UNL     1       7.182  12.433  16.440  1.00  0.00     0.000 C 
HETATM   10  C24 UNL     1       8.618  12.092  16.099  1.00  0.00     0.000 C 
HETATM   11  C25 UNL     1       9.165  12.927  14.950  1.00  0.00     0.003 C 
HETATM   12  C26 UNL     1       9.826  14.173  15.397  1.00  0.00     0.041 C 
ENDROOT
BRANCH   1  13
HETATM   13  C8  UNL     1      10.162  16.516  15.369  1.00  0.00     0.247 C 
HETATM   14  N1  UNL     1       9.717  17.837  15.203  1.00  0.00    -0.340 N 
ATOM     15  H1  UNL     1       9.040  18.020  14.462  1.00  0.00     0.163 HD
HETATM   16  O1  UNL     1      10.970  16.258  16.269  1.00  0.00    -0.271 OA
BRANCH  14  17
HETATM   17  C7  UNL     1      10.150  18.956  16.007  1.00  0.00     0.119 A 
HETATM   18  C5  UNL     1      10.973  20.031  15.391  1.00  0.00     0.026 A 
HETATM   19  C6  UNL     1       9.559  20.309  15.831  1.00  0.00     0.049 A 
BRANCH  18  20
HETATM   20  C4  UNL     1      11.327  20.133  13.969  1.00  0.00     0.011 C 
BRANCH  20  21
HETATM   21  C2  UNL     1      12.679  20.689  13.676  1.00  0.00    -0.022 C 
HETATM   22  C1  UNL     1      13.490  20.697  14.993  1.00  0.00     0.009 C 
HETATM   23  C3  UNL     1      13.525  19.889  12.721  1.00  0.00     0.009 C 
ENDBRANCH  20  21
ENDBRANCH  18  20
BRANCH  17  24
HETATM   24  C27 UNL     1      10.566  18.601  17.377  1.00  0.00     0.259 C 
HETATM   25  O3  UNL     1       9.660  18.210  18.174  1.00  0.00    -0.270 OA
HETATM   26  N4  UNL     1      11.875  18.654  17.895  1.00  0.00    -0.252 N 
ATOM     27  H4  UNL     1      12.624  18.957  17.273  1.00  0.00     0.181 HD
BRANCH  26  28
HETATM   28  S1  UNL     1      12.281  18.241  19.499  1.00  0.00     0.237 S 
HETATM   29  O4  UNL     1      11.393  18.919  20.501  1.00  0.00    -0.205 OA
HETATM   30  O5  UNL     1      12.039  16.745  19.650  1.00  0.00    -0.205 OA
BRANCH  28  31
HETATM   31  C28 UNL     1      13.956  18.542  19.934  1.00  0.00     0.130 A 
HETATM   32  C29 UNL     1      14.368  19.580  20.888  1.00  0.00     0.023 A 
HETATM   33  C30 UNL     1      14.552  19.887  19.454  1.00  0.00     0.023 A 
ENDBRANCH  28  31
ENDBRANCH  26  28
ENDBRANCH  17  24
ENDBRANCH  14  17
ENDBRANCH   1  13
BRANCH   1  34
HETATM   34  N2  UNL     1      10.647  15.228  13.466  1.00  0.00    -0.341 N 
HETATM   35  C10 UNL     1      11.229  16.048  12.527  1.00  0.00     0.249 C 
HETATM   36  O2  UNL     1      10.976  17.254  12.423  1.00  0.00    -0.271 OA
ATOM     37  H2  UNL     1      10.989  14.269  13.401  1.00  0.00     0.163 HD
BRANCH  35  38
HETATM   38  C11 UNL     1      12.229  15.485  11.561  1.00  0.00     0.277 C 
HETATM   39  C12 UNL     1      13.495  16.311  11.509  1.00  0.00     0.043 C 
HETATM   40  C13 UNL     1      14.511  15.473  10.739  1.00  0.00     0.004 C 
HETATM   41  C14 UNL     1      13.928  15.100   9.381  1.00  0.00     0.027 C 
HETATM   42  C15 UNL     1      12.560  15.754   9.223  1.00  0.00     0.233 C 
HETATM   43  N3  UNL     1      11.694  15.326  10.259  1.00  0.00    -0.062 N 
ATOM     44  H32 UNL     1      11.404  14.361  10.106  1.00  0.00     0.278 HD
ATOM     45  H31 UNL     1      10.790  15.792  10.184  1.00  0.00     0.278 HD
ENDBRANCH  35  38
ENDBRANCH   1  34
TORSDOF 9
ENDMDL
