MODEL 1
REMARK VINA RESULT: -7.058714046      0.000      0.000
REMARK  10 active torsions:
REMARK  status: ('A' for Active; 'I' for Inactive)
REMARK    1  A    between atoms: O1_2  and  C2_3 
REMARK    2  A    between atoms: C5_7  and  N1_8 
REMARK    3  A    between atoms: C7_13  and  C8_14 
REMARK    4  A    between atoms: C8_14  and  O4_15 
REMARK    5  A    between atoms: C8_14  and  N2_17 
REMARK    6  A    between atoms: C14_23  and  C15_24 
REMARK    7  A    between atoms: C14_23  and  O6_27 
REMARK    8  A    between atoms: C15_24  and  O5_25 
REMARK    9  A    between atoms: O6_27  and  C16_28 
REMARK   10  A    between atoms: C16_28  and  C17_29 
ROOT
HETATM    1  C8  UNL     1      16.680 -12.862  20.368  1.00  0.00     0.398 C 
ENDROOT
BRANCH   1   2
HETATM    2  C7  UNL     1      17.725 -13.540  21.123  1.00  0.00     0.075 A 
HETATM    3  C2  UNL     1      18.984 -13.683  20.582  1.00  0.00     0.083 A 
HETATM    4  C3  UNL     1      20.007 -14.323  21.267  1.00  0.00     0.064 A 
HETATM    5  C4  UNL     1      19.789 -14.839  22.524  1.00  0.00     0.072 A 
HETATM    6 CL1  UNL     1      21.068 -15.658  23.423  1.00  0.00    -0.082 Cl
HETATM    7  C5  UNL     1      18.536 -14.705  23.082  1.00  0.00     0.163 A 
HETATM    8  C6  UNL     1      17.513 -14.057  22.380  1.00  0.00     0.164 A 
HETATM    9  F1  UNL     1      16.283 -13.948  22.973  1.00  0.00    -0.203 F 
BRANCH   3  10
HETATM   10  O1  UNL     1      19.233 -13.181  19.333  1.00  0.00    -0.355 OA
HETATM   11  C1  UNL     1      20.480 -12.827  18.818  1.00  0.00     0.210 C 
ENDBRANCH   3  10
BRANCH   7  12
HETATM   12  N1  UNL     1      18.328 -15.240  24.370  1.00  0.00    -0.111 N 
HETATM   13  O2  UNL     1      18.690 -14.596  25.361  1.00  0.00    -0.532 OA
HETATM   14  O3  UNL     1      17.734 -16.455  24.536  1.00  0.00    -0.532 OA
ENDBRANCH   7  12
ENDBRANCH   1   2
BRANCH   1  15
HETATM   15  O4  UNL     1      16.428 -11.580  20.922  1.00  0.00    -0.364 OA
ATOM     16  H4  UNL     1      16.656 -10.902  20.297  1.00  0.00     0.212 HD
ENDBRANCH   1  15
BRANCH   1  17
HETATM   17  N2  UNL     1      15.423 -13.527  20.333  1.00  0.00     0.131 N 
HETATM   18  C9  UNL     1      14.414 -12.743  19.687  1.00  0.00     0.230 C 
HETATM   19  C10 UNL     1      14.662 -12.990  18.194  1.00  0.00     0.038 C 
HETATM   20  C18 UNL     1      13.039 -13.256  19.999  1.00  0.00     0.076 C 
HETATM   21  C11 UNL     1      15.014 -14.456  18.193  1.00  0.00     0.038 C 
HETATM   22  C12 UNL     1      15.352 -14.768  19.651  1.00  0.00     0.230 C 
HETATM   23  C13 UNL     1      14.145 -15.516  20.199  1.00  0.00     0.076 C 
HETATM   24  C14 UNL     1      13.006 -14.642  20.547  1.00  0.00     0.086 C 
BRANCH  24  25
HETATM   25  C15 UNL     1      12.961 -14.515  22.077  1.00  0.00     0.202 C 
BRANCH  25  26
HETATM   26  O5  UNL     1      12.691 -15.750  22.658  1.00  0.00    -0.398 OA
ATOM     27  H5  UNL     1      12.090 -15.648  23.387  1.00  0.00     0.209 HD
ENDBRANCH  25  26
ENDBRANCH  24  25
BRANCH  24  28
HETATM   28  O6  UNL     1      11.826 -15.234  20.081  1.00  0.00    -0.376 OA
BRANCH  28  29
HETATM   29  C16 UNL     1      12.036 -16.331  19.288  1.00  0.00     0.200 C 
BRANCH  29  30
HETATM   30  C17 UNL     1      10.922 -17.319  19.572  1.00  0.00     0.248 C 
HETATM   31  F2  UNL     1      10.839 -17.620  20.923  1.00  0.00    -0.253 F 
ENDBRANCH  29  30
ENDBRANCH  28  29
ENDBRANCH  24  28
ENDBRANCH   1  17
TORSDOF 10
ENDMDL
MODEL 2
REMARK VINA RESULT: -6.949137825      3.316      6.923
REMARK  10 active torsions:
REMARK  status: ('A' for Active; 'I' for Inactive)
REMARK    1  A    between atoms: O1_2  and  C2_3 
REMARK    2  A    between atoms: C5_7  and  N1_8 
REMARK    3  A    between atoms: C7_13  and  C8_14 
REMARK    4  A    between atoms: C8_14  and  O4_15 
REMARK    5  A    between atoms: C8_14  and  N2_17 
REMARK    6  A    between atoms: C14_23  and  C15_24 
REMARK    7  A    between atoms: C14_23  and  O6_27 
REMARK    8  A    between atoms: C15_24  and  O5_25 
REMARK    9  A    between atoms: O6_27  and  C16_28 
REMARK   10  A    between atoms: C16_28  and  C17_29 
ROOT
HETATM    1  C8  UNL     1      16.120 -14.536  20.805  1.00  0.00     0.398 C 
ENDROOT
BRANCH   1   2
HETATM    2  C7  UNL     1      14.897 -13.910  21.290  1.00  0.00     0.075 A 
HETATM    3  C2  UNL     1      13.886 -14.687  21.812  1.00  0.00     0.083 A 
HETATM    4  C3  UNL     1      12.704 -14.132  22.283  1.00  0.00     0.064 A 
HETATM    5  C4  UNL     1      12.509 -12.770  22.241  1.00  0.00     0.072 A 
HETATM    6 CL1  UNL     1      11.019 -12.031  22.833  1.00  0.00    -0.082 Cl
HETATM    7  C5  UNL     1      13.510 -11.976  21.723  1.00  0.00     0.163 A 
HETATM    8  C6  UNL     1      14.696 -12.550  21.251  1.00  0.00     0.164 A 
HETATM    9  F1  UNL     1      15.663 -11.723  20.743  1.00  0.00    -0.203 F 
BRANCH   3  10
HETATM   10  O1  UNL     1      14.049 -16.045  21.867  1.00  0.00    -0.355 OA
HETATM   11  C1  UNL     1      13.074 -17.007  21.602  1.00  0.00     0.210 C 
ENDBRANCH   3  10
BRANCH   7  12
HETATM   12  N1  UNL     1      13.294 -10.583  21.687  1.00  0.00    -0.111 N 
HETATM   13  O2  UNL     1      13.542  -9.903  22.689  1.00  0.00    -0.532 OA
HETATM   14  O3  UNL     1      12.816  -9.979  20.563  1.00  0.00    -0.532 OA
ENDBRANCH   7  12
ENDBRANCH   1   2
BRANCH   1  15
HETATM   15  O4  UNL     1      15.808 -15.621  19.946  1.00  0.00    -0.364 OA
ATOM     16  H4  UNL     1      15.155 -15.359  19.309  1.00  0.00     0.212 HD
ENDBRANCH   1  15
BRANCH   1  17
HETATM   17  N2  UNL     1      16.973 -15.067  21.812  1.00  0.00     0.131 N 
HETATM   18  C9  UNL     1      18.159 -15.652  21.262  1.00  0.00     0.230 C 
HETATM   19  C10 UNL     1      19.079 -14.448  21.022  1.00  0.00     0.038 C 
HETATM   20  C18 UNL     1      18.843 -16.541  22.258  1.00  0.00     0.076 C 
HETATM   21  C11 UNL     1      18.790 -13.608  22.240  1.00  0.00     0.038 C 
HETATM   22  C12 UNL     1      17.478 -14.172  22.788  1.00  0.00     0.230 C 
HETATM   23  C13 UNL     1      17.867 -15.001  24.004  1.00  0.00     0.076 C 
HETATM   24  C14 UNL     1      18.414 -16.332  23.671  1.00  0.00     0.086 C 
BRANCH  24  25
HETATM   25  C15 UNL     1      17.325 -17.376  23.964  1.00  0.00     0.202 C 
BRANCH  25  26
HETATM   26  O5  UNL     1      16.762 -17.150  25.216  1.00  0.00    -0.398 OA
ATOM     27  H5  UNL     1      17.255 -17.606  25.887  1.00  0.00     0.209 HD
ENDBRANCH  25  26
ENDBRANCH  24  25
BRANCH  24  28
HETATM   28  O6  UNL     1      19.534 -16.572  24.475  1.00  0.00    -0.376 OA
BRANCH  28  29
HETATM   29  C16 UNL     1      20.726 -16.433  23.814  1.00  0.00     0.200 C 
BRANCH  29  30
HETATM   30  C17 UNL     1      21.461 -15.264  24.440  1.00  0.00     0.248 C 
HETATM   31  F2  UNL     1      21.774 -14.296  23.500  1.00  0.00    -0.253 F 
ENDBRANCH  29  30
ENDBRANCH  28  29
ENDBRANCH  24  28
ENDBRANCH   1  17
TORSDOF 10
ENDMDL
MODEL 3
REMARK VINA RESULT: -6.832802187      2.669      4.014
REMARK  10 active torsions:
REMARK  status: ('A' for Active; 'I' for Inactive)
REMARK    1  A    between atoms: O1_2  and  C2_3 
REMARK    2  A    between atoms: C5_7  and  N1_8 
REMARK    3  A    between atoms: C7_13  and  C8_14 
REMARK    4  A    between atoms: C8_14  and  O4_15 
REMARK    5  A    between atoms: C8_14  and  N2_17 
REMARK    6  A    between atoms: C14_23  and  C15_24 
REMARK    7  A    between atoms: C14_23  and  O6_27 
REMARK    8  A    between atoms: C15_24  and  O5_25 
REMARK    9  A    between atoms: O6_27  and  C16_28 
REMARK   10  A    between atoms: C16_28  and  C17_29 
ROOT
HETATM    1  C8  UNL     1      15.180 -14.847  20.057  1.00  0.00     0.398 C 
ENDROOT
BRANCH   1   2
HETATM    2  C7  UNL     1      16.558 -14.382  20.138  1.00  0.00     0.075 A 
HETATM    3  C2  UNL     1      16.981 -13.341  19.341  1.00  0.00     0.083 A 
HETATM    4  C3  UNL     1      18.286 -12.868  19.385  1.00  0.00     0.064 A 
HETATM    5  C4  UNL     1      19.203 -13.434  20.241  1.00  0.00     0.072 A 
HETATM    6 CL1  UNL     1      20.869 -12.856  20.323  1.00  0.00    -0.082 Cl
HETATM    7  C5  UNL     1      18.797 -14.476  21.047  1.00  0.00     0.163 A 
HETATM    8  C6  UNL     1      17.479 -14.943  20.991  1.00  0.00     0.164 A 
HETATM    9  F1  UNL     1      17.120 -15.981  21.810  1.00  0.00    -0.203 F 
BRANCH   3  10
HETATM   10  O1  UNL     1      16.093 -12.757  18.479  1.00  0.00    -0.355 OA
HETATM   11  C1  UNL     1      16.381 -12.251  17.211  1.00  0.00     0.210 C 
ENDBRANCH   3  10
BRANCH   7  12
HETATM   12  N1  UNL     1      19.750 -15.045  21.917  1.00  0.00    -0.111 N 
HETATM   13  O2  UNL     1      20.394 -16.034  21.551  1.00  0.00    -0.532 OA
HETATM   14  O3  UNL     1      19.968 -14.518  23.155  1.00  0.00    -0.532 OA
ENDBRANCH   7  12
ENDBRANCH   1   2
BRANCH   1  15
HETATM   15  O4  UNL     1      14.789 -14.989  18.700  1.00  0.00    -0.364 OA
ATOM     16  H4  UNL     1      13.857 -14.827  18.608  1.00  0.00     0.212 HD
ENDBRANCH   1  15
BRANCH   1  17
HETATM   17  N2  UNL     1      14.212 -13.993  20.655  1.00  0.00     0.131 N 
HETATM   18  C9  UNL     1      12.928 -14.110  20.031  1.00  0.00     0.230 C 
HETATM   19  C10 UNL     1      12.323 -15.362  20.679  1.00  0.00     0.038 C 
HETATM   20  C18 UNL     1      12.040 -12.954  20.386  1.00  0.00     0.076 C 
HETATM   21  C11 UNL     1      12.788 -15.210  22.105  1.00  0.00     0.038 C 
HETATM   22  C12 UNL     1      13.921 -14.186  22.029  1.00  0.00     0.230 C 
HETATM   23  C13 UNL     1      13.331 -12.885  22.553  1.00  0.00     0.076 C 
HETATM   24  C14 UNL     1      12.488 -12.171  21.572  1.00  0.00     0.086 C 
BRANCH  24  25
HETATM   25  C15 UNL     1      13.295 -10.977  21.038  1.00  0.00     0.202 C 
BRANCH  25  26
HETATM   26  O5  UNL     1      12.616 -10.366  19.989  1.00  0.00    -0.398 OA
ATOM     27  H5  UNL     1      12.532  -9.433  20.149  1.00  0.00     0.209 HD
ENDBRANCH  25  26
ENDBRANCH  24  25
BRANCH  24  28
HETATM   28  O6  UNL     1      11.332 -11.717  22.219  1.00  0.00    -0.376 OA
BRANCH  28  29
HETATM   29  C16 UNL     1      11.309 -11.988  23.561  1.00  0.00     0.200 C 
BRANCH  29  30
HETATM   30  C17 UNL     1      11.159 -10.667  24.290  1.00  0.00     0.248 C 
HETATM   31  F2  UNL     1      12.235  -9.827  24.051  1.00  0.00    -0.253 F 
ENDBRANCH  29  30
ENDBRANCH  28  29
ENDBRANCH  24  28
ENDBRANCH   1  17
TORSDOF 10
ENDMDL
MODEL 4
REMARK VINA RESULT: -6.763355634      4.364      6.263
REMARK  10 active torsions:
REMARK  status: ('A' for Active; 'I' for Inactive)
REMARK    1  A    between atoms: O1_2  and  C2_3 
REMARK    2  A    between atoms: C5_7  and  N1_8 
REMARK    3  A    between atoms: C7_13  and  C8_14 
REMARK    4  A    between atoms: C8_14  and  O4_15 
REMARK    5  A    between atoms: C8_14  and  N2_17 
REMARK    6  A    between atoms: C14_23  and  C15_24 
REMARK    7  A    between atoms: C14_23  and  O6_27 
REMARK    8  A    between atoms: C15_24  and  O5_25 
REMARK    9  A    between atoms: O6_27  and  C16_28 
REMARK   10  A    between atoms: C16_28  and  C17_29 
ROOT
HETATM    1  C8  UNL     1      13.958 -15.472  18.921  1.00  0.00     0.398 C 
ENDROOT
BRANCH   1   2
HETATM    2  C7  UNL     1      14.635 -14.874  17.778  1.00  0.00     0.075 A 
HETATM    3  C2  UNL     1      15.251 -15.678  16.845  1.00  0.00     0.083 A 
HETATM    4  C3  UNL     1      15.908 -15.149  15.742  1.00  0.00     0.064 A 
HETATM    5  C4  UNL     1      15.960 -13.787  15.549  1.00  0.00     0.072 A 
HETATM    6 CL1  UNL     1      16.786 -13.082  14.158  1.00  0.00    -0.082 Cl
HETATM    7  C5  UNL     1      15.349 -12.967  16.473  1.00  0.00     0.163 A 
HETATM    8  C6  UNL     1      14.691 -13.514  17.580  1.00  0.00     0.164 A 
HETATM    9  F1  UNL     1      14.098 -12.661  18.473  1.00  0.00    -0.203 F 
BRANCH   3  10
HETATM   10  O1  UNL     1      15.217 -17.036  17.008  1.00  0.00    -0.355 OA
HETATM   11  C1  UNL     1      15.286 -17.994  15.995  1.00  0.00     0.210 C 
ENDBRANCH   3  10
BRANCH   7  12
HETATM   12  N1  UNL     1      15.413 -11.574  16.261  1.00  0.00    -0.111 N 
HETATM   13  O2  UNL     1      16.391 -10.940  16.672  1.00  0.00    -0.532 OA
HETATM   14  O3  UNL     1      14.411 -10.920  15.609  1.00  0.00    -0.532 OA
ENDBRANCH   7  12
ENDBRANCH   1   2
BRANCH   1  15
HETATM   15  O4  UNL     1      12.706 -16.009  18.524  1.00  0.00    -0.364 OA
ATOM     16  H4  UNL     1      12.041 -15.805  19.170  1.00  0.00     0.212 HD
ENDBRANCH   1  15
BRANCH   1  17
HETATM   17  N2  UNL     1      13.679 -14.585  19.998  1.00  0.00     0.131 N 
HETATM   18  C9  UNL     1      12.308 -14.648  20.408  1.00  0.00     0.230 C 
HETATM   19  C10 UNL     1      12.258 -15.879  21.321  1.00  0.00     0.038 C 
HETATM   20  C18 UNL     1      11.933 -13.460  21.245  1.00  0.00     0.076 C 
HETATM   21  C11 UNL     1      13.569 -15.756  22.054  1.00  0.00     0.038 C 
HETATM   22  C12 UNL     1      14.387 -14.777  21.210  1.00  0.00     0.230 C 
HETATM   23  C13 UNL     1      14.351 -13.457  21.968  1.00  0.00     0.076 C 
HETATM   24  C14 UNL     1      13.092 -12.704  21.799  1.00  0.00     0.086 C 
BRANCH  24  25
HETATM   25  C15 UNL     1      13.366 -11.539  20.836  1.00  0.00     0.202 C 
BRANCH  25  26
HETATM   26  O5  UNL     1      14.450 -10.788  21.279  1.00  0.00    -0.398 OA
ATOM     27  H5  UNL     1      15.028 -10.583  20.554  1.00  0.00     0.209 HD
ENDBRANCH  25  26
ENDBRANCH  24  25
BRANCH  24  28
HETATM   28  O6  UNL     1      12.694 -12.209  23.047  1.00  0.00    -0.376 OA
BRANCH  28  29
HETATM   29  C16 UNL     1      11.412 -11.727  23.064  1.00  0.00     0.200 C 
BRANCH  29  30
HETATM   30  C17 UNL     1      11.253 -10.902  24.327  1.00  0.00     0.248 C 
HETATM   31  F2  UNL     1      10.769 -11.666  25.377  1.00  0.00    -0.253 F 
ENDBRANCH  29  30
ENDBRANCH  28  29
ENDBRANCH  24  28
ENDBRANCH   1  17
TORSDOF 10
ENDMDL
MODEL 5
REMARK VINA RESULT: -6.739230493      2.219      3.092
REMARK  10 active torsions:
REMARK  status: ('A' for Active; 'I' for Inactive)
REMARK    1  A    between atoms: O1_2  and  C2_3 
REMARK    2  A    between atoms: C5_7  and  N1_8 
REMARK    3  A    between atoms: C7_13  and  C8_14 
REMARK    4  A    between atoms: C8_14  and  O4_15 
REMARK    5  A    between atoms: C8_14  and  N2_17 
REMARK    6  A    between atoms: C14_23  and  C15_24 
REMARK    7  A    between atoms: C14_23  and  O6_27 
REMARK    8  A    between atoms: C15_24  and  O5_25 
REMARK    9  A    between atoms: O6_27  and  C16_28 
REMARK   10  A    between atoms: C16_28  and  C17_29 
ROOT
HETATM    1  C8  UNL     1      14.813 -13.947  21.192  1.00  0.00     0.398 C 
ENDROOT
BRANCH   1   2
HETATM    2  C7  UNL     1      16.203 -13.761  20.799  1.00  0.00     0.075 A 
HETATM    3  C2  UNL     1      16.513 -12.970  19.714  1.00  0.00     0.083 A 
HETATM    4  C3  UNL     1      17.823 -12.767  19.305  1.00  0.00     0.064 A 
HETATM    5  C4  UNL     1      18.865 -13.358  19.983  1.00  0.00     0.072 A 
HETATM    6 CL1  UNL     1      20.543 -13.121  19.491  1.00  0.00    -0.082 Cl
HETATM    7  C5  UNL     1      18.575 -14.153  21.072  1.00  0.00     0.163 A 
HETATM    8  C6  UNL     1      17.248 -14.348  21.473  1.00  0.00     0.164 A 
HETATM    9  F1  UNL     1      17.007 -15.146  22.560  1.00  0.00    -0.203 F 
BRANCH   3  10
HETATM   10  O1  UNL     1      15.499 -12.368  19.018  1.00  0.00    -0.355 OA
HETATM   11  C1  UNL     1      15.050 -12.716  17.743  1.00  0.00     0.210 C 
ENDBRANCH   3  10
BRANCH   7  12
HETATM   12  N1  UNL     1      19.653 -14.752  21.756  1.00  0.00    -0.111 N 
HETATM   13  O2  UNL     1      20.065 -14.244  22.804  1.00  0.00    -0.532 OA
HETATM   14  O3  UNL     1      20.244 -15.882  21.275  1.00  0.00    -0.532 OA
ENDBRANCH   7  12
ENDBRANCH   1   2
BRANCH   1  15
HETATM   15  O4  UNL     1      14.642 -13.616  22.561  1.00  0.00    -0.364 OA
ATOM     16  H4  UNL     1      13.720 -13.629  22.789  1.00  0.00     0.212 HD
ENDBRANCH   1  15
BRANCH   1  17
HETATM   17  N2  UNL     1      14.309 -15.268  21.043  1.00  0.00     0.131 N 
HETATM   18  C9  UNL     1      12.958 -15.387  21.503  1.00  0.00     0.230 C 
HETATM   19  C10 UNL     1      12.127 -14.865  20.324  1.00  0.00     0.038 C 
HETATM   20  C18 UNL     1      12.575 -16.822  21.714  1.00  0.00     0.076 C 
HETATM   21  C11 UNL     1      12.891 -15.428  19.152  1.00  0.00     0.038 C 
HETATM   22  C12 UNL     1      14.253 -15.809  19.734  1.00  0.00     0.230 C 
HETATM   23  C13 UNL     1      14.227 -17.325  19.872  1.00  0.00     0.076 C 
HETATM   24  C14 UNL     1      13.478 -17.806  21.051  1.00  0.00     0.086 C 
BRANCH  24  25
HETATM   25  C15 UNL     1      14.500 -18.254  22.108  1.00  0.00     0.202 C 
BRANCH  25  26
HETATM   26  O5  UNL     1      14.091 -17.855  23.376  1.00  0.00    -0.398 OA
ATOM     27  H5  UNL     1      13.174 -18.061  23.507  1.00  0.00     0.209 HD
ENDBRANCH  25  26
ENDBRANCH  24  25
BRANCH  24  28
HETATM   28  O6  UNL     1      12.682 -18.891  20.666  1.00  0.00    -0.376 OA
BRANCH  28  29
HETATM   29  C16 UNL     1      11.338 -18.633  20.715  1.00  0.00     0.200 C 
BRANCH  29  30
HETATM   30  C17 UNL     1      10.813 -18.679  19.293  1.00  0.00     0.248 C 
HETATM   31  F2  UNL     1      10.043 -17.565  18.997  1.00  0.00    -0.253 F 
ENDBRANCH  29  30
ENDBRANCH  28  29
ENDBRANCH  24  28
ENDBRANCH   1  17
TORSDOF 10
ENDMDL
